# generated using pymatgen
data_YZr7Nb12ZnGe15
_symmetry_space_group_name_H-M   'P 1'
_cell_length_a   6.88533105
_cell_length_b   7.02962225
_cell_length_c   13.37565340
_cell_angle_alpha   90.08701025
_cell_angle_beta   89.90477365
_cell_angle_gamma   90.14605549
_symmetry_Int_Tables_number   1
_chemical_formula_structural   YZr7Nb12ZnGe15
_chemical_formula_sum   'Y1 Zr7 Nb12 Zn1 Ge15'
_cell_volume   647.39495673
_cell_formula_units_Z   1
loop_
 _symmetry_equiv_pos_site_id
 _symmetry_equiv_pos_as_xyz
  1  'x, y, z'
loop_
 _atom_site_type_symbol
 _atom_site_label
 _atom_site_symmetry_multiplicity
 _atom_site_fract_x
 _atom_site_fract_y
 _atom_site_fract_z
 _atom_site_occupancy
  Y  Y0  1  0.993899  0.173602  0.091194  1
  Zr  Zr1  1  0.492969  0.326168  0.091642  1
  Zr  Zr2  1  0.989279  0.175795  0.408607  1
  Zr  Zr3  1  0.508239  0.675518  0.591092  1
  Zr  Zr4  1  0.009392  0.822162  0.904834  1
  Zr  Zr5  1  0.508707  0.676152  0.907010  1
  Zr  Zr6  1  0.009237  0.825443  0.592848  1
  Zr  Zr7  1  0.490780  0.324597  0.409821  1
  Nb  Nb8  1  0.660939  0.011619  0.749058  1
  Nb  Nb9  1  0.164148  0.488664  0.749341  1
  Nb  Nb10  1  0.337306  0.990421  0.251571  1
  Nb  Nb11  1  0.835604  0.509640  0.252103  1
  Nb  Nb12  1  0.840651  0.331462  0.624350  1
  Nb  Nb13  1  0.339119  0.168156  0.874007  1
  Nb  Nb14  1  0.161571  0.665841  0.125371  1
  Nb  Nb15  1  0.659688  0.831843  0.376273  1
  Nb  Nb16  1  0.161005  0.666367  0.376829  1
  Nb  Nb17  1  0.658982  0.831363  0.125639  1
  Nb  Nb18  1  0.837540  0.334227  0.873969  1
  Nb  Nb19  1  0.339877  0.168388  0.625567  1
  Zn  Zn20  1  0.800983  0.649597  0.748742  1
  Ge  Ge21  1  0.305721  0.850259  0.749413  1
  Ge  Ge22  1  0.197069  0.352609  0.252073  1
  Ge  Ge23  1  0.692808  0.148489  0.251112  1
  Ge  Ge24  1  0.543016  0.391855  0.749354  1
  Ge  Ge25  1  0.036116  0.111870  0.750205  1
  Ge  Ge26  1  0.461670  0.613210  0.250731  1
  Ge  Ge27  1  0.961312  0.883589  0.251607  1
  Ge  Ge28  1  0.681249  0.037349  0.540771  1
  Ge  Ge29  1  0.181838  0.464628  0.957625  1
  Ge  Ge30  1  0.325813  0.957590  0.038551  1
  Ge  Ge31  1  0.818749  0.539737  0.461575  1
  Ge  Ge32  1  0.318529  0.962247  0.460761  1
  Ge  Ge33  1  0.817517  0.542668  0.038123  1
  Ge  Ge34  1  0.678240  0.035787  0.957277  1
  Ge  Ge35  1  0.180441  0.461089  0.540950  1
