# generated using pymatgen
data_LuTh2(Ga2Ni3)3
_symmetry_space_group_name_H-M   'P 1'
_cell_length_a   8.89461300
_cell_length_b   8.89461378
_cell_length_c   4.09050700
_cell_angle_alpha   90.00000000
_cell_angle_beta   90.00000000
_cell_angle_gamma   119.99999339
_symmetry_Int_Tables_number   1
_chemical_formula_structural   LuTh2(Ga2Ni3)3
_chemical_formula_sum   'Lu1 Th2 Ga6 Ni9'
_cell_volume   280.26053875
_cell_formula_units_Z   1
loop_
 _symmetry_equiv_pos_site_id
 _symmetry_equiv_pos_as_xyz
  1  'x, y, z'
loop_
 _atom_site_type_symbol
 _atom_site_label
 _atom_site_symmetry_multiplicity
 _atom_site_fract_x
 _atom_site_fract_y
 _atom_site_fract_z
 _atom_site_occupancy
  Lu  Lu0  1  0.000000  0.000000  0.000000  1
  Th  Th1  1  0.666667  0.333333  0.500000  1
  Th  Th2  1  0.333333  0.666667  0.500000  1
  Ga  Ga3  1  0.472637  0.472637  0.000000  1
  Ga  Ga4  1  0.527363  0.000000  0.000000  1
  Ga  Ga5  1  0.000000  0.527363  0.000000  1
  Ga  Ga6  1  0.738634  0.738634  0.500000  1
  Ga  Ga7  1  0.261366  0.000000  0.500000  1
  Ga  Ga8  1  0.000000  0.261366  0.500000  1
  Ni  Ni9  1  0.833026  0.203393  0.000000  1
  Ni  Ni10  1  0.796607  0.629633  0.000000  1
  Ni  Ni11  1  0.370367  0.166974  0.000000  1
  Ni  Ni12  1  0.203393  0.833026  0.000000  1
  Ni  Ni13  1  0.629633  0.796607  0.000000  1
  Ni  Ni14  1  0.166974  0.370367  0.000000  1
  Ni  Ni15  1  0.290966  0.290966  0.500000  1
  Ni  Ni16  1  0.709034  0.000000  0.500000  1
  Ni  Ni17  1  0.000000  0.709034  0.500000  1
