# generated using pymatgen
data_Hf8Ta4Ti5Nb3Si15Ge
_symmetry_space_group_name_H-M   'P 1'
_cell_length_a   6.67025700
_cell_length_b   6.86421703
_cell_length_c   13.08397900
_cell_angle_alpha   90.00000000
_cell_angle_beta   90.00000000
_cell_angle_gamma   89.99487493
_symmetry_Int_Tables_number   1
_chemical_formula_structural   Hf8Ta4Ti5Nb3Si15Ge
_chemical_formula_sum   'Hf8 Ta4 Ti5 Nb3 Si15 Ge1'
_cell_volume   599.06425960
_cell_formula_units_Z   1
loop_
 _symmetry_equiv_pos_site_id
 _symmetry_equiv_pos_as_xyz
  1  'x, y, z'
loop_
 _atom_site_type_symbol
 _atom_site_label
 _atom_site_symmetry_multiplicity
 _atom_site_fract_x
 _atom_site_fract_y
 _atom_site_fract_z
 _atom_site_occupancy
  Hf  Hf0  1  0.494853  0.673109  0.595095  1
  Hf  Hf1  1  0.995383  0.827126  0.905405  1
  Hf  Hf2  1  0.502768  0.327450  0.094007  1
  Hf  Hf3  1  0.007175  0.170667  0.407745  1
  Hf  Hf4  1  0.501017  0.326946  0.406429  1
  Hf  Hf5  1  0.005321  0.170898  0.092303  1
  Hf  Hf6  1  0.497026  0.674157  0.905375  1
  Hf  Hf7  1  0.997158  0.825831  0.594633  1
  Ta  Ta8  1  0.836819  0.495640  0.749258  1
  Ta  Ta9  1  0.336889  0.004886  0.750101  1
  Ta  Ta10  1  0.166311  0.506426  0.249609  1
  Ta  Ta11  1  0.662029  0.992079  0.250733  1
  Ti  Ti12  1  0.663295  0.171262  0.624272  1
  Ti  Ti13  1  0.164217  0.328405  0.875563  1
  Ti  Ti14  1  0.335665  0.828454  0.124374  1
  Ti  Ti15  1  0.835474  0.672725  0.375906  1
  Ti  Ti16  1  0.336209  0.829816  0.375606  1
  Nb  Nb17  1  0.836495  0.672898  0.123518  1
  Nb  Nb18  1  0.663396  0.171258  0.876122  1
  Nb  Nb19  1  0.163974  0.328720  0.623540  1
  Si  Si20  1  0.670353  0.963317  0.462507  1
  Si  Si21  1  0.173273  0.536647  0.036737  1
  Si  Si22  1  0.325878  0.036171  0.962787  1
  Si  Si23  1  0.826055  0.463771  0.536725  1
  Si  Si24  1  0.331447  0.034556  0.537139  1
  Si  Si25  1  0.831985  0.463351  0.961115  1
  Si  Si26  1  0.667706  0.963708  0.038997  1
  Si  Si27  1  0.169861  0.540908  0.460415  1
  Si  Si28  1  0.460247  0.384842  0.749840  1
  Si  Si29  1  0.960447  0.115341  0.749809  1
  Si  Si30  1  0.536856  0.619220  0.251459  1
  Si  Si31  1  0.041678  0.884597  0.251622  1
  Si  Si32  1  0.703779  0.862562  0.748402  1
  Si  Si33  1  0.203417  0.638089  0.751345  1
  Si  Si34  1  0.296950  0.136764  0.250107  1
  Ge  Ge35  1  0.798591  0.357401  0.251399  1
