# generated using pymatgen
data_YCuPd5O8
_symmetry_space_group_name_H-M   'P 1'
_cell_length_a   6.83432571
_cell_length_b   6.83432636
_cell_length_c   6.80185400
_cell_angle_alpha   60.15704006
_cell_angle_beta   60.15703695
_cell_angle_gamma   59.17751249
_symmetry_Int_Tables_number   1
_chemical_formula_structural   YCuPd5O8
_chemical_formula_sum   'Y1 Cu1 Pd5 O8'
_cell_volume   223.74096121
_cell_formula_units_Z   1
loop_
 _symmetry_equiv_pos_site_id
 _symmetry_equiv_pos_as_xyz
  1  'x, y, z'
loop_
 _atom_site_type_symbol
 _atom_site_label
 _atom_site_symmetry_multiplicity
 _atom_site_fract_x
 _atom_site_fract_y
 _atom_site_fract_z
 _atom_site_occupancy
  Y  Y0  1  0.000000  0.000000  0.000000  1
  Cu  Cu1  1  0.000000  0.000000  0.500000  1
  Pd  Pd2  1  0.500000  0.000000  0.000000  1
  Pd  Pd3  1  0.000000  0.500000  0.000000  1
  Pd  Pd4  1  0.500000  0.500000  0.000000  1
  Pd  Pd5  1  0.000000  0.500000  0.500000  1
  Pd  Pd6  1  0.500000  0.000000  0.500000  1
  O  O7  1  0.134566  0.134566  0.571691  1
  O  O8  1  0.138099  0.582429  0.139736  1
  O  O9  1  0.582429  0.138099  0.139736  1
  O  O10  1  0.861901  0.417571  0.860264  1
  O  O11  1  0.134566  0.134566  0.159178  1
  O  O12  1  0.865434  0.865434  0.840822  1
  O  O13  1  0.865434  0.865434  0.428309  1
  O  O14  1  0.417571  0.861901  0.860264  1
