# generated using pymatgen
data_Li4Yb3ErSi8
_symmetry_space_group_name_H-M   'P 1'
_cell_length_a   3.78717300
_cell_length_b   7.79609401
_cell_length_c   10.43452183
_cell_angle_alpha   90.22178470
_cell_angle_beta   90.00000000
_cell_angle_gamma   90.00000000
_symmetry_Int_Tables_number   1
_chemical_formula_structural   Li4Yb3ErSi8
_chemical_formula_sum   'Li4 Yb3 Er1 Si8'
_cell_volume   308.07858440
_cell_formula_units_Z   1
loop_
 _symmetry_equiv_pos_site_id
 _symmetry_equiv_pos_as_xyz
  1  'x, y, z'
loop_
 _atom_site_type_symbol
 _atom_site_label
 _atom_site_symmetry_multiplicity
 _atom_site_fract_x
 _atom_site_fract_y
 _atom_site_fract_z
 _atom_site_occupancy
  Li  Li0  1  0.250000  0.990268  0.389681  1
  Li  Li1  1  0.250000  0.498933  0.108335  1
  Li  Li2  1  0.750000  0.003044  0.608689  1
  Li  Li3  1  0.750000  0.503743  0.889248  1
  Yb  Yb4  1  0.250000  0.137858  0.866218  1
  Yb  Yb5  1  0.250000  0.634539  0.634478  1
  Yb  Yb6  1  0.750000  0.864470  0.136446  1
  Er  Er7  1  0.750000  0.369847  0.366434  1
  Si  Si8  1  0.250000  0.233772  0.561895  1
  Si  Si9  1  0.250000  0.735603  0.931740  1
  Si  Si10  1  0.750000  0.758281  0.432578  1
  Si  Si11  1  0.750000  0.271606  0.073637  1
  Si  Si12  1  0.250000  0.654722  0.322000  1
  Si  Si13  1  0.250000  0.167175  0.183565  1
  Si  Si14  1  0.750000  0.337732  0.672150  1
  Si  Si15  1  0.750000  0.838410  0.822908  1
