# generated using pymatgen
data_Ce3Y3(Er2Ir3)2
_symmetry_space_group_name_H-M   'P 1'
_cell_length_a   11.02613243
_cell_length_b   11.00208600
_cell_length_c   6.30167628
_cell_angle_alpha   90.00000000
_cell_angle_beta   90.33665565
_cell_angle_gamma   90.00000000
_symmetry_Int_Tables_number   1
_chemical_formula_structural   Ce3Y3(Er2Ir3)2
_chemical_formula_sum   'Ce6 Y6 Er8 Ir12'
_cell_volume   764.44603509
_cell_formula_units_Z   2
loop_
 _symmetry_equiv_pos_site_id
 _symmetry_equiv_pos_as_xyz
  1  'x, y, z'
loop_
 _atom_site_type_symbol
 _atom_site_label
 _atom_site_symmetry_multiplicity
 _atom_site_fract_x
 _atom_site_fract_y
 _atom_site_fract_z
 _atom_site_occupancy
  Ce  Ce0  1  0.409096  0.792675  0.385602  1
  Ce  Ce1  1  0.409096  0.207325  0.885602  1
  Ce  Ce2  1  0.207381  0.408488  0.615728  1
  Ce  Ce3  1  0.207381  0.591512  0.115728  1
  Ce  Ce4  1  0.793433  0.408662  0.118068  1
  Ce  Ce5  1  0.793433  0.591338  0.618068  1
  Y  Y6  1  0.288231  0.089072  0.376462  1
  Y  Y7  1  0.288231  0.910928  0.876462  1
  Y  Y8  1  0.711319  0.086420  0.876569  1
  Y  Y9  1  0.711319  0.913580  0.376569  1
  Y  Y10  1  0.589769  0.791272  0.880130  1
  Y  Y11  1  0.589769  0.208728  0.380130  1
  Er  Er12  1  0.913012  0.712698  0.120690  1
  Er  Er13  1  0.913012  0.287302  0.620690  1
  Er  Er14  1  0.085989  0.712321  0.619943  1
  Er  Er15  1  0.085989  0.287679  0.119943  1
  Er  Er16  1  0.000506  0.000922  0.496819  1
  Er  Er17  1  0.000506  0.999078  0.996819  1
  Er  Er18  1  0.500710  0.502080  0.005102  1
  Er  Er19  1  0.500710  0.497920  0.505102  1
  Ir  Ir20  1  0.850864  0.154749  0.245730  1
  Ir  Ir21  1  0.850864  0.845251  0.745730  1
  Ir  Ir22  1  0.151277  0.153951  0.749865  1
  Ir  Ir23  1  0.151277  0.846049  0.249865  1
  Ir  Ir24  1  0.656446  0.347855  0.760114  1
  Ir  Ir25  1  0.656446  0.652145  0.260114  1
  Ir  Ir26  1  0.344120  0.347524  0.248216  1
  Ir  Ir27  1  0.344120  0.652476  0.748216  1
  Ir  Ir28  1  0.498223  0.998949  0.122324  1
  Ir  Ir29  1  0.498223  0.001051  0.622324  1
  Ir  Ir30  1  0.999623  0.500808  0.878636  1
  Ir  Ir31  1  0.999623  0.499192  0.378636  1
