# generated using pymatgen
data_Li3Nd3Si4Ag
_symmetry_space_group_name_H-M   'P 1'
_cell_length_a   8.36387129
_cell_length_b   8.34156121
_cell_length_c   8.34156221
_cell_angle_alpha   149.45807371
_cell_angle_beta   131.68950179
_cell_angle_gamma   58.21581904
_symmetry_Int_Tables_number   1
_chemical_formula_structural   Li3Nd3Si4Ag
_chemical_formula_sum   'Li3 Nd3 Si4 Ag1'
_cell_volume   219.21142392
_cell_formula_units_Z   1
loop_
 _symmetry_equiv_pos_site_id
 _symmetry_equiv_pos_as_xyz
  1  'x, y, z'
loop_
 _atom_site_type_symbol
 _atom_site_label
 _atom_site_symmetry_multiplicity
 _atom_site_fract_x
 _atom_site_fract_y
 _atom_site_fract_z
 _atom_site_occupancy
  Li  Li0  1  0.518984  0.828810  0.690174  1
  Li  Li1  1  0.861640  0.169311  0.692329  1
  Li  Li2  1  0.139892  0.829425  0.310467  1
  Nd  Nd3  1  0.870175  0.369979  0.500195  1
  Nd  Nd4  1  0.123978  0.631101  0.492877  1
  Nd  Nd5  1  0.499801  0.501136  0.998665  1
  Si  Si6  1  0.823077  0.999322  0.823755  1
  Si  Si7  1  0.176051  0.000295  0.175756  1
  Si  Si8  1  0.285736  0.287280  0.998455  1
  Si  Si9  1  0.718506  0.713610  0.004896  1
  Ag  Ag10  1  0.482161  0.169730  0.312431  1
