# generated using pymatgen
data_La5InGeRu3
_symmetry_space_group_name_H-M   'P 1'
_cell_length_a   8.72242896
_cell_length_b   8.72242857
_cell_length_c   8.70313698
_cell_angle_alpha   109.74036795
_cell_angle_beta   109.37161372
_cell_angle_gamma   109.39193718
_symmetry_Int_Tables_number   1
_chemical_formula_structural   La5InGeRu3
_chemical_formula_sum   'La10 In2 Ge2 Ru6'
_cell_volume   509.14305435
_cell_formula_units_Z   2
loop_
 _symmetry_equiv_pos_site_id
 _symmetry_equiv_pos_as_xyz
  1  'x, y, z'
loop_
 _atom_site_type_symbol
 _atom_site_label
 _atom_site_symmetry_multiplicity
 _atom_site_fract_x
 _atom_site_fract_y
 _atom_site_fract_z
 _atom_site_occupancy
  La  La0  1  0.260407  0.697387  0.447115  1
  La  La1  1  0.750272  0.813292  0.052886  1
  La  La2  1  0.443132  0.249253  0.688231  1
  La  La3  1  0.681796  0.431797  0.250000  1
  La  La4  1  0.061022  0.754901  0.811769  1
  La  La5  1  0.797646  0.047646  0.750000  1
  La  La6  1  0.218926  0.219588  0.219486  1
  La  La7  1  0.500103  0.999440  0.280514  1
  La  La8  1  0.296317  0.499237  0.999775  1
  La  La9  1  0.999462  0.296542  0.500226  1
  In  In10  1  0.913379  0.499134  0.002839  1
  In  In11  1  0.996294  0.910540  0.497162  1
  Ge  Ge12  1  0.498166  0.998921  0.904815  1
  Ge  Ge13  1  0.594106  0.593351  0.595185  1
  Ru  Ru14  1  0.262036  0.123135  0.887350  1
  Ru  Ru15  1  0.735785  0.374684  0.612649  1
  Ru  Ru16  1  0.858935  0.233699  0.127239  1
  Ru  Ru17  1  0.139420  0.889420  0.250001  1
  Ru  Ru18  1  0.606458  0.731695  0.372760  1
  Ru  Ru19  1  0.386338  0.636338  0.750000  1
