# generated using pymatgen
data_Sr6Er3Sc(GeO4)6
_symmetry_space_group_name_H-M   'P 1'
_cell_length_a   11.37544885
_cell_length_b   11.35323110
_cell_length_c   11.36338200
_cell_angle_alpha   109.40862227
_cell_angle_beta   109.49001307
_cell_angle_gamma   109.45388662
_symmetry_Int_Tables_number   1
_chemical_formula_structural   Sr6Er3Sc(GeO4)6
_chemical_formula_sum   'Sr12 Er6 Sc2 Ge12 O48'
_cell_volume   1130.57879323
_cell_formula_units_Z   2
loop_
 _symmetry_equiv_pos_site_id
 _symmetry_equiv_pos_as_xyz
  1  'x, y, z'
loop_
 _atom_site_type_symbol
 _atom_site_label
 _atom_site_symmetry_multiplicity
 _atom_site_fract_x
 _atom_site_fract_y
 _atom_site_fract_z
 _atom_site_occupancy
  Sr  Sr0  1  0.243545  0.371772  0.121772  1
  Sr  Sr1  1  0.756455  0.628228  0.878228  1
  Sr  Sr2  1  0.748947  0.124474  0.374474  1
  Sr  Sr3  1  0.123392  0.246590  0.371580  1
  Sr  Sr4  1  0.371154  0.747208  0.124523  1
  Sr  Sr5  1  0.251053  0.875526  0.625526  1
  Sr  Sr6  1  0.876608  0.753410  0.628420  1
  Sr  Sr7  1  0.628846  0.252792  0.875477  1
  Sr  Sr8  1  0.371154  0.123947  0.246632  1
  Sr  Sr9  1  0.628846  0.876053  0.753368  1
  Sr  Sr10  1  0.123392  0.376802  0.751811  1
  Sr  Sr11  1  0.876608  0.623198  0.248189  1
  Er  Er12  1  0.500000  0.000000  0.500000  1
  Er  Er13  1  0.000000  0.500000  0.500000  1
  Er  Er14  1  0.500000  0.000000  0.000000  1
  Er  Er15  1  0.500000  0.500000  0.000000  1
  Er  Er16  1  0.500000  0.500000  0.500000  1
  Er  Er17  1  0.000000  0.000000  0.500000  1
  Sc  Sc18  1  0.000000  0.000000  0.000000  1
  Sc  Sc19  1  0.000000  0.500000  0.000000  1
  Ge  Ge20  1  0.246036  0.623174  0.370445  1
  Ge  Ge21  1  0.753964  0.376826  0.629555  1
  Ge  Ge22  1  0.753964  0.877137  0.124409  1
  Ge  Ge23  1  0.375128  0.250270  0.625213  1
  Ge  Ge24  1  0.624872  0.749730  0.374787  1
  Ge  Ge25  1  0.246036  0.122863  0.875591  1
  Ge  Ge26  1  0.122308  0.751134  0.878831  1
  Ge  Ge27  1  0.877692  0.248866  0.121169  1
  Ge  Ge28  1  0.624872  0.375143  0.250085  1
  Ge  Ge29  1  0.375128  0.624857  0.749915  1
  Ge  Ge30  1  0.877692  0.128826  0.756523  1
  Ge  Ge31  1  0.122308  0.871174  0.243477  1
  O  O32  1  0.486127  0.380632  0.289515  1
  O  O33  1  0.513873  0.619368  0.710485  1
  O  O34  1  0.590198  0.195874  0.210487  1
  O  O35  1  0.912015  0.119450  0.611459  1
  O  O36  1  0.289109  0.486603  0.378062  1
  O  O37  1  0.303217  0.910718  0.289745  1
  O  O38  1  0.409802  0.804126  0.789513  1
  O  O39  1  0.087985  0.880550  0.388541  1
  O  O40  1  0.710891  0.513397  0.621938  1
  O  O41  1  0.696783  0.089282  0.710255  1
  O  O42  1  0.011841  0.311510  0.898177  1
  O  O43  1  0.200037  0.586265  0.188995  1
  O  O44  1  0.112115  0.006703  0.197693  1
  O  O45  1  0.988159  0.688490  0.101823  1
  O  O46  1  0.799963  0.413735  0.811005  1
  O  O47  1  0.887885  0.993297  0.802307  1
  O  O48  1  0.608428  0.909845  0.117043  1
  O  O49  1  0.196442  0.486669  0.605514  1
  O  O50  1  0.391572  0.090155  0.882957  1
  O  O51  1  0.803558  0.513331  0.394486  1
  O  O52  1  0.895405  0.015347  0.304617  1
  O  O53  1  0.379311  0.590531  0.894266  1
  O  O54  1  0.104595  0.984653  0.695383  1
  O  O55  1  0.620689  0.409469  0.105734  1
  O  O56  1  0.379311  0.288781  0.485045  1
  O  O57  1  0.590198  0.894324  0.379710  1
  O  O58  1  0.620689  0.711219  0.514955  1
  O  O59  1  0.409802  0.105676  0.620290  1
  O  O60  1  0.112115  0.605413  0.914421  1
  O  O61  1  0.011841  0.200330  0.113664  1
  O  O62  1  0.887885  0.394587  0.085579  1
  O  O63  1  0.988159  0.799670  0.886336  1
  O  O64  1  0.303217  0.892500  0.013473  1
  O  O65  1  0.912015  0.292566  0.300556  1
  O  O66  1  0.696783  0.107500  0.986527  1
  O  O67  1  0.087985  0.707434  0.699444  1
  O  O68  1  0.196442  0.209771  0.590928  1
  O  O69  1  0.486127  0.605496  0.196614  1
  O  O70  1  0.803558  0.790229  0.409072  1
  O  O71  1  0.513873  0.394504  0.803386  1
  O  O72  1  0.289109  0.302505  0.911047  1
  O  O73  1  0.710891  0.697495  0.088953  1
  O  O74  1  0.200037  0.113774  0.011043  1
  O  O75  1  0.799963  0.886226  0.988957  1
  O  O76  1  0.895405  0.380056  0.590787  1
  O  O77  1  0.104595  0.619944  0.409213  1
  O  O78  1  0.608428  0.198583  0.491386  1
  O  O79  1  0.391572  0.801417  0.508614  1
