# generated using pymatgen
data_Ta6ReSi5Mo5P
_symmetry_space_group_name_H-M   'P 1'
_cell_length_a   7.66991469
_cell_length_b   7.67430201
_cell_length_c   7.66982250
_cell_angle_alpha   126.46748360
_cell_angle_beta   128.45255408
_cell_angle_gamma   77.50046084
_symmetry_Int_Tables_number   1
_chemical_formula_structural   Ta6ReSi5Mo5P
_chemical_formula_sum   'Ta6 Re1 Si5 Mo5 P1'
_cell_volume   275.78024784
_cell_formula_units_Z   1
loop_
 _symmetry_equiv_pos_site_id
 _symmetry_equiv_pos_as_xyz
  1  'x, y, z'
loop_
 _atom_site_type_symbol
 _atom_site_label
 _atom_site_symmetry_multiplicity
 _atom_site_fract_x
 _atom_site_fract_y
 _atom_site_fract_z
 _atom_site_occupancy
  Ta  Ta0  1  0.549497  0.092118  0.043270  1
  Ta  Ta1  1  0.449072  0.496755  0.549019  1
  Ta  Ta2  1  0.949467  0.496663  0.046474  1
  Ta  Ta3  1  0.049591  0.093688  0.543301  1
  Ta  Ta4  1  0.752199  0.901676  0.650385  1
  Ta  Ta5  1  0.250824  0.900368  0.148487  1
  Re  Re6  1  0.375742  0.496717  0.128497  1
  Si  Si7  1  0.248748  0.496665  0.747810  1
  Si  Si8  1  0.334002  0.827471  0.493963  1
  Si  Si9  1  0.666784  0.164134  0.496413  1
  Si  Si10  1  0.833469  0.829336  0.995581  1
  Si  Si11  1  0.169026  0.165926  0.997869  1
  Mo  Mo12  1  0.503067  0.240879  0.745695  1
  Mo  Mo13  1  0.996795  0.241708  0.237386  1
  Mo  Mo14  1  0.124726  0.752761  0.621501  1
  Mo  Mo15  1  0.867062  0.496739  0.620785  1
  Mo  Mo16  1  0.630508  0.751604  0.128039  1
  P  P17  1  0.749421  0.496987  0.247725  1
