# generated using pymatgen
data_Rb2MnAs2O7
_symmetry_space_group_name_H-M   'P 1'
_cell_length_a   6.14195900
_cell_length_b   8.63939300
_cell_length_c   8.63726700
_cell_angle_alpha   90.00000000
_cell_angle_beta   90.00000000
_cell_angle_gamma   90.00000000
_symmetry_Int_Tables_number   1
_chemical_formula_structural   Rb2MnAs2O7
_chemical_formula_sum   'Rb4 Mn2 As4 O14'
_cell_volume   458.31755056
_cell_formula_units_Z   2
loop_
 _symmetry_equiv_pos_site_id
 _symmetry_equiv_pos_as_xyz
  1  'x, y, z'
loop_
 _atom_site_type_symbol
 _atom_site_label
 _atom_site_symmetry_multiplicity
 _atom_site_fract_x
 _atom_site_fract_y
 _atom_site_fract_z
 _atom_site_occupancy
  Rb  Rb0  1  0.511205  0.335669  0.164332  1
  Rb  Rb1  1  0.488795  0.835668  0.335669  1
  Rb  Rb2  1  0.488795  0.164332  0.664332  1
  Rb  Rb3  1  0.511205  0.664332  0.835668  1
  Mn  Mn4  1  0.999935  0.000000  0.000000  1
  Mn  Mn5  1  0.000065  0.500000  0.500000  1
  As  As6  1  0.039741  0.637956  0.137953  1
  As  As7  1  0.960260  0.137956  0.362048  1
  As  As8  1  0.960260  0.862044  0.637953  1
  As  As9  1  0.039741  0.362045  0.862047  1
  O  O10  1  0.150921  0.500000  0.000000  1
  O  O11  1  0.166708  0.805077  0.077940  1
  O  O12  1  0.766283  0.638860  0.138873  1
  O  O13  1  0.833382  0.077908  0.194801  1
  O  O14  1  0.166619  0.577907  0.305200  1
  O  O15  1  0.233716  0.138861  0.361127  1
  O  O16  1  0.833293  0.305078  0.422061  1
  O  O17  1  0.849078  0.000000  0.500000  1
  O  O18  1  0.833293  0.694923  0.577939  1
  O  O19  1  0.233716  0.861140  0.638872  1
  O  O20  1  0.166619  0.422093  0.694801  1
  O  O21  1  0.833382  0.922093  0.805199  1
  O  O22  1  0.766283  0.361139  0.861128  1
  O  O23  1  0.166708  0.194923  0.922061  1
