# generated using pymatgen
data_Tb9Ce(FeBi2)2
_symmetry_space_group_name_H-M   'P 1'
_cell_length_a   7.99579502
_cell_length_b   8.92276000
_cell_length_c   12.43291900
_cell_angle_alpha   90.00000000
_cell_angle_beta   89.85382593
_cell_angle_gamma   90.00000000
_symmetry_Int_Tables_number   1
_chemical_formula_structural   Tb9Ce(FeBi2)2
_chemical_formula_sum   'Tb18 Ce2 Fe4 Bi8'
_cell_volume   887.01824868
_cell_formula_units_Z   2
loop_
 _symmetry_equiv_pos_site_id
 _symmetry_equiv_pos_as_xyz
  1  'x, y, z'
loop_
 _atom_site_type_symbol
 _atom_site_label
 _atom_site_symmetry_multiplicity
 _atom_site_fract_x
 _atom_site_fract_y
 _atom_site_fract_z
 _atom_site_occupancy
  Tb  Tb0  1  0.355760  0.250000  0.695388  1
  Tb  Tb1  1  0.644240  0.750000  0.304612  1
  Tb  Tb2  1  0.387327  0.750000  0.691369  1
  Tb  Tb3  1  0.612673  0.250000  0.308631  1
  Tb  Tb4  1  0.890048  0.250000  0.820401  1
  Tb  Tb5  1  0.109952  0.750000  0.179599  1
  Tb  Tb6  1  0.946270  0.750000  0.507199  1
  Tb  Tb7  1  0.053730  0.250000  0.492801  1
  Tb  Tb8  1  0.461097  0.250000  0.999887  1
  Tb  Tb9  1  0.538903  0.750000  0.000113  1
  Tb  Tb10  1  0.677372  0.036515  0.561729  1
  Tb  Tb11  1  0.322628  0.963485  0.438271  1
  Tb  Tb12  1  0.185948  0.964739  0.933355  1
  Tb  Tb13  1  0.322628  0.536515  0.438271  1
  Tb  Tb14  1  0.814052  0.035261  0.066645  1
  Tb  Tb15  1  0.677372  0.463485  0.561729  1
  Tb  Tb16  1  0.814052  0.464739  0.066645  1
  Tb  Tb17  1  0.185948  0.535261  0.933355  1
  Ce  Ce18  1  0.860716  0.750000  0.818993  1
  Ce  Ce19  1  0.139284  0.250000  0.181007  1
  Fe  Fe20  1  0.569703  0.750000  0.511522  1
  Fe  Fe21  1  0.430297  0.250000  0.488478  1
  Fe  Fe22  1  0.073415  0.250000  0.015655  1
  Fe  Fe23  1  0.926585  0.750000  0.984345  1
  Bi  Bi24  1  0.576958  0.487838  0.825657  1
  Bi  Bi25  1  0.423042  0.512162  0.174343  1
  Bi  Bi26  1  0.072273  0.504269  0.675842  1
  Bi  Bi27  1  0.423042  0.987838  0.174343  1
  Bi  Bi28  1  0.927727  0.495731  0.324158  1
  Bi  Bi29  1  0.576958  0.012162  0.825657  1
  Bi  Bi30  1  0.927727  0.004269  0.324158  1
  Bi  Bi31  1  0.072273  0.995731  0.675842  1
