# generated using pymatgen
data_Sc2Nb3P7Rh9
_symmetry_space_group_name_H-M   'P 1'
_cell_length_a   3.88616600
_cell_length_b   9.59208321
_cell_length_c   9.59247829
_cell_angle_alpha   120.00056094
_cell_angle_beta   90.00022273
_cell_angle_gamma   89.99987697
_symmetry_Int_Tables_number   1
_chemical_formula_structural   Sc2Nb3P7Rh9
_chemical_formula_sum   'Sc2 Nb3 P7 Rh9'
_cell_volume   309.66583110
_cell_formula_units_Z   1
loop_
 _symmetry_equiv_pos_site_id
 _symmetry_equiv_pos_as_xyz
  1  'x, y, z'
loop_
 _atom_site_type_symbol
 _atom_site_label
 _atom_site_symmetry_multiplicity
 _atom_site_fract_x
 _atom_site_fract_y
 _atom_site_fract_z
 _atom_site_occupancy
  Sc  Sc0  1  0.261039  0.666677  0.333418  1
  Sc  Sc1  1  0.762011  0.333335  0.666623  1
  Nb  Nb2  1  0.762008  0.095299  0.872058  1
  Nb  Nb3  1  0.762009  0.127961  0.223214  1
  Nb  Nb4  1  0.762008  0.776713  0.904725  1
  P  P5  1  0.262182  0.999989  0.000011  1
  P  P6  1  0.761756  0.873004  0.586282  1
  P  P7  1  0.761733  0.413716  0.286683  1
  P  P8  1  0.761739  0.713306  0.127058  1
  P  P9  1  0.262016  0.119335  0.418896  1
  P  P10  1  0.262021  0.581084  0.700415  1
  P  P11  1  0.262017  0.299560  0.880656  1
  Rh  Rh12  1  0.261919  0.882486  0.163259  1
  Rh  Rh13  1  0.261920  0.836752  0.719265  1
  Rh  Rh14  1  0.261913  0.280760  0.117480  1
  Rh  Rh15  1  0.761944  0.610218  0.552982  1
  Rh  Rh16  1  0.761933  0.447000  0.057196  1
  Rh  Rh17  1  0.761944  0.942849  0.389834  1
  Rh  Rh18  1  0.261964  0.367482  0.442029  1
  Rh  Rh19  1  0.261961  0.557912  0.925395  1
  Rh  Rh20  1  0.261963  0.074565  0.632519  1
