# generated using pymatgen
data_Ce10Si2SnBi5
_symmetry_space_group_name_H-M   'P 1'
_cell_length_a   9.50988100
_cell_length_b   9.50987966
_cell_length_c   6.43473100
_cell_angle_alpha   90.00000000
_cell_angle_beta   90.00000000
_cell_angle_gamma   119.98813338
_symmetry_Int_Tables_number   1
_chemical_formula_structural   Ce10Si2SnBi5
_chemical_formula_sum   'Ce10 Si2 Sn1 Bi5'
_cell_volume   504.03773411
_cell_formula_units_Z   1
loop_
 _symmetry_equiv_pos_site_id
 _symmetry_equiv_pos_as_xyz
  1  'x, y, z'
loop_
 _atom_site_type_symbol
 _atom_site_label
 _atom_site_symmetry_multiplicity
 _atom_site_fract_x
 _atom_site_fract_y
 _atom_site_fract_z
 _atom_site_occupancy
  Ce  Ce0  1  0.662634  0.332593  0.998962  1
  Ce  Ce1  1  0.332593  0.662634  0.998962  1
  Ce  Ce2  1  0.332593  0.662634  0.501038  1
  Ce  Ce3  1  0.662634  0.332593  0.501038  1
  Ce  Ce4  1  0.748702  0.748702  0.750000  1
  Ce  Ce5  1  0.253477  0.002546  0.750000  1
  Ce  Ce6  1  0.002546  0.253477  0.750000  1
  Ce  Ce7  1  0.260204  0.260204  0.250000  1
  Ce  Ce8  1  0.743344  0.999748  0.250000  1
  Ce  Ce9  1  0.999748  0.743344  0.250000  1
  Si  Si10  1  0.001864  0.001864  0.007482  1
  Si  Si11  1  0.001864  0.001864  0.492518  1
  Sn  Sn12  1  0.387440  0.387440  0.750000  1
  Bi  Bi13  1  0.612883  0.999762  0.750000  1
  Bi  Bi14  1  0.999762  0.612883  0.750000  1
  Bi  Bi15  1  0.614996  0.614996  0.250000  1
  Bi  Bi16  1  0.384319  0.998399  0.250000  1
  Bi  Bi17  1  0.998399  0.384319  0.250000  1
