# generated using pymatgen
data_Sr4Ho5Bi3S16
_symmetry_space_group_name_H-M   'P 1'
_cell_length_a   4.00102800
_cell_length_b   12.17125862
_cell_length_c   14.61811200
_cell_angle_alpha   89.65816066
_cell_angle_beta   90.00000000
_cell_angle_gamma   90.00000000
_symmetry_Int_Tables_number   1
_chemical_formula_structural   Sr4Ho5Bi3S16
_chemical_formula_sum   'Sr4 Ho5 Bi3 S16'
_cell_volume   711.85351980
_cell_formula_units_Z   1
loop_
 _symmetry_equiv_pos_site_id
 _symmetry_equiv_pos_as_xyz
  1  'x, y, z'
loop_
 _atom_site_type_symbol
 _atom_site_label
 _atom_site_symmetry_multiplicity
 _atom_site_fract_x
 _atom_site_fract_y
 _atom_site_fract_z
 _atom_site_occupancy
  Sr  Sr0  1  0.250000  0.765849  0.339729  1
  Sr  Sr1  1  0.250000  0.260121  0.160951  1
  Sr  Sr2  1  0.750000  0.235699  0.661829  1
  Sr  Sr3  1  0.750000  0.739126  0.841654  1
  Ho  Ho4  1  0.750000  0.065432  0.885592  1
  Ho  Ho5  1  0.250000  0.417587  0.900810  1
  Ho  Ho6  1  0.250000  0.921316  0.601115  1
  Ho  Ho7  1  0.750000  0.579138  0.099803  1
  Ho  Ho8  1  0.750000  0.079680  0.399630  1
  Bi  Bi9  1  0.250000  0.434637  0.385042  1
  Bi  Bi10  1  0.250000  0.934185  0.110407  1
  Bi  Bi11  1  0.750000  0.566178  0.616398  1
  S  S12  1  0.250000  0.207818  0.826888  1
  S  S13  1  0.250000  0.716429  0.681975  1
  S  S14  1  0.750000  0.785111  0.177812  1
  S  S15  1  0.750000  0.284479  0.319461  1
  S  S16  1  0.250000  0.128300  0.524326  1
  S  S17  1  0.250000  0.626121  0.975531  1
  S  S18  1  0.750000  0.872605  0.475776  1
  S  S19  1  0.750000  0.371806  0.025149  1
  S  S20  1  0.250000  0.020410  0.286859  1
  S  S21  1  0.250000  0.516355  0.210511  1
  S  S22  1  0.750000  0.983554  0.712817  1
  S  S23  1  0.750000  0.480917  0.790222  1
  S  S24  1  0.250000  0.408304  0.582859  1
  S  S25  1  0.250000  0.914568  0.916564  1
  S  S26  1  0.750000  0.592346  0.418684  1
  S  S27  1  0.750000  0.091932  0.071600  1
