# generated using pymatgen
data_Ho7Er3Si5Pb
_symmetry_space_group_name_H-M   'P 1'
_cell_length_a   8.48128601
_cell_length_b   8.50947751
_cell_length_c   6.36045901
_cell_angle_alpha   90.00463605
_cell_angle_beta   89.99974541
_cell_angle_gamma   119.89595303
_symmetry_Int_Tables_number   1
_chemical_formula_structural   Ho7Er3Si5Pb
_chemical_formula_sum   'Ho7 Er3 Si5 Pb1'
_cell_volume   397.95876245
_cell_formula_units_Z   1
loop_
 _symmetry_equiv_pos_site_id
 _symmetry_equiv_pos_as_xyz
  1  'x, y, z'
loop_
 _atom_site_type_symbol
 _atom_site_label
 _atom_site_symmetry_multiplicity
 _atom_site_fract_x
 _atom_site_fract_y
 _atom_site_fract_z
 _atom_site_occupancy
  Ho  Ho0  1  0.987581  0.747620  0.749945  1
  Ho  Ho1  1  0.998552  0.242512  0.250074  1
  Ho  Ho2  1  0.756089  0.757400  0.250073  1
  Ho  Ho3  1  0.766828  0.000042  0.749953  1
  Ho  Ho4  1  0.239998  0.252296  0.749913  1
  Ho  Ho5  1  0.240289  0.000041  0.250069  1
  Ho  Ho6  1  0.331311  0.656567  0.003986  1
  Er  Er7  1  0.331253  0.656419  0.496027  1
  Er  Er8  1  0.674836  0.343587  0.003946  1
  Er  Er9  1  0.674831  0.343567  0.496037  1
  Si  Si10  1  0.393948  0.392318  0.250232  1
  Si  Si11  1  0.001167  0.607448  0.250196  1
  Si  Si12  1  0.998291  0.394555  0.749793  1
  Si  Si13  1  0.603951  0.605225  0.749786  1
  Si  Si14  1  0.605819  0.000183  0.250177  1
  Pb  Pb15  1  0.395258  0.000220  0.749793  1
