# generated using pymatgen
data_Hf18CuNiMo8
_symmetry_space_group_name_H-M   'P 1'
_cell_length_a   8.48862300
_cell_length_b   8.69183708
_cell_length_c   8.69183700
_cell_angle_alpha   120.00022044
_cell_angle_beta   90.00000000
_cell_angle_gamma   90.00000000
_symmetry_Int_Tables_number   1
_chemical_formula_structural   Hf18CuNiMo8
_chemical_formula_sum   'Hf18 Cu1 Ni1 Mo8'
_cell_volume   555.37977959
_cell_formula_units_Z   1
loop_
 _symmetry_equiv_pos_site_id
 _symmetry_equiv_pos_as_xyz
  1  'x, y, z'
loop_
 _atom_site_type_symbol
 _atom_site_label
 _atom_site_symmetry_multiplicity
 _atom_site_fract_x
 _atom_site_fract_y
 _atom_site_fract_z
 _atom_site_occupancy
  Hf  Hf0  1  0.553818  0.802122  0.604247  1
  Hf  Hf1  1  0.553824  0.802137  0.197863  1
  Hf  Hf2  1  0.553818  0.395753  0.197878  1
  Hf  Hf3  1  0.443293  0.200529  0.401057  1
  Hf  Hf4  1  0.443295  0.200516  0.799484  1
  Hf  Hf5  1  0.443293  0.598943  0.799471  1
  Hf  Hf6  1  0.056707  0.200529  0.401057  1
  Hf  Hf7  1  0.056705  0.200516  0.799484  1
  Hf  Hf8  1  0.056707  0.598943  0.799471  1
  Hf  Hf9  1  0.946182  0.802122  0.604247  1
  Hf  Hf10  1  0.946176  0.802137  0.197863  1
  Hf  Hf11  1  0.946182  0.395753  0.197878  1
  Hf  Hf12  1  0.750000  0.457579  0.915148  1
  Hf  Hf13  1  0.750000  0.457579  0.542421  1
  Hf  Hf14  1  0.750000  0.084852  0.542421  1
  Hf  Hf15  1  0.250000  0.542014  0.084030  1
  Hf  Hf16  1  0.250000  0.542010  0.457990  1
  Hf  Hf17  1  0.250000  0.915970  0.457986  1
  Cu  Cu18  1  0.750000  0.666675  0.333325  1
  Ni  Ni19  1  0.250000  0.333321  0.666679  1
  Mo  Mo20  1  0.750000  0.111837  0.223646  1
  Mo  Mo21  1  0.750000  0.111828  0.888172  1
  Mo  Mo22  1  0.750000  0.776354  0.888163  1
  Mo  Mo23  1  0.250000  0.888130  0.776289  1
  Mo  Mo24  1  0.250000  0.888137  0.111863  1
  Mo  Mo25  1  0.250000  0.223711  0.111870  1
  Mo  Mo26  1  0.499302  0.000000  0.000000  1
  Mo  Mo27  1  0.000698  0.000000  0.000000  1
