# generated using pymatgen
data_NdLuReB6
_symmetry_space_group_name_H-M   'P 1'
_cell_length_a   3.69784000
_cell_length_b   9.19273500
_cell_length_c   11.65720100
_cell_angle_alpha   90.00000000
_cell_angle_beta   90.00000000
_cell_angle_gamma   90.00000000
_symmetry_Int_Tables_number   1
_chemical_formula_structural   NdLuReB6
_chemical_formula_sum   'Nd4 Lu4 Re4 B24'
_cell_volume   396.26630168
_cell_formula_units_Z   4
loop_
 _symmetry_equiv_pos_site_id
 _symmetry_equiv_pos_as_xyz
  1  'x, y, z'
loop_
 _atom_site_type_symbol
 _atom_site_label
 _atom_site_symmetry_multiplicity
 _atom_site_fract_x
 _atom_site_fract_y
 _atom_site_fract_z
 _atom_site_occupancy
  Nd  Nd0  1  0.000000  0.322728  0.414378  1
  Nd  Nd1  1  0.000000  0.677272  0.585622  1
  Nd  Nd2  1  0.000000  0.822728  0.085622  1
  Nd  Nd3  1  0.000000  0.177272  0.914378  1
  Lu  Lu4  1  0.000000  0.943644  0.369696  1
  Lu  Lu5  1  0.000000  0.056356  0.630304  1
  Lu  Lu6  1  0.000000  0.443644  0.130304  1
  Lu  Lu7  1  0.000000  0.556356  0.869696  1
  Re  Re8  1  0.000000  0.640532  0.318617  1
  Re  Re9  1  0.000000  0.359468  0.681383  1
  Re  Re10  1  0.000000  0.140532  0.181383  1
  Re  Re11  1  0.000000  0.859468  0.818617  1
  B  B12  1  0.500000  0.555758  0.430114  1
  B  B13  1  0.500000  0.444242  0.569886  1
  B  B14  1  0.500000  0.055758  0.069886  1
  B  B15  1  0.500000  0.944242  0.930114  1
  B  B16  1  0.500000  0.751940  0.415999  1
  B  B17  1  0.500000  0.248060  0.584001  1
  B  B18  1  0.500000  0.251940  0.084001  1
  B  B19  1  0.500000  0.748060  0.915999  1
  B  B20  1  0.500000  0.792880  0.266179  1
  B  B21  1  0.500000  0.207120  0.733821  1
  B  B22  1  0.500000  0.292880  0.233821  1
  B  B23  1  0.500000  0.707120  0.766179  1
  B  B24  1  0.500000  0.629393  0.185717  1
  B  B25  1  0.500000  0.370607  0.814283  1
  B  B26  1  0.500000  0.129393  0.314283  1
  B  B27  1  0.500000  0.870607  0.685717  1
  B  B28  1  0.500000  0.983651  0.213882  1
  B  B29  1  0.500000  0.016349  0.786118  1
  B  B30  1  0.500000  0.483651  0.286118  1
  B  B31  1  0.500000  0.516349  0.713882  1
  B  B32  1  0.500000  0.595143  0.026084  1
  B  B33  1  0.500000  0.404857  0.973916  1
  B  B34  1  0.500000  0.095143  0.473916  1
  B  B35  1  0.500000  0.904857  0.526084  1
