# generated using pymatgen
data_Tb2Dy6Ti9Si16Tc3
_symmetry_space_group_name_H-M   'P 1'
_cell_length_a   6.97372032
_cell_length_b   6.98340985
_cell_length_c   12.88834483
_cell_angle_alpha   89.81398527
_cell_angle_beta   90.11953756
_cell_angle_gamma   89.98470076
_symmetry_Int_Tables_number   1
_chemical_formula_structural   Tb2Dy6Ti9Si16Tc3
_chemical_formula_sum   'Tb2 Dy6 Ti9 Si16 Tc3'
_cell_volume   627.66216979
_cell_formula_units_Z   1
loop_
 _symmetry_equiv_pos_site_id
 _symmetry_equiv_pos_as_xyz
  1  'x, y, z'
loop_
 _atom_site_type_symbol
 _atom_site_label
 _atom_site_symmetry_multiplicity
 _atom_site_fract_x
 _atom_site_fract_y
 _atom_site_fract_z
 _atom_site_occupancy
  Tb  Tb0  1  0.003400  0.338014  0.534526  1
  Tb  Tb1  1  0.997585  0.661384  0.030583  1
  Dy  Dy2  1  0.342639  0.000146  0.467852  1
  Dy  Dy3  1  0.498027  0.841282  0.719568  1
  Dy  Dy4  1  0.500341  0.158475  0.215755  1
  Dy  Dy5  1  0.837481  0.497228  0.282113  1
  Dy  Dy6  1  0.161562  0.501418  0.781919  1
  Dy  Dy7  1  0.658955  0.998431  0.968010  1
  Ti  Ti8  1  0.328269  0.330276  0.998802  1
  Ti  Ti9  1  0.171725  0.824597  0.247815  1
  Ti  Ti10  1  0.829321  0.173431  0.749104  1
  Ti  Ti11  1  0.669554  0.667944  0.499963  1
  Ti  Ti12  1  0.657309  0.493974  0.875381  1
  Ti  Ti13  1  0.343011  0.505589  0.375773  1
  Ti  Ti14  1  0.837967  0.993129  0.374516  1
  Ti  Ti15  1  0.004496  0.155578  0.126370  1
  Ti  Ti16  1  0.992686  0.842727  0.625885  1
  Si  Si17  1  0.204463  0.127745  0.685329  1
  Si  Si18  1  0.371677  0.705140  0.933631  1
  Si  Si19  1  0.629478  0.298410  0.437467  1
  Si  Si20  1  0.698408  0.375683  0.065456  1
  Si  Si21  1  0.304770  0.626001  0.567004  1
  Si  Si22  1  0.792506  0.869293  0.182588  1
  Si  Si23  1  0.129573  0.200330  0.315871  1
  Si  Si24  1  0.876603  0.804667  0.816137  1
  Si  Si25  1  0.288821  0.958670  0.062254  1
  Si  Si26  1  0.542039  0.789666  0.311616  1
  Si  Si27  1  0.457587  0.212030  0.813409  1
  Si  Si28  1  0.786886  0.544318  0.686432  1
  Si  Si29  1  0.210337  0.456876  0.186548  1
  Si  Si30  1  0.710399  0.043810  0.563968  1
  Si  Si31  1  0.957032  0.285933  0.936567  1
  Si  Si32  1  0.045433  0.708262  0.435909  1
  Tc  Tc33  1  0.168194  0.010947  0.874927  1
  Tc  Tc34  1  0.483582  0.661507  0.123009  1
  Tc  Tc35  1  0.507883  0.337088  0.627947  1
