# generated using pymatgen
data_PrTcF7
_symmetry_space_group_name_H-M   'P 1'
_cell_length_a   5.72127300
_cell_length_b   9.24849887
_cell_length_c   12.40496142
_cell_angle_alpha   62.10899561
_cell_angle_beta   90.00000000
_cell_angle_gamma   90.00000000
_symmetry_Int_Tables_number   1
_chemical_formula_structural   PrTcF7
_chemical_formula_sum   'Pr4 Tc4 F28'
_cell_volume   580.13963858
_cell_formula_units_Z   4
loop_
 _symmetry_equiv_pos_site_id
 _symmetry_equiv_pos_as_xyz
  1  'x, y, z'
loop_
 _atom_site_type_symbol
 _atom_site_label
 _atom_site_symmetry_multiplicity
 _atom_site_fract_x
 _atom_site_fract_y
 _atom_site_fract_z
 _atom_site_occupancy
  Pr  Pr0  1  0.758321  0.810917  0.764358  1
  Pr  Pr1  1  0.258321  0.189083  0.735642  1
  Pr  Pr2  1  0.241679  0.189083  0.235642  1
  Pr  Pr3  1  0.741679  0.810917  0.264358  1
  Tc  Tc4  1  0.755923  0.273634  0.957532  1
  Tc  Tc5  1  0.255923  0.726366  0.542468  1
  Tc  Tc6  1  0.244077  0.726366  0.042468  1
  Tc  Tc7  1  0.744077  0.273634  0.457532  1
  F  F8  1  0.435039  0.710531  0.917076  1
  F  F9  1  0.935039  0.289469  0.582924  1
  F  F10  1  0.564961  0.289469  0.082924  1
  F  F11  1  0.064961  0.710531  0.417076  1
  F  F12  1  0.453661  0.279987  0.541251  1
  F  F13  1  0.953661  0.720013  0.958749  1
  F  F14  1  0.546339  0.720013  0.458749  1
  F  F15  1  0.046339  0.279987  0.041251  1
  F  F16  1  0.768049  0.513629  0.862339  1
  F  F17  1  0.268049  0.486371  0.637661  1
  F  F18  1  0.231951  0.486371  0.137661  1
  F  F19  1  0.731951  0.513629  0.362339  1
  F  F20  1  0.758649  0.034559  0.051152  1
  F  F21  1  0.258649  0.965441  0.448848  1
  F  F22  1  0.241351  0.965441  0.948848  1
  F  F23  1  0.741351  0.034559  0.551152  1
  F  F24  1  0.972823  0.729425  0.631190  1
  F  F25  1  0.472823  0.270575  0.868810  1
  F  F26  1  0.027177  0.270575  0.368810  1
  F  F27  1  0.527177  0.729425  0.131190  1
  F  F28  1  0.057993  0.742247  0.170255  1
  F  F29  1  0.557993  0.257753  0.329745  1
  F  F30  1  0.942007  0.257753  0.829745  1
  F  F31  1  0.442007  0.742247  0.670255  1
  F  F32  1  0.406884  0.966151  0.230529  1
  F  F33  1  0.906884  0.033849  0.269471  1
  F  F34  1  0.593116  0.033849  0.769471  1
  F  F35  1  0.093116  0.966151  0.730529  1
