# generated using pymatgen
data_TbY5Co16(ReP6)2
_symmetry_space_group_name_H-M   'P 1'
_cell_length_a   3.73439000
_cell_length_b   10.53642200
_cell_length_c   12.24030300
_cell_angle_alpha   90.00000000
_cell_angle_beta   90.00000000
_cell_angle_gamma   90.00000000
_symmetry_Int_Tables_number   1
_chemical_formula_structural   TbY5Co16(ReP6)2
_chemical_formula_sum   'Tb1 Y5 Co16 Re2 P12'
_cell_volume   481.62053575
_cell_formula_units_Z   1
loop_
 _symmetry_equiv_pos_site_id
 _symmetry_equiv_pos_as_xyz
  1  'x, y, z'
loop_
 _atom_site_type_symbol
 _atom_site_label
 _atom_site_symmetry_multiplicity
 _atom_site_fract_x
 _atom_site_fract_y
 _atom_site_fract_z
 _atom_site_occupancy
  Tb  Tb0  1  0.000000  0.500000  0.524687  1
  Y  Y1  1  0.500000  0.000000  0.475324  1
  Y  Y2  1  0.500000  0.818341  0.205607  1
  Y  Y3  1  0.500000  0.181659  0.205607  1
  Y  Y4  1  0.000000  0.681673  0.794397  1
  Y  Y5  1  0.000000  0.318327  0.794397  1
  Co  Co6  1  0.500000  0.500000  0.702418  1
  Co  Co7  1  0.000000  0.000000  0.297581  1
  Co  Co8  1  0.000000  0.500000  0.988323  1
  Co  Co9  1  0.500000  0.000000  0.011676  1
  Co  Co10  1  0.500000  0.332578  0.989971  1
  Co  Co11  1  0.500000  0.667422  0.989971  1
  Co  Co12  1  0.000000  0.167425  0.010029  1
  Co  Co13  1  0.000000  0.832575  0.010029  1
  Co  Co14  1  0.500000  0.296387  0.431067  1
  Co  Co15  1  0.500000  0.703613  0.431067  1
  Co  Co16  1  0.000000  0.203602  0.568934  1
  Co  Co17  1  0.000000  0.796398  0.568934  1
  Co  Co18  1  0.500000  0.879349  0.709104  1
  Co  Co19  1  0.500000  0.120651  0.709104  1
  Co  Co20  1  0.000000  0.620651  0.290894  1
  Co  Co21  1  0.000000  0.379349  0.290894  1
  Re  Re22  1  0.500000  0.500000  0.156180  1
  Re  Re23  1  0.000000  0.000000  0.843811  1
  P  P24  1  0.500000  0.500000  0.880672  1
  P  P25  1  0.000000  0.000000  0.119334  1
  P  P26  1  0.500000  0.500000  0.348708  1
  P  P27  1  0.000000  0.000000  0.651282  1
  P  P28  1  0.500000  0.311552  0.616192  1
  P  P29  1  0.500000  0.688448  0.616192  1
  P  P30  1  0.000000  0.188431  0.383809  1
  P  P31  1  0.000000  0.811569  0.383809  1
  P  P32  1  0.500000  0.845963  0.892835  1
  P  P33  1  0.500000  0.154037  0.892835  1
  P  P34  1  0.000000  0.654038  0.107163  1
  P  P35  1  0.000000  0.345962  0.107163  1
