# generated using pymatgen
data_Lu5ScCo5
_symmetry_space_group_name_H-M   'P 1'
_cell_length_a   5.46369868
_cell_length_b   5.46369937
_cell_length_c   20.72871100
_cell_angle_alpha   90.00000000
_cell_angle_beta   90.00000000
_cell_angle_gamma   137.53198753
_symmetry_Int_Tables_number   1
_chemical_formula_structural   Lu5ScCo5
_chemical_formula_sum   'Lu10 Sc2 Co10'
_cell_volume   417.79614616
_cell_formula_units_Z   2
loop_
 _symmetry_equiv_pos_site_id
 _symmetry_equiv_pos_as_xyz
  1  'x, y, z'
loop_
 _atom_site_type_symbol
 _atom_site_label
 _atom_site_symmetry_multiplicity
 _atom_site_fract_x
 _atom_site_fract_y
 _atom_site_fract_z
 _atom_site_occupancy
  Lu  Lu0  1  0.290901  0.709099  0.250000  1
  Lu  Lu1  1  0.292062  0.707938  0.070686  1
  Lu  Lu2  1  0.993766  0.006234  0.838445  1
  Lu  Lu3  1  0.709099  0.290901  0.750000  1
  Lu  Lu4  1  0.707938  0.292062  0.570686  1
  Lu  Lu5  1  0.006234  0.993766  0.338445  1
  Lu  Lu6  1  0.993766  0.006234  0.661555  1
  Lu  Lu7  1  0.707938  0.292062  0.929314  1
  Lu  Lu8  1  0.006234  0.993766  0.161555  1
  Lu  Lu9  1  0.292062  0.707938  0.429314  1
  Sc  Sc10  1  0.000000  0.000000  0.500000  1
  Sc  Sc11  1  0.000000  0.000000  0.000000  1
  Co  Co12  1  0.289642  0.710358  0.656201  1
  Co  Co13  1  0.588580  0.411420  0.437469  1
  Co  Co14  1  0.411566  0.588434  0.750000  1
  Co  Co15  1  0.411420  0.588580  0.937469  1
  Co  Co16  1  0.588434  0.411566  0.250000  1
  Co  Co17  1  0.411420  0.588580  0.562531  1
  Co  Co18  1  0.710358  0.289642  0.343799  1
  Co  Co19  1  0.710358  0.289642  0.156201  1
  Co  Co20  1  0.588580  0.411420  0.062531  1
  Co  Co21  1  0.289642  0.710358  0.843799  1
