# generated using pymatgen
data_AgI13
_symmetry_space_group_name_H-M   'P 1'
_cell_length_a   11.50408426
_cell_length_b   13.94229976
_cell_length_c   17.12527600
_cell_angle_alpha   135.37771982
_cell_angle_beta   77.63925398
_cell_angle_gamma   112.59143784
_symmetry_Int_Tables_number   1
_chemical_formula_structural   AgI13
_chemical_formula_sum   'Ag2 I26'
_cell_volume   1773.89469962
_cell_formula_units_Z   2
loop_
 _symmetry_equiv_pos_site_id
 _symmetry_equiv_pos_as_xyz
  1  'x, y, z'
loop_
 _atom_site_type_symbol
 _atom_site_label
 _atom_site_symmetry_multiplicity
 _atom_site_fract_x
 _atom_site_fract_y
 _atom_site_fract_z
 _atom_site_occupancy
  Ag  Ag0  1  0.325846  0.862214  0.922889  1
  Ag  Ag1  1  0.674154  0.137786  0.077111  1
  I  I2  1  0.286361  0.531400  0.908861  1
  I  I3  1  0.713639  0.468600  0.091139  1
  I  I4  1  0.504859  0.753724  0.398173  1
  I  I5  1  0.495141  0.246276  0.601827  1
  I  I6  1  0.756096  0.711383  0.022838  1
  I  I7  1  0.243904  0.288617  0.977162  1
  I  I8  1  0.710839  0.970362  0.156102  1
  I  I9  1  0.289161  0.029638  0.843898  1
  I  I10  1  0.428776  0.112214  0.135814  1
  I  I11  1  0.571224  0.887786  0.864186  1
  I  I12  1  0.234327  0.618957  0.705333  1
  I  I13  1  0.765673  0.381043  0.294667  1
  I  I14  1  0.084733  0.821011  0.983574  1
  I  I15  1  0.915267  0.178989  0.016426  1
  I  I16  1  0.108625  0.121397  0.221665  1
  I  I17  1  0.891375  0.878603  0.778335  1
  I  I18  1  0.295352  0.941343  0.463727  1
  I  I19  1  0.704648  0.058657  0.536273  1
  I  I20  1  0.367576  0.423356  0.655189  1
  I  I21  1  0.632424  0.576644  0.344811  1
  I  I22  1  0.877963  0.346333  0.672356  1
  I  I23  1  0.122037  0.653667  0.327644  1
  I  I24  1  0.903143  0.610537  0.569314  1
  I  I25  1  0.096857  0.389463  0.430686  1
  I  I26  1  0.210495  0.584175  0.100122  1
  I  I27  1  0.789505  0.415825  0.899878  1
