# generated using pymatgen
data_Tm12TlFe2AgIr
_symmetry_space_group_name_H-M   'P 1'
_cell_length_a   8.21346408
_cell_length_b   8.21346422
_cell_length_c   8.21346407
_cell_angle_alpha   110.31652888
_cell_angle_beta   106.75033550
_cell_angle_gamma   111.38246952
_symmetry_Int_Tables_number   1
_chemical_formula_structural   Tm12TlFe2AgIr
_chemical_formula_sum   'Tm12 Tl1 Fe2 Ag1 Ir1'
_cell_volume   425.78160531
_cell_formula_units_Z   1
loop_
 _symmetry_equiv_pos_site_id
 _symmetry_equiv_pos_as_xyz
  1  'x, y, z'
loop_
 _atom_site_type_symbol
 _atom_site_label
 _atom_site_symmetry_multiplicity
 _atom_site_fract_x
 _atom_site_fract_y
 _atom_site_fract_z
 _atom_site_occupancy
  Tm  Tm0  1  0.194015  0.445135  0.251119  1
  Tm  Tm1  1  0.805985  0.554865  0.748881  1
  Tm  Tm2  1  0.194015  0.942896  0.748881  1
  Tm  Tm3  1  0.960474  0.191741  0.768731  1
  Tm  Tm4  1  0.805985  0.057104  0.251119  1
  Tm  Tm5  1  0.039526  0.808259  0.231269  1
  Tm  Tm6  1  0.423010  0.191741  0.231269  1
  Tm  Tm7  1  0.576990  0.808259  0.768731  1
  Tm  Tm8  1  0.309596  0.309373  0.618970  1
  Tm  Tm9  1  0.690404  0.690627  0.381030  1
  Tm  Tm10  1  0.690404  0.309373  0.999778  1
  Tm  Tm11  1  0.309596  0.690627  0.000222  1
  Tl  Tl12  1  0.500000  0.000000  0.500000  1
  Fe  Fe13  1  0.383737  0.383737  0.000000  1
  Fe  Fe14  1  0.616263  0.616263  0.000000  1
  Ag  Ag15  1  0.000000  0.500000  0.500000  1
  Ir  Ir16  1  0.000000  0.000000  0.000000  1
