# generated using pymatgen
data_Dy5In4PtAu
_symmetry_space_group_name_H-M   'P 1'
_cell_length_a   3.65479300
_cell_length_b   8.21053808
_cell_length_c   18.40127727
_cell_angle_alpha   90.07962571
_cell_angle_beta   90.00000000
_cell_angle_gamma   90.00000000
_symmetry_Int_Tables_number   1
_chemical_formula_structural   Dy5In4PtAu
_chemical_formula_sum   'Dy10 In8 Pt2 Au2'
_cell_volume   552.18162993
_cell_formula_units_Z   2
loop_
 _symmetry_equiv_pos_site_id
 _symmetry_equiv_pos_as_xyz
  1  'x, y, z'
loop_
 _atom_site_type_symbol
 _atom_site_label
 _atom_site_symmetry_multiplicity
 _atom_site_fract_x
 _atom_site_fract_y
 _atom_site_fract_z
 _atom_site_occupancy
  Dy  Dy0  1  0.000000  0.120083  0.418748  1
  Dy  Dy1  1  0.000000  0.879917  0.581252  1
  Dy  Dy2  1  0.000000  0.384518  0.915707  1
  Dy  Dy3  1  0.000000  0.615482  0.084293  1
  Dy  Dy4  1  0.000000  0.252432  0.217352  1
  Dy  Dy5  1  0.000000  0.747568  0.782648  1
  Dy  Dy6  1  0.000000  0.268713  0.721031  1
  Dy  Dy7  1  0.000000  0.731287  0.278969  1
  Dy  Dy8  1  0.000000  0.000000  0.000000  1
  Dy  Dy9  1  0.000000  0.500000  0.500000  1
  In  In10  1  0.500000  0.423965  0.352424  1
  In  In11  1  0.500000  0.576035  0.647576  1
  In  In12  1  0.500000  0.077225  0.852914  1
  In  In13  1  0.500000  0.922775  0.147086  1
  In  In14  1  0.500000  0.291542  0.065921  1
  In  In15  1  0.500000  0.708458  0.934079  1
  In  In16  1  0.500000  0.209676  0.566738  1
  In  In17  1  0.500000  0.790324  0.433262  1
  Pt  Pt18  1  0.500000  0.473771  0.803502  1
  Pt  Pt19  1  0.500000  0.526229  0.196498  1
  Au  Au20  1  0.500000  0.027278  0.302076  1
  Au  Au21  1  0.500000  0.972722  0.697924  1
