# generated using pymatgen
data_Be8V2ReMo
_symmetry_space_group_name_H-M   'P 1'
_cell_length_a   4.37380100
_cell_length_b   4.37380008
_cell_length_c   7.15716100
_cell_angle_alpha   90.00000000
_cell_angle_beta   90.00000000
_cell_angle_gamma   119.99999942
_symmetry_Int_Tables_number   1
_chemical_formula_structural   Be8V2ReMo
_chemical_formula_sum   'Be8 V2 Re1 Mo1'
_cell_volume   118.57397208
_cell_formula_units_Z   1
loop_
 _symmetry_equiv_pos_site_id
 _symmetry_equiv_pos_as_xyz
  1  'x, y, z'
loop_
 _atom_site_type_symbol
 _atom_site_label
 _atom_site_symmetry_multiplicity
 _atom_site_fract_x
 _atom_site_fract_y
 _atom_site_fract_z
 _atom_site_occupancy
  Be  Be0  1  0.000000  0.000000  0.001939  1
  Be  Be1  1  0.000000  0.000000  0.501058  1
  Be  Be2  1  0.830057  0.660115  0.248538  1
  Be  Be3  1  0.170254  0.829746  0.751546  1
  Be  Be4  1  0.659491  0.829746  0.751546  1
  Be  Be5  1  0.339885  0.169943  0.248538  1
  Be  Be6  1  0.830057  0.169943  0.248538  1
  Be  Be7  1  0.170254  0.340509  0.751546  1
  V  V8  1  0.666667  0.333333  0.937528  1
  V  V9  1  0.333333  0.666667  0.433642  1
  Re  Re10  1  0.333333  0.666667  0.062131  1
  Mo  Mo11  1  0.666667  0.333333  0.563450  1
