# generated using pymatgen
data_ErThCdNi2
_symmetry_space_group_name_H-M   'P 1'
_cell_length_a   7.52526918
_cell_length_b   7.52526970
_cell_length_c   3.65305700
_cell_angle_alpha   90.00000000
_cell_angle_beta   90.00000000
_cell_angle_gamma   92.93039073
_symmetry_Int_Tables_number   1
_chemical_formula_structural   ErThCdNi2
_chemical_formula_sum   'Er2 Th2 Cd2 Ni4'
_cell_volume   206.60094065
_cell_formula_units_Z   2
loop_
 _symmetry_equiv_pos_site_id
 _symmetry_equiv_pos_as_xyz
  1  'x, y, z'
loop_
 _atom_site_type_symbol
 _atom_site_label
 _atom_site_symmetry_multiplicity
 _atom_site_fract_x
 _atom_site_fract_y
 _atom_site_fract_z
 _atom_site_occupancy
  Er  Er0  1  0.171549  0.328451  0.500000  1
  Er  Er1  1  0.828451  0.671549  0.500000  1
  Th  Th2  1  0.675135  0.175135  0.500000  1
  Th  Th3  1  0.324865  0.824865  0.500000  1
  Cd  Cd4  1  0.500000  0.500000  0.000000  1
  Cd  Cd5  1  0.000000  0.000000  0.000000  1
  Ni  Ni6  1  0.121489  0.621489  0.000000  1
  Ni  Ni7  1  0.878511  0.378511  0.000000  1
  Ni  Ni8  1  0.620235  0.879765  0.000000  1
  Ni  Ni9  1  0.379765  0.120235  0.000000  1
