# generated using pymatgen
data_Lu3CrB7
_symmetry_space_group_name_H-M   'P 1'
_cell_length_a   7.92118672
_cell_length_b   7.92118615
_cell_length_c   9.20149000
_cell_angle_alpha   90.00000000
_cell_angle_beta   90.00000000
_cell_angle_gamma   155.38871197
_symmetry_Int_Tables_number   1
_chemical_formula_structural   Lu3CrB7
_chemical_formula_sum   'Lu6 Cr2 B14'
_cell_volume   240.44283260
_cell_formula_units_Z   2
loop_
 _symmetry_equiv_pos_site_id
 _symmetry_equiv_pos_as_xyz
  1  'x, y, z'
loop_
 _atom_site_type_symbol
 _atom_site_label
 _atom_site_symmetry_multiplicity
 _atom_site_fract_x
 _atom_site_fract_y
 _atom_site_fract_z
 _atom_site_occupancy
  Lu  Lu0  1  0.758384  0.241616  0.250000  1
  Lu  Lu1  1  0.241616  0.758384  0.750000  1
  Lu  Lu2  1  0.894848  0.105152  0.559296  1
  Lu  Lu3  1  0.105152  0.894848  0.440704  1
  Lu  Lu4  1  0.105152  0.894848  0.059296  1
  Lu  Lu5  1  0.894848  0.105152  0.940704  1
  Cr  Cr6  1  0.947880  0.052120  0.250000  1
  Cr  Cr7  1  0.052120  0.947880  0.750000  1
  B  B8  1  0.544414  0.455586  0.250000  1
  B  B9  1  0.455586  0.544414  0.750000  1
  B  B10  1  0.520181  0.479819  0.905054  1
  B  B11  1  0.479819  0.520181  0.094946  1
  B  B12  1  0.479819  0.520181  0.405054  1
  B  B13  1  0.520181  0.479819  0.594946  1
  B  B14  1  0.631383  0.368617  0.849346  1
  B  B15  1  0.368617  0.631383  0.150654  1
  B  B16  1  0.727515  0.272485  0.967834  1
  B  B17  1  0.272485  0.727515  0.032166  1
  B  B18  1  0.272485  0.727515  0.467834  1
  B  B19  1  0.727515  0.272485  0.532166  1
  B  B20  1  0.631383  0.368617  0.650654  1
  B  B21  1  0.368617  0.631383  0.349346  1
