# generated using pymatgen
data_Dy9Mg(Sn3S)2
_symmetry_space_group_name_H-M   'P 1'
_cell_length_a   8.96556200
_cell_length_b   8.96556161
_cell_length_c   6.57956600
_cell_angle_alpha   90.00000000
_cell_angle_beta   90.00000000
_cell_angle_gamma   120.00000144
_symmetry_Int_Tables_number   1
_chemical_formula_structural   Dy9Mg(Sn3S)2
_chemical_formula_sum   'Dy9 Mg1 Sn6 S2'
_cell_volume   458.01836338
_cell_formula_units_Z   1
loop_
 _symmetry_equiv_pos_site_id
 _symmetry_equiv_pos_as_xyz
  1  'x, y, z'
loop_
 _atom_site_type_symbol
 _atom_site_label
 _atom_site_symmetry_multiplicity
 _atom_site_fract_x
 _atom_site_fract_y
 _atom_site_fract_z
 _atom_site_occupancy
  Dy  Dy0  1  0.333333  0.666667  0.000000  1
  Dy  Dy1  1  0.333333  0.666667  0.500000  1
  Dy  Dy2  1  0.666667  0.333333  0.500000  1
  Dy  Dy3  1  0.754240  0.752237  0.752864  1
  Dy  Dy4  1  0.247763  0.002003  0.752864  1
  Dy  Dy5  1  0.997997  0.245760  0.752864  1
  Dy  Dy6  1  0.247763  0.245760  0.247136  1
  Dy  Dy7  1  0.754240  0.002003  0.247136  1
  Dy  Dy8  1  0.997997  0.752237  0.247136  1
  Mg  Mg9  1  0.666667  0.333333  0.000000  1
  Sn  Sn10  1  0.398373  0.397595  0.752785  1
  Sn  Sn11  1  0.602405  0.000778  0.752785  1
  Sn  Sn12  1  0.999222  0.601627  0.752785  1
  Sn  Sn13  1  0.602405  0.601627  0.247215  1
  Sn  Sn14  1  0.398373  0.000778  0.247215  1
  Sn  Sn15  1  0.999222  0.397595  0.247215  1
  S  S16  1  0.000000  0.000000  0.000000  1
  S  S17  1  0.000000  0.000000  0.500000  1
