# generated using pymatgen
data_DyY6(HoPb2)3
_symmetry_space_group_name_H-M   'P 1'
_cell_length_a   9.05876200
_cell_length_b   9.05876335
_cell_length_c   6.64929200
_cell_angle_alpha   90.00000000
_cell_angle_beta   90.00000000
_cell_angle_gamma   120.00000237
_symmetry_Int_Tables_number   1
_chemical_formula_structural   DyY6(HoPb2)3
_chemical_formula_sum   'Dy1 Y6 Ho3 Pb6'
_cell_volume   472.54567264
_cell_formula_units_Z   1
loop_
 _symmetry_equiv_pos_site_id
 _symmetry_equiv_pos_as_xyz
  1  'x, y, z'
loop_
 _atom_site_type_symbol
 _atom_site_label
 _atom_site_symmetry_multiplicity
 _atom_site_fract_x
 _atom_site_fract_y
 _atom_site_fract_z
 _atom_site_occupancy
  Dy  Dy0  1  0.333333  0.666667  0.000000  1
  Y  Y1  1  0.238088  0.000027  0.250040  1
  Y  Y2  1  0.238088  0.238061  0.749960  1
  Y  Y3  1  0.999973  0.761912  0.749960  1
  Y  Y4  1  0.999973  0.238061  0.250040  1
  Y  Y5  1  0.761939  0.761912  0.250040  1
  Y  Y6  1  0.761939  0.000027  0.749960  1
  Ho  Ho7  1  0.666667  0.333333  0.500000  1
  Ho  Ho8  1  0.666667  0.333333  0.000000  1
  Ho  Ho9  1  0.333333  0.666667  0.500000  1
  Pb  Pb10  1  0.604836  0.000135  0.250120  1
  Pb  Pb11  1  0.604836  0.604701  0.749880  1
  Pb  Pb12  1  0.999865  0.395164  0.749880  1
  Pb  Pb13  1  0.999865  0.604701  0.250120  1
  Pb  Pb14  1  0.395299  0.395164  0.250120  1
  Pb  Pb15  1  0.395299  0.000135  0.749880  1
