# generated using pymatgen
data_Li2V2Ni10P7
_symmetry_space_group_name_H-M   'P 1'
_cell_length_a   9.03051870
_cell_length_b   8.99736797
_cell_length_c   3.56281900
_cell_angle_alpha   90.00000000
_cell_angle_beta   90.00000000
_cell_angle_gamma   119.88893991
_symmetry_Int_Tables_number   1
_chemical_formula_structural   Li2V2Ni10P7
_chemical_formula_sum   'Li2 V2 Ni10 P7'
_cell_volume   250.97907144
_cell_formula_units_Z   1
loop_
 _symmetry_equiv_pos_site_id
 _symmetry_equiv_pos_as_xyz
  1  'x, y, z'
loop_
 _atom_site_type_symbol
 _atom_site_label
 _atom_site_symmetry_multiplicity
 _atom_site_fract_x
 _atom_site_fract_y
 _atom_site_fract_z
 _atom_site_occupancy
  Li  Li0  1  0.334086  0.667124  0.000000  1
  Li  Li1  1  0.664690  0.331238  0.499999  1
  V  V2  1  0.216613  0.094223  0.499999  1
  V  V3  1  0.906025  0.124736  0.499999  1
  Ni  Ni4  1  0.435750  0.060104  0.000000  1
  Ni  Ni5  1  0.163078  0.287961  0.000000  1
  Ni  Ni6  1  0.940086  0.376694  0.000000  1
  Ni  Ni7  1  0.625909  0.562180  0.000000  1
  Ni  Ni8  1  0.119704  0.835028  0.000000  1
  Ni  Ni9  1  0.719082  0.877492  0.000000  1
  Ni  Ni10  1  0.387342  0.441173  0.499999  1
  Ni  Ni11  1  0.046842  0.612984  0.499999  1
  Ni  Ni12  1  0.873298  0.779300  0.499999  1
  Ni  Ni13  1  0.561603  0.946416  0.499999  1
  P  P14  1  0.001809  0.001802  0.000000  1
  P  P15  1  0.706787  0.121625  0.000000  1
  P  P16  1  0.415391  0.293403  0.000000  1
  P  P17  1  0.875334  0.583522  0.000000  1
  P  P18  1  0.124565  0.416502  0.499999  1
  P  P19  1  0.590468  0.710088  0.499999  1
  P  P20  1  0.291538  0.876402  0.499999  1
