# generated using pymatgen
data_CsMnP2Ir
_symmetry_space_group_name_H-M   'P 1'
_cell_length_a   7.84729084
_cell_length_b   7.84729099
_cell_length_c   7.84729048
_cell_angle_alpha   150.96448154
_cell_angle_beta   150.96448339
_cell_angle_gamma   41.52746201
_symmetry_Int_Tables_number   1
_chemical_formula_structural   CsMnP2Ir
_chemical_formula_sum   'Cs1 Mn1 P2 Ir1'
_cell_volume   113.57789058
_cell_formula_units_Z   1
loop_
 _symmetry_equiv_pos_site_id
 _symmetry_equiv_pos_as_xyz
  1  'x, y, z'
loop_
 _atom_site_type_symbol
 _atom_site_label
 _atom_site_symmetry_multiplicity
 _atom_site_fract_x
 _atom_site_fract_y
 _atom_site_fract_z
 _atom_site_occupancy
  Cs  Cs0  1  0.000000  0.000000  0.000000  1
  Mn  Mn1  1  0.250000  0.750000  0.500000  1
  P  P2  1  0.665145  0.665145  0.000000  1
  P  P3  1  0.334855  0.334855  0.000000  1
  Ir  Ir4  1  0.750000  0.250000  0.500000  1
