# generated using pymatgen
data_Tb4Ho2InHg9
_symmetry_space_group_name_H-M   'P 1'
_cell_length_a   6.39161547
_cell_length_b   6.35861439
_cell_length_c   10.24407700
_cell_angle_alpha   90.00000000
_cell_angle_beta   90.00000000
_cell_angle_gamma   104.28381399
_symmetry_Int_Tables_number   1
_chemical_formula_structural   Tb4Ho2InHg9
_chemical_formula_sum   'Tb4 Ho2 In1 Hg9'
_cell_volume   403.46702315
_cell_formula_units_Z   1
loop_
 _symmetry_equiv_pos_site_id
 _symmetry_equiv_pos_as_xyz
  1  'x, y, z'
loop_
 _atom_site_type_symbol
 _atom_site_label
 _atom_site_symmetry_multiplicity
 _atom_site_fract_x
 _atom_site_fract_y
 _atom_site_fract_z
 _atom_site_occupancy
  Tb  Tb0  1  0.215203  0.791413  0.504679  1
  Tb  Tb1  1  0.215203  0.791413  0.995321  1
  Tb  Tb2  1  0.783683  0.210020  0.500145  1
  Tb  Tb3  1  0.783683  0.210020  0.999855  1
  Ho  Ho4  1  0.574140  0.575576  0.250000  1
  Ho  Ho5  1  0.424797  0.423714  0.750000  1
  In  In6  1  0.042712  0.480719  0.250000  1
  Hg  Hg7  1  0.976857  0.969324  0.250000  1
  Hg  Hg8  1  0.023103  0.023615  0.750000  1
  Hg  Hg9  1  0.293934  0.300658  0.030273  1
  Hg  Hg10  1  0.703543  0.701105  0.970368  1
  Hg  Hg11  1  0.293934  0.300658  0.469727  1
  Hg  Hg12  1  0.703543  0.701105  0.529632  1
  Hg  Hg13  1  0.479322  0.040281  0.250000  1
  Hg  Hg14  1  0.961348  0.516984  0.750000  1
  Hg  Hg15  1  0.524996  0.963394  0.750000  1
