# generated using pymatgen
data_Tb3DyLu2CoTe2
_symmetry_space_group_name_H-M   'P 1'
_cell_length_a   8.19247200
_cell_length_b   8.36804795
_cell_length_c   3.92471300
_cell_angle_alpha   90.00000000
_cell_angle_beta   90.00000000
_cell_angle_gamma   119.30831639
_symmetry_Int_Tables_number   1
_chemical_formula_structural   Tb3DyLu2CoTe2
_chemical_formula_sum   'Tb3 Dy1 Lu2 Co1 Te2'
_cell_volume   234.61870484
_cell_formula_units_Z   1
loop_
 _symmetry_equiv_pos_site_id
 _symmetry_equiv_pos_as_xyz
  1  'x, y, z'
loop_
 _atom_site_type_symbol
 _atom_site_label
 _atom_site_symmetry_multiplicity
 _atom_site_fract_x
 _atom_site_fract_y
 _atom_site_fract_z
 _atom_site_occupancy
  Tb  Tb0  1  0.000832  0.402495  0.500000  1
  Tb  Tb1  1  0.598337  0.597505  0.500000  1
  Tb  Tb2  1  0.389366  0.000000  0.500000  1
  Dy  Dy3  1  0.765091  0.000000  0.000000  1
  Lu  Lu4  1  0.993631  0.765567  0.000000  1
  Lu  Lu5  1  0.228064  0.234433  0.000000  1
  Co  Co6  1  0.027773  0.000000  0.500000  1
  Te  Te7  1  0.330933  0.664962  0.000000  1
  Te  Te8  1  0.665972  0.335038  0.000000  1
