# generated using pymatgen
data_Y6Ho4Er6CdIn3Pt4
_symmetry_space_group_name_H-M   'P 1'
_cell_length_a   9.66103188
_cell_length_b   9.66103160
_cell_length_c   9.66103100
_cell_angle_alpha   59.99999862
_cell_angle_beta   59.99999959
_cell_angle_gamma   59.99999678
_symmetry_Int_Tables_number   1
_chemical_formula_structural   Y6Ho4Er6CdIn3Pt4
_chemical_formula_sum   'Y6 Ho4 Er6 Cd1 In3 Pt4'
_cell_volume   637.61052751
_cell_formula_units_Z   1
loop_
 _symmetry_equiv_pos_site_id
 _symmetry_equiv_pos_as_xyz
  1  'x, y, z'
loop_
 _atom_site_type_symbol
 _atom_site_label
 _atom_site_symmetry_multiplicity
 _atom_site_fract_x
 _atom_site_fract_y
 _atom_site_fract_z
 _atom_site_occupancy
  Y  Y0  1  0.937865  0.562820  0.562820  1
  Y  Y1  1  0.563086  0.937277  0.937277  1
  Y  Y2  1  0.563086  0.937277  0.562360  1
  Y  Y3  1  0.937865  0.562820  0.936495  1
  Y  Y4  1  0.563086  0.562360  0.937277  1
  Y  Y5  1  0.937865  0.936495  0.562820  1
  Ho  Ho6  1  0.351395  0.351776  0.351776  1
  Ho  Ho7  1  0.351395  0.351776  0.945051  1
  Ho  Ho8  1  0.351395  0.945051  0.351776  1
  Ho  Ho9  1  0.945555  0.351481  0.351481  1
  Er  Er10  1  0.810727  0.189215  0.189215  1
  Er  Er11  1  0.188881  0.811298  0.811298  1
  Er  Er12  1  0.188881  0.811298  0.188524  1
  Er  Er13  1  0.810727  0.189215  0.810844  1
  Er  Er14  1  0.188881  0.188524  0.811298  1
  Er  Er15  1  0.810727  0.810844  0.189215  1
  Cd  Cd16  1  0.252529  0.582491  0.582491  1
  In  In17  1  0.582039  0.582870  0.582870  1
  In  In18  1  0.582039  0.582870  0.252222  1
  In  In19  1  0.582039  0.252222  0.582870  1
  Pt  Pt20  1  0.142862  0.142725  0.142725  1
  Pt  Pt21  1  0.142862  0.142725  0.571687  1
  Pt  Pt22  1  0.142862  0.571687  0.142725  1
  Pt  Pt23  1  0.571349  0.142884  0.142884  1
