# generated using pymatgen
data_Ac3Sn7Pt2
_symmetry_space_group_name_H-M   'P 1'
_cell_length_a   14.54028988
_cell_length_b   14.54029072
_cell_length_c   4.73421400
_cell_angle_alpha   90.00000000
_cell_angle_beta   90.00000000
_cell_angle_gamma   160.38736542
_symmetry_Int_Tables_number   1
_chemical_formula_structural   Ac3Sn7Pt2
_chemical_formula_sum   'Ac3 Sn7 Pt2'
_cell_volume   335.96398515
_cell_formula_units_Z   1
loop_
 _symmetry_equiv_pos_site_id
 _symmetry_equiv_pos_as_xyz
  1  'x, y, z'
loop_
 _atom_site_type_symbol
 _atom_site_label
 _atom_site_symmetry_multiplicity
 _atom_site_fract_x
 _atom_site_fract_y
 _atom_site_fract_z
 _atom_site_occupancy
  Ac  Ac0  1  0.500000  0.500000  0.500000  1
  Ac  Ac1  1  0.817362  0.182638  0.000000  1
  Ac  Ac2  1  0.182638  0.817362  0.000000  1
  Sn  Sn3  1  0.000000  0.000000  0.000000  1
  Sn  Sn4  1  0.586446  0.413554  0.000000  1
  Sn  Sn5  1  0.413554  0.586446  0.000000  1
  Sn  Sn6  1  0.913109  0.086891  0.500000  1
  Sn  Sn7  1  0.086891  0.913109  0.500000  1
  Sn  Sn8  1  0.725034  0.274966  0.500000  1
  Sn  Sn9  1  0.274966  0.725034  0.500000  1
  Pt  Pt10  1  0.631685  0.368315  0.500000  1
  Pt  Pt11  1  0.368315  0.631685  0.500000  1
