# generated using pymatgen
data_La10Tb3Nd7Sn16
_symmetry_space_group_name_H-M   'P 1'
_cell_length_a   8.32750201
_cell_length_b   8.48294552
_cell_length_c   16.04952600
_cell_angle_alpha   90.01384618
_cell_angle_beta   89.99774326
_cell_angle_gamma   89.98560728
_symmetry_Int_Tables_number   1
_chemical_formula_structural   La10Tb3Nd7Sn16
_chemical_formula_sum   'La10 Tb3 Nd7 Sn16'
_cell_volume   1133.76646614
_cell_formula_units_Z   1
loop_
 _symmetry_equiv_pos_site_id
 _symmetry_equiv_pos_as_xyz
  1  'x, y, z'
loop_
 _atom_site_type_symbol
 _atom_site_label
 _atom_site_symmetry_multiplicity
 _atom_site_fract_x
 _atom_site_fract_y
 _atom_site_fract_z
 _atom_site_occupancy
  La  La0  1  0.368283  0.835605  0.619613  1
  La  La1  1  0.867845  0.664699  0.880177  1
  La  La2  1  0.518352  0.318598  0.901755  1
  La  La3  1  0.017798  0.180802  0.598312  1
  La  La4  1  0.481696  0.680831  0.400820  1
  La  La5  1  0.981860  0.819065  0.098981  1
  La  La6  1  0.481634  0.680547  0.099091  1
  La  La7  1  0.981746  0.819286  0.401108  1
  La  La8  1  0.518630  0.319015  0.598210  1
  La  La9  1  0.018112  0.180218  0.901700  1
  Tb  Tb10  1  0.698411  0.997992  0.749858  1
  Tb  Tb11  1  0.801704  0.497745  0.250051  1
  Tb  Tb12  1  0.301428  0.001979  0.249970  1
  Nd  Nd13  1  0.367187  0.836218  0.879982  1
  Nd  Nd14  1  0.866363  0.664237  0.620199  1
  Nd  Nd15  1  0.632730  0.163544  0.379313  1
  Nd  Nd16  1  0.132855  0.336271  0.121194  1
  Nd  Nd17  1  0.632558  0.163829  0.121120  1
  Nd  Nd18  1  0.132735  0.335965  0.378306  1
  Nd  Nd19  1  0.197313  0.501725  0.750168  1
  Sn  Sn20  1  0.293577  0.035472  0.043641  1
  Sn  Sn21  1  0.793727  0.464674  0.456422  1
  Sn  Sn22  1  0.708653  0.965537  0.543229  1
  Sn  Sn23  1  0.208674  0.535592  0.958402  1
  Sn  Sn24  1  0.704616  0.966698  0.956837  1
  Sn  Sn25  1  0.204680  0.534196  0.541582  1
  Sn  Sn26  1  0.293261  0.036466  0.455175  1
  Sn  Sn27  1  0.793365  0.463701  0.044729  1
  Sn  Sn28  1  0.568210  0.616719  0.749785  1
  Sn  Sn29  1  0.064819  0.885812  0.750163  1
  Sn  Sn30  1  0.434806  0.382239  0.249979  1
  Sn  Sn31  1  0.934465  0.117778  0.250032  1
  Sn  Sn32  1  0.323831  0.141388  0.750536  1
  Sn  Sn33  1  0.821124  0.354906  0.749565  1
  Sn  Sn34  1  0.676633  0.857214  0.249988  1
  Sn  Sn35  1  0.176318  0.643434  0.250008  1
