# generated using pymatgen
data_Cs6CdTe4
_symmetry_space_group_name_H-M   'P 1'
_cell_length_a   11.96319500
_cell_length_b   11.96319457
_cell_length_c   9.25768200
_cell_angle_alpha   90.00000000
_cell_angle_beta   90.00000000
_cell_angle_gamma   120.00000394
_symmetry_Int_Tables_number   1
_chemical_formula_structural   Cs6CdTe4
_chemical_formula_sum   'Cs12 Cd2 Te8'
_cell_volume   1147.43269707
_cell_formula_units_Z   2
loop_
 _symmetry_equiv_pos_site_id
 _symmetry_equiv_pos_as_xyz
  1  'x, y, z'
loop_
 _atom_site_type_symbol
 _atom_site_label
 _atom_site_symmetry_multiplicity
 _atom_site_fract_x
 _atom_site_fract_y
 _atom_site_fract_z
 _atom_site_occupancy
  Cs  Cs0  1  0.147959  0.852041  0.544924  1
  Cs  Cs1  1  0.295918  0.147959  0.044924  1
  Cs  Cs2  1  0.852041  0.704082  0.044924  1
  Cs  Cs3  1  0.147959  0.295918  0.544924  1
  Cs  Cs4  1  0.704082  0.852041  0.544924  1
  Cs  Cs5  1  0.852041  0.147959  0.044924  1
  Cs  Cs6  1  0.525844  0.474156  0.364837  1
  Cs  Cs7  1  0.051687  0.525844  0.864837  1
  Cs  Cs8  1  0.474156  0.948313  0.864837  1
  Cs  Cs9  1  0.525844  0.051687  0.364837  1
  Cs  Cs10  1  0.948313  0.474156  0.364837  1
  Cs  Cs11  1  0.474156  0.525844  0.864837  1
  Cd  Cd12  1  0.333333  0.666667  0.249186  1
  Cd  Cd13  1  0.666667  0.333333  0.749186  1
  Te  Te14  1  0.333333  0.666667  0.570182  1
  Te  Te15  1  0.666667  0.333333  0.070182  1
  Te  Te16  1  0.197599  0.802401  0.150950  1
  Te  Te17  1  0.395197  0.197599  0.650950  1
  Te  Te18  1  0.802401  0.604803  0.650950  1
  Te  Te19  1  0.197599  0.395197  0.150950  1
  Te  Te20  1  0.604803  0.802401  0.150950  1
  Te  Te21  1  0.802401  0.197599  0.650950  1
