# generated using pymatgen
data_Nb6Al3Zn8Ir
_symmetry_space_group_name_H-M   'P 1'
_cell_length_a   8.85096900
_cell_length_b   8.85096825
_cell_length_c   8.13579000
_cell_angle_alpha   90.00000000
_cell_angle_beta   90.00000000
_cell_angle_gamma   119.99999160
_symmetry_Int_Tables_number   1
_chemical_formula_structural   Nb6Al3Zn8Ir
_chemical_formula_sum   'Nb12 Al6 Zn16 Ir2'
_cell_volume   551.96558582
_cell_formula_units_Z   2
loop_
 _symmetry_equiv_pos_site_id
 _symmetry_equiv_pos_as_xyz
  1  'x, y, z'
loop_
 _atom_site_type_symbol
 _atom_site_label
 _atom_site_symmetry_multiplicity
 _atom_site_fract_x
 _atom_site_fract_y
 _atom_site_fract_z
 _atom_site_occupancy
  Nb  Nb0  1  0.331455  0.000000  0.069911  1
  Nb  Nb1  1  0.668545  0.000000  0.930089  1
  Nb  Nb2  1  0.000000  0.331455  0.069911  1
  Nb  Nb3  1  0.668545  0.000000  0.569911  1
  Nb  Nb4  1  0.000000  0.331455  0.430089  1
  Nb  Nb5  1  0.000000  0.668545  0.930089  1
  Nb  Nb6  1  0.331455  0.000000  0.430089  1
  Nb  Nb7  1  0.000000  0.668545  0.569911  1
  Nb  Nb8  1  0.668545  0.668545  0.069911  1
  Nb  Nb9  1  0.331455  0.331455  0.930089  1
  Nb  Nb10  1  0.331455  0.331455  0.569911  1
  Nb  Nb11  1  0.668545  0.668545  0.430089  1
  Al  Al12  1  0.172223  0.000000  0.750000  1
  Al  Al13  1  0.827777  0.000000  0.250000  1
  Al  Al14  1  0.000000  0.172223  0.750000  1
  Al  Al15  1  0.000000  0.827777  0.250000  1
  Al  Al16  1  0.827777  0.827777  0.750000  1
  Al  Al17  1  0.172223  0.172223  0.250000  1
  Zn  Zn18  1  0.161900  0.495525  0.750000  1
  Zn  Zn19  1  0.838100  0.504475  0.250000  1
  Zn  Zn20  1  0.504475  0.666376  0.750000  1
  Zn  Zn21  1  0.495525  0.161900  0.750000  1
  Zn  Zn22  1  0.495525  0.333624  0.250000  1
  Zn  Zn23  1  0.504475  0.838100  0.250000  1
  Zn  Zn24  1  0.333624  0.838100  0.750000  1
  Zn  Zn25  1  0.666376  0.504475  0.750000  1
  Zn  Zn26  1  0.666376  0.161900  0.250000  1
  Zn  Zn27  1  0.333624  0.495525  0.250000  1
  Zn  Zn28  1  0.838100  0.333624  0.750000  1
  Zn  Zn29  1  0.161900  0.666376  0.250000  1
  Zn  Zn30  1  0.333333  0.666667  0.500000  1
  Zn  Zn31  1  0.666667  0.333333  0.500000  1
  Zn  Zn32  1  0.666667  0.333333  0.000000  1
  Zn  Zn33  1  0.333333  0.666667  0.000000  1
  Ir  Ir34  1  0.000000  0.000000  0.500000  1
  Ir  Ir35  1  0.000000  0.000000  0.000000  1
