# generated using pymatgen
data_Sr2La2YbSn4
_symmetry_space_group_name_H-M   'P 1'
_cell_length_a   8.25100000
_cell_length_b   8.79562500
_cell_length_c   16.75835200
_cell_angle_alpha   90.00000000
_cell_angle_beta   90.00000000
_cell_angle_gamma   90.00000000
_symmetry_Int_Tables_number   1
_chemical_formula_structural   Sr2La2YbSn4
_chemical_formula_sum   'Sr8 La8 Yb4 Sn16'
_cell_volume   1216.19888361
_cell_formula_units_Z   4
loop_
 _symmetry_equiv_pos_site_id
 _symmetry_equiv_pos_as_xyz
  1  'x, y, z'
loop_
 _atom_site_type_symbol
 _atom_site_label
 _atom_site_symmetry_multiplicity
 _atom_site_fract_x
 _atom_site_fract_y
 _atom_site_fract_z
 _atom_site_occupancy
  Sr  Sr0  1  0.508391  0.684210  0.595199  1
  Sr  Sr1  1  0.008391  0.815790  0.904801  1
  Sr  Sr2  1  0.491609  0.315790  0.095199  1
  Sr  Sr3  1  0.991609  0.184210  0.404801  1
  Sr  Sr4  1  0.491609  0.315790  0.404801  1
  Sr  Sr5  1  0.991609  0.184210  0.095199  1
  Sr  Sr6  1  0.508391  0.684210  0.904801  1
  Sr  Sr7  1  0.008391  0.815790  0.595199  1
  La  La8  1  0.675164  0.168436  0.621923  1
  La  La9  1  0.175164  0.331564  0.878077  1
  La  La10  1  0.324836  0.831564  0.121923  1
  La  La11  1  0.824836  0.668436  0.378077  1
  La  La12  1  0.324836  0.831564  0.378077  1
  La  La13  1  0.824836  0.668436  0.121923  1
  La  La14  1  0.675164  0.168436  0.878077  1
  La  La15  1  0.175164  0.331564  0.621923  1
  Yb  Yb16  1  0.838981  0.511566  0.750000  1
  Yb  Yb17  1  0.338981  0.988434  0.750000  1
  Yb  Yb18  1  0.161019  0.488434  0.250000  1
  Yb  Yb19  1  0.661019  0.011566  0.250000  1
  Sn  Sn20  1  0.660750  0.961906  0.458782  1
  Sn  Sn21  1  0.160750  0.538094  0.041218  1
  Sn  Sn22  1  0.339250  0.038094  0.958782  1
  Sn  Sn23  1  0.839250  0.461906  0.541218  1
  Sn  Sn24  1  0.339250  0.038094  0.541218  1
  Sn  Sn25  1  0.839250  0.461906  0.958782  1
  Sn  Sn26  1  0.660750  0.961906  0.041218  1
  Sn  Sn27  1  0.160750  0.538094  0.458782  1
  Sn  Sn28  1  0.473185  0.382820  0.750000  1
  Sn  Sn29  1  0.973185  0.117180  0.750000  1
  Sn  Sn30  1  0.526815  0.617180  0.250000  1
  Sn  Sn31  1  0.026815  0.882820  0.250000  1
  Sn  Sn32  1  0.719778  0.876899  0.750000  1
  Sn  Sn33  1  0.219778  0.623101  0.750000  1
  Sn  Sn34  1  0.280222  0.123101  0.250000  1
  Sn  Sn35  1  0.780222  0.376899  0.250000  1
