# generated using pymatgen
data_Dy6ErIrI12
_symmetry_space_group_name_H-M   'P 1'
_cell_length_a   9.78675632
_cell_length_b   9.78675642
_cell_length_c   9.78675558
_cell_angle_alpha   106.92403636
_cell_angle_beta   106.92403927
_cell_angle_gamma   106.92403797
_symmetry_Int_Tables_number   1
_chemical_formula_structural   Dy6ErIrI12
_chemical_formula_sum   'Dy6 Er1 Ir1 I12'
_cell_volume   782.27215483
_cell_formula_units_Z   1
loop_
 _symmetry_equiv_pos_site_id
 _symmetry_equiv_pos_as_xyz
  1  'x, y, z'
loop_
 _atom_site_type_symbol
 _atom_site_label
 _atom_site_symmetry_multiplicity
 _atom_site_fract_x
 _atom_site_fract_y
 _atom_site_fract_z
 _atom_site_occupancy
  Dy  Dy0  1  0.094070  0.022790  0.296017  1
  Dy  Dy1  1  0.296017  0.094070  0.022790  1
  Dy  Dy2  1  0.022790  0.296017  0.094070  1
  Dy  Dy3  1  0.905930  0.977210  0.703983  1
  Dy  Dy4  1  0.703983  0.905930  0.977210  1
  Dy  Dy5  1  0.977210  0.703983  0.905930  1
  Er  Er6  1  0.500000  0.500000  0.500000  1
  Ir  Ir7  1  0.000000  0.000000  0.000000  1
  I  I8  1  0.069545  0.675023  0.224519  1
  I  I9  1  0.224519  0.069545  0.675023  1
  I  I10  1  0.675023  0.224519  0.069545  1
  I  I11  1  0.930455  0.324977  0.775481  1
  I  I12  1  0.775481  0.930455  0.324977  1
  I  I13  1  0.324977  0.775481  0.930455  1
  I  I14  1  0.464695  0.164202  0.388427  1
  I  I15  1  0.388427  0.464695  0.164202  1
  I  I16  1  0.164202  0.388427  0.464695  1
  I  I17  1  0.535305  0.835798  0.611573  1
  I  I18  1  0.611573  0.535305  0.835798  1
  I  I19  1  0.835798  0.611573  0.535305  1
