# generated using pymatgen
data_Tm7Lu5InFe3Au
_symmetry_space_group_name_H-M   'P 1'
_cell_length_a   8.13373808
_cell_length_b   8.13429897
_cell_length_c   8.13361651
_cell_angle_alpha   110.17258463
_cell_angle_beta   107.46926693
_cell_angle_gamma   110.78788172
_symmetry_Int_Tables_number   1
_chemical_formula_structural   Tm7Lu5InFe3Au
_chemical_formula_sum   'Tm7 Lu5 In1 Fe3 Au1'
_cell_volume   413.88420959
_cell_formula_units_Z   1
loop_
 _symmetry_equiv_pos_site_id
 _symmetry_equiv_pos_as_xyz
  1  'x, y, z'
loop_
 _atom_site_type_symbol
 _atom_site_label
 _atom_site_symmetry_multiplicity
 _atom_site_fract_x
 _atom_site_fract_y
 _atom_site_fract_z
 _atom_site_occupancy
  Tm  Tm0  1  0.306281  0.309680  0.616170  1
  Tm  Tm1  1  0.693179  0.690939  0.383370  1
  Tm  Tm2  1  0.693518  0.309683  0.003420  1
  Tm  Tm3  1  0.307552  0.690916  0.997771  1
  Tm  Tm4  1  0.192177  0.448292  0.256120  1
  Tm  Tm5  1  0.807401  0.550958  0.743564  1
  Tm  Tm6  1  0.192917  0.936709  0.743783  1
  Lu  Lu7  1  0.961373  0.187109  0.773762  1
  Lu  Lu8  1  0.807282  0.062967  0.255693  1
  Lu  Lu9  1  0.038059  0.813307  0.225548  1
  Lu  Lu10  1  0.413321  0.187108  0.225731  1
  Lu  Lu11  1  0.587725  0.813281  0.775235  1
  In  In12  1  0.499954  0.000044  0.500081  1
  Fe  Fe13  1  0.381768  0.381792  0.000026  1
  Fe  Fe14  1  0.618627  0.618751  0.000109  1
  Fe  Fe15  1  0.999826  0.000316  0.000506  1
  Au  Au16  1  0.999039  0.498147  0.499109  1
