# generated using pymatgen
data_Rb(RhO2)6
_symmetry_space_group_name_H-M   'P 1'
_cell_length_a   8.62518054
_cell_length_b   8.62518097
_cell_length_c   8.62518112
_cell_angle_alpha   107.20136219
_cell_angle_beta   107.20135715
_cell_angle_gamma   114.11306175
_symmetry_Int_Tables_number   1
_chemical_formula_structural   Rb(RhO2)6
_chemical_formula_sum   'Rb2 Rh12 O24'
_cell_volume   491.49782371
_cell_formula_units_Z   2
loop_
 _symmetry_equiv_pos_site_id
 _symmetry_equiv_pos_as_xyz
  1  'x, y, z'
loop_
 _atom_site_type_symbol
 _atom_site_label
 _atom_site_symmetry_multiplicity
 _atom_site_fract_x
 _atom_site_fract_y
 _atom_site_fract_z
 _atom_site_occupancy
  Rb  Rb0  1  0.790391  0.790391  0.000000  1
  Rb  Rb1  1  0.209609  0.209609  0.000000  1
  Rh  Rh2  1  0.316213  0.830937  0.814256  1
  Rh  Rh3  1  0.649635  0.164626  0.814261  1
  Rh  Rh4  1  0.983318  0.498043  0.814256  1
  Rh  Rh5  1  0.016682  0.501957  0.185744  1
  Rh  Rh6  1  0.350365  0.835374  0.185739  1
  Rh  Rh7  1  0.683787  0.169063  0.185744  1
  Rh  Rh8  1  0.835374  0.649635  0.485010  1
  Rh  Rh9  1  0.169063  0.983318  0.485276  1
  Rh  Rh10  1  0.501957  0.316213  0.485276  1
  Rh  Rh11  1  0.498043  0.683787  0.514724  1
  Rh  Rh12  1  0.830937  0.016682  0.514724  1
  Rh  Rh13  1  0.164626  0.350365  0.514990  1
  O  O14  1  0.789713  0.493019  0.616497  1
  O  O15  1  0.123478  0.826784  0.616497  1
  O  O16  1  0.456614  0.157985  0.614599  1
  O  O17  1  0.876522  0.173216  0.383503  1
  O  O18  1  0.210287  0.506981  0.383503  1
  O  O19  1  0.543386  0.842015  0.385401  1
  O  O20  1  0.506981  0.123478  0.296695  1
  O  O21  1  0.842015  0.456614  0.298628  1
  O  O22  1  0.173216  0.789713  0.296695  1
  O  O23  1  0.157985  0.543386  0.701372  1
  O  O24  1  0.493019  0.876522  0.703305  1
  O  O25  1  0.826784  0.210287  0.703305  1
  O  O26  1  0.511056  0.872004  0.049906  1
  O  O27  1  0.845561  0.203747  0.049307  1
  O  O28  1  0.177903  0.538851  0.049906  1
  O  O29  1  0.154439  0.796253  0.950693  1
  O  O30  1  0.488944  0.127996  0.950094  1
  O  O31  1  0.822097  0.461149  0.950094  1
  O  O32  1  0.127996  0.177903  0.639053  1
  O  O33  1  0.461149  0.511056  0.639053  1
  O  O34  1  0.796253  0.845561  0.641814  1
  O  O35  1  0.538851  0.488944  0.360947  1
  O  O36  1  0.872004  0.822097  0.360947  1
  O  O37  1  0.203747  0.154439  0.358186  1
