# generated using pymatgen
data_Ce2NdTm(SnRu)4
_symmetry_space_group_name_H-M   'P 1'
_cell_length_a   6.26841647
_cell_length_b   6.26841612
_cell_length_c   10.17409794
_cell_angle_alpha   78.09537421
_cell_angle_beta   78.09537749
_cell_angle_gamma   45.09158986
_symmetry_Int_Tables_number   1
_chemical_formula_structural   Ce2NdTm(SnRu)4
_chemical_formula_sum   'Ce2 Nd1 Tm1 Sn4 Ru4'
_cell_volume   275.97987166
_cell_formula_units_Z   1
loop_
 _symmetry_equiv_pos_site_id
 _symmetry_equiv_pos_as_xyz
  1  'x, y, z'
loop_
 _atom_site_type_symbol
 _atom_site_label
 _atom_site_symmetry_multiplicity
 _atom_site_fract_x
 _atom_site_fract_y
 _atom_site_fract_z
 _atom_site_occupancy
  Ce  Ce0  1  0.861874  0.861874  0.911932  1
  Ce  Ce1  1  0.140680  0.140680  0.085920  1
  Nd  Nd2  1  0.877821  0.877821  0.407730  1
  Tm  Tm3  1  0.121679  0.121679  0.595202  1
  Sn  Sn4  1  0.424207  0.424207  0.157721  1
  Sn  Sn5  1  0.405560  0.405560  0.646806  1
  Sn  Sn6  1  0.575733  0.575733  0.839599  1
  Sn  Sn7  1  0.595280  0.595280  0.357411  1
  Ru  Ru8  1  0.815158  0.815158  0.147353  1
  Ru  Ru9  1  0.195112  0.195112  0.307244  1
  Ru  Ru10  1  0.182600  0.182600  0.848274  1
  Ru  Ru11  1  0.804295  0.804295  0.694806  1
