# generated using pymatgen
data_LiY7(B6Os)4
_symmetry_space_group_name_H-M   'P 1'
_cell_length_a   3.63163800
_cell_length_b   9.10019539
_cell_length_c   11.47498251
_cell_angle_alpha   90.08572045
_cell_angle_beta   90.00000000
_cell_angle_gamma   90.00000000
_symmetry_Int_Tables_number   1
_chemical_formula_structural   LiY7(B6Os)4
_chemical_formula_sum   'Li1 Y7 B24 Os4'
_cell_volume   379.23185936
_cell_formula_units_Z   1
loop_
 _symmetry_equiv_pos_site_id
 _symmetry_equiv_pos_as_xyz
  1  'x, y, z'
loop_
 _atom_site_type_symbol
 _atom_site_label
 _atom_site_symmetry_multiplicity
 _atom_site_fract_x
 _atom_site_fract_y
 _atom_site_fract_z
 _atom_site_occupancy
  Li  Li0  1  0.000000  0.556070  0.871582  1
  Y  Y1  1  0.000000  0.323374  0.417174  1
  Y  Y2  1  0.000000  0.675831  0.592377  1
  Y  Y3  1  0.000000  0.820017  0.081422  1
  Y  Y4  1  0.000000  0.179060  0.910589  1
  Y  Y5  1  0.000000  0.943321  0.372381  1
  Y  Y6  1  0.000000  0.056830  0.630057  1
  Y  Y7  1  0.000000  0.444472  0.123937  1
  B  B8  1  0.500000  0.553094  0.433082  1
  B  B9  1  0.500000  0.447558  0.569704  1
  B  B10  1  0.500000  0.053300  0.065589  1
  B  B11  1  0.500000  0.942785  0.932504  1
  B  B12  1  0.500000  0.747578  0.419292  1
  B  B13  1  0.500000  0.253400  0.582593  1
  B  B14  1  0.500000  0.249211  0.079277  1
  B  B15  1  0.500000  0.744456  0.917931  1
  B  B16  1  0.500000  0.790538  0.264923  1
  B  B17  1  0.500000  0.212573  0.735598  1
  B  B18  1  0.500000  0.291959  0.232938  1
  B  B19  1  0.500000  0.704010  0.767686  1
  B  B20  1  0.500000  0.630835  0.183710  1
  B  B21  1  0.500000  0.375935  0.816822  1
  B  B22  1  0.500000  0.132396  0.314056  1
  B  B23  1  0.500000  0.866761  0.687868  1
  B  B24  1  0.500000  0.983264  0.211616  1
  B  B25  1  0.500000  0.015576  0.789083  1
  B  B26  1  0.500000  0.482585  0.286326  1
  B  B27  1  0.500000  0.520283  0.715994  1
  B  B28  1  0.500000  0.598648  0.021032  1
  B  B29  1  0.500000  0.407542  0.967466  1
  B  B30  1  0.500000  0.107816  0.471031  1
  B  B31  1  0.500000  0.891575  0.530694  1
  Os  Os32  1  0.000000  0.636571  0.320863  1
  Os  Os33  1  0.000000  0.365129  0.682354  1
  Os  Os34  1  0.000000  0.138925  0.178201  1
  Os  Os35  1  0.000000  0.856729  0.822247  1
