# generated using pymatgen
data_PrEu6Tm13Sn16
_symmetry_space_group_name_H-M   'P 1'
_cell_length_a   8.10712215
_cell_length_b   8.26692846
_cell_length_c   15.57421400
_cell_angle_alpha   90.02312089
_cell_angle_beta   90.31709191
_cell_angle_gamma   89.63920736
_symmetry_Int_Tables_number   1
_chemical_formula_structural   PrEu6Tm13Sn16
_chemical_formula_sum   'Pr1 Eu6 Tm13 Sn16'
_cell_volume   1043.76262911
_cell_formula_units_Z   1
loop_
 _symmetry_equiv_pos_site_id
 _symmetry_equiv_pos_as_xyz
  1  'x, y, z'
loop_
 _atom_site_type_symbol
 _atom_site_label
 _atom_site_symmetry_multiplicity
 _atom_site_fract_x
 _atom_site_fract_y
 _atom_site_fract_z
 _atom_site_occupancy
  Pr  Pr0  1  0.007245  0.179184  0.905248  1
  Eu  Eu1  1  0.010345  0.176108  0.597293  1
  Eu  Eu2  1  0.491715  0.674671  0.406506  1
  Eu  Eu3  1  0.993337  0.819493  0.090642  1
  Eu  Eu4  1  0.488774  0.677278  0.092022  1
  Eu  Eu5  1  0.992482  0.825502  0.406739  1
  Eu  Eu6  1  0.508325  0.325752  0.595281  1
  Tm  Tm7  1  0.348134  0.836151  0.874687  1
  Tm  Tm8  1  0.842277  0.663730  0.626271  1
  Tm  Tm9  1  0.655328  0.164208  0.375899  1
  Tm  Tm10  1  0.147637  0.342244  0.120915  1
  Tm  Tm11  1  0.649663  0.161777  0.123606  1
  Tm  Tm12  1  0.155223  0.335485  0.376536  1
  Tm  Tm13  1  0.344687  0.837237  0.627837  1
  Tm  Tm14  1  0.851479  0.659677  0.878019  1
  Tm  Tm15  1  0.514485  0.321194  0.903419  1
  Tm  Tm16  1  0.185400  0.498786  0.751419  1
  Tm  Tm17  1  0.682712  0.000793  0.750936  1
  Tm  Tm18  1  0.813103  0.500801  0.248165  1
  Tm  Tm19  1  0.316433  0.999017  0.248718  1
  Sn  Sn20  1  0.319217  0.048132  0.038887  1
  Sn  Sn21  1  0.825331  0.459831  0.457666  1
  Sn  Sn22  1  0.674279  0.960008  0.542998  1
  Sn  Sn23  1  0.196670  0.534324  0.953410  1
  Sn  Sn24  1  0.680102  0.964256  0.955203  1
  Sn  Sn25  1  0.173471  0.543114  0.543154  1
  Sn  Sn26  1  0.325992  0.039624  0.458667  1
  Sn  Sn27  1  0.804381  0.451098  0.039253  1
  Sn  Sn28  1  0.547449  0.623136  0.751944  1
  Sn  Sn29  1  0.043370  0.873665  0.752458  1
  Sn  Sn30  1  0.450478  0.374471  0.250570  1
  Sn  Sn31  1  0.954643  0.124359  0.248776  1
  Sn  Sn32  1  0.321391  0.146085  0.754944  1
  Sn  Sn33  1  0.813820  0.359050  0.753058  1
  Sn  Sn34  1  0.686397  0.861871  0.249449  1
  Sn  Sn35  1  0.184229  0.637888  0.249402  1
