# generated using pymatgen
data_Yb2Co3B8Os5
_symmetry_space_group_name_H-M   'P 1'
_cell_length_a   7.23248616
_cell_length_b   7.29767028
_cell_length_c   3.98875051
_cell_angle_alpha   89.66671520
_cell_angle_beta   89.89155454
_cell_angle_gamma   88.95451335
_symmetry_Int_Tables_number   1
_chemical_formula_structural   Yb2Co3B8Os5
_chemical_formula_sum   'Yb2 Co3 B8 Os5'
_cell_volume   210.48850109
_cell_formula_units_Z   1
loop_
 _symmetry_equiv_pos_site_id
 _symmetry_equiv_pos_as_xyz
  1  'x, y, z'
loop_
 _atom_site_type_symbol
 _atom_site_label
 _atom_site_symmetry_multiplicity
 _atom_site_fract_x
 _atom_site_fract_y
 _atom_site_fract_z
 _atom_site_occupancy
  Yb  Yb0  1  0.001902  0.998380  0.069682  1
  Yb  Yb1  1  0.499841  0.506815  0.591090  1
  Co  Co2  1  0.372563  0.875916  0.374495  1
  Co  Co3  1  0.612296  0.868153  0.874741  1
  Co  Co4  1  0.373962  0.114879  0.876350  1
  B  B5  1  0.338661  0.812212  0.879637  1
  B  B6  1  0.664113  0.198261  0.877001  1
  B  B7  1  0.315236  0.155291  0.378899  1
  B  B8  1  0.685923  0.839588  0.378456  1
  B  B9  1  0.172292  0.725339  0.599704  1
  B  B10  1  0.832165  0.282850  0.604073  1
  B  B11  1  0.223129  0.323608  0.100491  1
  B  B12  1  0.774347  0.673545  0.100951  1
  Os  Os13  1  0.849465  0.391034  0.105552  1
  Os  Os14  1  0.156401  0.612913  0.104246  1
  Os  Os15  1  0.888576  0.656193  0.605337  1
  Os  Os16  1  0.118949  0.345380  0.604881  1
  Os  Os17  1  0.620180  0.119644  0.374414  1
