# generated using pymatgen
data_Zr6Si2Ni20Ge2P9
_symmetry_space_group_name_H-M   'P 1'
_cell_length_a   12.53389504
_cell_length_b   12.63169717
_cell_length_c   3.66886700
_cell_angle_alpha   90.00000000
_cell_angle_beta   90.00000000
_cell_angle_gamma   120.11109034
_symmetry_Int_Tables_number   1
_chemical_formula_structural   Zr6Si2Ni20Ge2P9
_chemical_formula_sum   'Zr6 Si2 Ni20 Ge2 P9'
_cell_volume   502.48501176
_cell_formula_units_Z   1
loop_
 _symmetry_equiv_pos_site_id
 _symmetry_equiv_pos_as_xyz
  1  'x, y, z'
loop_
 _atom_site_type_symbol
 _atom_site_label
 _atom_site_symmetry_multiplicity
 _atom_site_fract_x
 _atom_site_fract_y
 _atom_site_fract_z
 _atom_site_occupancy
  Zr  Zr0  1  0.807321  0.281849  0.500000  1
  Zr  Zr1  1  0.717810  0.520245  0.500000  1
  Zr  Zr2  1  0.479518  0.196668  0.500000  1
  Zr  Zr3  1  0.193176  0.714855  0.000000  1
  Zr  Zr4  1  0.282955  0.478499  0.000000  1
  Zr  Zr5  1  0.523788  0.808166  0.000000  1
  Si  Si6  1  0.000487  0.999162  0.000000  1
  Si  Si7  1  0.231878  0.284412  0.500000  1
  Ni  Ni8  1  0.419555  0.976356  0.000000  1
  Ni  Ni9  1  0.020420  0.437703  0.000000  1
  Ni  Ni10  1  0.586376  0.022077  0.500000  1
  Ni  Ni11  1  0.557716  0.580715  0.000000  1
  Ni  Ni12  1  0.980200  0.560518  0.500000  1
  Ni  Ni13  1  0.924005  0.081724  0.500000  1
  Ni  Ni14  1  0.148699  0.071243  0.500000  1
  Ni  Ni15  1  0.923408  0.846562  0.500000  1
  Ni  Ni16  1  0.088235  0.883843  0.000000  1
  Ni  Ni17  1  0.797036  0.911642  0.000000  1
  Ni  Ni18  1  0.103715  0.201976  0.000000  1
  Ni  Ni19  1  0.334364  0.668197  0.500000  1
  Ni  Ni20  1  0.666952  0.332387  0.000000  1
  Ni  Ni21  1  0.672405  0.753757  0.500000  1
  Ni  Ni22  1  0.246979  0.918387  0.500000  1
  Ni  Ni23  1  0.927767  0.668033  0.000000  1
  Ni  Ni24  1  0.327609  0.256393  0.000000  1
  Ni  Ni25  1  0.755657  0.083083  0.000000  1
  Ni  Ni26  1  0.440301  0.418714  0.500000  1
  Ni  Ni27  1  0.069239  0.323815  0.500000  1
  Ge  Ge28  1  0.772850  0.716337  0.000000  1
  Ge  Ge29  1  0.283607  0.055923  0.000000  1
  P  P30  1  0.715409  0.950163  0.500000  1
  P  P31  1  0.050587  0.762823  0.500000  1
  P  P32  1  0.472763  0.613129  0.500000  1
  P  P33  1  0.387907  0.860342  0.500000  1
  P  P34  1  0.860162  0.470354  0.000000  1
  P  P35  1  0.528323  0.388629  0.000000  1
  P  P36  1  0.612141  0.139619  0.000000  1
  P  P37  1  0.947406  0.235036  0.000000  1
  P  P38  1  0.141274  0.526668  0.500000  1
