# generated using pymatgen
data_Na(ReO3)9
_symmetry_space_group_name_H-M   'P 1'
_cell_length_a   8.50425048
_cell_length_b   8.50425108
_cell_length_c   8.50425008
_cell_angle_alpha   66.43535517
_cell_angle_beta   66.43535273
_cell_angle_gamma   66.43535577
_symmetry_Int_Tables_number   1
_chemical_formula_structural   Na(ReO3)9
_chemical_formula_sum   'Na1 Re9 O27'
_cell_volume   495.22216546
_cell_formula_units_Z   1
loop_
 _symmetry_equiv_pos_site_id
 _symmetry_equiv_pos_as_xyz
  1  'x, y, z'
loop_
 _atom_site_type_symbol
 _atom_site_label
 _atom_site_symmetry_multiplicity
 _atom_site_fract_x
 _atom_site_fract_y
 _atom_site_fract_z
 _atom_site_occupancy
  Na  Na0  1  0.000000  0.000000  0.000000  1
  Re  Re1  1  0.500000  0.500000  0.500000  1
  Re  Re2  1  0.943272  0.609059  0.279761  1
  Re  Re3  1  0.832491  0.832491  0.832491  1
  Re  Re4  1  0.720239  0.056728  0.390941  1
  Re  Re5  1  0.167509  0.167509  0.167509  1
  Re  Re6  1  0.279761  0.943272  0.609059  1
  Re  Re7  1  0.390941  0.720239  0.056728  1
  Re  Re8  1  0.609059  0.279761  0.943272  1
  Re  Re9  1  0.056728  0.390941  0.720239  1
  O  O10  1  0.444564  0.610963  0.277541  1
  O  O11  1  0.165463  0.667830  0.166374  1
  O  O12  1  0.000000  0.500000  0.500000  1
  O  O13  1  0.722459  0.555436  0.389037  1
  O  O14  1  0.944394  0.611531  0.777281  1
  O  O15  1  0.833626  0.834537  0.332170  1
  O  O16  1  0.500000  0.500000  0.000000  1
  O  O17  1  0.389037  0.722459  0.555436  1
  O  O18  1  0.889037  0.723480  0.055288  1
  O  O19  1  0.055288  0.889037  0.723480  1
  O  O20  1  0.332170  0.833626  0.834537  1
  O  O21  1  0.222719  0.055606  0.388469  1
  O  O22  1  0.667830  0.166374  0.165463  1
  O  O23  1  0.777281  0.944394  0.611531  1
  O  O24  1  0.944712  0.110963  0.276520  1
  O  O25  1  0.500000  0.000000  0.500000  1
  O  O26  1  0.611531  0.777281  0.944394  1
  O  O27  1  0.723480  0.055288  0.889037  1
  O  O28  1  0.055606  0.388469  0.222719  1
  O  O29  1  0.610963  0.277541  0.444564  1
  O  O30  1  0.276520  0.944712  0.110963  1
  O  O31  1  0.166374  0.165463  0.667830  1
  O  O32  1  0.834537  0.332170  0.833626  1
  O  O33  1  0.277541  0.444564  0.610963  1
  O  O34  1  0.388469  0.222719  0.055606  1
  O  O35  1  0.110963  0.276520  0.944712  1
  O  O36  1  0.555436  0.389037  0.722459  1
