# generated using pymatgen
data_La3Nd5(CdNi)2
_symmetry_space_group_name_H-M   'P 1'
_cell_length_a   9.93047918
_cell_length_b   9.96108471
_cell_length_c   9.96108487
_cell_angle_alpha   59.79682337
_cell_angle_beta   60.10158284
_cell_angle_gamma   60.10158454
_symmetry_Int_Tables_number   1
_chemical_formula_structural   La3Nd5(CdNi)2
_chemical_formula_sum   'La6 Nd10 Cd4 Ni4'
_cell_volume   696.72320584
_cell_formula_units_Z   2
loop_
 _symmetry_equiv_pos_site_id
 _symmetry_equiv_pos_as_xyz
  1  'x, y, z'
loop_
 _atom_site_type_symbol
 _atom_site_label
 _atom_site_symmetry_multiplicity
 _atom_site_fract_x
 _atom_site_fract_y
 _atom_site_fract_z
 _atom_site_occupancy
  La  La0  1  0.596056  0.598483  0.598483  1
  La  La1  1  0.598483  0.596056  0.206977  1
  La  La2  1  0.598483  0.206977  0.596056  1
  La  La3  1  0.206977  0.598483  0.598483  1
  La  La4  1  0.060434  0.439566  0.439566  1
  La  La5  1  0.439566  0.060434  0.060434  1
  Nd  Nd6  1  0.441091  0.058909  0.441091  1
  Nd  Nd7  1  0.058909  0.441091  0.058909  1
  Nd  Nd8  1  0.441091  0.441091  0.058909  1
  Nd  Nd9  1  0.058909  0.058909  0.441091  1
  Nd  Nd10  1  0.185284  0.814716  0.814716  1
  Nd  Nd11  1  0.814716  0.185284  0.185284  1
  Nd  Nd12  1  0.814214  0.185786  0.814214  1
  Nd  Nd13  1  0.185786  0.814214  0.185786  1
  Nd  Nd14  1  0.814214  0.814214  0.185786  1
  Nd  Nd15  1  0.185786  0.185786  0.814214  1
  Cd  Cd16  1  0.831240  0.829726  0.829726  1
  Cd  Cd17  1  0.829726  0.831240  0.509309  1
  Cd  Cd18  1  0.829726  0.509309  0.831240  1
  Cd  Cd19  1  0.509309  0.829726  0.829726  1
  Ni  Ni20  1  0.390418  0.392479  0.392479  1
  Ni  Ni21  1  0.392479  0.390418  0.824624  1
  Ni  Ni22  1  0.392479  0.824624  0.390418  1
  Ni  Ni23  1  0.824624  0.392479  0.392479  1
