# generated using pymatgen
data_Er5Lu5(Bi2Pt)2
_symmetry_space_group_name_H-M   'P 1'
_cell_length_a   7.94739373
_cell_length_b   8.95383900
_cell_length_c   12.32153366
_cell_angle_alpha   90.00000000
_cell_angle_beta   89.92448277
_cell_angle_gamma   90.00000000
_symmetry_Int_Tables_number   1
_chemical_formula_structural   Er5Lu5(Bi2Pt)2
_chemical_formula_sum   'Er10 Lu10 Bi8 Pt4'
_cell_volume   876.79567982
_cell_formula_units_Z   2
loop_
 _symmetry_equiv_pos_site_id
 _symmetry_equiv_pos_as_xyz
  1  'x, y, z'
loop_
 _atom_site_type_symbol
 _atom_site_label
 _atom_site_symmetry_multiplicity
 _atom_site_fract_x
 _atom_site_fract_y
 _atom_site_fract_z
 _atom_site_occupancy
  Er  Er0  1  0.164089  0.250000  0.789171  1
  Er  Er1  1  0.835911  0.750000  0.210829  1
  Er  Er2  1  0.130859  0.750000  0.806630  1
  Er  Er3  1  0.869141  0.250000  0.193370  1
  Er  Er4  1  0.631321  0.250000  0.693360  1
  Er  Er5  1  0.368679  0.750000  0.306640  1
  Er  Er6  1  0.551641  0.750000  0.999254  1
  Er  Er7  1  0.448359  0.250000  0.000746  1
  Er  Er8  1  0.052014  0.250000  0.500343  1
  Er  Er9  1  0.947986  0.750000  0.499657  1
  Lu  Lu10  1  0.663996  0.750000  0.709936  1
  Lu  Lu11  1  0.336004  0.250000  0.290064  1
  Lu  Lu12  1  0.825572  0.453817  0.931548  1
  Lu  Lu13  1  0.174428  0.546183  0.068452  1
  Lu  Lu14  1  0.325911  0.546263  0.568581  1
  Lu  Lu15  1  0.174428  0.953817  0.068452  1
  Lu  Lu16  1  0.674089  0.453737  0.431419  1
  Lu  Lu17  1  0.825572  0.046183  0.931548  1
  Lu  Lu18  1  0.674089  0.046263  0.431419  1
  Lu  Lu19  1  0.325911  0.953737  0.568581  1
  Bi  Bi20  1  0.935870  0.007746  0.672610  1
  Bi  Bi21  1  0.064130  0.992254  0.327390  1
  Bi  Bi22  1  0.436744  0.991648  0.827224  1
  Bi  Bi23  1  0.064130  0.507746  0.327390  1
  Bi  Bi24  1  0.563256  0.008352  0.172776  1
  Bi  Bi25  1  0.935870  0.492254  0.672610  1
  Bi  Bi26  1  0.563256  0.491648  0.172776  1
  Bi  Bi27  1  0.436744  0.508352  0.827224  1
  Pt  Pt28  1  0.924340  0.750000  0.989724  1
  Pt  Pt29  1  0.075660  0.250000  0.010276  1
  Pt  Pt30  1  0.424162  0.250000  0.509145  1
  Pt  Pt31  1  0.575838  0.750000  0.490855  1
