# generated using pymatgen
data_Er8Si16Mo11W
_symmetry_space_group_name_H-M   'P 1'
_cell_length_a   6.74340961
_cell_length_b   6.93237579
_cell_length_c   12.89453200
_cell_angle_alpha   90.00000000
_cell_angle_beta   90.00000000
_cell_angle_gamma   90.01691741
_symmetry_Int_Tables_number   1
_chemical_formula_structural   Er8Si16Mo11W
_chemical_formula_sum   'Er8 Si16 Mo11 W1'
_cell_volume   602.79161524
_cell_formula_units_Z   1
loop_
 _symmetry_equiv_pos_site_id
 _symmetry_equiv_pos_as_xyz
  1  'x, y, z'
loop_
 _atom_site_type_symbol
 _atom_site_label
 _atom_site_symmetry_multiplicity
 _atom_site_fract_x
 _atom_site_fract_y
 _atom_site_fract_z
 _atom_site_occupancy
  Er  Er0  1  0.995768  0.168506  0.093324  1
  Er  Er1  1  0.004582  0.831053  0.906364  1
  Er  Er2  1  0.503690  0.668067  0.906219  1
  Er  Er3  1  0.004582  0.831053  0.593636  1
  Er  Er4  1  0.495735  0.331493  0.093469  1
  Er  Er5  1  0.995768  0.168506  0.406676  1
  Er  Er6  1  0.495735  0.331493  0.406531  1
  Er  Er7  1  0.503690  0.668067  0.593781  1
  Si  Si8  1  0.034696  0.129955  0.750000  1
  Si  Si9  1  0.964792  0.869062  0.250000  1
  Si  Si10  1  0.465152  0.630861  0.250000  1
  Si  Si11  1  0.535606  0.369090  0.750000  1
  Si  Si12  1  0.303018  0.868060  0.750000  1
  Si  Si13  1  0.697082  0.131689  0.250000  1
  Si  Si14  1  0.196816  0.368584  0.250000  1
  Si  Si15  1  0.802654  0.632316  0.750000  1
  Si  Si16  1  0.161260  0.458810  0.546795  1
  Si  Si17  1  0.838964  0.541554  0.452980  1
  Si  Si18  1  0.339215  0.958482  0.453022  1
  Si  Si19  1  0.838964  0.541554  0.047020  1
  Si  Si20  1  0.660927  0.041624  0.547279  1
  Si  Si21  1  0.161260  0.458810  0.953205  1
  Si  Si22  1  0.660927  0.041624  0.952721  1
  Si  Si23  1  0.339215  0.958482  0.046978  1
  Mo  Mo24  1  0.833039  0.498169  0.250000  1
  Mo  Mo25  1  0.333141  0.001700  0.250000  1
  Mo  Mo26  1  0.666807  0.998380  0.750000  1
  Mo  Mo27  1  0.330440  0.165240  0.625313  1
  Mo  Mo28  1  0.669067  0.835078  0.374882  1
  Mo  Mo29  1  0.168974  0.665271  0.374665  1
  Mo  Mo30  1  0.669067  0.835078  0.125118  1
  Mo  Mo31  1  0.831723  0.335432  0.625365  1
  Mo  Mo32  1  0.330440  0.165240  0.874687  1
  Mo  Mo33  1  0.831723  0.335432  0.874635  1
  Mo  Mo34  1  0.168974  0.665271  0.125335  1
  W  W35  1  0.166505  0.500915  0.750000  1
