# generated using pymatgen
data_Ca9LuSi6F
_symmetry_space_group_name_H-M   'P 1'
_cell_length_a   9.03459025
_cell_length_b   9.01225752
_cell_length_c   9.03379452
_cell_angle_alpha   130.12873480
_cell_angle_beta   130.19421433
_cell_angle_gamma   73.06048172
_symmetry_Int_Tables_number   1
_chemical_formula_structural   Ca9LuSi6F
_chemical_formula_sum   'Ca9 Lu1 Si6 F1'
_cell_volume   419.70729314
_cell_formula_units_Z   1
loop_
 _symmetry_equiv_pos_site_id
 _symmetry_equiv_pos_as_xyz
  1  'x, y, z'
loop_
 _atom_site_type_symbol
 _atom_site_label
 _atom_site_symmetry_multiplicity
 _atom_site_fract_x
 _atom_site_fract_y
 _atom_site_fract_z
 _atom_site_occupancy
  Ca  Ca0  1  0.432761  0.774502  0.000001  1
  Ca  Ca1  1  0.929727  0.932092  0.644110  1
  Ca  Ca2  1  0.285621  0.287982  0.355899  1
  Ca  Ca3  1  0.711463  0.066185  0.000004  1
  Ca  Ca4  1  0.067201  0.713049  0.000002  1
  Ca  Ca5  1  0.566228  0.565193  0.337746  1
  Ca  Ca6  1  0.228480  0.227459  0.662267  1
  Ca  Ca7  1  0.250927  0.750432  0.503428  1
  Ca  Ca8  1  0.747507  0.247006  0.496577  1
  Lu  Lu9  1  0.774294  0.437166  0.999950  1
  Si  Si10  1  0.993089  0.495959  0.481082  1
  Si  Si11  1  0.512010  0.014880  0.518925  1
  Si  Si12  1  0.126900  0.366301  0.000003  1
  Si  Si13  1  0.356382  0.135896  0.000002  1
  Si  Si14  1  0.865971  0.857088  0.226692  1
  Si  Si15  1  0.639283  0.630399  0.773314  1
  F  F16  1  0.512155  0.498410  0.999996  1
