# generated using pymatgen
data_Zn5Cr(GaRh2)6
_symmetry_space_group_name_H-M   'P 1'
_cell_length_a   4.27574200
_cell_length_b   6.06329300
_cell_length_c   12.85868700
_cell_angle_alpha   90.00000000
_cell_angle_beta   90.00117777
_cell_angle_gamma   90.00000000
_symmetry_Int_Tables_number   1
_chemical_formula_structural   Zn5Cr(GaRh2)6
_chemical_formula_sum   'Zn5 Cr1 Ga6 Rh12'
_cell_volume   333.36244462
_cell_formula_units_Z   1
loop_
 _symmetry_equiv_pos_site_id
 _symmetry_equiv_pos_as_xyz
  1  'x, y, z'
loop_
 _atom_site_type_symbol
 _atom_site_label
 _atom_site_symmetry_multiplicity
 _atom_site_fract_x
 _atom_site_fract_y
 _atom_site_fract_z
 _atom_site_occupancy
  Zn  Zn0  1  0.499774  0.000000  0.167397  1
  Zn  Zn1  1  0.999769  0.500000  0.333552  1
  Zn  Zn2  1  0.500000  0.000000  0.500000  1
  Zn  Zn3  1  0.000231  0.500000  0.666448  1
  Zn  Zn4  1  0.500226  0.000000  0.832603  1
  Cr  Cr5  1  0.000000  0.500000  0.000000  1
  Ga  Ga6  1  0.000000  0.000000  0.000000  1
  Ga  Ga7  1  0.499759  0.500000  0.166075  1
  Ga  Ga8  1  0.999757  0.000000  0.335221  1
  Ga  Ga9  1  0.500000  0.500000  0.500000  1
  Ga  Ga10  1  0.000243  0.000000  0.664780  1
  Ga  Ga11  1  0.500241  0.500000  0.833926  1
  Rh  Rh12  1  0.500000  0.251790  0.000000  1
  Rh  Rh13  1  0.500000  0.748209  0.000000  1
  Rh  Rh14  1  0.999783  0.251007  0.165296  1
  Rh  Rh15  1  0.999783  0.748992  0.165296  1
  Rh  Rh16  1  0.499771  0.250214  0.332729  1
  Rh  Rh17  1  0.499771  0.749787  0.332729  1
  Rh  Rh18  1  0.000000  0.251078  0.500000  1
  Rh  Rh19  1  0.000000  0.748923  0.500000  1
  Rh  Rh20  1  0.500229  0.250214  0.667271  1
  Rh  Rh21  1  0.500229  0.749787  0.667271  1
  Rh  Rh22  1  0.000216  0.251007  0.834704  1
  Rh  Rh23  1  0.000216  0.748992  0.834704  1
