# generated using pymatgen
data_Be6CoRe4Ni
_symmetry_space_group_name_H-M   'P 1'
_cell_length_a   4.44401601
_cell_length_b   4.41625207
_cell_length_c   7.24918900
_cell_angle_alpha   90.00000000
_cell_angle_beta   90.00000000
_cell_angle_gamma   119.78290457
_symmetry_Int_Tables_number   1
_chemical_formula_structural   Be6CoRe4Ni
_chemical_formula_sum   'Be6 Co1 Re4 Ni1'
_cell_volume   123.47966255
_cell_formula_units_Z   1
loop_
 _symmetry_equiv_pos_site_id
 _symmetry_equiv_pos_as_xyz
  1  'x, y, z'
loop_
 _atom_site_type_symbol
 _atom_site_label
 _atom_site_symmetry_multiplicity
 _atom_site_fract_x
 _atom_site_fract_y
 _atom_site_fract_z
 _atom_site_occupancy
  Be  Be0  1  0.999584  0.001267  0.999231  1
  Be  Be1  1  0.999584  0.001267  0.500769  1
  Be  Be2  1  0.660956  0.826199  0.750000  1
  Be  Be3  1  0.341354  0.166931  0.250000  1
  Be  Be4  1  0.829676  0.169780  0.250000  1
  Be  Be5  1  0.170494  0.337359  0.750000  1
  Co  Co6  1  0.164201  0.830227  0.750000  1
  Re  Re7  1  0.339146  0.666526  0.058437  1
  Re  Re8  1  0.658222  0.331052  0.560983  1
  Re  Re9  1  0.658222  0.331052  0.939017  1
  Re  Re10  1  0.339146  0.666526  0.441563  1
  Ni  Ni11  1  0.839417  0.671816  0.250000  1
