# generated using pymatgen
data_NaP4WO13
_symmetry_space_group_name_H-M   'P 1'
_cell_length_a   7.20909400
_cell_length_b   8.18607700
_cell_length_c   17.26634600
_cell_angle_alpha   90.00000000
_cell_angle_beta   90.00000000
_cell_angle_gamma   90.00000000
_symmetry_Int_Tables_number   1
_chemical_formula_structural   NaP4WO13
_chemical_formula_sum   'Na4 P16 W4 O52'
_cell_volume   1018.95957167
_cell_formula_units_Z   4
loop_
 _symmetry_equiv_pos_site_id
 _symmetry_equiv_pos_as_xyz
  1  'x, y, z'
loop_
 _atom_site_type_symbol
 _atom_site_label
 _atom_site_symmetry_multiplicity
 _atom_site_fract_x
 _atom_site_fract_y
 _atom_site_fract_z
 _atom_site_occupancy
  Na  Na0  1  0.192411  0.724654  0.481020  1
  Na  Na1  1  0.307589  0.275346  0.981020  1
  Na  Na2  1  0.692411  0.775346  0.518980  1
  Na  Na3  1  0.807589  0.224654  0.018980  1
  P  P4  1  0.067731  0.313550  0.425193  1
  P  P5  1  0.087244  0.899279  0.923777  1
  P  P6  1  0.098424  0.897945  0.660723  1
  P  P7  1  0.100854  0.345919  0.168559  1
  P  P8  1  0.399146  0.654081  0.668559  1
  P  P9  1  0.401576  0.102055  0.160723  1
  P  P10  1  0.412756  0.100721  0.423777  1
  P  P11  1  0.432269  0.686450  0.925193  1
  P  P12  1  0.567731  0.186450  0.574807  1
  P  P13  1  0.587244  0.600721  0.076223  1
  P  P14  1  0.598424  0.602055  0.339277  1
  P  P15  1  0.600854  0.154081  0.831441  1
  P  P16  1  0.899146  0.845919  0.331441  1
  P  P17  1  0.901576  0.397945  0.839277  1
  P  P18  1  0.912756  0.399279  0.576223  1
  P  P19  1  0.932269  0.813550  0.074807  1
  W  W20  1  0.229999  0.276066  0.715002  1
  W  W21  1  0.270001  0.723934  0.215002  1
  W  W22  1  0.729999  0.223934  0.284998  1
  W  W23  1  0.770001  0.776066  0.784998  1
  O  O24  1  0.001888  0.777563  0.987341  1
  O  O25  1  0.009803  0.350138  0.651772  1
  O  O26  1  0.079558  0.073618  0.944987  1
  O  O27  1  0.089559  0.354293  0.083266  1
  O  O28  1  0.078686  0.801217  0.289222  1
  O  O29  1  0.087758  0.326815  0.810524  1
  O  O30  1  0.104545  0.776012  0.123345  1
  O  O31  1  0.118064  0.916382  0.576519  1
  O  O32  1  0.128505  0.059189  0.708883  1
  O  O33  1  0.161029  0.471927  0.414907  1
  O  O34  1  0.169534  0.506926  0.209504  1
  O  O35  1  0.201172  0.158364  0.412642  1
  O  O36  1  0.247399  0.216368  0.201460  1
  O  O37  1  0.252601  0.783632  0.701460  1
  O  O38  1  0.298828  0.841636  0.912642  1
  O  O39  1  0.330466  0.493074  0.709504  1
  O  O40  1  0.338971  0.528073  0.914907  1
  O  O41  1  0.371495  0.940811  0.208883  1
  O  O42  1  0.381936  0.083618  0.076519  1
  O  O43  1  0.395455  0.223988  0.623345  1
  O  O44  1  0.412242  0.673185  0.310524  1
  O  O45  1  0.410441  0.645707  0.583266  1
  O  O46  1  0.421314  0.198783  0.789222  1
  O  O47  1  0.420442  0.926382  0.444987  1
  O  O48  1  0.490197  0.649862  0.151772  1
  O  O49  1  0.498112  0.222437  0.487341  1
  O  O50  1  0.501888  0.722437  0.012659  1
  O  O51  1  0.509803  0.149862  0.348228  1
  O  O52  1  0.579558  0.426382  0.055013  1
  O  O53  1  0.589559  0.145707  0.916734  1
  O  O54  1  0.578686  0.698783  0.710778  1
  O  O55  1  0.587758  0.173185  0.189476  1
  O  O56  1  0.604545  0.723988  0.876655  1
  O  O57  1  0.618064  0.583618  0.423481  1
  O  O58  1  0.628505  0.440811  0.291117  1
  O  O59  1  0.661029  0.028073  0.585093  1
  O  O60  1  0.669534  0.993074  0.790496  1
  O  O61  1  0.701172  0.341636  0.587358  1
  O  O62  1  0.747399  0.283632  0.798540  1
  O  O63  1  0.752601  0.716368  0.298540  1
  O  O64  1  0.798828  0.658364  0.087358  1
  O  O65  1  0.830466  0.006926  0.290496  1
  O  O66  1  0.838971  0.971927  0.085093  1
  O  O67  1  0.871495  0.559189  0.791117  1
  O  O68  1  0.881936  0.416382  0.923481  1
  O  O69  1  0.895455  0.276012  0.376655  1
  O  O70  1  0.912242  0.826815  0.689476  1
  O  O71  1  0.910441  0.854293  0.416734  1
  O  O72  1  0.921314  0.301217  0.210778  1
  O  O73  1  0.920442  0.573618  0.555013  1
  O  O74  1  0.990197  0.850138  0.848228  1
  O  O75  1  0.998112  0.277563  0.512659  1
