# generated using pymatgen
data_LiCa2MgAu2
_symmetry_space_group_name_H-M   'P 1'
_cell_length_a   4.39034200
_cell_length_b   7.51410700
_cell_length_c   17.29149500
_cell_angle_alpha   90.00000000
_cell_angle_beta   90.00000000
_cell_angle_gamma   90.00000000
_symmetry_Int_Tables_number   1
_chemical_formula_structural   LiCa2MgAu2
_chemical_formula_sum   'Li4 Ca8 Mg4 Au8'
_cell_volume   570.43776660
_cell_formula_units_Z   4
loop_
 _symmetry_equiv_pos_site_id
 _symmetry_equiv_pos_as_xyz
  1  'x, y, z'
loop_
 _atom_site_type_symbol
 _atom_site_label
 _atom_site_symmetry_multiplicity
 _atom_site_fract_x
 _atom_site_fract_y
 _atom_site_fract_z
 _atom_site_occupancy
  Li  Li0  1  0.250000  0.996481  0.061866  1
  Li  Li1  1  0.750000  0.503519  0.561866  1
  Li  Li2  1  0.250000  0.496481  0.438134  1
  Li  Li3  1  0.750000  0.003519  0.938134  1
  Ca  Ca4  1  0.750000  0.161243  0.438551  1
  Ca  Ca5  1  0.250000  0.965115  0.782774  1
  Ca  Ca6  1  0.250000  0.338757  0.938551  1
  Ca  Ca7  1  0.750000  0.661243  0.061449  1
  Ca  Ca8  1  0.250000  0.838757  0.561449  1
  Ca  Ca9  1  0.750000  0.034885  0.217226  1
  Ca  Ca10  1  0.750000  0.534885  0.282774  1
  Ca  Ca11  1  0.250000  0.465115  0.717226  1
  Mg  Mg12  1  0.250000  0.367106  0.150522  1
  Mg  Mg13  1  0.750000  0.132894  0.650522  1
  Mg  Mg14  1  0.250000  0.867106  0.349478  1
  Mg  Mg15  1  0.750000  0.632894  0.849478  1
  Au  Au16  1  0.250000  0.240473  0.311217  1
  Au  Au17  1  0.250000  0.261881  0.563117  1
  Au  Au18  1  0.750000  0.738119  0.436883  1
  Au  Au19  1  0.750000  0.259527  0.811217  1
  Au  Au20  1  0.750000  0.759527  0.688783  1
  Au  Au21  1  0.750000  0.238119  0.063117  1
  Au  Au22  1  0.250000  0.761881  0.936883  1
  Au  Au23  1  0.250000  0.740473  0.188783  1
