# generated using pymatgen
data_Dy6CoP12Ir5Rh12
_symmetry_space_group_name_H-M   'P 1'
_cell_length_a   3.91859900
_cell_length_b   11.15220880
_cell_length_c   12.77953093
_cell_angle_alpha   90.04361113
_cell_angle_beta   90.00000000
_cell_angle_gamma   90.00000000
_symmetry_Int_Tables_number   1
_chemical_formula_structural   Dy6CoP12Ir5Rh12
_chemical_formula_sum   'Dy6 Co1 P12 Ir5 Rh12'
_cell_volume   558.47855730
_cell_formula_units_Z   1
loop_
 _symmetry_equiv_pos_site_id
 _symmetry_equiv_pos_as_xyz
  1  'x, y, z'
loop_
 _atom_site_type_symbol
 _atom_site_label
 _atom_site_symmetry_multiplicity
 _atom_site_fract_x
 _atom_site_fract_y
 _atom_site_fract_z
 _atom_site_occupancy
  Dy  Dy0  1  0.000000  0.500598  0.521979  1
  Dy  Dy1  1  0.500000  0.000152  0.478212  1
  Dy  Dy2  1  0.500000  0.818859  0.203378  1
  Dy  Dy3  1  0.500000  0.181190  0.203431  1
  Dy  Dy4  1  0.000000  0.687898  0.797438  1
  Dy  Dy5  1  0.000000  0.311833  0.796964  1
  Co  Co6  1  0.500000  0.999968  0.021066  1
  P  P7  1  0.500000  0.499838  0.879760  1
  P  P8  1  0.000000  0.999992  0.119862  1
  P  P9  1  0.500000  0.500277  0.352786  1
  P  P10  1  0.000000  0.999352  0.645459  1
  P  P11  1  0.500000  0.315013  0.618929  1
  P  P12  1  0.500000  0.684831  0.619323  1
  P  P13  1  0.000000  0.184598  0.380367  1
  P  P14  1  0.000000  0.815842  0.380845  1
  P  P15  1  0.500000  0.855122  0.895669  1
  P  P16  1  0.500000  0.144529  0.895295  1
  P  P17  1  0.000000  0.657156  0.106403  1
  P  P18  1  0.000000  0.342833  0.106084  1
  Ir  Ir19  1  0.500000  0.500102  0.702162  1
  Ir  Ir20  1  0.000000  0.999803  0.298458  1
  Ir  Ir21  1  0.000000  0.793456  0.569080  1
  Ir  Ir22  1  0.000000  0.627986  0.287302  1
  Ir  Ir23  1  0.000000  0.371307  0.286930  1
  Rh  Rh24  1  0.500000  0.499467  0.172313  1
  Rh  Rh25  1  0.000000  0.999786  0.827817  1
  Rh  Rh26  1  0.000000  0.499980  0.980350  1
  Rh  Rh27  1  0.500000  0.331354  0.995037  1
  Rh  Rh28  1  0.500000  0.668496  0.995436  1
  Rh  Rh29  1  0.000000  0.160016  0.005354  1
  Rh  Rh30  1  0.000000  0.839892  0.005590  1
  Rh  Rh31  1  0.500000  0.297658  0.430239  1
  Rh  Rh32  1  0.500000  0.704434  0.430226  1
  Rh  Rh33  1  0.000000  0.206031  0.568256  1
  Rh  Rh34  1  0.500000  0.873445  0.711256  1
  Rh  Rh35  1  0.500000  0.126906  0.710949  1
