# generated using pymatgen
data_RbPr5Y(CBr6)2
_symmetry_space_group_name_H-M   'P 1'
_cell_length_a   9.19199110
_cell_length_b   9.20554354
_cell_length_c   9.67499698
_cell_angle_alpha   72.05452882
_cell_angle_beta   70.84646612
_cell_angle_gamma   72.72056663
_symmetry_Int_Tables_number   1
_chemical_formula_structural   RbPr5Y(CBr6)2
_chemical_formula_sum   'Rb1 Pr5 Y1 C2 Br12'
_cell_volume   718.02889460
_cell_formula_units_Z   1
loop_
 _symmetry_equiv_pos_site_id
 _symmetry_equiv_pos_as_xyz
  1  'x, y, z'
loop_
 _atom_site_type_symbol
 _atom_site_label
 _atom_site_symmetry_multiplicity
 _atom_site_fract_x
 _atom_site_fract_y
 _atom_site_fract_z
 _atom_site_occupancy
  Rb  Rb0  1  0.996942  0.501076  0.000574  1
  Pr  Pr1  1  0.475756  0.117695  0.178473  1
  Pr  Pr2  1  0.784554  0.032813  0.405767  1
  Pr  Pr3  1  0.595399  0.718476  0.472773  1
  Pr  Pr4  1  0.403717  0.281000  0.525766  1
  Pr  Pr5  1  0.215551  0.965977  0.597757  1
  Y  Y6  1  0.526826  0.884395  0.811969  1
  C  C7  1  0.493529  0.024854  0.426266  1
  C  C8  1  0.506835  0.972976  0.575898  1
  Br  Br9  1  0.800553  0.165644  0.080164  1
  Br  Br10  1  0.585324  0.785656  0.132468  1
  Br  Br11  1  0.347719  0.435238  0.223588  1
  Br  Br12  1  0.135183  0.074723  0.293091  1
  Br  Br13  1  0.927817  0.721486  0.349986  1
  Br  Br14  1  0.718696  0.367754  0.427887  1
  Br  Br15  1  0.280138  0.632065  0.574973  1
  Br  Br16  1  0.070636  0.278122  0.650121  1
  Br  Br17  1  0.856263  0.923870  0.714816  1
  Br  Br18  1  0.647601  0.574896  0.780107  1
  Br  Br19  1  0.416872  0.204378  0.856558  1
  Br  Br20  1  0.214090  0.836902  0.920994  1
