# generated using pymatgen
data_Zr5InBi2B
_symmetry_space_group_name_H-M   'P 1'
_cell_length_a   8.69316653
_cell_length_b   8.72817637
_cell_length_c   5.87155200
_cell_angle_alpha   90.00000000
_cell_angle_beta   90.00000000
_cell_angle_gamma   120.13331380
_symmetry_Int_Tables_number   1
_chemical_formula_structural   Zr5InBi2B
_chemical_formula_sum   'Zr10 In2 Bi4 B2'
_cell_volume   385.30094494
_cell_formula_units_Z   2
loop_
 _symmetry_equiv_pos_site_id
 _symmetry_equiv_pos_as_xyz
  1  'x, y, z'
loop_
 _atom_site_type_symbol
 _atom_site_label
 _atom_site_symmetry_multiplicity
 _atom_site_fract_x
 _atom_site_fract_y
 _atom_site_fract_z
 _atom_site_occupancy
  Zr  Zr0  1  0.664897  0.332528  0.497060  1
  Zr  Zr1  1  0.335103  0.667632  0.497060  1
  Zr  Zr2  1  0.335103  0.667632  0.002940  1
  Zr  Zr3  1  0.664897  0.332528  0.002940  1
  Zr  Zr4  1  0.769623  0.774471  0.250000  1
  Zr  Zr5  1  0.230377  0.004848  0.250000  1
  Zr  Zr6  1  0.000000  0.223909  0.250000  1
  Zr  Zr7  1  0.224525  0.223271  0.750000  1
  Zr  Zr8  1  0.775475  0.998746  0.750000  1
  Zr  Zr9  1  0.000000  0.775418  0.750000  1
  In  In10  1  0.396800  0.398525  0.250000  1
  In  In11  1  0.603200  0.001724  0.250000  1
  Bi  Bi12  1  0.000000  0.604013  0.250000  1
  Bi  Bi13  1  0.597061  0.597178  0.750000  1
  Bi  Bi14  1  0.402939  0.000117  0.750000  1
  Bi  Bi15  1  0.000000  0.398034  0.750000  1
  B  B16  1  0.000000  0.999714  0.498392  1
  B  B17  1  0.000000  0.999714  0.001608  1
