# generated using pymatgen
data_Zr2Ni10MoP7Ru
_symmetry_space_group_name_H-M   'P 1'
_cell_length_a   8.98586151
_cell_length_b   9.09622549
_cell_length_c   3.64242900
_cell_angle_alpha   90.00000000
_cell_angle_beta   90.00000000
_cell_angle_gamma   119.90878922
_symmetry_Int_Tables_number   1
_chemical_formula_structural   Zr2Ni10MoP7Ru
_chemical_formula_sum   'Zr2 Ni10 Mo1 P7 Ru1'
_cell_volume   258.07212175
_cell_formula_units_Z   1
loop_
 _symmetry_equiv_pos_site_id
 _symmetry_equiv_pos_as_xyz
  1  'x, y, z'
loop_
 _atom_site_type_symbol
 _atom_site_label
 _atom_site_symmetry_multiplicity
 _atom_site_fract_x
 _atom_site_fract_y
 _atom_site_fract_z
 _atom_site_occupancy
  Zr  Zr0  1  0.999420  0.999813  0.000000  1
  Zr  Zr1  1  0.329625  0.665929  0.500000  1
  Ni  Ni2  1  0.292451  0.395657  0.000000  1
  Ni  Ni3  1  0.103844  0.707499  0.000000  1
  Ni  Ni4  1  0.386503  0.171179  0.000000  1
  Ni  Ni5  1  0.792245  0.621931  0.000000  1
  Ni  Ni6  1  0.825370  0.207777  0.000000  1
  Ni  Ni7  1  0.230542  0.947050  0.500000  1
  Ni  Ni8  1  0.057355  0.281601  0.500000  1
  Ni  Ni9  1  0.718824  0.776395  0.500000  1
  Ni  Ni10  1  0.568530  0.104249  0.500000  1
  Ni  Ni11  1  0.602079  0.897980  0.000000  1
  Mo  Mo12  1  0.547153  0.431466  0.500000  1
  P  P13  1  0.671471  0.333435  0.000000  1
  P  P14  1  0.077607  0.452000  0.000000  1
  P  P15  1  0.254348  0.208513  0.500000  1
  P  P16  1  0.785898  0.044082  0.500000  1
  P  P17  1  0.957177  0.745720  0.500000  1
  P  P18  1  0.548891  0.632686  0.000000  1
  P  P19  1  0.371082  0.919678  0.000000  1
  Ru  Ru20  1  0.879582  0.455362  0.500000  1
