# generated using pymatgen
data_Tb6HoEr3(In2Pd)4
_symmetry_space_group_name_H-M   'P 1'
_cell_length_a   3.62543100
_cell_length_b   8.16818200
_cell_length_c   18.28244554
_cell_angle_alpha   90.00489881
_cell_angle_beta   90.00000000
_cell_angle_gamma   90.00000000
_symmetry_Int_Tables_number   1
_chemical_formula_structural   Tb6HoEr3(In2Pd)4
_chemical_formula_sum   'Tb6 Ho1 Er3 In8 Pd4'
_cell_volume   541.40135326
_cell_formula_units_Z   1
loop_
 _symmetry_equiv_pos_site_id
 _symmetry_equiv_pos_as_xyz
  1  'x, y, z'
loop_
 _atom_site_type_symbol
 _atom_site_label
 _atom_site_symmetry_multiplicity
 _atom_site_fract_x
 _atom_site_fract_y
 _atom_site_fract_z
 _atom_site_occupancy
  Tb  Tb0  1  0.000000  0.500004  0.500117  1
  Tb  Tb1  1  0.000000  0.999733  0.999848  1
  Tb  Tb2  1  0.000000  0.738956  0.281263  1
  Tb  Tb3  1  0.000000  0.261167  0.718702  1
  Tb  Tb4  1  0.000000  0.761158  0.781150  1
  Tb  Tb5  1  0.000000  0.239199  0.219045  1
  Ho  Ho6  1  0.000000  0.617384  0.083418  1
  Er  Er7  1  0.000000  0.382583  0.916342  1
  Er  Er8  1  0.000000  0.882684  0.583529  1
  Er  Er9  1  0.000000  0.117154  0.416406  1
  In  In10  1  0.500000  0.706407  0.932893  1
  In  In11  1  0.500000  0.292765  0.066863  1
  In  In12  1  0.500000  0.793483  0.433253  1
  In  In13  1  0.500000  0.206364  0.566670  1
  In  In14  1  0.500000  0.582266  0.650233  1
  In  In15  1  0.500000  0.417782  0.350012  1
  In  In16  1  0.500000  0.919031  0.150327  1
  In  In17  1  0.500000  0.082183  0.849669  1
  Pd  Pd18  1  0.500000  0.523077  0.195423  1
  Pd  Pd19  1  0.500000  0.476406  0.804874  1
  Pd  Pd20  1  0.500000  0.976580  0.694928  1
  Pd  Pd21  1  0.500000  0.023634  0.305032  1
