# generated using pymatgen
data_Ho6Zn3GaNi12
_symmetry_space_group_name_H-M   'P 1'
_cell_length_a   7.66205698
_cell_length_b   7.66205729
_cell_length_c   7.70360000
_cell_angle_alpha   109.58108421
_cell_angle_beta   109.58108502
_cell_angle_gamma   109.36113235
_symmetry_Int_Tables_number   1
_chemical_formula_structural   Ho6Zn3GaNi12
_chemical_formula_sum   'Ho6 Zn3 Ga1 Ni12'
_cell_volume   347.67380340
_cell_formula_units_Z   1
loop_
 _symmetry_equiv_pos_site_id
 _symmetry_equiv_pos_as_xyz
  1  'x, y, z'
loop_
 _atom_site_type_symbol
 _atom_site_label
 _atom_site_symmetry_multiplicity
 _atom_site_fract_x
 _atom_site_fract_y
 _atom_site_fract_z
 _atom_site_occupancy
  Ho  Ho0  1  0.706030  0.706030  0.000411  1
  Ho  Ho1  1  0.293970  0.000000  0.294381  1
  Ho  Ho2  1  0.000000  0.293970  0.294381  1
  Ho  Ho3  1  0.293970  0.293970  0.999589  1
  Ho  Ho4  1  0.706030  0.000000  0.705619  1
  Ho  Ho5  1  0.000000  0.706030  0.705619  1
  Zn  Zn6  1  0.000000  0.500000  0.000000  1
  Zn  Zn7  1  0.500000  0.000000  0.000000  1
  Zn  Zn8  1  0.500000  0.500000  0.500000  1
  Ga  Ga9  1  0.000000  0.000000  0.500000  1
  Ni  Ni10  1  0.338818  0.338818  0.677017  1
  Ni  Ni11  1  0.661182  0.000000  0.338198  1
  Ni  Ni12  1  0.000000  0.661182  0.338198  1
  Ni  Ni13  1  0.660916  0.339084  0.000000  1
  Ni  Ni14  1  0.339084  0.678170  0.339084  1
  Ni  Ni15  1  0.000000  0.338818  0.661802  1
  Ni  Ni16  1  0.339084  0.660916  0.000000  1
  Ni  Ni17  1  0.338818  0.000000  0.661802  1
  Ni  Ni18  1  0.678170  0.339084  0.339084  1
  Ni  Ni19  1  0.661182  0.661182  0.322983  1
  Ni  Ni20  1  0.660916  0.321830  0.660916  1
  Ni  Ni21  1  0.321830  0.660916  0.660916  1
