# generated using pymatgen
data_Ca4Si6NiHg
_symmetry_space_group_name_H-M   'P 1'
_cell_length_a   8.35691753
_cell_length_b   8.20521583
_cell_length_c   6.00234079
_cell_angle_alpha   70.10750771
_cell_angle_beta   67.40786842
_cell_angle_gamma   42.48460869
_symmetry_Int_Tables_number   1
_chemical_formula_structural   Ca4Si6NiHg
_chemical_formula_sum   'Ca4 Si6 Ni1 Hg1'
_cell_volume   255.57565466
_cell_formula_units_Z   1
loop_
 _symmetry_equiv_pos_site_id
 _symmetry_equiv_pos_as_xyz
  1  'x, y, z'
loop_
 _atom_site_type_symbol
 _atom_site_label
 _atom_site_symmetry_multiplicity
 _atom_site_fract_x
 _atom_site_fract_y
 _atom_site_fract_z
 _atom_site_occupancy
  Ca  Ca0  1  0.746051  0.746051  0.753949  1
  Ca  Ca1  1  0.754372  0.253397  0.746603  1
  Ca  Ca2  1  0.246051  0.246051  0.253949  1
  Ca  Ca3  1  0.253397  0.754372  0.245628  1
  Si  Si4  1  0.824626  0.349070  0.175374  1
  Si  Si5  1  0.687615  0.156286  0.312385  1
  Si  Si6  1  0.156286  0.687615  0.843714  1
  Si  Si7  1  0.349070  0.824626  0.650930  1
  Si  Si8  1  0.156558  0.156558  0.843442  1
  Si  Si9  1  0.825664  0.825664  0.174336  1
  Ni  Ni10  1  0.666387  0.666387  0.333613  1
  Hg  Hg11  1  0.333923  0.333923  0.666077  1
