# generated using pymatgen
data_Ce8Al(Si4Ni)3
_symmetry_space_group_name_H-M   'P 1'
_cell_length_a   8.09162900
_cell_length_b   8.09162801
_cell_length_c   8.38287000
_cell_angle_alpha   90.00000000
_cell_angle_beta   90.00000000
_cell_angle_gamma   119.99999176
_symmetry_Int_Tables_number   1
_chemical_formula_structural   Ce8Al(Si4Ni)3
_chemical_formula_sum   'Ce8 Al1 Si12 Ni3'
_cell_volume   475.33004956
_cell_formula_units_Z   1
loop_
 _symmetry_equiv_pos_site_id
 _symmetry_equiv_pos_as_xyz
  1  'x, y, z'
loop_
 _atom_site_type_symbol
 _atom_site_label
 _atom_site_symmetry_multiplicity
 _atom_site_fract_x
 _atom_site_fract_y
 _atom_site_fract_z
 _atom_site_occupancy
  Ce  Ce0  1  0.501583  0.003170  0.249087  1
  Ce  Ce1  1  0.501587  0.003174  0.751009  1
  Ce  Ce2  1  0.996830  0.498417  0.249087  1
  Ce  Ce3  1  0.996826  0.498413  0.751009  1
  Ce  Ce4  1  0.501583  0.498417  0.249087  1
  Ce  Ce5  1  0.501587  0.498413  0.751009  1
  Ce  Ce6  1  0.000000  0.000000  0.249264  1
  Ce  Ce7  1  0.000000  0.000000  0.750762  1
  Al  Al8  1  0.333333  0.666667  0.500043  1
  Si  Si9  1  0.170345  0.340689  0.000019  1
  Si  Si10  1  0.830593  0.661187  0.000077  1
  Si  Si11  1  0.659311  0.829655  0.000019  1
  Si  Si12  1  0.827534  0.655069  0.499992  1
  Si  Si13  1  0.338813  0.169407  0.000077  1
  Si  Si14  1  0.162203  0.324406  0.499953  1
  Si  Si15  1  0.170345  0.829655  0.000019  1
  Si  Si16  1  0.344931  0.172466  0.499992  1
  Si  Si17  1  0.830593  0.169407  0.000077  1
  Si  Si18  1  0.675594  0.837797  0.499953  1
  Si  Si19  1  0.827534  0.172466  0.499992  1
  Si  Si20  1  0.162203  0.837797  0.499953  1
  Ni  Ni21  1  0.333333  0.666667  0.999810  1
  Ni  Ni22  1  0.666667  0.333333  0.999929  1
  Ni  Ni23  1  0.666667  0.333333  0.499781  1
