# generated using pymatgen
data_Dy3Er9(Si3Ir)4
_symmetry_space_group_name_H-M   'P 1'
_cell_length_a   4.22396400
_cell_length_b   10.57345677
_cell_length_c   12.21403651
_cell_angle_alpha   90.04986598
_cell_angle_beta   90.00000000
_cell_angle_gamma   90.00000000
_symmetry_Int_Tables_number   1
_chemical_formula_structural   Dy3Er9(Si3Ir)4
_chemical_formula_sum   'Dy3 Er9 Si12 Ir4'
_cell_volume   545.50187971
_cell_formula_units_Z   1
loop_
 _symmetry_equiv_pos_site_id
 _symmetry_equiv_pos_as_xyz
  1  'x, y, z'
loop_
 _atom_site_type_symbol
 _atom_site_label
 _atom_site_symmetry_multiplicity
 _atom_site_fract_x
 _atom_site_fract_y
 _atom_site_fract_z
 _atom_site_occupancy
  Dy  Dy0  1  0.250000  0.841382  0.301005  1
  Dy  Dy1  1  0.750000  0.341059  0.199146  1
  Dy  Dy2  1  0.750000  0.158634  0.699008  1
  Er  Er3  1  0.250000  0.879583  0.020212  1
  Er  Er4  1  0.250000  0.620191  0.520406  1
  Er  Er5  1  0.750000  0.120104  0.979738  1
  Er  Er6  1  0.750000  0.379879  0.479918  1
  Er  Er7  1  0.250000  0.918751  0.603543  1
  Er  Er8  1  0.250000  0.581067  0.103470  1
  Er  Er9  1  0.750000  0.080999  0.396648  1
  Er  Er10  1  0.750000  0.419385  0.896568  1
  Er  Er11  1  0.250000  0.659843  0.800406  1
  Si  Si12  1  0.250000  0.010297  0.821691  1
  Si  Si13  1  0.250000  0.489523  0.321511  1
  Si  Si14  1  0.750000  0.989620  0.178334  1
  Si  Si15  1  0.750000  0.511067  0.678904  1
  Si  Si16  1  0.250000  0.247112  0.841096  1
  Si  Si17  1  0.250000  0.252843  0.341284  1
  Si  Si18  1  0.750000  0.752798  0.158657  1
  Si  Si19  1  0.750000  0.746683  0.659124  1
  Si  Si20  1  0.250000  0.200161  0.543119  1
  Si  Si21  1  0.250000  0.299883  0.042823  1
  Si  Si22  1  0.750000  0.799767  0.457140  1
  Si  Si23  1  0.750000  0.699500  0.956058  1
  Ir  Ir24  1  0.250000  0.390571  0.680644  1
  Ir  Ir25  1  0.250000  0.110249  0.180061  1
  Ir  Ir26  1  0.750000  0.609955  0.319670  1
  Ir  Ir27  1  0.750000  0.889093  0.819815  1
