# generated using pymatgen
data_Er20CoBi8IrRu2
_symmetry_space_group_name_H-M   'P 1'
_cell_length_a   7.91223185
_cell_length_b   8.92972200
_cell_length_c   12.36814488
_cell_angle_alpha   90.00000000
_cell_angle_beta   90.24882328
_cell_angle_gamma   90.00000000
_symmetry_Int_Tables_number   1
_chemical_formula_structural   Er20CoBi8IrRu2
_chemical_formula_sum   'Er20 Co1 Bi8 Ir1 Ru2'
_cell_volume   873.85104923
_cell_formula_units_Z   1
loop_
 _symmetry_equiv_pos_site_id
 _symmetry_equiv_pos_as_xyz
  1  'x, y, z'
loop_
 _atom_site_type_symbol
 _atom_site_label
 _atom_site_symmetry_multiplicity
 _atom_site_fract_x
 _atom_site_fract_y
 _atom_site_fract_z
 _atom_site_occupancy
  Er  Er0  1  0.657359  0.750000  0.700283  1
  Er  Er1  1  0.339556  0.250000  0.292831  1
  Er  Er2  1  0.160512  0.250000  0.792232  1
  Er  Er3  1  0.839217  0.750000  0.207894  1
  Er  Er4  1  0.123645  0.750000  0.806996  1
  Er  Er5  1  0.876784  0.250000  0.190727  1
  Er  Er6  1  0.622285  0.250000  0.690126  1
  Er  Er7  1  0.380413  0.750000  0.313744  1
  Er  Er8  1  0.557350  0.750000  0.996803  1
  Er  Er9  1  0.445683  0.250000  0.002479  1
  Er  Er10  1  0.055474  0.250000  0.502533  1
  Er  Er11  1  0.945509  0.750000  0.497974  1
  Er  Er12  1  0.826705  0.456731  0.933779  1
  Er  Er13  1  0.175261  0.542809  0.066507  1
  Er  Er14  1  0.325358  0.545202  0.565161  1
  Er  Er15  1  0.175261  0.957191  0.066507  1
  Er  Er16  1  0.672051  0.463642  0.436531  1
  Er  Er17  1  0.826705  0.043269  0.933779  1
  Er  Er18  1  0.672051  0.036358  0.436531  1
  Er  Er19  1  0.325358  0.954798  0.565161  1
  Co  Co20  1  0.570825  0.750000  0.490965  1
  Bi  Bi21  1  0.931871  0.008780  0.672358  1
  Bi  Bi22  1  0.066609  0.991769  0.327843  1
  Bi  Bi23  1  0.433854  0.991333  0.826911  1
  Bi  Bi24  1  0.066609  0.508231  0.327843  1
  Bi  Bi25  1  0.566218  0.007865  0.173454  1
  Bi  Bi26  1  0.931871  0.491220  0.672358  1
  Bi  Bi27  1  0.566218  0.492135  0.173454  1
  Bi  Bi28  1  0.433854  0.508667  0.826911  1
  Ir  Ir29  1  0.927453  0.750000  0.991036  1
  Ru  Ru30  1  0.073746  0.250000  0.009568  1
  Ru  Ru31  1  0.428333  0.250000  0.508715  1
