# generated using pymatgen
data_Zr10ZnCuSn5Sb
_symmetry_space_group_name_H-M   'P 1'
_cell_length_a   8.69533772
_cell_length_b   8.69703583
_cell_length_c   5.88866219
_cell_angle_alpha   90.07290296
_cell_angle_beta   89.96354422
_cell_angle_gamma   120.00645562
_symmetry_Int_Tables_number   1
_chemical_formula_structural   Zr10ZnCuSn5Sb
_chemical_formula_sum   'Zr10 Zn1 Cu1 Sn5 Sb1'
_cell_volume   385.63494375
_cell_formula_units_Z   1
loop_
 _symmetry_equiv_pos_site_id
 _symmetry_equiv_pos_as_xyz
  1  'x, y, z'
loop_
 _atom_site_type_symbol
 _atom_site_label
 _atom_site_symmetry_multiplicity
 _atom_site_fract_x
 _atom_site_fract_y
 _atom_site_fract_z
 _atom_site_occupancy
  Zr  Zr0  1  0.667434  0.333498  0.999674  1
  Zr  Zr1  1  0.332566  0.666064  0.999674  1
  Zr  Zr2  1  0.332249  0.665881  0.500279  1
  Zr  Zr3  1  0.667751  0.333632  0.500279  1
  Zr  Zr4  1  0.733990  0.734074  0.752896  1
  Zr  Zr5  1  0.266010  0.000084  0.752896  1
  Zr  Zr6  1  0.000000  0.266511  0.752111  1
  Zr  Zr7  1  0.264721  0.265956  0.247328  1
  Zr  Zr8  1  0.735279  0.001236  0.247328  1
  Zr  Zr9  1  0.000000  0.733380  0.247346  1
  Zn  Zn10  1  0.000000  0.998870  0.500732  1
  Cu  Cu11  1  0.000000  0.998557  0.998957  1
  Sn  Sn12  1  0.385449  0.384828  0.750009  1
  Sn  Sn13  1  0.614551  0.999379  0.750009  1
  Sn  Sn14  1  0.000000  0.616359  0.749642  1
  Sn  Sn15  1  0.614974  0.615503  0.250170  1
  Sn  Sn16  1  0.385026  0.000529  0.250170  1
  Sb  Sb17  1  0.000000  0.385660  0.250499  1
