# generated using pymatgen
data_LuTe16
_symmetry_space_group_name_H-M   'P 1'
_cell_length_a   4.39173137
_cell_length_b   4.39173018
_cell_length_c   33.57561021
_cell_angle_alpha   86.25014570
_cell_angle_beta   86.25014696
_cell_angle_gamma   60.00000587
_symmetry_Int_Tables_number   1
_chemical_formula_structural   LuTe16
_chemical_formula_sum   'Lu1 Te16'
_cell_volume   559.22175444
_cell_formula_units_Z   1
loop_
 _symmetry_equiv_pos_site_id
 _symmetry_equiv_pos_as_xyz
  1  'x, y, z'
loop_
 _atom_site_type_symbol
 _atom_site_label
 _atom_site_symmetry_multiplicity
 _atom_site_fract_x
 _atom_site_fract_y
 _atom_site_fract_z
 _atom_site_occupancy
  Lu  Lu0  1  0.000000  0.000000  0.000000  1
  Te  Te1  1  0.291406  0.291406  0.125784  1
  Te  Te2  1  0.708594  0.708594  0.874216  1
  Te  Te3  1  0.233916  0.233916  0.298251  1
  Te  Te4  1  0.766084  0.766084  0.701749  1
  Te  Te5  1  0.470538  0.470538  0.588387  1
  Te  Te6  1  0.529462  0.529462  0.411613  1
  Te  Te7  1  0.350145  0.350145  0.949565  1
  Te  Te8  1  0.649855  0.649855  0.050435  1
  Te  Te9  1  0.059370  0.059370  0.821891  1
  Te  Te10  1  0.940630  0.940630  0.178109  1
  Te  Te11  1  0.411644  0.411644  0.765069  1
  Te  Te12  1  0.588356  0.588356  0.234931  1
  Te  Te13  1  0.117531  0.117531  0.647405  1
  Te  Te14  1  0.882469  0.882469  0.352595  1
  Te  Te15  1  0.175826  0.175826  0.472521  1
  Te  Te16  1  0.824174  0.824174  0.527479  1
