# generated using pymatgen
data_Li4Sn3SbPd8
_symmetry_space_group_name_H-M   'P 1'
_cell_length_a   4.50947918
_cell_length_b   6.31141900
_cell_length_c   9.01880936
_cell_angle_alpha   90.00000000
_cell_angle_beta   89.96754955
_cell_angle_gamma   90.00000000
_symmetry_Int_Tables_number   1
_chemical_formula_structural   Li4Sn3SbPd8
_chemical_formula_sum   'Li4 Sn3 Sb1 Pd8'
_cell_volume   256.68620931
_cell_formula_units_Z   1
loop_
 _symmetry_equiv_pos_site_id
 _symmetry_equiv_pos_as_xyz
  1  'x, y, z'
loop_
 _atom_site_type_symbol
 _atom_site_label
 _atom_site_symmetry_multiplicity
 _atom_site_fract_x
 _atom_site_fract_y
 _atom_site_fract_z
 _atom_site_occupancy
  Li  Li0  1  0.237785  0.749999  0.123998  1
  Li  Li1  1  0.737741  0.249999  0.376121  1
  Li  Li2  1  0.262247  0.749999  0.624020  1
  Li  Li3  1  0.762360  0.249999  0.875893  1
  Sn  Sn4  1  0.735463  0.749999  0.377397  1
  Sn  Sn5  1  0.264475  0.249999  0.623568  1
  Sn  Sn6  1  0.764549  0.749999  0.875557  1
  Sb  Sb7  1  0.235695  0.249999  0.123546  1
  Pd  Pd8  1  0.733950  0.500055  0.126648  1
  Pd  Pd9  1  0.733950  0.999945  0.126648  1
  Pd  Pd10  1  0.234303  0.000372  0.373135  1
  Pd  Pd11  1  0.234303  0.499628  0.373135  1
  Pd  Pd12  1  0.765778  0.500321  0.626555  1
  Pd  Pd13  1  0.765778  0.999679  0.626555  1
  Pd  Pd14  1  0.265811  0.000353  0.873611  1
  Pd  Pd15  1  0.265811  0.499647  0.873611  1
