# generated using pymatgen
data_Tb12Rh7
_symmetry_space_group_name_H-M   'P 1'
_cell_length_a   11.39652200
_cell_length_b   8.32024567
_cell_length_c   11.41565267
_cell_angle_alpha   57.23332628
_cell_angle_beta   90.00000000
_cell_angle_gamma   90.00000000
_symmetry_Int_Tables_number   1
_chemical_formula_structural   Tb12Rh7
_chemical_formula_sum   'Tb24 Rh14'
_cell_volume   910.21513386
_cell_formula_units_Z   2
loop_
 _symmetry_equiv_pos_site_id
 _symmetry_equiv_pos_as_xyz
  1  'x, y, z'
loop_
 _atom_site_type_symbol
 _atom_site_label
 _atom_site_symmetry_multiplicity
 _atom_site_fract_x
 _atom_site_fract_y
 _atom_site_fract_z
 _atom_site_occupancy
  Tb  Tb0  1  0.702366  0.240034  0.527778  1
  Tb  Tb1  1  0.202366  0.759966  0.972222  1
  Tb  Tb2  1  0.845120  0.508073  0.657268  1
  Tb  Tb3  1  0.345120  0.491927  0.842732  1
  Tb  Tb4  1  0.154880  0.491927  0.342732  1
  Tb  Tb5  1  0.654880  0.508073  0.157268  1
  Tb  Tb6  1  0.005746  0.846003  0.364266  1
  Tb  Tb7  1  0.505746  0.153997  0.135734  1
  Tb  Tb8  1  0.994254  0.153997  0.635734  1
  Tb  Tb9  1  0.494254  0.846003  0.864266  1
  Tb  Tb10  1  0.797634  0.240034  0.027778  1
  Tb  Tb11  1  0.297634  0.759966  0.472222  1
  Tb  Tb12  1  0.926180  0.776836  0.092664  1
  Tb  Tb13  1  0.426180  0.223164  0.407336  1
  Tb  Tb14  1  0.073820  0.223164  0.907336  1
  Tb  Tb15  1  0.573820  0.776836  0.592664  1
  Tb  Tb16  1  0.303930  0.241731  0.671742  1
  Tb  Tb17  1  0.803930  0.758269  0.828258  1
  Tb  Tb18  1  0.696070  0.758269  0.328258  1
  Tb  Tb19  1  0.196070  0.241731  0.171742  1
  Tb  Tb20  1  0.919051  0.275107  0.291586  1
  Tb  Tb21  1  0.419051  0.724893  0.208414  1
  Tb  Tb22  1  0.080949  0.724893  0.708414  1
  Tb  Tb23  1  0.580949  0.275107  0.791586  1
  Rh  Rh24  1  0.500000  0.500000  0.500000  1
  Rh  Rh25  1  0.000000  0.500000  0.000000  1
  Rh  Rh26  1  0.641585  0.914702  0.052603  1
  Rh  Rh27  1  0.141585  0.085298  0.447397  1
  Rh  Rh28  1  0.358415  0.085298  0.947397  1
  Rh  Rh29  1  0.858415  0.914702  0.552603  1
  Rh  Rh30  1  0.395957  0.488789  0.102918  1
  Rh  Rh31  1  0.895957  0.511211  0.397082  1
  Rh  Rh32  1  0.604043  0.511211  0.897082  1
  Rh  Rh33  1  0.104043  0.488789  0.602918  1
  Rh  Rh34  1  0.827410  0.110204  0.842315  1
  Rh  Rh35  1  0.327410  0.889796  0.657685  1
  Rh  Rh36  1  0.172590  0.889796  0.157685  1
  Rh  Rh37  1  0.672590  0.110204  0.342315  1
