# generated using pymatgen
data_Ho2MgSi2(PPd5)4
_symmetry_space_group_name_H-M   'P 1'
_cell_length_a   8.65009250
_cell_length_b   8.65326292
_cell_length_c   8.65326358
_cell_angle_alpha   59.97576317
_cell_angle_beta   60.01212037
_cell_angle_gamma   60.01211691
_symmetry_Int_Tables_number   1
_chemical_formula_structural   Ho2MgSi2(PPd5)4
_chemical_formula_sum   'Ho2 Mg1 Si2 P4 Pd20'
_cell_volume   457.99999290
_cell_formula_units_Z   1
loop_
 _symmetry_equiv_pos_site_id
 _symmetry_equiv_pos_as_xyz
  1  'x, y, z'
loop_
 _atom_site_type_symbol
 _atom_site_label
 _atom_site_symmetry_multiplicity
 _atom_site_fract_x
 _atom_site_fract_y
 _atom_site_fract_z
 _atom_site_occupancy
  Ho  Ho0  1  0.250000  0.250000  0.250000  1
  Ho  Ho1  1  0.750000  0.750000  0.750000  1
  Mg  Mg2  1  0.000000  0.000000  0.000000  1
  Si  Si3  1  0.736260  0.263740  0.263740  1
  Si  Si4  1  0.263740  0.736260  0.736260  1
  P  P5  1  0.264090  0.735910  0.264090  1
  P  P6  1  0.735910  0.264090  0.735910  1
  P  P7  1  0.264090  0.264090  0.735910  1
  P  P8  1  0.735910  0.735910  0.264090  1
  Pd  Pd9  1  0.382996  0.384914  0.384914  1
  Pd  Pd10  1  0.617004  0.615086  0.615086  1
  Pd  Pd11  1  0.384914  0.382996  0.847177  1
  Pd  Pd12  1  0.384914  0.847177  0.382996  1
  Pd  Pd13  1  0.615086  0.617004  0.152823  1
  Pd  Pd14  1  0.615086  0.152823  0.617004  1
  Pd  Pd15  1  0.847177  0.384914  0.384914  1
  Pd  Pd16  1  0.152823  0.615086  0.615086  1
  Pd  Pd17  1  0.343300  0.000000  0.000000  1
  Pd  Pd18  1  0.656700  0.000000  0.000000  1
  Pd  Pd19  1  0.000000  0.343300  0.656700  1
  Pd  Pd20  1  0.000000  0.656700  0.343300  1
  Pd  Pd21  1  0.002019  0.344799  0.997981  1
  Pd  Pd22  1  0.655201  0.997981  0.344799  1
  Pd  Pd23  1  0.997981  0.655201  0.002019  1
  Pd  Pd24  1  0.344799  0.002019  0.655201  1
  Pd  Pd25  1  0.002019  0.997981  0.344799  1
  Pd  Pd26  1  0.997981  0.002019  0.655201  1
  Pd  Pd27  1  0.655201  0.344799  0.997981  1
  Pd  Pd28  1  0.344799  0.655201  0.002019  1
