# generated using pymatgen
data_La7Tb(Lu3Si4)4
_symmetry_space_group_name_H-M   'P 1'
_cell_length_a   7.72200110
_cell_length_b   7.72024204
_cell_length_c   14.20154592
_cell_angle_alpha   90.14208280
_cell_angle_beta   89.99374975
_cell_angle_gamma   90.08435444
_symmetry_Int_Tables_number   1
_chemical_formula_structural   La7Tb(Lu3Si4)4
_chemical_formula_sum   'La7 Tb1 Lu12 Si16'
_cell_volume   846.63182436
_cell_formula_units_Z   1
loop_
 _symmetry_equiv_pos_site_id
 _symmetry_equiv_pos_as_xyz
  1  'x, y, z'
loop_
 _atom_site_type_symbol
 _atom_site_label
 _atom_site_symmetry_multiplicity
 _atom_site_fract_x
 _atom_site_fract_y
 _atom_site_fract_z
 _atom_site_occupancy
  La  La0  1  0.008116  0.354705  0.539618  1
  La  La1  1  0.645455  0.992169  0.961104  1
  La  La2  1  0.143909  0.508422  0.790740  1
  La  La3  1  0.855542  0.491976  0.288898  1
  La  La4  1  0.507874  0.145375  0.209183  1
  La  La5  1  0.491403  0.854936  0.710858  1
  La  La6  1  0.354906  0.007852  0.459749  1
  Tb  Tb7  1  0.994717  0.641870  0.040752  1
  Lu  Lu8  1  0.358414  0.494461  0.374823  1
  Lu  Lu9  1  0.858595  0.004501  0.374216  1
  Lu  Lu10  1  0.994560  0.139832  0.124501  1
  Lu  Lu11  1  0.006335  0.858247  0.625402  1
  Lu  Lu12  1  0.641684  0.507333  0.876307  1
  Lu  Lu13  1  0.494330  0.358800  0.624832  1
  Lu  Lu14  1  0.507402  0.642077  0.124104  1
  Lu  Lu15  1  0.139972  0.994006  0.875834  1
  Lu  Lu16  1  0.680544  0.681166  0.500054  1
  Lu  Lu17  1  0.818879  0.181278  0.750390  1
  Lu  Lu18  1  0.180044  0.817422  0.249317  1
  Lu  Lu19  1  0.317079  0.321034  0.999905  1
  Si  Si20  1  0.061861  0.711460  0.436992  1
  Si  Si21  1  0.939959  0.292127  0.938189  1
  Si  Si22  1  0.712336  0.061916  0.563027  1
  Si  Si23  1  0.210134  0.441090  0.185456  1
  Si  Si24  1  0.788018  0.561716  0.687136  1
  Si  Si25  1  0.438176  0.212178  0.813343  1
  Si  Si26  1  0.562820  0.787505  0.312536  1
  Si  Si27  1  0.285393  0.934644  0.063071  1
  Si  Si28  1  0.850836  0.796044  0.811629  1
  Si  Si29  1  0.148092  0.204221  0.310519  1
  Si  Si30  1  0.799985  0.848414  0.185903  1
  Si  Si31  1  0.296037  0.648769  0.560650  1
  Si  Si32  1  0.707309  0.355147  0.061341  1
  Si  Si33  1  0.648823  0.295858  0.438966  1
  Si  Si34  1  0.346446  0.702577  0.940835  1
  Si  Si35  1  0.204016  0.148873  0.689824  1
