# generated using pymatgen
data_Tm3Lu7Sn5Sb
_symmetry_space_group_name_H-M   'P 1'
_cell_length_a   8.79704006
_cell_length_b   8.80339159
_cell_length_c   6.34934200
_cell_angle_alpha   90.00000000
_cell_angle_beta   90.00000000
_cell_angle_gamma   120.05433799
_symmetry_Int_Tables_number   1
_chemical_formula_structural   Tm3Lu7Sn5Sb
_chemical_formula_sum   'Tm3 Lu7 Sn5 Sb1'
_cell_volume   425.60614114
_cell_formula_units_Z   1
loop_
 _symmetry_equiv_pos_site_id
 _symmetry_equiv_pos_as_xyz
  1  'x, y, z'
loop_
 _atom_site_type_symbol
 _atom_site_label
 _atom_site_symmetry_multiplicity
 _atom_site_fract_x
 _atom_site_fract_y
 _atom_site_fract_z
 _atom_site_occupancy
  Tm  Tm0  1  0.762446  0.762535  0.750000  1
  Tm  Tm1  1  0.237961  0.998304  0.750000  1
  Tm  Tm2  1  0.238159  0.238224  0.250000  1
  Lu  Lu3  1  0.667475  0.333157  0.000130  1
  Lu  Lu4  1  0.333164  0.667439  0.000131  1
  Lu  Lu5  1  0.333164  0.667439  0.499869  1
  Lu  Lu6  1  0.667475  0.333157  0.499870  1
  Lu  Lu7  1  0.998155  0.237945  0.750000  1
  Lu  Lu8  1  0.761720  0.000483  0.250000  1
  Lu  Lu9  1  0.000437  0.761552  0.250000  1
  Sn  Sn10  1  0.605118  0.999996  0.750000  1
  Sn  Sn11  1  0.999762  0.604486  0.750000  1
  Sn  Sn12  1  0.606355  0.606379  0.250000  1
  Sn  Sn13  1  0.394781  0.000671  0.250000  1
  Sn  Sn14  1  0.000671  0.394803  0.250000  1
  Sb  Sb15  1  0.393154  0.393428  0.750000  1
