# generated using pymatgen
data_Nd3Cd3Ag2Ru
_symmetry_space_group_name_H-M   'P 1'
_cell_length_a   7.97471800
_cell_length_b   7.97471767
_cell_length_c   4.00351200
_cell_angle_alpha   90.00000000
_cell_angle_beta   90.00000000
_cell_angle_gamma   120.00000135
_symmetry_Int_Tables_number   1
_chemical_formula_structural   Nd3Cd3Ag2Ru
_chemical_formula_sum   'Nd3 Cd3 Ag2 Ru1'
_cell_volume   220.49686130
_cell_formula_units_Z   1
loop_
 _symmetry_equiv_pos_site_id
 _symmetry_equiv_pos_as_xyz
  1  'x, y, z'
loop_
 _atom_site_type_symbol
 _atom_site_label
 _atom_site_symmetry_multiplicity
 _atom_site_fract_x
 _atom_site_fract_y
 _atom_site_fract_z
 _atom_site_occupancy
  Nd  Nd0  1  0.032992  0.427778  0.500000  1
  Nd  Nd1  1  0.572222  0.605214  0.500000  1
  Nd  Nd2  1  0.394786  0.967008  0.500000  1
  Cd  Cd3  1  0.999617  0.739274  0.000000  1
  Cd  Cd4  1  0.260726  0.260344  0.000000  1
  Cd  Cd5  1  0.739656  0.000383  0.000000  1
  Ag  Ag6  1  0.666667  0.333333  0.000000  1
  Ag  Ag7  1  0.000000  0.000000  0.500000  1
  Ru  Ru8  1  0.333333  0.666667  0.000000  1
