# generated using pymatgen
data_HoMnCo(PIr)3
_symmetry_space_group_name_H-M   'P 1'
_cell_length_a   3.86758800
_cell_length_b   10.68025000
_cell_length_c   12.35678600
_cell_angle_alpha   90.00000000
_cell_angle_beta   90.00000000
_cell_angle_gamma   90.00000000
_symmetry_Int_Tables_number   1
_chemical_formula_structural   HoMnCo(PIr)3
_chemical_formula_sum   'Ho4 Mn4 Co4 P12 Ir12'
_cell_volume   510.41937119
_cell_formula_units_Z   4
loop_
 _symmetry_equiv_pos_site_id
 _symmetry_equiv_pos_as_xyz
  1  'x, y, z'
loop_
 _atom_site_type_symbol
 _atom_site_label
 _atom_site_symmetry_multiplicity
 _atom_site_fract_x
 _atom_site_fract_y
 _atom_site_fract_z
 _atom_site_occupancy
  Ho  Ho0  1  0.250000  0.583261  0.709014  1
  Ho  Ho1  1  0.250000  0.916739  0.209014  1
  Ho  Ho2  1  0.750000  0.416739  0.290986  1
  Ho  Ho3  1  0.750000  0.083261  0.790986  1
  Mn  Mn4  1  0.250000  0.714531  0.981595  1
  Mn  Mn5  1  0.250000  0.785469  0.481595  1
  Mn  Mn6  1  0.750000  0.285469  0.018405  1
  Mn  Mn7  1  0.750000  0.214531  0.518405  1
  Co  Co8  1  0.250000  0.466455  0.935714  1
  Co  Co9  1  0.250000  0.033545  0.435714  1
  Co  Co10  1  0.750000  0.533545  0.064286  1
  Co  Co11  1  0.750000  0.966455  0.564286  1
  P  P12  1  0.250000  0.422912  0.105718  1
  P  P13  1  0.250000  0.077088  0.605718  1
  P  P14  1  0.750000  0.577088  0.894282  1
  P  P15  1  0.750000  0.922912  0.394282  1
  P  P16  1  0.250000  0.271611  0.872885  1
  P  P17  1  0.250000  0.228389  0.372885  1
  P  P18  1  0.750000  0.728389  0.127115  1
  P  P19  1  0.750000  0.771611  0.627115  1
  P  P20  1  0.250000  0.599820  0.388241  1
  P  P21  1  0.250000  0.900180  0.888241  1
  P  P22  1  0.750000  0.400180  0.611759  1
  P  P23  1  0.750000  0.099820  0.111759  1
  Ir  Ir24  1  0.250000  0.405210  0.479796  1
  Ir  Ir25  1  0.250000  0.094790  0.979796  1
  Ir  Ir26  1  0.750000  0.594790  0.520204  1
  Ir  Ir27  1  0.750000  0.905210  0.020204  1
  Ir  Ir28  1  0.250000  0.229627  0.179032  1
  Ir  Ir29  1  0.250000  0.270373  0.679032  1
  Ir  Ir30  1  0.750000  0.770373  0.820968  1
  Ir  Ir31  1  0.750000  0.729627  0.320968  1
  Ir  Ir32  1  0.250000  0.886467  0.695556  1
  Ir  Ir33  1  0.250000  0.613533  0.195556  1
  Ir  Ir34  1  0.750000  0.113533  0.304444  1
  Ir  Ir35  1  0.750000  0.386467  0.804444  1
