# generated using pymatgen
data_Nb8AlInSe16
_symmetry_space_group_name_H-M   'P 1'
_cell_length_a   7.02765400
_cell_length_b   7.02765596
_cell_length_c   14.36060700
_cell_angle_alpha   90.00000000
_cell_angle_beta   90.00000000
_cell_angle_gamma   120.00000961
_symmetry_Int_Tables_number   1
_chemical_formula_structural   Nb8AlInSe16
_chemical_formula_sum   'Nb8 Al1 In1 Se16'
_cell_volume   614.22041973
_cell_formula_units_Z   1
loop_
 _symmetry_equiv_pos_site_id
 _symmetry_equiv_pos_as_xyz
  1  'x, y, z'
loop_
 _atom_site_type_symbol
 _atom_site_label
 _atom_site_symmetry_multiplicity
 _atom_site_fract_x
 _atom_site_fract_y
 _atom_site_fract_z
 _atom_site_occupancy
  Nb  Nb0  1  0.000000  0.000000  0.224951  1
  Nb  Nb1  1  0.000000  0.000000  0.775049  1
  Nb  Nb2  1  0.505010  0.010022  0.225763  1
  Nb  Nb3  1  0.494990  0.989978  0.774237  1
  Nb  Nb4  1  0.989978  0.494990  0.225763  1
  Nb  Nb5  1  0.010022  0.505010  0.774237  1
  Nb  Nb6  1  0.505010  0.494990  0.225763  1
  Nb  Nb7  1  0.494990  0.505010  0.774237  1
  Al  Al8  1  0.000000  0.000000  0.000000  1
  In  In9  1  0.000000  0.000000  0.500000  1
  Se  Se10  1  0.333333  0.666667  0.656141  1
  Se  Se11  1  0.666667  0.333333  0.343859  1
  Se  Se12  1  0.666667  0.333333  0.109070  1
  Se  Se13  1  0.333333  0.666667  0.890930  1
  Se  Se14  1  0.168511  0.337022  0.108949  1
  Se  Se15  1  0.831489  0.662978  0.891051  1
  Se  Se16  1  0.662978  0.831489  0.108949  1
  Se  Se17  1  0.833971  0.667941  0.660328  1
  Se  Se18  1  0.337022  0.168511  0.891051  1
  Se  Se19  1  0.166029  0.332059  0.339672  1
  Se  Se20  1  0.168511  0.831489  0.108949  1
  Se  Se21  1  0.332059  0.166029  0.660328  1
  Se  Se22  1  0.831489  0.168511  0.891051  1
  Se  Se23  1  0.667941  0.833971  0.339672  1
  Se  Se24  1  0.833971  0.166029  0.660328  1
  Se  Se25  1  0.166029  0.833971  0.339672  1
