# generated using pymatgen
data_Tb7Lu3(Sn3Se)2
_symmetry_space_group_name_H-M   'P 1'
_cell_length_a   9.03840800
_cell_length_b   9.03840892
_cell_length_c   6.63391000
_cell_angle_alpha   90.00000000
_cell_angle_beta   90.00000000
_cell_angle_gamma   119.99999663
_symmetry_Int_Tables_number   1
_chemical_formula_structural   Tb7Lu3(Sn3Se)2
_chemical_formula_sum   'Tb7 Lu3 Sn6 Se2'
_cell_volume   469.33630459
_cell_formula_units_Z   1
loop_
 _symmetry_equiv_pos_site_id
 _symmetry_equiv_pos_as_xyz
  1  'x, y, z'
loop_
 _atom_site_type_symbol
 _atom_site_label
 _atom_site_symmetry_multiplicity
 _atom_site_fract_x
 _atom_site_fract_y
 _atom_site_fract_z
 _atom_site_occupancy
  Tb  Tb0  1  0.666667  0.333333  0.000000  1
  Tb  Tb1  1  0.745928  0.746243  0.749641  1
  Tb  Tb2  1  0.253757  0.999686  0.749641  1
  Tb  Tb3  1  0.000314  0.254072  0.749641  1
  Tb  Tb4  1  0.253757  0.254072  0.250359  1
  Tb  Tb5  1  0.745928  0.999686  0.250359  1
  Tb  Tb6  1  0.000314  0.746243  0.250359  1
  Lu  Lu7  1  0.333333  0.666667  0.000000  1
  Lu  Lu8  1  0.333333  0.666667  0.500000  1
  Lu  Lu9  1  0.666667  0.333333  0.500000  1
  Sn  Sn10  1  0.396751  0.398034  0.748827  1
  Sn  Sn11  1  0.601966  0.998716  0.748827  1
  Sn  Sn12  1  0.001284  0.603249  0.748827  1
  Sn  Sn13  1  0.601966  0.603249  0.251173  1
  Sn  Sn14  1  0.396751  0.998716  0.251173  1
  Sn  Sn15  1  0.001284  0.398034  0.251173  1
  Se  Se16  1  0.000000  0.000000  0.000000  1
  Se  Se17  1  0.000000  0.000000  0.500000  1
