# generated using pymatgen
data_TbHo10InHg8(PdPt)2
_symmetry_space_group_name_H-M   'P 1'
_cell_length_a   13.01189079
_cell_length_b   13.02265879
_cell_length_c   3.70008600
_cell_angle_alpha   90.00000000
_cell_angle_beta   90.00000000
_cell_angle_gamma   111.86269389
_symmetry_Int_Tables_number   1
_chemical_formula_structural   TbHo10InHg8(PdPt)2
_chemical_formula_sum   'Tb1 Ho10 In1 Hg8 Pd2 Pt2'
_cell_volume   581.88450931
_cell_formula_units_Z   1
loop_
 _symmetry_equiv_pos_site_id
 _symmetry_equiv_pos_as_xyz
  1  'x, y, z'
loop_
 _atom_site_type_symbol
 _atom_site_label
 _atom_site_symmetry_multiplicity
 _atom_site_fract_x
 _atom_site_fract_y
 _atom_site_fract_z
 _atom_site_occupancy
  Tb  Tb0  1  0.000000  0.000000  0.000000  1
  Ho  Ho1  1  0.415508  0.077989  0.000000  1
  Ho  Ho2  1  0.584492  0.922011  0.000000  1
  Ho  Ho3  1  0.076296  0.414948  0.000000  1
  Ho  Ho4  1  0.923704  0.585052  0.000000  1
  Ho  Ho5  1  0.167739  0.834550  0.000000  1
  Ho  Ho6  1  0.832261  0.165450  0.000000  1
  Ho  Ho7  1  0.373235  0.630729  0.000000  1
  Ho  Ho8  1  0.626765  0.369271  0.000000  1
  Ho  Ho9  1  0.302385  0.300681  0.000000  1
  Ho  Ho10  1  0.697615  0.699319  0.000000  1
  In  In11  1  0.500000  0.500000  0.500000  1
  Hg  Hg12  1  0.367002  0.847592  0.500000  1
  Hg  Hg13  1  0.632998  0.152408  0.500000  1
  Hg  Hg14  1  0.846944  0.369943  0.500000  1
  Hg  Hg15  1  0.153056  0.630057  0.500000  1
  Hg  Hg16  1  0.212842  0.060666  0.500000  1
  Hg  Hg17  1  0.787158  0.939334  0.500000  1
  Hg  Hg18  1  0.062161  0.215229  0.500000  1
  Hg  Hg19  1  0.937839  0.784771  0.500000  1
  Pd  Pd20  1  0.250256  0.448682  0.500000  1
  Pd  Pd21  1  0.749744  0.551318  0.500000  1
  Pt  Pt22  1  0.448351  0.250527  0.500000  1
  Pt  Pt23  1  0.551649  0.749473  0.500000  1
