# generated using pymatgen
data_SmHo2Ga9Pd2
_symmetry_space_group_name_H-M   'P 1'
_cell_length_a   8.17459427
_cell_length_b   8.17459449
_cell_length_c   8.17459462
_cell_angle_alpha   149.39967860
_cell_angle_beta   109.01846601
_cell_angle_gamma   79.24486622
_symmetry_Int_Tables_number   1
_chemical_formula_structural   SmHo2Ga9Pd2
_chemical_formula_sum   'Sm1 Ho2 Ga9 Pd2'
_cell_volume   257.84185521
_cell_formula_units_Z   1
loop_
 _symmetry_equiv_pos_site_id
 _symmetry_equiv_pos_as_xyz
  1  'x, y, z'
loop_
 _atom_site_type_symbol
 _atom_site_label
 _atom_site_symmetry_multiplicity
 _atom_site_fract_x
 _atom_site_fract_y
 _atom_site_fract_z
 _atom_site_occupancy
  Sm  Sm0  1  0.500000  0.500000  0.000000  1
  Ho  Ho1  1  0.199438  0.199438  0.000000  1
  Ho  Ho2  1  0.800562  0.800562  0.000000  1
  Ga  Ga3  1  0.644417  0.361236  0.283180  1
  Ga  Ga4  1  0.355583  0.638764  0.716820  1
  Ga  Ga5  1  0.078056  0.361236  0.716820  1
  Ga  Ga6  1  0.921944  0.638764  0.283180  1
  Ga  Ga7  1  0.522592  0.156614  0.365978  1
  Ga  Ga8  1  0.477408  0.843386  0.634022  1
  Ga  Ga9  1  0.790636  0.156614  0.634022  1
  Ga  Ga10  1  0.209364  0.843386  0.365978  1
  Ga  Ga11  1  0.000000  0.500000  0.500000  1
  Pd  Pd12  1  0.183454  0.000000  0.183454  1
  Pd  Pd13  1  0.816546  0.000000  0.816546  1
