# generated using pymatgen
data_Tb5Ce2Dy(ReB6)4
_symmetry_space_group_name_H-M   'P 1'
_cell_length_a   3.72105900
_cell_length_b   9.21776836
_cell_length_c   11.60237104
_cell_angle_alpha   90.13368409
_cell_angle_beta   90.00000000
_cell_angle_gamma   90.00000000
_symmetry_Int_Tables_number   1
_chemical_formula_structural   Tb5Ce2Dy(ReB6)4
_chemical_formula_sum   'Tb5 Ce2 Dy1 Re4 B24'
_cell_volume   397.95861789
_cell_formula_units_Z   1
loop_
 _symmetry_equiv_pos_site_id
 _symmetry_equiv_pos_as_xyz
  1  'x, y, z'
loop_
 _atom_site_type_symbol
 _atom_site_label
 _atom_site_symmetry_multiplicity
 _atom_site_fract_x
 _atom_site_fract_y
 _atom_site_fract_z
 _atom_site_occupancy
  Tb  Tb0  1  0.000000  0.824387  0.085544  1
  Tb  Tb1  1  0.000000  0.175607  0.914386  1
  Tb  Tb2  1  0.000000  0.943581  0.370389  1
  Tb  Tb3  1  0.000000  0.056419  0.629647  1
  Tb  Tb4  1  0.000000  0.443103  0.128698  1
  Ce  Ce5  1  0.000000  0.322632  0.413721  1
  Ce  Ce6  1  0.000000  0.677333  0.586369  1
  Dy  Dy7  1  0.000000  0.556982  0.871083  1
  Re  Re8  1  0.000000  0.637516  0.322175  1
  Re  Re9  1  0.000000  0.362698  0.677980  1
  Re  Re10  1  0.000000  0.139276  0.179715  1
  Re  Re11  1  0.000000  0.860405  0.820282  1
  B  B12  1  0.500000  0.554308  0.431537  1
  B  B13  1  0.500000  0.445713  0.568520  1
  B  B14  1  0.500000  0.053640  0.066978  1
  B  B15  1  0.500000  0.946282  0.932994  1
  B  B16  1  0.500000  0.748633  0.417448  1
  B  B17  1  0.500000  0.251385  0.582572  1
  B  B18  1  0.500000  0.248077  0.080991  1
  B  B19  1  0.500000  0.751633  0.919004  1
  B  B20  1  0.500000  0.791559  0.265298  1
  B  B21  1  0.500000  0.208523  0.734725  1
  B  B22  1  0.500000  0.290838  0.233436  1
  B  B23  1  0.500000  0.708909  0.766634  1
  B  B24  1  0.500000  0.631566  0.185595  1
  B  B25  1  0.500000  0.368667  0.814527  1
  B  B26  1  0.500000  0.131492  0.313056  1
  B  B27  1  0.500000  0.868451  0.686982  1
  B  B28  1  0.500000  0.983441  0.211386  1
  B  B29  1  0.500000  0.016535  0.788628  1
  B  B30  1  0.500000  0.484203  0.287107  1
  B  B31  1  0.500000  0.515959  0.713079  1
  B  B32  1  0.500000  0.602401  0.028348  1
  B  B33  1  0.500000  0.397848  0.971149  1
  B  B34  1  0.500000  0.103829  0.471049  1
  B  B35  1  0.500000  0.896170  0.528966  1
