# generated using pymatgen
data_TaPdAu3
_symmetry_space_group_name_H-M   'P 1'
_cell_length_a   5.09161906
_cell_length_b   5.09161985
_cell_length_c   5.01931781
_cell_angle_alpha   98.88435101
_cell_angle_beta   98.90468022
_cell_angle_gamma   134.03992776
_symmetry_Int_Tables_number   1
_chemical_formula_structural   TaPdAu3
_chemical_formula_sum   'Ta1 Pd1 Au3'
_cell_volume   85.89193926
_cell_formula_units_Z   1
loop_
 _symmetry_equiv_pos_site_id
 _symmetry_equiv_pos_as_xyz
  1  'x, y, z'
loop_
 _atom_site_type_symbol
 _atom_site_label
 _atom_site_symmetry_multiplicity
 _atom_site_fract_x
 _atom_site_fract_y
 _atom_site_fract_z
 _atom_site_occupancy
  Ta  Ta0  1  0.997643  0.005639  0.003281  1
  Pd  Pd1  1  0.607974  0.787073  0.395045  1
  Au  Au2  1  0.391981  0.206299  0.598281  1
  Au  Au3  1  0.206259  0.604896  0.811156  1
  Au  Au4  1  0.796143  0.396094  0.192237  1
