# generated using pymatgen
data_Ba(YbAs)2
_symmetry_space_group_name_H-M   'P 1'
_cell_length_a   4.89362000
_cell_length_b   4.89356035
_cell_length_c   8.04967500
_cell_angle_alpha   90.00002452
_cell_angle_beta   90.00061420
_cell_angle_gamma   119.99982627
_symmetry_Int_Tables_number   1
_chemical_formula_structural   Ba(YbAs)2
_chemical_formula_sum   'Ba1 Yb2 As2'
_cell_volume   166.94173771
_cell_formula_units_Z   1
loop_
 _symmetry_equiv_pos_site_id
 _symmetry_equiv_pos_as_xyz
  1  'x, y, z'
loop_
 _atom_site_type_symbol
 _atom_site_label
 _atom_site_symmetry_multiplicity
 _atom_site_fract_x
 _atom_site_fract_y
 _atom_site_fract_z
 _atom_site_occupancy
  Ba  Ba0  1  0.000000  0.000000  0.000000  1
  Yb  Yb1  1  0.666654  0.333327  0.365692  1
  Yb  Yb2  1  0.333345  0.666673  0.634308  1
  As  As3  1  0.333334  0.666667  0.257366  1
  As  As4  1  0.666665  0.333333  0.742634  1
