# generated using pymatgen
data_Tm6Sc2Co16Si7P5
_symmetry_space_group_name_H-M   'P 1'
_cell_length_a   3.73862600
_cell_length_b   10.80367449
_cell_length_c   12.39839827
_cell_angle_alpha   90.10508523
_cell_angle_beta   90.00000000
_cell_angle_gamma   90.00000000
_symmetry_Int_Tables_number   1
_chemical_formula_structural   Tm6Sc2Co16Si7P5
_chemical_formula_sum   'Tm6 Sc2 Co16 Si7 P5'
_cell_volume   500.78160204
_cell_formula_units_Z   1
loop_
 _symmetry_equiv_pos_site_id
 _symmetry_equiv_pos_as_xyz
  1  'x, y, z'
loop_
 _atom_site_type_symbol
 _atom_site_label
 _atom_site_symmetry_multiplicity
 _atom_site_fract_x
 _atom_site_fract_y
 _atom_site_fract_z
 _atom_site_occupancy
  Tm  Tm0  1  0.000000  0.499617  0.532682  1
  Tm  Tm1  1  0.500000  0.996632  0.467693  1
  Tm  Tm2  1  0.500000  0.820730  0.206840  1
  Tm  Tm3  1  0.500000  0.178268  0.205487  1
  Tm  Tm4  1  0.000000  0.678780  0.794286  1
  Tm  Tm5  1  0.000000  0.321281  0.795093  1
  Sc  Sc6  1  0.500000  0.500839  0.152408  1
  Sc  Sc7  1  0.000000  0.999690  0.848140  1
  Co  Co8  1  0.500000  0.500070  0.701527  1
  Co  Co9  1  0.000000  0.995909  0.299567  1
  Co  Co10  1  0.000000  0.500254  0.990978  1
  Co  Co11  1  0.500000  0.999769  0.009904  1
  Co  Co12  1  0.500000  0.329546  0.997613  1
  Co  Co13  1  0.500000  0.670993  0.997211  1
  Co  Co14  1  0.000000  0.170375  0.003656  1
  Co  Co15  1  0.000000  0.829352  0.003460  1
  Co  Co16  1  0.500000  0.299469  0.431859  1
  Co  Co17  1  0.500000  0.706576  0.429373  1
  Co  Co18  1  0.000000  0.199531  0.567673  1
  Co  Co19  1  0.000000  0.799729  0.563094  1
  Co  Co20  1  0.500000  0.879163  0.706687  1
  Co  Co21  1  0.500000  0.119680  0.707755  1
  Co  Co22  1  0.000000  0.623470  0.294522  1
  Co  Co23  1  0.000000  0.380958  0.292808  1
  Si  Si24  1  0.500000  0.500306  0.886380  1
  Si  Si25  1  0.000000  0.999519  0.114539  1
  Si  Si26  1  0.500000  0.501667  0.357730  1
  Si  Si27  1  0.000000  0.998853  0.642828  1
  Si  Si28  1  0.500000  0.304638  0.615889  1
  Si  Si29  1  0.500000  0.694599  0.614621  1
  Si  Si30  1  0.000000  0.193572  0.383841  1
  P  P31  1  0.000000  0.805741  0.382904  1
  P  P32  1  0.500000  0.837502  0.893593  1
  P  P33  1  0.500000  0.162107  0.894593  1
  P  P34  1  0.000000  0.662832  0.106584  1
  P  P35  1  0.000000  0.337981  0.106179  1
