# generated using pymatgen
data_YEr11(TcPd)2
_symmetry_space_group_name_H-M   'P 1'
_cell_length_a   6.33672252
_cell_length_b   7.32159882
_cell_length_c   9.13971400
_cell_angle_alpha   90.00000000
_cell_angle_beta   90.00000000
_cell_angle_gamma   90.03963449
_symmetry_Int_Tables_number   1
_chemical_formula_structural   YEr11(TcPd)2
_chemical_formula_sum   'Y1 Er11 Tc2 Pd2'
_cell_volume   424.03638247
_cell_formula_units_Z   1
loop_
 _symmetry_equiv_pos_site_id
 _symmetry_equiv_pos_as_xyz
  1  'x, y, z'
loop_
 _atom_site_type_symbol
 _atom_site_label
 _atom_site_symmetry_multiplicity
 _atom_site_fract_x
 _atom_site_fract_y
 _atom_site_fract_z
 _atom_site_occupancy
  Y  Y0  1  0.878065  0.529995  0.250000  1
  Er  Er1  1  0.628129  0.038169  0.250000  1
  Er  Er2  1  0.372046  0.961651  0.750000  1
  Er  Er3  1  0.123084  0.468908  0.750000  1
  Er  Er4  1  0.177881  0.185617  0.063901  1
  Er  Er5  1  0.822145  0.814401  0.935389  1
  Er  Er6  1  0.660963  0.326344  0.940325  1
  Er  Er7  1  0.822145  0.814401  0.564611  1
  Er  Er8  1  0.339015  0.673617  0.058852  1
  Er  Er9  1  0.177881  0.185617  0.436099  1
  Er  Er10  1  0.339015  0.673617  0.441148  1
  Er  Er11  1  0.660963  0.326344  0.559675  1
  Tc  Tc12  1  0.463883  0.382303  0.250000  1
  Tc  Tc13  1  0.533157  0.617136  0.750000  1
  Pd  Pd14  1  0.950135  0.112563  0.750000  1
  Pd  Pd15  1  0.051493  0.889318  0.250000  1
