# generated using pymatgen
data_K4BaUO6
_symmetry_space_group_name_H-M   'P 1'
_cell_length_a   6.59416912
_cell_length_b   6.59417002
_cell_length_c   6.59309673
_cell_angle_alpha   99.96354515
_cell_angle_beta   99.96354764
_cell_angle_gamma   119.79572201
_symmetry_Int_Tables_number   1
_chemical_formula_structural   K4BaUO6
_chemical_formula_sum   'K4 Ba1 U1 O6'
_cell_volume   233.51567634
_cell_formula_units_Z   1
loop_
 _symmetry_equiv_pos_site_id
 _symmetry_equiv_pos_as_xyz
  1  'x, y, z'
loop_
 _atom_site_type_symbol
 _atom_site_label
 _atom_site_symmetry_multiplicity
 _atom_site_fract_x
 _atom_site_fract_y
 _atom_site_fract_z
 _atom_site_occupancy
  K  K0  1  0.499395  0.500605  0.000000  1
  K  K1  1  0.009429  0.990571  0.499999  1
  K  K2  1  0.659071  0.340930  0.500001  1
  K  K3  1  0.333174  0.666827  0.500001  1
  Ba  Ba4  1  0.833285  0.166715  0.000000  1
  U  U5  1  0.166898  0.833103  0.000000  1
  O  O6  1  0.974961  0.630030  0.192820  1
  O  O7  1  0.221311  0.159143  0.198741  1
  O  O8  1  0.503380  0.911731  0.199950  1
  O  O9  1  0.088270  0.496621  0.800052  1
  O  O10  1  0.840859  0.778691  0.801260  1
  O  O11  1  0.369972  0.025040  0.807181  1
