# generated using pymatgen
data_Tb5Yb6In9Pd4
_symmetry_space_group_name_H-M   'P 1'
_cell_length_a   13.36632135
_cell_length_b   13.36623032
_cell_length_c   3.66576000
_cell_angle_alpha   90.00000000
_cell_angle_beta   90.00000000
_cell_angle_gamma   112.18884882
_symmetry_Int_Tables_number   1
_chemical_formula_structural   Tb5Yb6In9Pd4
_chemical_formula_sum   'Tb5 Yb6 In9 Pd4'
_cell_volume   606.41458412
_cell_formula_units_Z   1
loop_
 _symmetry_equiv_pos_site_id
 _symmetry_equiv_pos_as_xyz
  1  'x, y, z'
loop_
 _atom_site_type_symbol
 _atom_site_label
 _atom_site_symmetry_multiplicity
 _atom_site_fract_x
 _atom_site_fract_y
 _atom_site_fract_z
 _atom_site_occupancy
  Tb  Tb0  1  0.377005  0.622997  0.000000  1
  Tb  Tb1  1  0.622995  0.377003  0.000000  1
  Tb  Tb2  1  0.310016  0.310016  0.000000  1
  Tb  Tb3  1  0.689984  0.689984  0.000000  1
  Tb  Tb4  1  0.000000  0.000000  0.000000  1
  Yb  Yb5  1  0.414023  0.069699  0.000000  1
  Yb  Yb6  1  0.585977  0.930301  0.000000  1
  Yb  Yb7  1  0.069699  0.414023  0.000000  1
  Yb  Yb8  1  0.930301  0.585977  0.000000  1
  Yb  Yb9  1  0.159824  0.840177  0.000000  1
  Yb  Yb10  1  0.840176  0.159823  0.000000  1
  In  In11  1  0.368656  0.835025  0.500000  1
  In  In12  1  0.631344  0.164975  0.500000  1
  In  In13  1  0.835025  0.368657  0.500000  1
  In  In14  1  0.164975  0.631343  0.500000  1
  In  In15  1  0.217954  0.077894  0.500000  1
  In  In16  1  0.782046  0.922106  0.500000  1
  In  In17  1  0.077894  0.217954  0.500000  1
  In  In18  1  0.922106  0.782046  0.500000  1
  In  In19  1  0.500000  0.500000  0.500000  1
  Pd  Pd20  1  0.447644  0.244807  0.500000  1
  Pd  Pd21  1  0.552356  0.755193  0.500000  1
  Pd  Pd22  1  0.244806  0.447642  0.500000  1
  Pd  Pd23  1  0.755194  0.552358  0.500000  1
