# generated using pymatgen
data_Dy(Ti3Sb2)2
_symmetry_space_group_name_H-M   'P 1'
_cell_length_a   8.29882672
_cell_length_b   8.29882631
_cell_length_c   8.29882629
_cell_angle_alpha   40.43104464
_cell_angle_beta   40.43104904
_cell_angle_gamma   40.43104993
_symmetry_Int_Tables_number   1
_chemical_formula_structural   Dy(Ti3Sb2)2
_chemical_formula_sum   'Dy1 Ti6 Sb4'
_cell_volume   216.77678471
_cell_formula_units_Z   1
loop_
 _symmetry_equiv_pos_site_id
 _symmetry_equiv_pos_as_xyz
  1  'x, y, z'
loop_
 _atom_site_type_symbol
 _atom_site_label
 _atom_site_symmetry_multiplicity
 _atom_site_fract_x
 _atom_site_fract_y
 _atom_site_fract_z
 _atom_site_occupancy
  Dy  Dy0  1  0.000000  0.000000  0.000000  1
  Ti  Ti1  1  0.598519  0.598519  0.114511  1
  Ti  Ti2  1  0.885488  0.401481  0.401481  1
  Ti  Ti3  1  0.401481  0.885488  0.401481  1
  Ti  Ti4  1  0.598519  0.114512  0.598519  1
  Ti  Ti5  1  0.114512  0.598519  0.598519  1
  Ti  Ti6  1  0.401481  0.401481  0.885488  1
  Sb  Sb7  1  0.129608  0.129608  0.129608  1
  Sb  Sb8  1  0.332219  0.332219  0.332219  1
  Sb  Sb9  1  0.667781  0.667781  0.667781  1
  Sb  Sb10  1  0.870392  0.870392  0.870392  1
