# generated using pymatgen
data_YErSi3Rh
_symmetry_space_group_name_H-M   'P 1'
_cell_length_a   8.15265441
_cell_length_b   8.15711628
_cell_length_c   7.86986800
_cell_angle_alpha   90.00000000
_cell_angle_beta   90.00000000
_cell_angle_gamma   120.01810266
_symmetry_Int_Tables_number   1
_chemical_formula_structural   YErSi3Rh
_chemical_formula_sum   'Y4 Er4 Si12 Rh4'
_cell_volume   453.16307528
_cell_formula_units_Z   4
loop_
 _symmetry_equiv_pos_site_id
 _symmetry_equiv_pos_as_xyz
  1  'x, y, z'
loop_
 _atom_site_type_symbol
 _atom_site_label
 _atom_site_symmetry_multiplicity
 _atom_site_fract_x
 _atom_site_fract_y
 _atom_site_fract_z
 _atom_site_occupancy
  Y  Y0  1  0.000164  0.000082  0.250000  1
  Y  Y1  1  0.000078  0.000039  0.750000  1
  Y  Y2  1  0.491093  0.508768  0.250000  1
  Y  Y3  1  0.491093  0.982325  0.250000  1
  Er  Er4  1  0.015623  0.507811  0.250000  1
  Er  Er5  1  0.508960  0.490935  0.750000  1
  Er  Er6  1  0.981943  0.490971  0.750000  1
  Er  Er7  1  0.508960  0.018025  0.750000  1
  Si  Si8  1  0.833115  0.167008  0.501314  1
  Si  Si9  1  0.833115  0.666108  0.501314  1
  Si  Si10  1  0.334255  0.167128  0.501673  1
  Si  Si11  1  0.833115  0.167008  0.998686  1
  Si  Si12  1  0.833115  0.666108  0.998686  1
  Si  Si13  1  0.334255  0.167128  0.998327  1
  Si  Si14  1  0.167208  0.832400  0.999611  1
  Si  Si15  1  0.665324  0.832662  0.998490  1
  Si  Si16  1  0.167208  0.334807  0.999611  1
  Si  Si17  1  0.167208  0.832400  0.500389  1
  Si  Si18  1  0.665324  0.832662  0.501510  1
  Si  Si19  1  0.167208  0.334807  0.500389  1
  Rh  Rh20  1  0.667896  0.333948  0.469678  1
  Rh  Rh21  1  0.667896  0.333948  0.030322  1
  Rh  Rh22  1  0.332923  0.666462  0.962129  1
  Rh  Rh23  1  0.332923  0.666462  0.537871  1
