# generated using pymatgen
data_YTm6Sn23Ir6
_symmetry_space_group_name_H-M   'P 1'
_cell_length_a   9.82588800
_cell_length_b   9.82588833
_cell_length_c   10.09741000
_cell_angle_alpha   90.00000000
_cell_angle_beta   90.00000000
_cell_angle_gamma   119.99999890
_symmetry_Int_Tables_number   1
_chemical_formula_structural   YTm6Sn23Ir6
_chemical_formula_sum   'Y1 Tm6 Sn23 Ir6'
_cell_volume   844.27564437
_cell_formula_units_Z   1
loop_
 _symmetry_equiv_pos_site_id
 _symmetry_equiv_pos_as_xyz
  1  'x, y, z'
loop_
 _atom_site_type_symbol
 _atom_site_label
 _atom_site_symmetry_multiplicity
 _atom_site_fract_x
 _atom_site_fract_y
 _atom_site_fract_z
 _atom_site_occupancy
  Y  Y0  1  0.000000  0.000000  0.000000  1
  Tm  Tm1  1  0.037892  0.518946  0.307045  1
  Tm  Tm2  1  0.481054  0.962108  0.307045  1
  Tm  Tm3  1  0.481054  0.518946  0.307045  1
  Tm  Tm4  1  0.962108  0.481054  0.692955  1
  Tm  Tm5  1  0.518946  0.037892  0.692955  1
  Tm  Tm6  1  0.518946  0.481054  0.692955  1
  Sn  Sn7  1  0.000000  0.000000  0.500000  1
  Sn  Sn8  1  0.119921  0.880079  0.284201  1
  Sn  Sn9  1  0.760158  0.880079  0.284201  1
  Sn  Sn10  1  0.119921  0.239842  0.284201  1
  Sn  Sn11  1  0.880079  0.119921  0.715799  1
  Sn  Sn12  1  0.239842  0.119921  0.715799  1
  Sn  Sn13  1  0.880079  0.760158  0.715799  1
  Sn  Sn14  1  0.352605  0.000000  0.000000  1
  Sn  Sn15  1  0.647395  0.647395  0.000000  1
  Sn  Sn16  1  0.000000  0.352605  0.000000  1
  Sn  Sn17  1  0.352605  0.352605  0.000000  1
  Sn  Sn18  1  0.000000  0.647395  0.000000  1
  Sn  Sn19  1  0.647395  0.000000  0.000000  1
  Sn  Sn20  1  0.777175  0.554349  0.457270  1
  Sn  Sn21  1  0.777175  0.222825  0.457270  1
  Sn  Sn22  1  0.445651  0.222825  0.457270  1
  Sn  Sn23  1  0.222825  0.445651  0.542730  1
  Sn  Sn24  1  0.222825  0.777175  0.542730  1
  Sn  Sn25  1  0.554349  0.777175  0.542730  1
  Sn  Sn26  1  0.666667  0.333333  0.173468  1
  Sn  Sn27  1  0.333333  0.666667  0.826532  1
  Sn  Sn28  1  0.666667  0.333333  0.874421  1
  Sn  Sn29  1  0.333333  0.666667  0.125579  1
  Ir  Ir30  1  0.169418  0.830582  0.800999  1
  Ir  Ir31  1  0.661163  0.830582  0.800999  1
  Ir  Ir32  1  0.169418  0.338837  0.800999  1
  Ir  Ir33  1  0.830582  0.169418  0.199001  1
  Ir  Ir34  1  0.338837  0.169418  0.199001  1
  Ir  Ir35  1  0.830582  0.661163  0.199001  1
