# generated using pymatgen
data_TbTmPd2F14
_symmetry_space_group_name_H-M   'P 1'
_cell_length_a   5.49463614
_cell_length_b   8.82189704
_cell_length_c   11.90502404
_cell_angle_alpha   62.42282465
_cell_angle_beta   90.11451526
_cell_angle_gamma   90.01213792
_symmetry_Int_Tables_number   1
_chemical_formula_structural   TbTmPd2F14
_chemical_formula_sum   'Tb2 Tm2 Pd4 F28'
_cell_volume   511.50995972
_cell_formula_units_Z   2
loop_
 _symmetry_equiv_pos_site_id
 _symmetry_equiv_pos_as_xyz
  1  'x, y, z'
loop_
 _atom_site_type_symbol
 _atom_site_label
 _atom_site_symmetry_multiplicity
 _atom_site_fract_x
 _atom_site_fract_y
 _atom_site_fract_z
 _atom_site_occupancy
  Tb  Tb0  1  0.761557  0.184530  0.236084  1
  Tb  Tb1  1  0.238443  0.815470  0.763916  1
  Tm  Tm2  1  0.262520  0.812996  0.263882  1
  Tm  Tm3  1  0.737480  0.187004  0.736118  1
  Pd  Pd4  1  0.759038  0.728933  0.043566  1
  Pd  Pd5  1  0.240962  0.271067  0.956434  1
  Pd  Pd6  1  0.258923  0.274462  0.458375  1
  Pd  Pd7  1  0.741077  0.725538  0.541625  1
  F  F8  1  0.936630  0.703257  0.414026  1
  F  F9  1  0.063370  0.296743  0.585974  1
  F  F10  1  0.435297  0.295267  0.083769  1
  F  F11  1  0.564703  0.704733  0.916231  1
  F  F12  1  0.465387  0.727320  0.135886  1
  F  F13  1  0.534613  0.272680  0.864114  1
  F  F14  1  0.965881  0.274967  0.366366  1
  F  F15  1  0.034119  0.725033  0.633634  1
  F  F16  1  0.951044  0.744564  0.176199  1
  F  F17  1  0.048956  0.255436  0.823801  1
  F  F18  1  0.447788  0.259253  0.325219  1
  F  F19  1  0.552212  0.740747  0.674781  1
  F  F20  1  0.770546  0.480579  0.141945  1
  F  F21  1  0.229454  0.519421  0.858055  1
  F  F22  1  0.271123  0.523060  0.358976  1
  F  F23  1  0.728877  0.476940  0.641024  1
  F  F24  1  0.941800  0.280984  0.040603  1
  F  F25  1  0.058200  0.719016  0.959397  1
  F  F26  1  0.439496  0.718825  0.456421  1
  F  F27  1  0.560504  0.281175  0.543579  1
  F  F28  1  0.741985  0.973512  0.450675  1
  F  F29  1  0.258015  0.026488  0.549325  1
  F  F30  1  0.240992  0.022971  0.050107  1
  F  F31  1  0.759008  0.977029  0.949893  1
  F  F32  1  0.585309  0.964801  0.231632  1
  F  F33  1  0.414691  0.035199  0.768368  1
  F  F34  1  0.092398  0.026904  0.268748  1
  F  F35  1  0.907602  0.973096  0.731252  1
