# generated using pymatgen
data_DyTm3Nb2(B2Ru5)2
_symmetry_space_group_name_H-M   'P 1'
_cell_length_a   9.65049592
_cell_length_b   9.65049592
_cell_length_c   3.12256600
_cell_angle_alpha   90.00000000
_cell_angle_beta   90.00000000
_cell_angle_gamma   90.12692295
_symmetry_Int_Tables_number   1
_chemical_formula_structural   DyTm3Nb2(B2Ru5)2
_chemical_formula_sum   'Dy1 Tm3 Nb2 B4 Ru10'
_cell_volume   290.81032642
_cell_formula_units_Z   1
loop_
 _symmetry_equiv_pos_site_id
 _symmetry_equiv_pos_as_xyz
  1  'x, y, z'
loop_
 _atom_site_type_symbol
 _atom_site_label
 _atom_site_symmetry_multiplicity
 _atom_site_fract_x
 _atom_site_fract_y
 _atom_site_fract_z
 _atom_site_occupancy
  Dy  Dy0  1  0.825393  0.674607  0.000000  1
  Tm  Tm1  1  0.174782  0.325218  0.000000  1
  Tm  Tm2  1  0.325277  0.825234  0.000000  1
  Tm  Tm3  1  0.674766  0.174723  0.000000  1
  Nb  Nb4  1  0.499614  0.499856  0.000000  1
  Nb  Nb5  1  0.000144  0.000386  0.000000  1
  B  B6  1  0.619764  0.880236  0.000000  1
  B  B7  1  0.379732  0.120268  0.000000  1
  B  B8  1  0.120615  0.620195  0.000000  1
  B  B9  1  0.879805  0.379385  0.000000  1
  Ru  Ru10  1  0.569984  0.718724  0.500000  1
  Ru  Ru11  1  0.428670  0.281507  0.500000  1
  Ru  Ru12  1  0.072540  0.782049  0.500000  1
  Ru  Ru13  1  0.928566  0.218221  0.500000  1
  Ru  Ru14  1  0.281779  0.571434  0.500000  1
  Ru  Ru15  1  0.717951  0.427460  0.500000  1
  Ru  Ru16  1  0.218493  0.071330  0.500000  1
  Ru  Ru17  1  0.781276  0.930016  0.500000  1
  Ru  Ru18  1  0.499805  0.000195  0.500000  1
  Ru  Ru19  1  0.001048  0.498952  0.500000  1
