# generated using pymatgen
data_Er4Ni3Hg2Au
_symmetry_space_group_name_H-M   'P 1'
_cell_length_a   7.49487149
_cell_length_b   7.49487149
_cell_length_c   3.62330700
_cell_angle_alpha   90.00000000
_cell_angle_beta   90.00000000
_cell_angle_gamma   89.65741149
_symmetry_Int_Tables_number   1
_chemical_formula_structural   Er4Ni3Hg2Au
_chemical_formula_sum   'Er4 Ni3 Hg2 Au1'
_cell_volume   203.52874347
_cell_formula_units_Z   1
loop_
 _symmetry_equiv_pos_site_id
 _symmetry_equiv_pos_as_xyz
  1  'x, y, z'
loop_
 _atom_site_type_symbol
 _atom_site_label
 _atom_site_symmetry_multiplicity
 _atom_site_fract_x
 _atom_site_fract_y
 _atom_site_fract_z
 _atom_site_occupancy
  Er  Er0  1  0.307376  0.170747  0.499999  1
  Er  Er1  1  0.842769  0.342769  0.499999  1
  Er  Er2  1  0.175326  0.675326  0.499999  1
  Er  Er3  1  0.670747  0.807376  0.499999  1
  Ni  Ni4  1  0.124146  0.386542  0.000000  1
  Ni  Ni5  1  0.886542  0.624146  0.000000  1
  Ni  Ni6  1  0.372541  0.872541  0.000000  1
  Hg  Hg7  1  0.005698  0.993786  0.000000  1
  Hg  Hg8  1  0.493786  0.505698  0.000000  1
  Au  Au9  1  0.621071  0.121071  0.000000  1
