# generated using pymatgen
data_Cs6Rb2CdPbBr12
_symmetry_space_group_name_H-M   'P 1'
_cell_length_a   9.82193693
_cell_length_b   9.82193786
_cell_length_c   9.82193706
_cell_angle_alpha   90.56141597
_cell_angle_beta   90.56141381
_cell_angle_gamma   90.56141779
_symmetry_Int_Tables_number   1
_chemical_formula_structural   Cs6Rb2CdPbBr12
_chemical_formula_sum   'Cs6 Rb2 Cd1 Pb1 Br12'
_cell_volume   947.38937233
_cell_formula_units_Z   1
loop_
 _symmetry_equiv_pos_site_id
 _symmetry_equiv_pos_as_xyz
  1  'x, y, z'
loop_
 _atom_site_type_symbol
 _atom_site_label
 _atom_site_symmetry_multiplicity
 _atom_site_fract_x
 _atom_site_fract_y
 _atom_site_fract_z
 _atom_site_occupancy
  Cs  Cs0  1  0.751985  0.127655  0.370413  1
  Cs  Cs1  1  0.370413  0.751985  0.127655  1
  Cs  Cs2  1  0.127655  0.370413  0.751985  1
  Cs  Cs3  1  0.248015  0.872345  0.629587  1
  Cs  Cs4  1  0.629587  0.248015  0.872345  1
  Cs  Cs5  1  0.872345  0.629587  0.248015  1
  Rb  Rb6  1  0.248357  0.248357  0.248357  1
  Rb  Rb7  1  0.751643  0.751643  0.751643  1
  Cd  Cd8  1  0.000000  0.000000  0.000000  1
  Pb  Pb9  1  0.500000  0.500000  0.500000  1
  Br  Br10  1  0.446232  0.577301  0.797249  1
  Br  Br11  1  0.797249  0.446232  0.577301  1
  Br  Br12  1  0.577301  0.797249  0.446232  1
  Br  Br13  1  0.051007  0.722386  0.929019  1
  Br  Br14  1  0.929019  0.051007  0.722386  1
  Br  Br15  1  0.722386  0.929019  0.051007  1
  Br  Br16  1  0.553768  0.422699  0.202751  1
  Br  Br17  1  0.202751  0.553768  0.422699  1
  Br  Br18  1  0.422699  0.202751  0.553768  1
  Br  Br19  1  0.948993  0.277614  0.070981  1
  Br  Br20  1  0.277614  0.070981  0.948993  1
  Br  Br21  1  0.070981  0.948993  0.277614  1
