# generated using pymatgen
data_Rb3ScSb2
_symmetry_space_group_name_H-M   'P 1'
_cell_length_a   10.00664798
_cell_length_b   10.00664833
_cell_length_c   10.00664909
_cell_angle_alpha   127.15595454
_cell_angle_beta   71.14390186
_cell_angle_gamma   135.98894760
_symmetry_Int_Tables_number   1
_chemical_formula_structural   Rb3ScSb2
_chemical_formula_sum   'Rb6 Sc2 Sb4'
_cell_volume   543.55242423
_cell_formula_units_Z   2
loop_
 _symmetry_equiv_pos_site_id
 _symmetry_equiv_pos_as_xyz
  1  'x, y, z'
loop_
 _atom_site_type_symbol
 _atom_site_label
 _atom_site_symmetry_multiplicity
 _atom_site_fract_x
 _atom_site_fract_y
 _atom_site_fract_z
 _atom_site_occupancy
  Rb  Rb0  1  0.316961  0.698871  0.015832  1
  Rb  Rb1  1  0.183039  0.198871  0.381910  1
  Rb  Rb2  1  0.750000  0.250000  0.500000  1
  Rb  Rb3  1  0.250000  0.749999  0.499999  1
  Rb  Rb4  1  0.816961  0.801130  0.618091  1
  Rb  Rb5  1  0.683039  0.301130  0.984169  1
  Sc  Sc6  1  0.250000  0.250000  0.000000  1
  Sc  Sc7  1  0.750000  0.750000  0.000000  1
  Sb  Sb8  1  0.906454  0.184872  0.091325  1
  Sb  Sb9  1  0.593547  0.684873  0.278419  1
  Sb  Sb10  1  0.406453  0.315127  0.721580  1
  Sb  Sb11  1  0.093547  0.815127  0.908674  1
