# generated using pymatgen
data_Pr5Dy5Si8
_symmetry_space_group_name_H-M   'P 1'
_cell_length_a   7.78273808
_cell_length_b   7.78832808
_cell_length_c   14.85757700
_cell_angle_alpha   90.00000000
_cell_angle_beta   90.00000000
_cell_angle_gamma   89.93977179
_symmetry_Int_Tables_number   1
_chemical_formula_structural   Pr5Dy5Si8
_chemical_formula_sum   'Pr10 Dy10 Si16'
_cell_volume   900.58436285
_cell_formula_units_Z   2
loop_
 _symmetry_equiv_pos_site_id
 _symmetry_equiv_pos_as_xyz
  1  'x, y, z'
loop_
 _atom_site_type_symbol
 _atom_site_label
 _atom_site_symmetry_multiplicity
 _atom_site_fract_x
 _atom_site_fract_y
 _atom_site_fract_z
 _atom_site_occupancy
  Pr  Pr0  1  0.481349  0.369867  0.626312  1
  Pr  Pr1  1  0.518651  0.630131  0.126312  1
  Pr  Pr2  1  0.373236  0.014305  0.449857  1
  Pr  Pr3  1  0.626764  0.985695  0.949857  1
  Pr  Pr4  1  0.873512  0.488242  0.300002  1
  Pr  Pr5  1  0.126488  0.511758  0.800002  1
  Pr  Pr6  1  0.987985  0.626501  0.049857  1
  Pr  Pr7  1  0.012015  0.373499  0.549858  1
  Pr  Pr8  1  0.513200  0.127130  0.200300  1
  Pr  Pr9  1  0.486800  0.872870  0.700300  1
  Dy  Dy10  1  0.311039  0.310281  0.000664  1
  Dy  Dy11  1  0.688960  0.689718  0.500664  1
  Dy  Dy12  1  0.811252  0.187767  0.749438  1
  Dy  Dy13  1  0.188748  0.812233  0.249438  1
  Dy  Dy14  1  0.128877  0.984152  0.876117  1
  Dy  Dy15  1  0.871123  0.015847  0.376117  1
  Dy  Dy16  1  0.630572  0.515089  0.873574  1
  Dy  Dy17  1  0.369426  0.484911  0.373575  1
  Dy  Dy18  1  0.017617  0.868223  0.624254  1
  Dy  Dy19  1  0.982382  0.131777  0.124254  1
  Si  Si20  1  0.280105  0.927166  0.060243  1
  Si  Si21  1  0.719896  0.072834  0.560243  1
  Si  Si22  1  0.787392  0.578162  0.689323  1
  Si  Si23  1  0.212608  0.421838  0.189323  1
  Si  Si24  1  0.074230  0.717864  0.437213  1
  Si  Si25  1  0.925770  0.282137  0.937214  1
  Si  Si26  1  0.423005  0.212424  0.814590  1
  Si  Si27  1  0.576995  0.787576  0.314589  1
  Si  Si28  1  0.189637  0.161934  0.702387  1
  Si  Si29  1  0.810363  0.838066  0.202388  1
  Si  Si30  1  0.695449  0.329433  0.047620  1
  Si  Si31  1  0.304551  0.670567  0.547620  1
  Si  Si32  1  0.834098  0.806487  0.800743  1
  Si  Si33  1  0.165902  0.193513  0.300743  1
  Si  Si34  1  0.668599  0.305304  0.447503  1
  Si  Si35  1  0.331401  0.694696  0.947503  1
