# generated using pymatgen
data_Cs12V3SiSe16
_symmetry_space_group_name_H-M   'P 1'
_cell_length_a   10.26954984
_cell_length_b   10.36560637
_cell_length_c   12.13643600
_cell_angle_alpha   90.00000000
_cell_angle_beta   90.00000000
_cell_angle_gamma   90.52387031
_symmetry_Int_Tables_number   1
_chemical_formula_structural   Cs12V3SiSe16
_chemical_formula_sum   'Cs12 V3 Si1 Se16'
_cell_volume   1291.87096064
_cell_formula_units_Z   1
loop_
 _symmetry_equiv_pos_site_id
 _symmetry_equiv_pos_as_xyz
  1  'x, y, z'
loop_
 _atom_site_type_symbol
 _atom_site_label
 _atom_site_symmetry_multiplicity
 _atom_site_fract_x
 _atom_site_fract_y
 _atom_site_fract_z
 _atom_site_occupancy
  Cs  Cs0  1  0.542887  0.702700  0.043235  1
  Cs  Cs1  1  0.042799  0.797258  0.458112  1
  Cs  Cs2  1  0.456221  0.296702  0.542072  1
  Cs  Cs3  1  0.956323  0.204718  0.957874  1
  Cs  Cs4  1  0.456221  0.296702  0.957928  1
  Cs  Cs5  1  0.956323  0.204718  0.542126  1
  Cs  Cs6  1  0.542887  0.702700  0.456765  1
  Cs  Cs7  1  0.042799  0.797258  0.041888  1
  Cs  Cs8  1  0.351519  0.089567  0.250000  1
  Cs  Cs9  1  0.849622  0.409815  0.250000  1
  Cs  Cs10  1  0.649067  0.910153  0.750000  1
  Cs  Cs11  1  0.149066  0.589543  0.750000  1
  V  V12  1  0.774131  0.978895  0.250000  1
  V  V13  1  0.725462  0.479643  0.750000  1
  V  V14  1  0.226513  0.020968  0.750000  1
  Si  Si15  1  0.275213  0.518836  0.250000  1
  Se  Se16  1  0.288931  0.739708  0.250000  1
  Se  Se17  1  0.789771  0.757926  0.250000  1
  Se  Se18  1  0.709218  0.258343  0.750000  1
  Se  Se19  1  0.210659  0.242031  0.750000  1
  Se  Se20  1  0.479458  0.431404  0.250000  1
  Se  Se21  1  0.980646  0.068433  0.250000  1
  Se  Se22  1  0.519894  0.567463  0.750000  1
  Se  Se23  1  0.019980  0.931075  0.750000  1
  Se  Se24  1  0.167457  0.458809  0.092823  1
  Se  Se25  1  0.665818  0.041253  0.406251  1
  Se  Se26  1  0.833654  0.542897  0.593412  1
  Se  Se27  1  0.335264  0.958762  0.906112  1
  Se  Se28  1  0.833654  0.542897  0.906588  1
  Se  Se29  1  0.335264  0.958762  0.593888  1
  Se  Se30  1  0.167457  0.458809  0.407177  1
  Se  Se31  1  0.665818  0.041253  0.093749  1
