# generated using pymatgen
data_Li6Cu5SnPd12
_symmetry_space_group_name_H-M   'P 1'
_cell_length_a   4.29288901
_cell_length_b   6.09157700
_cell_length_c   12.91879700
_cell_angle_alpha   90.00000000
_cell_angle_beta   89.99608943
_cell_angle_gamma   90.00000000
_symmetry_Int_Tables_number   1
_chemical_formula_structural   Li6Cu5SnPd12
_chemical_formula_sum   'Li6 Cu5 Sn1 Pd12'
_cell_volume   337.83253453
_cell_formula_units_Z   1
loop_
 _symmetry_equiv_pos_site_id
 _symmetry_equiv_pos_as_xyz
  1  'x, y, z'
loop_
 _atom_site_type_symbol
 _atom_site_label
 _atom_site_symmetry_multiplicity
 _atom_site_fract_x
 _atom_site_fract_y
 _atom_site_fract_z
 _atom_site_occupancy
  Li  Li0  1  0.000000  0.000000  0.000000  1
  Li  Li1  1  0.499855  0.500000  0.173682  1
  Li  Li2  1  0.999795  0.000000  0.339109  1
  Li  Li3  1  0.500000  0.500000  0.500000  1
  Li  Li4  1  0.000204  0.000000  0.660891  1
  Li  Li5  1  0.500145  0.500000  0.826318  1
  Cu  Cu6  1  0.499804  0.000000  0.170027  1
  Cu  Cu7  1  0.999957  0.500000  0.335072  1
  Cu  Cu8  1  0.500000  0.000000  0.500000  1
  Cu  Cu9  1  0.000043  0.500000  0.664928  1
  Cu  Cu10  1  0.500196  0.000000  0.829973  1
  Sn  Sn11  1  0.000000  0.500000  0.000000  1
  Pd  Pd12  1  0.500000  0.237905  0.000000  1
  Pd  Pd13  1  0.500000  0.762094  0.000000  1
  Pd  Pd14  1  0.999879  0.244195  0.170105  1
  Pd  Pd15  1  0.999879  0.755804  0.170105  1
  Pd  Pd16  1  0.499846  0.249510  0.333967  1
  Pd  Pd17  1  0.499846  0.750488  0.333967  1
  Pd  Pd18  1  0.000000  0.251154  0.500000  1
  Pd  Pd19  1  0.000000  0.748847  0.500000  1
  Pd  Pd20  1  0.500154  0.249510  0.666033  1
  Pd  Pd21  1  0.500154  0.750488  0.666033  1
  Pd  Pd22  1  0.000121  0.244195  0.829895  1
  Pd  Pd23  1  0.000121  0.755804  0.829895  1
