# generated using pymatgen
data_Sm6Ga5CuRh12
_symmetry_space_group_name_H-M   'P 1'
_cell_length_a   5.62873700
_cell_length_b   5.62873655
_cell_length_c   15.77675700
_cell_angle_alpha   90.00000000
_cell_angle_beta   90.00000000
_cell_angle_gamma   119.99999678
_symmetry_Int_Tables_number   1
_chemical_formula_structural   Sm6Ga5CuRh12
_chemical_formula_sum   'Sm6 Ga5 Cu1 Rh12'
_cell_volume   432.88273135
_cell_formula_units_Z   1
loop_
 _symmetry_equiv_pos_site_id
 _symmetry_equiv_pos_as_xyz
  1  'x, y, z'
loop_
 _atom_site_type_symbol
 _atom_site_label
 _atom_site_symmetry_multiplicity
 _atom_site_fract_x
 _atom_site_fract_y
 _atom_site_fract_z
 _atom_site_occupancy
  Sm  Sm0  1  0.666667  0.333333  0.959138  1
  Sm  Sm1  1  0.666667  0.333333  0.540862  1
  Sm  Sm2  1  0.333333  0.666667  0.040227  1
  Sm  Sm3  1  0.666667  0.333333  0.750000  1
  Sm  Sm4  1  0.333333  0.666667  0.459773  1
  Sm  Sm5  1  0.333333  0.666667  0.250000  1
  Ga  Ga6  1  0.666667  0.333333  0.250000  1
  Ga  Ga7  1  0.000000  0.000000  0.501212  1
  Ga  Ga8  1  0.000000  0.000000  0.250000  1
  Ga  Ga9  1  0.000000  0.000000  0.750000  1
  Ga  Ga10  1  0.000000  0.000000  0.998788  1
  Cu  Cu11  1  0.333333  0.666667  0.750000  1
  Rh  Rh12  1  0.170199  0.340398  0.874845  1
  Rh  Rh13  1  0.170199  0.340398  0.625155  1
  Rh  Rh14  1  0.659602  0.829801  0.874845  1
  Rh  Rh15  1  0.335970  0.167985  0.373592  1
  Rh  Rh16  1  0.832015  0.664030  0.373592  1
  Rh  Rh17  1  0.832015  0.167985  0.373592  1
  Rh  Rh18  1  0.832015  0.167985  0.126408  1
  Rh  Rh19  1  0.335970  0.167985  0.126408  1
  Rh  Rh20  1  0.659602  0.829801  0.625155  1
  Rh  Rh21  1  0.170199  0.829801  0.625155  1
  Rh  Rh22  1  0.832015  0.664030  0.126408  1
  Rh  Rh23  1  0.170199  0.829801  0.874845  1
