# generated using pymatgen
data_Sr3Pb5
_symmetry_space_group_name_H-M   'P 1'
_cell_length_a   7.01527000
_cell_length_b   7.01526938
_cell_length_c   11.36653700
_cell_angle_alpha   90.00000000
_cell_angle_beta   90.00000000
_cell_angle_gamma   101.22308631
_symmetry_Int_Tables_number   1
_chemical_formula_structural   Sr3Pb5
_chemical_formula_sum   'Sr6 Pb10'
_cell_volume   548.69547767
_cell_formula_units_Z   2
loop_
 _symmetry_equiv_pos_site_id
 _symmetry_equiv_pos_as_xyz
  1  'x, y, z'
loop_
 _atom_site_type_symbol
 _atom_site_label
 _atom_site_symmetry_multiplicity
 _atom_site_fract_x
 _atom_site_fract_y
 _atom_site_fract_z
 _atom_site_occupancy
  Sr  Sr0  1  0.790488  0.209513  0.000000  1
  Sr  Sr1  1  0.209513  0.790488  0.000000  1
  Sr  Sr2  1  0.392408  0.392408  0.250000  1
  Sr  Sr3  1  0.790488  0.209513  0.500000  1
  Sr  Sr4  1  0.209513  0.790488  0.500000  1
  Sr  Sr5  1  0.607592  0.607592  0.750000  1
  Pb  Pb6  1  0.703658  0.703658  0.047913  1
  Pb  Pb7  1  0.982119  0.982119  0.250000  1
  Pb  Pb8  1  0.935285  0.505744  0.250000  1
  Pb  Pb9  1  0.505744  0.935285  0.250000  1
  Pb  Pb10  1  0.703658  0.703658  0.452088  1
  Pb  Pb11  1  0.296342  0.296342  0.547913  1
  Pb  Pb12  1  0.494256  0.064715  0.750000  1
  Pb  Pb13  1  0.064715  0.494256  0.750000  1
  Pb  Pb14  1  0.017881  0.017881  0.750000  1
  Pb  Pb15  1  0.296342  0.296342  0.952087  1
