# generated using pymatgen
data_Ho3CuNi2Ir
_symmetry_space_group_name_H-M   'P 1'
_cell_length_a   5.44229800
_cell_length_b   5.44229823
_cell_length_c   12.74111500
_cell_angle_alpha   90.00000000
_cell_angle_beta   90.00000000
_cell_angle_gamma   134.91759130
_symmetry_Int_Tables_number   1
_chemical_formula_structural   Ho3CuNi2Ir
_chemical_formula_sum   'Ho6 Cu2 Ni4 Ir2'
_cell_volume   267.22731141
_cell_formula_units_Z   2
loop_
 _symmetry_equiv_pos_site_id
 _symmetry_equiv_pos_as_xyz
  1  'x, y, z'
loop_
 _atom_site_type_symbol
 _atom_site_label
 _atom_site_symmetry_multiplicity
 _atom_site_fract_x
 _atom_site_fract_y
 _atom_site_fract_z
 _atom_site_occupancy
  Ho  Ho0  1  0.293600  0.706400  0.395824  1
  Ho  Ho1  1  0.706400  0.293600  0.604176  1
  Ho  Ho2  1  0.990121  0.009879  0.750000  1
  Ho  Ho3  1  0.009879  0.990121  0.250000  1
  Ho  Ho4  1  0.706400  0.293600  0.895824  1
  Ho  Ho5  1  0.293600  0.706400  0.104176  1
  Cu  Cu6  1  0.000000  0.000000  0.500000  1
  Cu  Cu7  1  0.000000  0.000000  0.000000  1
  Ni  Ni8  1  0.424022  0.575978  0.913659  1
  Ni  Ni9  1  0.575978  0.424022  0.086341  1
  Ni  Ni10  1  0.575978  0.424022  0.413659  1
  Ni  Ni11  1  0.424022  0.575978  0.586341  1
  Ir  Ir12  1  0.723279  0.276721  0.250000  1
  Ir  Ir13  1  0.276721  0.723279  0.750000  1
