# generated using pymatgen
data_LiNd3GeSe7
_symmetry_space_group_name_H-M   'P 1'
_cell_length_a   10.63717500
_cell_length_b   10.63708469
_cell_length_c   6.15651000
_cell_angle_alpha   90.00000000
_cell_angle_beta   90.00000000
_cell_angle_gamma   119.99929504
_symmetry_Int_Tables_number   1
_chemical_formula_structural   LiNd3GeSe7
_chemical_formula_sum   'Li2 Nd6 Ge2 Se14'
_cell_volume   603.27763756
_cell_formula_units_Z   2
loop_
 _symmetry_equiv_pos_site_id
 _symmetry_equiv_pos_as_xyz
  1  'x, y, z'
loop_
 _atom_site_type_symbol
 _atom_site_label
 _atom_site_symmetry_multiplicity
 _atom_site_fract_x
 _atom_site_fract_y
 _atom_site_fract_z
 _atom_site_occupancy
  Li  Li0  1  0.999993  0.999974  0.993944  1
  Li  Li1  1  0.000007  0.000026  0.493943  1
  Nd  Nd2  1  0.356199  0.127903  0.270655  1
  Nd  Nd3  1  0.771701  0.643772  0.270670  1
  Nd  Nd4  1  0.872082  0.228278  0.270657  1
  Nd  Nd5  1  0.643800  0.872096  0.770656  1
  Nd  Nd6  1  0.228298  0.356227  0.770669  1
  Nd  Nd7  1  0.127918  0.771721  0.770658  1
  Ge  Ge8  1  0.333333  0.666657  0.352884  1
  Ge  Ge9  1  0.666668  0.333344  0.852883  1
  Se  Se10  1  0.158948  0.249041  0.243499  1
  Se  Se11  1  0.750964  0.909896  0.243502  1
  Se  Se12  1  0.090094  0.841061  0.243497  1
  Se  Se13  1  0.666665  0.333323  0.470281  1
  Se  Se14  1  0.099225  0.515699  0.514998  1
  Se  Se15  1  0.484318  0.583536  0.515015  1
  Se  Se16  1  0.416465  0.900759  0.515000  1
  Se  Se17  1  0.249034  0.090103  0.743501  1
  Se  Se18  1  0.841052  0.750959  0.743498  1
  Se  Se19  1  0.909906  0.158938  0.743498  1
  Se  Se20  1  0.333334  0.666677  0.970280  1
  Se  Se21  1  0.900776  0.484302  0.014997  1
  Se  Se22  1  0.583536  0.099241  0.014999  1
  Se  Se23  1  0.515682  0.416464  0.015016  1
