# generated using pymatgen
data_TiBeC
_symmetry_space_group_name_H-M   'P 1'
_cell_length_a   3.06860572
_cell_length_b   3.19583388
_cell_length_c   4.43128441
_cell_angle_alpha   43.78570878
_cell_angle_beta   110.23971720
_cell_angle_gamma   90.04334526
_symmetry_Int_Tables_number   1
_chemical_formula_structural   TiBeC
_chemical_formula_sum   'Ti1 Be1 C1'
_cell_volume   26.05615165
_cell_formula_units_Z   1
loop_
 _symmetry_equiv_pos_site_id
 _symmetry_equiv_pos_as_xyz
  1  'x, y, z'
loop_
 _atom_site_type_symbol
 _atom_site_label
 _atom_site_symmetry_multiplicity
 _atom_site_fract_x
 _atom_site_fract_y
 _atom_site_fract_z
 _atom_site_occupancy
  Ti  Ti0  1  0.964434  0.915433  0.823350  1
  Be  Be1  1  0.298369  0.749019  0.489855  1
  C  C2  1  0.631519  0.082382  0.156337  1
