# generated using pymatgen
data_Tm4AlPd
_symmetry_space_group_name_H-M   'P 1'
_cell_length_a   9.47300613
_cell_length_b   9.47300509
_cell_length_c   9.47300600
_cell_angle_alpha   59.99999684
_cell_angle_beta   60.00000047
_cell_angle_gamma   59.99999870
_symmetry_Int_Tables_number   1
_chemical_formula_structural   Tm4AlPd
_chemical_formula_sum   'Tm16 Al4 Pd4'
_cell_volume   601.10230140
_cell_formula_units_Z   4
loop_
 _symmetry_equiv_pos_site_id
 _symmetry_equiv_pos_as_xyz
  1  'x, y, z'
loop_
 _atom_site_type_symbol
 _atom_site_label
 _atom_site_symmetry_multiplicity
 _atom_site_fract_x
 _atom_site_fract_y
 _atom_site_fract_z
 _atom_site_occupancy
  Tm  Tm0  1  0.357189  0.357189  0.357189  1
  Tm  Tm1  1  0.357189  0.357189  0.928434  1
  Tm  Tm2  1  0.357189  0.928434  0.357189  1
  Tm  Tm3  1  0.928434  0.357189  0.357189  1
  Tm  Tm4  1  0.808015  0.191985  0.191985  1
  Tm  Tm5  1  0.191985  0.808015  0.808015  1
  Tm  Tm6  1  0.191985  0.808015  0.191985  1
  Tm  Tm7  1  0.808015  0.191985  0.808015  1
  Tm  Tm8  1  0.191985  0.191985  0.808015  1
  Tm  Tm9  1  0.808015  0.808015  0.191985  1
  Tm  Tm10  1  0.934466  0.565534  0.565534  1
  Tm  Tm11  1  0.565534  0.934466  0.934466  1
  Tm  Tm12  1  0.565534  0.934466  0.565534  1
  Tm  Tm13  1  0.934466  0.565534  0.934466  1
  Tm  Tm14  1  0.565534  0.565534  0.934466  1
  Tm  Tm15  1  0.934466  0.934466  0.565534  1
  Al  Al16  1  0.578821  0.578821  0.578821  1
  Al  Al17  1  0.578821  0.578821  0.263536  1
  Al  Al18  1  0.578821  0.263536  0.578821  1
  Al  Al19  1  0.263536  0.578821  0.578821  1
  Pd  Pd20  1  0.145441  0.145441  0.145441  1
  Pd  Pd21  1  0.145441  0.145441  0.563676  1
  Pd  Pd22  1  0.145441  0.563676  0.145441  1
  Pd  Pd23  1  0.563676  0.145441  0.145441  1
