# generated using pymatgen
data_Tm3Hf5(ZrSn3)2
_symmetry_space_group_name_H-M   'P 1'
_cell_length_a   8.59729461
_cell_length_b   8.65234964
_cell_length_c   5.89968600
_cell_angle_alpha   90.00000000
_cell_angle_beta   90.00000000
_cell_angle_gamma   120.52221916
_symmetry_Int_Tables_number   1
_chemical_formula_structural   Tm3Hf5(ZrSn3)2
_chemical_formula_sum   'Tm3 Hf5 Zr2 Sn6'
_cell_volume   378.04709611
_cell_formula_units_Z   1
loop_
 _symmetry_equiv_pos_site_id
 _symmetry_equiv_pos_as_xyz
  1  'x, y, z'
loop_
 _atom_site_type_symbol
 _atom_site_label
 _atom_site_symmetry_multiplicity
 _atom_site_fract_x
 _atom_site_fract_y
 _atom_site_fract_z
 _atom_site_occupancy
  Tm  Tm0  1  0.765341  0.764080  0.750000  1
  Tm  Tm1  1  0.237819  0.237057  0.250000  1
  Tm  Tm2  1  0.759156  0.000000  0.250000  1
  Hf  Hf3  1  0.001691  0.750394  0.250000  1
  Hf  Hf4  1  0.665245  0.332377  0.999612  1
  Hf  Hf5  1  0.331774  0.666438  0.999689  1
  Hf  Hf6  1  0.331774  0.666438  0.500311  1
  Hf  Hf7  1  0.665245  0.332377  0.500388  1
  Zr  Zr8  1  0.244723  0.998700  0.750000  1
  Zr  Zr9  1  0.001384  0.253792  0.750000  1
  Sn  Sn10  1  0.391861  0.391488  0.750000  1
  Sn  Sn11  1  0.604692  0.002073  0.750000  1
  Sn  Sn12  1  0.000762  0.605710  0.750000  1
  Sn  Sn13  1  0.606862  0.602942  0.250000  1
  Sn  Sn14  1  0.392526  0.996963  0.250000  1
  Sn  Sn15  1  0.999144  0.399170  0.250000  1
