# generated using pymatgen
data_TiNbGaB2Ru5
_symmetry_space_group_name_H-M   'P 1'
_cell_length_a   9.28389849
_cell_length_b   9.28389835
_cell_length_c   2.99623900
_cell_angle_alpha   90.00000000
_cell_angle_beta   90.00000000
_cell_angle_gamma   89.54937272
_symmetry_Int_Tables_number   1
_chemical_formula_structural   TiNbGaB2Ru5
_chemical_formula_sum   'Ti2 Nb2 Ga2 B4 Ru10'
_cell_volume   258.24015884
_cell_formula_units_Z   2
loop_
 _symmetry_equiv_pos_site_id
 _symmetry_equiv_pos_as_xyz
  1  'x, y, z'
loop_
 _atom_site_type_symbol
 _atom_site_label
 _atom_site_symmetry_multiplicity
 _atom_site_fract_x
 _atom_site_fract_y
 _atom_site_fract_z
 _atom_site_occupancy
  Ti  Ti0  1  0.825710  0.674290  0.000000  1
  Ti  Ti1  1  0.174290  0.325710  0.000000  1
  Nb  Nb2  1  0.323731  0.823731  0.000000  1
  Nb  Nb3  1  0.676269  0.176269  0.000000  1
  Ga  Ga4  1  0.500000  0.500000  0.000000  1
  Ga  Ga5  1  0.000000  0.000000  0.000000  1
  B  B6  1  0.626494  0.873506  0.000000  1
  B  B7  1  0.373506  0.126494  0.000000  1
  B  B8  1  0.124055  0.624055  0.000000  1
  B  B9  1  0.875945  0.375945  0.000000  1
  Ru  Ru10  1  0.572835  0.713736  0.500000  1
  Ru  Ru11  1  0.427165  0.286264  0.500000  1
  Ru  Ru12  1  0.068497  0.785083  0.500000  1
  Ru  Ru13  1  0.931503  0.214917  0.500000  1
  Ru  Ru14  1  0.285083  0.568497  0.500000  1
  Ru  Ru15  1  0.714917  0.431503  0.500000  1
  Ru  Ru16  1  0.213736  0.072835  0.500000  1
  Ru  Ru17  1  0.786264  0.927165  0.500000  1
  Ru  Ru18  1  0.500000  0.000000  0.500000  1
  Ru  Ru19  1  0.000000  0.500000  0.500000  1
