# generated using pymatgen
data_ErLu3(CuSi3)2
_symmetry_space_group_name_H-M   'P 1'
_cell_length_a   7.92645300
_cell_length_b   7.92645404
_cell_length_c   7.89687100
_cell_angle_alpha   90.00000000
_cell_angle_beta   90.00000000
_cell_angle_gamma   120.00000816
_symmetry_Int_Tables_number   1
_chemical_formula_structural   ErLu3(CuSi3)2
_chemical_formula_sum   'Er2 Lu6 Cu4 Si12'
_cell_volume   429.67835278
_cell_formula_units_Z   2
loop_
 _symmetry_equiv_pos_site_id
 _symmetry_equiv_pos_as_xyz
  1  'x, y, z'
loop_
 _atom_site_type_symbol
 _atom_site_label
 _atom_site_symmetry_multiplicity
 _atom_site_fract_x
 _atom_site_fract_y
 _atom_site_fract_z
 _atom_site_occupancy
  Er  Er0  1  0.000000  0.000000  0.750000  1
  Er  Er1  1  0.000000  0.000000  0.250000  1
  Lu  Lu2  1  0.995578  0.497789  0.250000  1
  Lu  Lu3  1  0.502211  0.497789  0.250000  1
  Lu  Lu4  1  0.497789  0.995578  0.750000  1
  Lu  Lu5  1  0.004422  0.502211  0.750000  1
  Lu  Lu6  1  0.497789  0.502211  0.750000  1
  Lu  Lu7  1  0.502211  0.004422  0.250000  1
  Cu  Cu8  1  0.333333  0.666667  0.009585  1
  Cu  Cu9  1  0.666667  0.333333  0.990415  1
  Cu  Cu10  1  0.666667  0.333333  0.509585  1
  Cu  Cu11  1  0.333333  0.666667  0.490415  1
  Si  Si12  1  0.169488  0.830512  0.499776  1
  Si  Si13  1  0.169488  0.338975  0.499776  1
  Si  Si14  1  0.661025  0.830512  0.499776  1
  Si  Si15  1  0.338975  0.169488  0.999776  1
  Si  Si16  1  0.830512  0.661025  0.500224  1
  Si  Si17  1  0.830512  0.169488  0.999776  1
  Si  Si18  1  0.830512  0.661025  0.999776  1
  Si  Si19  1  0.169488  0.338975  0.000224  1
  Si  Si20  1  0.661025  0.830512  0.000224  1
  Si  Si21  1  0.338975  0.169488  0.500224  1
  Si  Si22  1  0.830512  0.169488  0.500224  1
  Si  Si23  1  0.169488  0.830512  0.000224  1
