# generated using pymatgen
data_TbCo5As3
_symmetry_space_group_name_H-M   'P 1'
_cell_length_a   3.79017600
_cell_length_b   12.16625100
_cell_length_c   10.67063300
_cell_angle_alpha   90.00000000
_cell_angle_beta   90.00000000
_cell_angle_gamma   90.00000000
_symmetry_Int_Tables_number   1
_chemical_formula_structural   TbCo5As3
_chemical_formula_sum   'Tb4 Co20 As12'
_cell_volume   492.04671035
_cell_formula_units_Z   4
loop_
 _symmetry_equiv_pos_site_id
 _symmetry_equiv_pos_as_xyz
  1  'x, y, z'
loop_
 _atom_site_type_symbol
 _atom_site_label
 _atom_site_symmetry_multiplicity
 _atom_site_fract_x
 _atom_site_fract_y
 _atom_site_fract_z
 _atom_site_occupancy
  Tb  Tb0  1  0.750000  0.701504  0.081819  1
  Tb  Tb1  1  0.250000  0.298496  0.918181  1
  Tb  Tb2  1  0.250000  0.798496  0.581819  1
  Tb  Tb3  1  0.750000  0.201504  0.418181  1
  Co  Co4  1  0.750000  0.696948  0.383767  1
  Co  Co5  1  0.250000  0.303052  0.616233  1
  Co  Co6  1  0.250000  0.803052  0.883767  1
  Co  Co7  1  0.750000  0.196948  0.116233  1
  Co  Co8  1  0.750000  0.991098  0.211551  1
  Co  Co9  1  0.250000  0.008902  0.788449  1
  Co  Co10  1  0.250000  0.508902  0.711551  1
  Co  Co11  1  0.750000  0.491098  0.288449  1
  Co  Co12  1  0.750000  0.677524  0.783990  1
  Co  Co13  1  0.250000  0.322476  0.216010  1
  Co  Co14  1  0.250000  0.822476  0.283990  1
  Co  Co15  1  0.750000  0.177524  0.716010  1
  Co  Co16  1  0.750000  0.932155  0.969505  1
  Co  Co17  1  0.250000  0.067845  0.030495  1
  Co  Co18  1  0.250000  0.567845  0.469505  1
  Co  Co19  1  0.750000  0.432155  0.530495  1
  Co  Co20  1  0.750000  0.988318  0.592983  1
  Co  Co21  1  0.250000  0.011682  0.407017  1
  Co  Co22  1  0.250000  0.511682  0.092983  1
  Co  Co23  1  0.750000  0.488317  0.907017  1
  As  As24  1  0.750000  0.614001  0.584584  1
  As  As25  1  0.250000  0.385999  0.415416  1
  As  As26  1  0.250000  0.885999  0.084584  1
  As  As27  1  0.750000  0.114001  0.915416  1
  As  As28  1  0.750000  0.890792  0.398815  1
  As  As29  1  0.250000  0.109208  0.601185  1
  As  As30  1  0.250000  0.609208  0.898815  1
  As  As31  1  0.750000  0.390792  0.101185  1
  As  As32  1  0.750000  0.870299  0.769514  1
  As  As33  1  0.250000  0.129701  0.230486  1
  As  As34  1  0.250000  0.629701  0.269514  1
  As  As35  1  0.750000  0.370299  0.730486  1
