# generated using pymatgen
data_La16SmDy3Sn16
_symmetry_space_group_name_H-M   'P 1'
_cell_length_a   8.38744903
_cell_length_b   8.55081903
_cell_length_c   16.31222100
_cell_angle_alpha   90.00000000
_cell_angle_beta   90.00000000
_cell_angle_gamma   89.99092781
_symmetry_Int_Tables_number   1
_chemical_formula_structural   La16SmDy3Sn16
_chemical_formula_sum   'La16 Sm1 Dy3 Sn16'
_cell_volume   1169.90527720
_cell_formula_units_Z   1
loop_
 _symmetry_equiv_pos_site_id
 _symmetry_equiv_pos_as_xyz
  1  'x, y, z'
loop_
 _atom_site_type_symbol
 _atom_site_label
 _atom_site_symmetry_multiplicity
 _atom_site_fract_x
 _atom_site_fract_y
 _atom_site_fract_z
 _atom_site_occupancy
  La  La0  1  0.368417  0.838841  0.880026  1
  La  La1  1  0.867926  0.661491  0.619956  1
  La  La2  1  0.631768  0.161373  0.379965  1
  La  La3  1  0.131774  0.338659  0.120090  1
  La  La4  1  0.631768  0.161373  0.120035  1
  La  La5  1  0.131774  0.338659  0.379910  1
  La  La6  1  0.368417  0.838841  0.619974  1
  La  La7  1  0.867926  0.661491  0.880044  1
  La  La8  1  0.520589  0.318825  0.901761  1
  La  La9  1  0.020247  0.180903  0.598272  1
  La  La10  1  0.479590  0.681065  0.401626  1
  La  La11  1  0.979677  0.818877  0.098348  1
  La  La12  1  0.479590  0.681065  0.098374  1
  La  La13  1  0.979677  0.818877  0.401652  1
  La  La14  1  0.520589  0.318825  0.598239  1
  La  La15  1  0.020247  0.180903  0.901728  1
  Sm  Sm16  1  0.200070  0.500658  0.750000  1
  Dy  Dy17  1  0.700771  0.999290  0.750000  1
  Dy  Dy18  1  0.799394  0.499498  0.250000  1
  Dy  Dy19  1  0.299273  0.000480  0.250000  1
  Sn  Sn20  1  0.291052  0.032888  0.044828  1
  Sn  Sn21  1  0.791094  0.467091  0.455191  1
  Sn  Sn22  1  0.708961  0.967122  0.544822  1
  Sn  Sn23  1  0.208984  0.533026  0.955530  1
  Sn  Sn24  1  0.708961  0.967122  0.955178  1
  Sn  Sn25  1  0.208984  0.533026  0.544470  1
  Sn  Sn26  1  0.291052  0.032888  0.455172  1
  Sn  Sn27  1  0.791094  0.467091  0.044809  1
  Sn  Sn28  1  0.565584  0.615305  0.750000  1
  Sn  Sn29  1  0.064612  0.885257  0.750000  1
  Sn  Sn30  1  0.435257  0.384717  0.250000  1
  Sn  Sn31  1  0.935232  0.115322  0.250000  1
  Sn  Sn32  1  0.325681  0.147247  0.750000  1
  Sn  Sn33  1  0.825183  0.351808  0.750000  1
  Sn  Sn34  1  0.674409  0.851824  0.250000  1
  Sn  Sn35  1  0.174374  0.648272  0.250000  1
