# generated using pymatgen
data_K4Sr2HfP4
_symmetry_space_group_name_H-M   'P 1'
_cell_length_a   10.22801823
_cell_length_b   10.22801829
_cell_length_c   7.68447800
_cell_angle_alpha   88.26125396
_cell_angle_beta   88.26125117
_cell_angle_gamma   119.68613932
_symmetry_Int_Tables_number   1
_chemical_formula_structural   K4Sr2HfP4
_chemical_formula_sum   'K8 Sr4 Hf2 P8'
_cell_volume   697.10671410
_cell_formula_units_Z   2
loop_
 _symmetry_equiv_pos_site_id
 _symmetry_equiv_pos_as_xyz
  1  'x, y, z'
loop_
 _atom_site_type_symbol
 _atom_site_label
 _atom_site_symmetry_multiplicity
 _atom_site_fract_x
 _atom_site_fract_y
 _atom_site_fract_z
 _atom_site_occupancy
  K  K0  1  0.060670  0.526735  0.614561  1
  K  K1  1  0.526735  0.060670  0.114561  1
  K  K2  1  0.276193  0.132670  0.824389  1
  K  K3  1  0.872176  0.731322  0.764718  1
  K  K4  1  0.862098  0.142975  0.798622  1
  K  K5  1  0.731322  0.872176  0.264718  1
  K  K6  1  0.132670  0.276193  0.324389  1
  K  K7  1  0.142975  0.862098  0.298622  1
  Sr  Sr8  1  0.467117  0.929381  0.605892  1
  Sr  Sr9  1  0.467181  0.525942  0.620831  1
  Sr  Sr10  1  0.929381  0.467117  0.105892  1
  Sr  Sr11  1  0.525942  0.467181  0.120831  1
  Hf  Hf12  1  0.665650  0.335781  0.510079  1
  Hf  Hf13  1  0.335781  0.665650  0.010079  1
  P  P14  1  0.671204  0.357646  0.838650  1
  P  P15  1  0.357646  0.671204  0.338650  1
  P  P16  1  0.597599  0.789650  0.867949  1
  P  P17  1  0.204745  0.396030  0.922363  1
  P  P18  1  0.195562  0.791668  0.900690  1
  P  P19  1  0.396030  0.204745  0.422363  1
  P  P20  1  0.789650  0.597599  0.367949  1
  P  P21  1  0.791668  0.195562  0.400690  1
