# generated using pymatgen
data_La5Pr6Nd5Cd3AgIr4
_symmetry_space_group_name_H-M   'P 1'
_cell_length_a   10.02533833
_cell_length_b   10.05709979
_cell_length_c   10.05710000
_cell_angle_alpha   59.97035269
_cell_angle_beta   60.10441195
_cell_angle_gamma   60.10442078
_symmetry_Int_Tables_number   1
_chemical_formula_structural   La5Pr6Nd5Cd3AgIr4
_chemical_formula_sum   'La5 Pr6 Nd5 Cd3 Ag1 Ir4'
_cell_volume   717.98519070
_cell_formula_units_Z   1
loop_
 _symmetry_equiv_pos_site_id
 _symmetry_equiv_pos_as_xyz
  1  'x, y, z'
loop_
 _atom_site_type_symbol
 _atom_site_label
 _atom_site_symmetry_multiplicity
 _atom_site_fract_x
 _atom_site_fract_y
 _atom_site_fract_z
 _atom_site_occupancy
  La  La0  1  0.346976  0.348397  0.348436  1
  La  La1  1  0.348808  0.348095  0.955125  1
  La  La2  1  0.348818  0.955115  0.348096  1
  La  La3  1  0.955478  0.348986  0.348974  1
  La  La4  1  0.812560  0.187577  0.187598  1
  Pr  Pr5  1  0.935702  0.562374  0.562381  1
  Pr  Pr6  1  0.561758  0.937722  0.937712  1
  Pr  Pr7  1  0.561200  0.936143  0.562384  1
  Pr  Pr8  1  0.938553  0.561968  0.937768  1
  Pr  Pr9  1  0.561183  0.562406  0.936134  1
  Pr  Pr10  1  0.938570  0.937762  0.561966  1
  Nd  Nd11  1  0.188856  0.810992  0.810982  1
  Nd  Nd12  1  0.191088  0.809313  0.189069  1
  Nd  Nd13  1  0.810782  0.188829  0.809069  1
  Nd  Nd14  1  0.191104  0.189074  0.809311  1
  Nd  Nd15  1  0.810776  0.809070  0.188838  1
  Cd  Cd16  1  0.579357  0.581410  0.260635  1
  Cd  Cd17  1  0.579354  0.260642  0.581406  1
  Cd  Cd18  1  0.260764  0.580106  0.580110  1
  Ag  Ag19  1  0.581076  0.581358  0.581355  1
  Ir  Ir20  1  0.137701  0.143047  0.143039  1
  Ir  Ir21  1  0.141508  0.142137  0.574600  1
  Ir  Ir22  1  0.141506  0.574609  0.142137  1
  Ir  Ir23  1  0.576518  0.142863  0.142870  1
