# generated using pymatgen
data_Ce6Al21Si3TcOs7
_symmetry_space_group_name_H-M   'P 1'
_cell_length_a   8.84433800
_cell_length_b   8.84433853
_cell_length_c   9.57286400
_cell_angle_alpha   90.00000000
_cell_angle_beta   90.00000000
_cell_angle_gamma   119.99999802
_symmetry_Int_Tables_number   1
_chemical_formula_structural   Ce6Al21Si3TcOs7
_chemical_formula_sum   'Ce6 Al21 Si3 Tc1 Os7'
_cell_volume   648.48990276
_cell_formula_units_Z   1
loop_
 _symmetry_equiv_pos_site_id
 _symmetry_equiv_pos_as_xyz
  1  'x, y, z'
loop_
 _atom_site_type_symbol
 _atom_site_label
 _atom_site_symmetry_multiplicity
 _atom_site_fract_x
 _atom_site_fract_y
 _atom_site_fract_z
 _atom_site_occupancy
  Ce  Ce0  1  0.194622  0.389244  0.249076  1
  Ce  Ce1  1  0.805267  0.610534  0.750529  1
  Ce  Ce2  1  0.610756  0.805378  0.249076  1
  Ce  Ce3  1  0.389466  0.194733  0.750529  1
  Ce  Ce4  1  0.194622  0.805378  0.249076  1
  Ce  Ce5  1  0.805267  0.194733  0.750529  1
  Al  Al6  1  0.333333  0.666667  0.485512  1
  Al  Al7  1  0.162747  0.325495  0.575575  1
  Al  Al8  1  0.836527  0.673055  0.422960  1
  Al  Al9  1  0.674505  0.837253  0.575575  1
  Al  Al10  1  0.836870  0.673740  0.077361  1
  Al  Al11  1  0.326945  0.163473  0.422960  1
  Al  Al12  1  0.163195  0.326389  0.921538  1
  Al  Al13  1  0.162747  0.837253  0.575575  1
  Al  Al14  1  0.326260  0.163130  0.077361  1
  Al  Al15  1  0.836527  0.163473  0.422960  1
  Al  Al16  1  0.673611  0.836805  0.921538  1
  Al  Al17  1  0.836870  0.163130  0.077361  1
  Al  Al18  1  0.163195  0.836805  0.921538  1
  Al  Al19  1  0.564173  0.128345  0.249327  1
  Al  Al20  1  0.436409  0.872818  0.748700  1
  Al  Al21  1  0.871655  0.435827  0.249327  1
  Al  Al22  1  0.127182  0.563591  0.748700  1
  Al  Al23  1  0.564173  0.435827  0.249327  1
  Al  Al24  1  0.436409  0.563591  0.748700  1
  Al  Al25  1  0.000000  0.000000  0.248644  1
  Al  Al26  1  0.000000  0.000000  0.750184  1
  Si  Si27  1  0.333333  0.666667  0.032516  1
  Si  Si28  1  0.666667  0.333333  0.968669  1
  Si  Si29  1  0.666667  0.333333  0.530069  1
  Tc  Tc30  1  0.000000  0.000000  0.999480  1
  Os  Os31  1  0.499980  0.999959  0.998836  1
  Os  Os32  1  0.000041  0.500020  0.998836  1
  Os  Os33  1  0.503779  0.007557  0.501289  1
  Os  Os34  1  0.499980  0.500020  0.998836  1
  Os  Os35  1  0.992443  0.496221  0.501289  1
  Os  Os36  1  0.503779  0.496221  0.501289  1
  Os  Os37  1  0.000000  0.000000  0.499355  1
