# generated using pymatgen
data_DyEr7Re3OsC8
_symmetry_space_group_name_H-M   'P 1'
_cell_length_a   5.07255000
_cell_length_b   6.52239446
_cell_length_c   9.77380555
_cell_angle_alpha   89.74470776
_cell_angle_beta   90.00000000
_cell_angle_gamma   90.00000000
_symmetry_Int_Tables_number   1
_chemical_formula_structural   DyEr7Re3OsC8
_chemical_formula_sum   'Dy1 Er7 Re3 Os1 C8'
_cell_volume   323.36482777
_cell_formula_units_Z   1
loop_
 _symmetry_equiv_pos_site_id
 _symmetry_equiv_pos_as_xyz
  1  'x, y, z'
loop_
 _atom_site_type_symbol
 _atom_site_label
 _atom_site_symmetry_multiplicity
 _atom_site_fract_x
 _atom_site_fract_y
 _atom_site_fract_z
 _atom_site_occupancy
  Dy  Dy0  1  0.750000  0.531974  0.786218  1
  Er  Er1  1  0.250000  0.967045  0.283159  1
  Er  Er2  1  0.750000  0.677725  0.443106  1
  Er  Er3  1  0.250000  0.824480  0.944109  1
  Er  Er4  1  0.750000  0.178621  0.057118  1
  Er  Er5  1  0.250000  0.321997  0.556779  1
  Er  Er6  1  0.250000  0.467028  0.216547  1
  Er  Er7  1  0.750000  0.034678  0.716105  1
  Re  Re8  1  0.250000  0.781525  0.632670  1
  Re  Re9  1  0.750000  0.218558  0.368191  1
  Re  Re10  1  0.750000  0.719843  0.132070  1
  Os  Os11  1  0.250000  0.280062  0.866969  1
  C  C12  1  0.250000  0.674796  0.447592  1
  C  C13  1  0.250000  0.547687  0.757721  1
  C  C14  1  0.750000  0.451725  0.240558  1
  C  C15  1  0.750000  0.825622  0.946580  1
  C  C16  1  0.250000  0.047440  0.740895  1
  C  C17  1  0.250000  0.173621  0.051347  1
  C  C18  1  0.750000  0.324009  0.553034  1
  C  C19  1  0.750000  0.951566  0.259230  1
