# generated using pymatgen
data_Sr2Dy3Y(SiIr2)6
_symmetry_space_group_name_H-M   'P 1'
_cell_length_a   5.62490700
_cell_length_b   5.62490781
_cell_length_c   15.13107100
_cell_angle_alpha   90.00000000
_cell_angle_beta   90.00000000
_cell_angle_gamma   120.00000113
_symmetry_Int_Tables_number   1
_chemical_formula_structural   Sr2Dy3Y(SiIr2)6
_chemical_formula_sum   'Sr2 Dy3 Y1 Si6 Ir12'
_cell_volume   414.60167376
_cell_formula_units_Z   1
loop_
 _symmetry_equiv_pos_site_id
 _symmetry_equiv_pos_as_xyz
  1  'x, y, z'
loop_
 _atom_site_type_symbol
 _atom_site_label
 _atom_site_symmetry_multiplicity
 _atom_site_fract_x
 _atom_site_fract_y
 _atom_site_fract_z
 _atom_site_occupancy
  Sr  Sr0  1  0.333333  0.666667  0.749819  1
  Sr  Sr1  1  0.666667  0.333333  0.249997  1
  Dy  Dy2  1  0.333333  0.666667  0.540621  1
  Dy  Dy3  1  0.666667  0.333333  0.459263  1
  Dy  Dy4  1  0.666667  0.333333  0.040713  1
  Y  Y5  1  0.333333  0.666667  0.959218  1
  Si  Si6  1  0.000000  0.000000  0.250128  1
  Si  Si7  1  0.000000  0.000000  0.750030  1
  Si  Si8  1  0.333333  0.666667  0.250026  1
  Si  Si9  1  0.666667  0.333333  0.749956  1
  Si  Si10  1  0.000000  0.000000  0.000018  1
  Si  Si11  1  0.000000  0.000000  0.499930  1
  Ir  Ir12  1  0.167525  0.335049  0.128633  1
  Ir  Ir13  1  0.832336  0.664674  0.871463  1
  Ir  Ir14  1  0.664951  0.832475  0.128633  1
  Ir  Ir15  1  0.832382  0.664765  0.628359  1
  Ir  Ir16  1  0.335326  0.167664  0.871463  1
  Ir  Ir17  1  0.167653  0.335306  0.371639  1
  Ir  Ir18  1  0.167525  0.832475  0.128633  1
  Ir  Ir19  1  0.335235  0.167618  0.628359  1
  Ir  Ir20  1  0.832336  0.167664  0.871463  1
  Ir  Ir21  1  0.664694  0.832347  0.371639  1
  Ir  Ir22  1  0.832382  0.167618  0.628359  1
  Ir  Ir23  1  0.167653  0.832347  0.371639  1
