# generated using pymatgen
data_Pr16Cd4TcPd3
_symmetry_space_group_name_H-M   'P 1'
_cell_length_a   10.14610668
_cell_length_b   10.14610692
_cell_length_c   10.14610543
_cell_angle_alpha   59.26271745
_cell_angle_beta   59.26271769
_cell_angle_gamma   59.26272059
_symmetry_Int_Tables_number   1
_chemical_formula_structural   Pr16Cd4TcPd3
_chemical_formula_sum   'Pr16 Cd4 Tc1 Pd3'
_cell_volume   726.15405966
_cell_formula_units_Z   1
loop_
 _symmetry_equiv_pos_site_id
 _symmetry_equiv_pos_as_xyz
  1  'x, y, z'
loop_
 _atom_site_type_symbol
 _atom_site_label
 _atom_site_symmetry_multiplicity
 _atom_site_fract_x
 _atom_site_fract_y
 _atom_site_fract_z
 _atom_site_occupancy
  Pr  Pr0  1  0.353188  0.353188  0.353188  1
  Pr  Pr1  1  0.347657  0.347657  0.952209  1
  Pr  Pr2  1  0.347657  0.952209  0.347657  1
  Pr  Pr3  1  0.952209  0.347657  0.347657  1
  Pr  Pr4  1  0.817133  0.188365  0.188365  1
  Pr  Pr5  1  0.189885  0.806357  0.806357  1
  Pr  Pr6  1  0.188365  0.817133  0.188365  1
  Pr  Pr7  1  0.806357  0.189885  0.806357  1
  Pr  Pr8  1  0.188365  0.188365  0.817133  1
  Pr  Pr9  1  0.806357  0.806357  0.189885  1
  Pr  Pr10  1  0.935009  0.565155  0.565155  1
  Pr  Pr11  1  0.555337  0.938506  0.938506  1
  Pr  Pr12  1  0.565155  0.935009  0.565155  1
  Pr  Pr13  1  0.938506  0.555337  0.938506  1
  Pr  Pr14  1  0.565155  0.565155  0.935009  1
  Pr  Pr15  1  0.938506  0.938506  0.555337  1
  Cd  Cd16  1  0.579788  0.579788  0.579788  1
  Cd  Cd17  1  0.580188  0.580188  0.257221  1
  Cd  Cd18  1  0.580188  0.257221  0.580188  1
  Cd  Cd19  1  0.257221  0.580188  0.580188  1
  Tc  Tc20  1  0.142708  0.142708  0.142708  1
  Pd  Pd21  1  0.146352  0.146352  0.572364  1
  Pd  Pd22  1  0.146352  0.572364  0.146352  1
  Pd  Pd23  1  0.572364  0.146352  0.146352  1
