# generated using pymatgen
data_Dy3Tm9In20
_symmetry_space_group_name_H-M   'P 1'
_cell_length_a   6.46872339
_cell_length_b   10.38407728
_cell_length_c   12.20274028
_cell_angle_alpha   90.09111181
_cell_angle_beta   89.93607257
_cell_angle_gamma   90.00225940
_symmetry_Int_Tables_number   1
_chemical_formula_structural   Dy3Tm9In20
_chemical_formula_sum   'Dy3 Tm9 In20'
_cell_volume   819.67754964
_cell_formula_units_Z   1
loop_
 _symmetry_equiv_pos_site_id
 _symmetry_equiv_pos_as_xyz
  1  'x, y, z'
loop_
 _atom_site_type_symbol
 _atom_site_label
 _atom_site_symmetry_multiplicity
 _atom_site_fract_x
 _atom_site_fract_y
 _atom_site_fract_z
 _atom_site_occupancy
  Dy  Dy0  1  0.390348  0.993455  0.358572  1
  Dy  Dy1  1  0.890449  0.007047  0.141205  1
  Dy  Dy2  1  0.609364  0.493133  0.641456  1
  Tm  Tm3  1  0.349600  0.750764  0.054698  1
  Tm  Tm4  1  0.150323  0.749204  0.554921  1
  Tm  Tm5  1  0.651422  0.250867  0.944930  1
  Tm  Tm6  1  0.849992  0.248850  0.445166  1
  Tm  Tm7  1  0.891669  0.493155  0.140107  1
  Tm  Tm8  1  0.608501  0.006777  0.641285  1
  Tm  Tm9  1  0.108848  0.992994  0.858700  1
  Tm  Tm10  1  0.391216  0.506813  0.359017  1
  Tm  Tm11  1  0.108761  0.506994  0.859595  1
  In  In12  1  0.615589  0.750345  0.505453  1
  In  In13  1  0.885046  0.749359  0.005179  1
  In  In14  1  0.384362  0.250831  0.494817  1
  In  In15  1  0.116282  0.250434  0.993295  1
  In  In16  1  0.649643  0.748590  0.244961  1
  In  In17  1  0.850634  0.750486  0.745516  1
  In  In18  1  0.349596  0.249510  0.755474  1
  In  In19  1  0.149565  0.251557  0.254552  1
  In  In20  1  0.127782  0.748605  0.284051  1
  In  In21  1  0.370633  0.749847  0.784451  1
  In  In22  1  0.872220  0.248909  0.715870  1
  In  In23  1  0.627666  0.251504  0.216090  1
  In  In24  1  0.875890  0.542567  0.399872  1
  In  In25  1  0.624470  0.957049  0.899753  1
  In  In26  1  0.124499  0.042786  0.600172  1
  In  In27  1  0.375857  0.457312  0.099873  1
  In  In28  1  0.123145  0.456678  0.599984  1
  In  In29  1  0.376171  0.044010  0.098174  1
  In  In30  1  0.876247  0.956034  0.401665  1
  In  In31  1  0.624212  0.543539  0.901143  1
