# generated using pymatgen
data_V4FeS8
_symmetry_space_group_name_H-M   'P 1'
_cell_length_a   6.36821500
_cell_length_b   6.36821478
_cell_length_c   11.38972600
_cell_angle_alpha   90.00000000
_cell_angle_beta   90.00000000
_cell_angle_gamma   119.99999595
_symmetry_Int_Tables_number   1
_chemical_formula_structural   V4FeS8
_chemical_formula_sum   'V8 Fe2 S16'
_cell_volume   400.01782629
_cell_formula_units_Z   2
loop_
 _symmetry_equiv_pos_site_id
 _symmetry_equiv_pos_as_xyz
  1  'x, y, z'
loop_
 _atom_site_type_symbol
 _atom_site_label
 _atom_site_symmetry_multiplicity
 _atom_site_fract_x
 _atom_site_fract_y
 _atom_site_fract_z
 _atom_site_occupancy
  V  V0  1  0.507795  0.015590  0.750000  1
  V  V1  1  0.492205  0.507795  0.250000  1
  V  V2  1  0.015590  0.507795  0.250000  1
  V  V3  1  0.984410  0.492205  0.750000  1
  V  V4  1  0.507795  0.492205  0.750000  1
  V  V5  1  0.492205  0.984410  0.250000  1
  V  V6  1  0.000000  0.000000  0.750000  1
  V  V7  1  0.000000  0.000000  0.250000  1
  Fe  Fe8  1  0.000000  0.000000  0.500000  1
  Fe  Fe9  1  0.000000  0.000000  0.000000  1
  S  S10  1  0.834946  0.165054  0.122154  1
  S  S11  1  0.834946  0.669893  0.122154  1
  S  S12  1  0.330107  0.165054  0.122154  1
  S  S13  1  0.669893  0.834946  0.622154  1
  S  S14  1  0.165054  0.330107  0.877846  1
  S  S15  1  0.165054  0.834946  0.622154  1
  S  S16  1  0.165054  0.330107  0.622154  1
  S  S17  1  0.834946  0.165054  0.377846  1
  S  S18  1  0.330107  0.165054  0.377846  1
  S  S19  1  0.669893  0.834946  0.877846  1
  S  S20  1  0.333333  0.666667  0.116678  1
  S  S21  1  0.666667  0.333333  0.616678  1
  S  S22  1  0.666667  0.333333  0.883322  1
  S  S23  1  0.333333  0.666667  0.383322  1
  S  S24  1  0.834946  0.669893  0.377846  1
  S  S25  1  0.165054  0.834946  0.877846  1
