# generated using pymatgen
data_GdEr7(Si3Pt)4
_symmetry_space_group_name_H-M   'P 1'
_cell_length_a   8.14320800
_cell_length_b   8.14320887
_cell_length_c   8.21557700
_cell_angle_alpha   90.00000000
_cell_angle_beta   90.00000000
_cell_angle_gamma   119.99999647
_symmetry_Int_Tables_number   1
_chemical_formula_structural   GdEr7(Si3Pt)4
_chemical_formula_sum   'Gd1 Er7 Si12 Pt4'
_cell_volume   471.80204604
_cell_formula_units_Z   1
loop_
 _symmetry_equiv_pos_site_id
 _symmetry_equiv_pos_as_xyz
  1  'x, y, z'
loop_
 _atom_site_type_symbol
 _atom_site_label
 _atom_site_symmetry_multiplicity
 _atom_site_fract_x
 _atom_site_fract_y
 _atom_site_fract_z
 _atom_site_occupancy
  Gd  Gd0  1  0.000000  0.000000  0.250000  1
  Er  Er1  1  0.000000  0.000000  0.750000  1
  Er  Er2  1  0.499431  0.500569  0.250000  1
  Er  Er3  1  0.499431  0.998861  0.250000  1
  Er  Er4  1  0.001139  0.500569  0.250000  1
  Er  Er5  1  0.500820  0.499180  0.750000  1
  Er  Er6  1  0.998360  0.499180  0.750000  1
  Er  Er7  1  0.500820  0.001640  0.750000  1
  Si  Si8  1  0.834317  0.165683  0.501158  1
  Si  Si9  1  0.834317  0.668635  0.501158  1
  Si  Si10  1  0.331365  0.165683  0.501158  1
  Si  Si11  1  0.834317  0.165683  0.998842  1
  Si  Si12  1  0.834317  0.668635  0.998842  1
  Si  Si13  1  0.331365  0.165683  0.998842  1
  Si  Si14  1  0.165813  0.834187  0.998570  1
  Si  Si15  1  0.668376  0.834187  0.998570  1
  Si  Si16  1  0.165813  0.331624  0.998570  1
  Si  Si17  1  0.165813  0.834187  0.501430  1
  Si  Si18  1  0.668376  0.834187  0.501430  1
  Si  Si19  1  0.165813  0.331624  0.501430  1
  Pt  Pt20  1  0.666667  0.333333  0.498394  1
  Pt  Pt21  1  0.666667  0.333333  0.001606  1
  Pt  Pt22  1  0.333333  0.666667  0.998117  1
  Pt  Pt23  1  0.333333  0.666667  0.501883  1
