# generated using pymatgen
data_Gd4Dy4Re(B8Ru)3
_symmetry_space_group_name_H-M   'P 1'
_cell_length_a   3.68653900
_cell_length_b   9.17710284
_cell_length_c   11.57256515
_cell_angle_alpha   90.13452719
_cell_angle_beta   90.00000000
_cell_angle_gamma   90.00000000
_symmetry_Int_Tables_number   1
_chemical_formula_structural   Gd4Dy4Re(B8Ru)3
_chemical_formula_sum   'Gd4 Dy4 Re1 B24 Ru3'
_cell_volume   391.51902316
_cell_formula_units_Z   1
loop_
 _symmetry_equiv_pos_site_id
 _symmetry_equiv_pos_as_xyz
  1  'x, y, z'
loop_
 _atom_site_type_symbol
 _atom_site_label
 _atom_site_symmetry_multiplicity
 _atom_site_fract_x
 _atom_site_fract_y
 _atom_site_fract_z
 _atom_site_occupancy
  Gd  Gd0  1  0.000000  0.323618  0.415037  1
  Gd  Gd1  1  0.000000  0.679394  0.587893  1
  Gd  Gd2  1  0.000000  0.823133  0.083522  1
  Gd  Gd3  1  0.000000  0.175712  0.913473  1
  Dy  Dy4  1  0.000000  0.943069  0.370683  1
  Dy  Dy5  1  0.000000  0.056554  0.627814  1
  Dy  Dy6  1  0.000000  0.442536  0.128902  1
  Dy  Dy7  1  0.000000  0.555955  0.872346  1
  Re  Re8  1  0.000000  0.861974  0.820668  1
  B  B9  1  0.500000  0.554565  0.432668  1
  B  B10  1  0.500000  0.445961  0.567966  1
  B  B11  1  0.500000  0.054170  0.068028  1
  B  B12  1  0.500000  0.946596  0.932443  1
  B  B13  1  0.500000  0.748246  0.418828  1
  B  B14  1  0.500000  0.252321  0.580958  1
  B  B15  1  0.500000  0.247811  0.081352  1
  B  B16  1  0.500000  0.751684  0.918710  1
  B  B17  1  0.500000  0.789804  0.266088  1
  B  B18  1  0.500000  0.209642  0.733039  1
  B  B19  1  0.500000  0.290248  0.233966  1
  B  B20  1  0.500000  0.708749  0.766176  1
  B  B21  1  0.500000  0.630957  0.185524  1
  B  B22  1  0.500000  0.368227  0.814251  1
  B  B23  1  0.500000  0.131743  0.314692  1
  B  B24  1  0.500000  0.868748  0.685543  1
  B  B25  1  0.500000  0.984397  0.212535  1
  B  B26  1  0.500000  0.016973  0.787096  1
  B  B27  1  0.500000  0.484198  0.287959  1
  B  B28  1  0.500000  0.515850  0.712932  1
  B  B29  1  0.500000  0.605331  0.030023  1
  B  B30  1  0.500000  0.392494  0.970988  1
  B  B31  1  0.500000  0.106947  0.469896  1
  B  B32  1  0.500000  0.894025  0.528531  1
  Ru  Ru33  1  0.000000  0.638039  0.320846  1
  Ru  Ru34  1  0.000000  0.362040  0.678928  1
  Ru  Ru35  1  0.000000  0.138290  0.179696  1
