# generated using pymatgen
data_Tm3In4IrRu
_symmetry_space_group_name_H-M   'P 1'
_cell_length_a   8.03235800
_cell_length_b   8.03235843
_cell_length_c   3.56972200
_cell_angle_alpha   90.00000000
_cell_angle_beta   90.00000000
_cell_angle_gamma   120.00000646
_symmetry_Int_Tables_number   1
_chemical_formula_structural   Tm3In4IrRu
_chemical_formula_sum   'Tm3 In4 Ir1 Ru1'
_cell_volume   199.45785107
_cell_formula_units_Z   1
loop_
 _symmetry_equiv_pos_site_id
 _symmetry_equiv_pos_as_xyz
  1  'x, y, z'
loop_
 _atom_site_type_symbol
 _atom_site_label
 _atom_site_symmetry_multiplicity
 _atom_site_fract_x
 _atom_site_fract_y
 _atom_site_fract_z
 _atom_site_occupancy
  Tm  Tm0  1  0.295493  0.257163  0.500000  1
  Tm  Tm1  1  0.742837  0.038330  0.500000  1
  Tm  Tm2  1  0.961670  0.704507  0.500000  1
  In  In3  1  0.065218  0.404020  0.000000  1
  In  In4  1  0.595980  0.661198  0.000000  1
  In  In5  1  0.338802  0.934782  0.000000  1
  In  In6  1  0.666667  0.333333  0.000000  1
  Ir  Ir7  1  0.000000  0.000000  0.000000  1
  Ru  Ru8  1  0.333333  0.666667  0.500000  1
