# generated using pymatgen
data_Er10Sn6HgGe
_symmetry_space_group_name_H-M   'P 1'
_cell_length_a   9.10771700
_cell_length_b   9.10771736
_cell_length_c   6.56256200
_cell_angle_alpha   90.00000000
_cell_angle_beta   90.00000000
_cell_angle_gamma   119.99999505
_symmetry_Int_Tables_number   1
_chemical_formula_structural   Er10Sn6HgGe
_chemical_formula_sum   'Er10 Sn6 Hg1 Ge1'
_cell_volume   471.43643626
_cell_formula_units_Z   1
loop_
 _symmetry_equiv_pos_site_id
 _symmetry_equiv_pos_as_xyz
  1  'x, y, z'
loop_
 _atom_site_type_symbol
 _atom_site_label
 _atom_site_symmetry_multiplicity
 _atom_site_fract_x
 _atom_site_fract_y
 _atom_site_fract_z
 _atom_site_occupancy
  Er  Er0  1  0.666667  0.333333  0.000000  1
  Er  Er1  1  0.333333  0.666667  0.000000  1
  Er  Er2  1  0.333333  0.666667  0.500000  1
  Er  Er3  1  0.666667  0.333333  0.500000  1
  Er  Er4  1  0.735716  0.735716  0.725553  1
  Er  Er5  1  0.264284  0.000000  0.725553  1
  Er  Er6  1  0.000000  0.264284  0.725553  1
  Er  Er7  1  0.264284  0.264284  0.274447  1
  Er  Er8  1  0.735716  0.000000  0.274447  1
  Er  Er9  1  0.000000  0.735716  0.274447  1
  Sn  Sn10  1  0.388524  0.388524  0.752540  1
  Sn  Sn11  1  0.611476  0.000000  0.752540  1
  Sn  Sn12  1  0.000000  0.611476  0.752540  1
  Sn  Sn13  1  0.611476  0.611476  0.247460  1
  Sn  Sn14  1  0.388524  0.000000  0.247460  1
  Sn  Sn15  1  0.000000  0.388524  0.247460  1
  Hg  Hg16  1  0.000000  0.000000  0.000000  1
  Ge  Ge17  1  0.000000  0.000000  0.500000  1
