# generated using pymatgen
data_Ho2Er14In6FeCo
_symmetry_space_group_name_H-M   'P 1'
_cell_length_a   10.26506043
_cell_length_b   10.26505969
_cell_length_c   6.96815005
_cell_angle_alpha   89.98779364
_cell_angle_beta   90.01220777
_cell_angle_gamma   120.05912916
_symmetry_Int_Tables_number   1
_chemical_formula_structural   Ho2Er14In6FeCo
_chemical_formula_sum   'Ho2 Er14 In6 Fe1 Co1'
_cell_volume   635.49484243
_cell_formula_units_Z   1
loop_
 _symmetry_equiv_pos_site_id
 _symmetry_equiv_pos_as_xyz
  1  'x, y, z'
loop_
 _atom_site_type_symbol
 _atom_site_label
 _atom_site_symmetry_multiplicity
 _atom_site_fract_x
 _atom_site_fract_y
 _atom_site_fract_z
 _atom_site_occupancy
  Ho  Ho0  1  0.535904  0.071720  0.791433  1
  Ho  Ho1  1  0.928280  0.464096  0.791433  1
  Er  Er2  1  0.535656  0.464344  0.792301  1
  Er  Er3  1  0.464935  0.929904  0.292384  1
  Er  Er4  1  0.070096  0.535065  0.292384  1
  Er  Er5  1  0.465136  0.534864  0.292887  1
  Er  Er6  1  0.821200  0.642628  0.497497  1
  Er  Er7  1  0.357372  0.178800  0.497497  1
  Er  Er8  1  0.821611  0.178389  0.497486  1
  Er  Er9  1  0.178831  0.357507  0.997464  1
  Er  Er10  1  0.642493  0.821169  0.997464  1
  Er  Er11  1  0.178646  0.821354  0.997441  1
  Er  Er12  1  0.666529  0.333471  0.180426  1
  Er  Er13  1  0.333352  0.666648  0.681310  1
  Er  Er14  1  0.000177  0.999823  0.779640  1
  Er  Er15  1  0.999793  0.000207  0.279076  1
  In  In16  1  0.837817  0.675357  0.040225  1
  In  In17  1  0.324643  0.162183  0.040225  1
  In  In18  1  0.837565  0.162435  0.040692  1
  In  In19  1  0.163061  0.326101  0.540472  1
  In  In20  1  0.673899  0.836939  0.540472  1
  In  In21  1  0.163069  0.836931  0.540051  1
  Fe  Fe22  1  0.666578  0.333422  0.567475  1
  Co  Co23  1  0.333354  0.666646  0.068169  1
