# generated using pymatgen
data_Ho3TmAlRh
_symmetry_space_group_name_H-M   'P 1'
_cell_length_a   9.46906490
_cell_length_b   9.46906628
_cell_length_c   9.48025819
_cell_angle_alpha   59.97985213
_cell_angle_beta   59.97984984
_cell_angle_gamma   59.98273738
_symmetry_Int_Tables_number   1
_chemical_formula_structural   Ho3TmAlRh
_chemical_formula_sum   'Ho12 Tm4 Al4 Rh4'
_cell_volume   600.80069758
_cell_formula_units_Z   4
loop_
 _symmetry_equiv_pos_site_id
 _symmetry_equiv_pos_as_xyz
  1  'x, y, z'
loop_
 _atom_site_type_symbol
 _atom_site_label
 _atom_site_symmetry_multiplicity
 _atom_site_fract_x
 _atom_site_fract_y
 _atom_site_fract_z
 _atom_site_occupancy
  Ho  Ho0  1  0.063093  0.063093  0.436876  1
  Ho  Ho1  1  0.436458  0.062885  0.437094  1
  Ho  Ho2  1  0.063097  0.436678  0.062957  1
  Ho  Ho3  1  0.058986  0.646172  0.646279  1
  Ho  Ho4  1  0.436926  0.436926  0.062579  1
  Ho  Ho5  1  0.646172  0.058986  0.646279  1
  Ho  Ho6  1  0.192900  0.807550  0.192440  1
  Ho  Ho7  1  0.192190  0.192190  0.807905  1
  Ho  Ho8  1  0.806932  0.806932  0.193608  1
  Ho  Ho9  1  0.436678  0.063097  0.062957  1
  Ho  Ho10  1  0.807550  0.192900  0.192440  1
  Ho  Ho11  1  0.062885  0.436458  0.437094  1
  Tm  Tm12  1  0.807201  0.193906  0.806919  1
  Tm  Tm13  1  0.193906  0.807201  0.806919  1
  Tm  Tm14  1  0.646225  0.646225  0.058295  1
  Tm  Tm15  1  0.648419  0.648419  0.648970  1
  Al  Al16  1  0.422383  0.422383  0.421597  1
  Al  Al17  1  0.732551  0.423005  0.422460  1
  Al  Al18  1  0.423005  0.732551  0.422460  1
  Al  Al19  1  0.422947  0.422947  0.732632  1
  Rh  Rh20  1  0.857162  0.857162  0.428523  1
  Rh  Rh21  1  0.857252  0.857252  0.857539  1
  Rh  Rh22  1  0.428642  0.856441  0.857590  1
  Rh  Rh23  1  0.856441  0.428642  0.857590  1
