# generated using pymatgen
data_Tm4Al4IrPd3
_symmetry_space_group_name_H-M   'P 1'
_cell_length_a   4.39011200
_cell_length_b   6.77205330
_cell_length_c   7.80146635
_cell_angle_alpha   89.96582845
_cell_angle_beta   90.00000000
_cell_angle_gamma   90.00000000
_symmetry_Int_Tables_number   1
_chemical_formula_structural   Tm4Al4IrPd3
_chemical_formula_sum   'Tm4 Al4 Ir1 Pd3'
_cell_volume   231.93811855
_cell_formula_units_Z   1
loop_
 _symmetry_equiv_pos_site_id
 _symmetry_equiv_pos_as_xyz
  1  'x, y, z'
loop_
 _atom_site_type_symbol
 _atom_site_label
 _atom_site_symmetry_multiplicity
 _atom_site_fract_x
 _atom_site_fract_y
 _atom_site_fract_z
 _atom_site_occupancy
  Tm  Tm0  1  0.250000  0.035783  0.323314  1
  Tm  Tm1  1  0.250000  0.531984  0.179603  1
  Tm  Tm2  1  0.750000  0.977036  0.678546  1
  Tm  Tm3  1  0.750000  0.462901  0.817329  1
  Al  Al4  1  0.250000  0.144756  0.937167  1
  Al  Al5  1  0.250000  0.638332  0.560667  1
  Al  Al6  1  0.750000  0.856917  0.059136  1
  Al  Al7  1  0.750000  0.355518  0.442563  1
  Ir  Ir8  1  0.250000  0.265938  0.622040  1
  Pd  Pd9  1  0.250000  0.769307  0.879114  1
  Pd  Pd10  1  0.750000  0.730820  0.378058  1
  Pd  Pd11  1  0.750000  0.230708  0.122462  1
