# generated using pymatgen
data_Nd7Sm(Er3Sn4)4
_symmetry_space_group_name_H-M   'P 1'
_cell_length_a   8.06528032
_cell_length_b   8.25087167
_cell_length_c   15.53713387
_cell_angle_alpha   90.01151657
_cell_angle_beta   90.05439929
_cell_angle_gamma   90.28668262
_symmetry_Int_Tables_number   1
_chemical_formula_structural   Nd7Sm(Er3Sn4)4
_chemical_formula_sum   'Nd7 Sm1 Er12 Sn16'
_cell_volume   1033.91435495
_cell_formula_units_Z   1
loop_
 _symmetry_equiv_pos_site_id
 _symmetry_equiv_pos_as_xyz
  1  'x, y, z'
loop_
 _atom_site_type_symbol
 _atom_site_label
 _atom_site_symmetry_multiplicity
 _atom_site_fract_x
 _atom_site_fract_y
 _atom_site_fract_z
 _atom_site_occupancy
  Nd  Nd0  1  0.512517  0.321273  0.903479  1
  Nd  Nd1  1  0.011777  0.177501  0.596172  1
  Nd  Nd2  1  0.487315  0.677991  0.403899  1
  Nd  Nd3  1  0.986901  0.822587  0.096212  1
  Nd  Nd4  1  0.487460  0.678660  0.095926  1
  Nd  Nd5  1  0.987696  0.822129  0.403856  1
  Nd  Nd6  1  0.512807  0.321582  0.596780  1
  Sm  Sm7  1  0.013677  0.177706  0.903157  1
  Er  Er8  1  0.357355  0.836141  0.876778  1
  Er  Er9  1  0.857052  0.664108  0.624323  1
  Er  Er10  1  0.643155  0.164501  0.376576  1
  Er  Er11  1  0.142394  0.335594  0.123849  1
  Er  Er12  1  0.642723  0.163875  0.123094  1
  Er  Er13  1  0.143560  0.335744  0.376106  1
  Er  Er14  1  0.356513  0.835497  0.623647  1
  Er  Er15  1  0.857182  0.664576  0.875997  1
  Er  Er16  1  0.189808  0.502815  0.750258  1
  Er  Er17  1  0.690236  0.997471  0.750331  1
  Er  Er18  1  0.810184  0.497214  0.249862  1
  Er  Er19  1  0.309753  0.002792  0.249817  1
  Sn  Sn20  1  0.304306  0.042254  0.041306  1
  Sn  Sn21  1  0.807451  0.459719  0.458247  1
  Sn  Sn22  1  0.693102  0.958043  0.541862  1
  Sn  Sn23  1  0.192464  0.539662  0.957975  1
  Sn  Sn24  1  0.695877  0.960230  0.957710  1
  Sn  Sn25  1  0.192741  0.540093  0.541979  1
  Sn  Sn26  1  0.306815  0.041419  0.458313  1
  Sn  Sn27  1  0.807380  0.459070  0.041443  1
  Sn  Sn28  1  0.555115  0.623996  0.750087  1
  Sn  Sn29  1  0.055741  0.877261  0.750157  1
  Sn  Sn30  1  0.444964  0.376170  0.249668  1
  Sn  Sn31  1  0.944157  0.123238  0.250190  1
  Sn  Sn32  1  0.320288  0.143446  0.750217  1
  Sn  Sn33  1  0.822501  0.355227  0.750746  1
  Sn  Sn34  1  0.678388  0.856434  0.249990  1
  Sn  Sn35  1  0.178643  0.643982  0.249991  1
