# generated using pymatgen
data_Tb7Nd(Nb3Si4)4
_symmetry_space_group_name_H-M   'P 1'
_cell_length_a   7.09672484
_cell_length_b   7.09876431
_cell_length_c   13.10576962
_cell_angle_alpha   89.91842878
_cell_angle_beta   89.94924975
_cell_angle_gamma   90.21225934
_symmetry_Int_Tables_number   1
_chemical_formula_structural   Tb7Nd(Nb3Si4)4
_chemical_formula_sum   'Tb7 Nd1 Nb12 Si16'
_cell_volume   660.23669909
_cell_formula_units_Z   1
loop_
 _symmetry_equiv_pos_site_id
 _symmetry_equiv_pos_as_xyz
  1  'x, y, z'
loop_
 _atom_site_type_symbol
 _atom_site_label
 _atom_site_symmetry_multiplicity
 _atom_site_fract_x
 _atom_site_fract_y
 _atom_site_fract_z
 _atom_site_occupancy
  Tb  Tb0  1  0.001585  0.658737  0.717667  1
  Tb  Tb1  1  0.159351  0.498927  0.468084  1
  Tb  Tb2  1  0.501174  0.840748  0.031653  1
  Tb  Tb3  1  0.840946  0.501478  0.967121  1
  Tb  Tb4  1  0.498339  0.158975  0.532839  1
  Tb  Tb5  1  0.341189  0.998371  0.782046  1
  Tb  Tb6  1  0.658707  0.001561  0.282808  1
  Nd  Nd7  1  0.995759  0.339767  0.217813  1
  Nb  Nb8  1  0.171172  0.169956  0.999347  1
  Nb  Nb9  1  0.829289  0.829261  0.500597  1
  Nb  Nb10  1  0.329492  0.671267  0.250140  1
  Nb  Nb11  1  0.670779  0.329322  0.749936  1
  Nb  Nb12  1  0.155778  0.992689  0.376972  1
  Nb  Nb13  1  0.845672  0.007144  0.875117  1
  Nb  Nb14  1  0.507651  0.654590  0.626431  1
  Nb  Nb15  1  0.345649  0.492267  0.873199  1
  Nb  Nb16  1  0.492213  0.344995  0.125524  1
  Nb  Nb17  1  0.654318  0.509247  0.374880  1
  Nb  Nb18  1  0.992463  0.154392  0.624523  1
  Nb  Nb19  1  0.007935  0.844825  0.123405  1
  Si  Si20  1  0.294349  0.043398  0.186376  1
  Si  Si21  1  0.707161  0.954446  0.686384  1
  Si  Si22  1  0.454761  0.793056  0.437045  1
  Si  Si23  1  0.208745  0.546232  0.062214  1
  Si  Si24  1  0.544663  0.207039  0.935922  1
  Si  Si25  1  0.792681  0.455030  0.563896  1
  Si  Si26  1  0.045497  0.292837  0.813520  1
  Si  Si27  1  0.954488  0.710739  0.314341  1
  Si  Si28  1  0.370796  0.295677  0.318071  1
  Si  Si29  1  0.632011  0.704404  0.817348  1
  Si  Si30  1  0.204323  0.868193  0.567823  1
  Si  Si31  1  0.131886  0.795631  0.932092  1
  Si  Si32  1  0.793699  0.129109  0.065237  1
  Si  Si33  1  0.868126  0.203551  0.434459  1
  Si  Si34  1  0.295589  0.368125  0.682353  1
  Si  Si35  1  0.701765  0.634015  0.182813  1
