# generated using pymatgen
data_TaNb12Co8Re3N4
_symmetry_space_group_name_H-M   'P 1'
_cell_length_a   8.18567661
_cell_length_b   8.13005179
_cell_length_c   8.18588203
_cell_angle_alpha   59.77703109
_cell_angle_beta   60.00257731
_cell_angle_gamma   59.77532614
_symmetry_Int_Tables_number   1
_chemical_formula_structural   TaNb12Co8Re3N4
_chemical_formula_sum   'Ta1 Nb12 Co8 Re3 N4'
_cell_volume   383.90982012
_cell_formula_units_Z   1
loop_
 _symmetry_equiv_pos_site_id
 _symmetry_equiv_pos_as_xyz
  1  'x, y, z'
loop_
 _atom_site_type_symbol
 _atom_site_label
 _atom_site_symmetry_multiplicity
 _atom_site_fract_x
 _atom_site_fract_y
 _atom_site_fract_z
 _atom_site_occupancy
  Ta  Ta0  1  0.625000  0.125000  0.625000  1
  Nb  Nb1  1  0.807590  0.807108  0.192637  1
  Nb  Nb2  1  0.186088  0.192181  0.810881  1
  Nb  Nb3  1  0.810907  0.192152  0.810872  1
  Nb  Nb4  1  0.192661  0.807093  0.192683  1
  Nb  Nb5  1  0.192620  0.807130  0.807588  1
  Nb  Nb6  1  0.810889  0.192184  0.186106  1
  Nb  Nb7  1  0.442410  0.442892  0.057363  1
  Nb  Nb8  1  0.063912  0.057819  0.439119  1
  Nb  Nb9  1  0.439093  0.057848  0.439128  1
  Nb  Nb10  1  0.057339  0.442907  0.057317  1
  Nb  Nb11  1  0.057380  0.442870  0.442412  1
  Nb  Nb12  1  0.439111  0.057816  0.063894  1
  Co  Co13  1  0.734213  0.426237  0.419783  1
  Co  Co14  1  0.424301  0.727070  0.424315  1
  Co  Co15  1  0.419777  0.426224  0.734231  1
  Co  Co16  1  0.419773  0.426243  0.419786  1
  Co  Co17  1  0.515787  0.823763  0.830217  1
  Co  Co18  1  0.825699  0.522930  0.825685  1
  Co  Co19  1  0.830223  0.823776  0.515769  1
  Co  Co20  1  0.830227  0.823757  0.830214  1
  Re  Re21  1  0.125000  0.625000  0.625000  1
  Re  Re22  1  0.625000  0.625000  0.125000  1
  Re  Re23  1  0.625000  0.625000  0.625000  1
  N  N24  1  0.625000  0.125000  0.125000  1
  N  N25  1  0.125000  0.625000  0.125000  1
  N  N26  1  0.125000  0.125000  0.625000  1
  N  N27  1  0.125000  0.125000  0.125000  1
