# generated using pymatgen
data_Li8CeTh3Br24
_symmetry_space_group_name_H-M   'P 1'
_cell_length_a   7.04471700
_cell_length_b   7.04471822
_cell_length_c   27.24672800
_cell_angle_alpha   90.00000000
_cell_angle_beta   90.00000000
_cell_angle_gamma   119.99999899
_symmetry_Int_Tables_number   1
_chemical_formula_structural   Li8CeTh3Br24
_chemical_formula_sum   'Li8 Ce1 Th3 Br24'
_cell_volume   1171.04118708
_cell_formula_units_Z   1
loop_
 _symmetry_equiv_pos_site_id
 _symmetry_equiv_pos_as_xyz
  1  'x, y, z'
loop_
 _atom_site_type_symbol
 _atom_site_label
 _atom_site_symmetry_multiplicity
 _atom_site_fract_x
 _atom_site_fract_y
 _atom_site_fract_z
 _atom_site_occupancy
  Li  Li0  1  0.000000  0.000000  0.250000  1
  Li  Li1  1  0.000000  0.000000  0.750000  1
  Li  Li2  1  0.333333  0.666667  0.001290  1
  Li  Li3  1  0.333333  0.666667  0.498710  1
  Li  Li4  1  0.333333  0.666667  0.250000  1
  Li  Li5  1  0.666667  0.333333  0.750000  1
  Li  Li6  1  0.666667  0.333333  0.998772  1
  Li  Li7  1  0.666667  0.333333  0.501228  1
  Ce  Ce8  1  0.666667  0.333333  0.250000  1
  Th  Th9  1  0.000000  0.000000  0.000290  1
  Th  Th10  1  0.000000  0.000000  0.499710  1
  Th  Th11  1  0.333333  0.666667  0.750000  1
  Br  Br12  1  0.333932  0.000517  0.306316  1
  Br  Br13  1  0.333446  0.005377  0.807528  1
  Br  Br14  1  0.998984  0.338366  0.057703  1
  Br  Br15  1  0.001046  0.339167  0.557288  1
  Br  Br16  1  0.999483  0.333416  0.306316  1
  Br  Br17  1  0.994623  0.328069  0.807528  1
  Br  Br18  1  0.333932  0.333416  0.193684  1
  Br  Br19  1  0.333446  0.328069  0.692472  1
  Br  Br20  1  0.339382  0.338366  0.442297  1
  Br  Br21  1  0.338121  0.339167  0.942712  1
  Br  Br22  1  0.661634  0.001016  0.442297  1
  Br  Br23  1  0.339382  0.001016  0.057703  1
  Br  Br24  1  0.338121  0.998954  0.557288  1
  Br  Br25  1  0.661634  0.660618  0.057703  1
  Br  Br26  1  0.660833  0.661879  0.557288  1
  Br  Br27  1  0.666584  0.666068  0.306316  1
  Br  Br28  1  0.671931  0.666554  0.807528  1
  Br  Br29  1  0.999483  0.666068  0.193684  1
  Br  Br30  1  0.994623  0.666554  0.692472  1
  Br  Br31  1  0.998984  0.660618  0.442297  1
  Br  Br32  1  0.001046  0.661879  0.942712  1
  Br  Br33  1  0.660833  0.998954  0.942712  1
  Br  Br34  1  0.666584  0.000517  0.193684  1
  Br  Br35  1  0.671931  0.005377  0.692472  1
