# generated using pymatgen
data_Y4Tm8Co4BiRh
_symmetry_space_group_name_H-M   'P 1'
_cell_length_a   8.28047746
_cell_length_b   8.28038540
_cell_length_c   8.28047497
_cell_angle_alpha   110.81195729
_cell_angle_beta   110.72374046
_cell_angle_gamma   106.90841152
_symmetry_Int_Tables_number   1
_chemical_formula_structural   Y4Tm8Co4BiRh
_chemical_formula_sum   'Y4 Tm8 Co4 Bi1 Rh1'
_cell_volume   436.40340088
_cell_formula_units_Z   1
loop_
 _symmetry_equiv_pos_site_id
 _symmetry_equiv_pos_as_xyz
  1  'x, y, z'
loop_
 _atom_site_type_symbol
 _atom_site_label
 _atom_site_symmetry_multiplicity
 _atom_site_fract_x
 _atom_site_fract_y
 _atom_site_fract_z
 _atom_site_occupancy
  Y  Y0  1  0.287829  0.185904  0.473721  1
  Y  Y1  1  0.712171  0.814096  0.526279  1
  Y  Y2  1  0.287817  0.814096  0.101924  1
  Y  Y3  1  0.712183  0.185904  0.898076  1
  Tm  Tm4  1  0.621960  0.311098  0.310849  1
  Tm  Tm5  1  0.378040  0.688902  0.689151  1
  Tm  Tm6  1  0.000249  0.311098  0.689139  1
  Tm  Tm7  1  0.999751  0.688902  0.310861  1
  Tm  Tm8  1  0.210266  0.407173  0.196908  1
  Tm  Tm9  1  0.789734  0.592827  0.803092  1
  Tm  Tm10  1  0.210265  0.013360  0.803096  1
  Tm  Tm11  1  0.789735  0.986640  0.196904  1
  Co  Co12  1  0.999994  0.376931  0.376936  1
  Co  Co13  1  0.000006  0.623069  0.623064  1
  Co  Co14  1  0.387996  0.888014  0.500018  1
  Co  Co15  1  0.612004  0.111986  0.499982  1
  Bi  Bi16  1  0.500000  0.500000  0.000000  1
  Rh  Rh17  1  0.000000  0.000000  0.000000  1
