# generated using pymatgen
data_Dy4Sc4Ir3Pd
_symmetry_space_group_name_H-M   'P 1'
_cell_length_a   4.29239500
_cell_length_b   7.13042525
_cell_length_c   8.73160300
_cell_angle_alpha   88.79868480
_cell_angle_beta   90.00000000
_cell_angle_gamma   90.00000000
_symmetry_Int_Tables_number   1
_chemical_formula_structural   Dy4Sc4Ir3Pd
_chemical_formula_sum   'Dy4 Sc4 Ir3 Pd1'
_cell_volume   267.18595542
_cell_formula_units_Z   1
loop_
 _symmetry_equiv_pos_site_id
 _symmetry_equiv_pos_as_xyz
  1  'x, y, z'
loop_
 _atom_site_type_symbol
 _atom_site_label
 _atom_site_symmetry_multiplicity
 _atom_site_fract_x
 _atom_site_fract_y
 _atom_site_fract_z
 _atom_site_occupancy
  Dy  Dy0  1  0.250000  0.486591  0.179378  1
  Dy  Dy1  1  0.750000  0.527142  0.821416  1
  Dy  Dy2  1  0.750000  0.008824  0.670205  1
  Dy  Dy3  1  0.250000  0.986272  0.328211  1
  Sc  Sc4  1  0.250000  0.858523  0.935556  1
  Sc  Sc5  1  0.750000  0.137489  0.072878  1
  Sc  Sc6  1  0.750000  0.640340  0.432338  1
  Sc  Sc7  1  0.250000  0.357622  0.564907  1
  Ir  Ir8  1  0.250000  0.737466  0.605116  1
  Ir  Ir9  1  0.750000  0.259144  0.396227  1
  Ir  Ir10  1  0.750000  0.756320  0.097718  1
  Pd  Pd11  1  0.250000  0.244267  0.896049  1
