# generated using pymatgen
data_Hf4Co6TcOs
_symmetry_space_group_name_H-M   'P 1'
_cell_length_a   4.92216300
_cell_length_b   4.92216258
_cell_length_c   8.19161300
_cell_angle_alpha   90.00000000
_cell_angle_beta   90.00000000
_cell_angle_gamma   119.99999612
_symmetry_Int_Tables_number   1
_chemical_formula_structural   Hf4Co6TcOs
_chemical_formula_sum   'Hf4 Co6 Tc1 Os1'
_cell_volume   171.87472682
_cell_formula_units_Z   1
loop_
 _symmetry_equiv_pos_site_id
 _symmetry_equiv_pos_as_xyz
  1  'x, y, z'
loop_
 _atom_site_type_symbol
 _atom_site_label
 _atom_site_symmetry_multiplicity
 _atom_site_fract_x
 _atom_site_fract_y
 _atom_site_fract_z
 _atom_site_occupancy
  Hf  Hf0  1  0.333333  0.666667  0.432855  1
  Hf  Hf1  1  0.666667  0.333333  0.567145  1
  Hf  Hf2  1  0.666667  0.333333  0.933621  1
  Hf  Hf3  1  0.333333  0.666667  0.066379  1
  Co  Co4  1  0.828522  0.171478  0.250019  1
  Co  Co5  1  0.828522  0.657045  0.250019  1
  Co  Co6  1  0.342955  0.171478  0.250019  1
  Co  Co7  1  0.171478  0.828522  0.749981  1
  Co  Co8  1  0.171478  0.342955  0.749981  1
  Co  Co9  1  0.657045  0.828522  0.749981  1
  Tc  Tc10  1  0.000000  0.000000  0.500000  1
  Os  Os11  1  0.000000  0.000000  0.000000  1
