# generated using pymatgen
data_Er4Zn5Ga13Pd6
_symmetry_space_group_name_H-M   'P 1'
_cell_length_a   7.57118177
_cell_length_b   7.61465196
_cell_length_c   9.49503946
_cell_angle_alpha   89.97647728
_cell_angle_beta   90.07366394
_cell_angle_gamma   119.22441892
_symmetry_Int_Tables_number   1
_chemical_formula_structural   Er4Zn5Ga13Pd6
_chemical_formula_sum   'Er4 Zn5 Ga13 Pd6'
_cell_volume   477.72955919
_cell_formula_units_Z   1
loop_
 _symmetry_equiv_pos_site_id
 _symmetry_equiv_pos_as_xyz
  1  'x, y, z'
loop_
 _atom_site_type_symbol
 _atom_site_label
 _atom_site_symmetry_multiplicity
 _atom_site_fract_x
 _atom_site_fract_y
 _atom_site_fract_z
 _atom_site_occupancy
  Er  Er0  1  0.995506  0.674007  0.250014  1
  Er  Er1  1  0.004879  0.326843  0.750958  1
  Er  Er2  1  0.674624  0.997664  0.249919  1
  Er  Er3  1  0.325194  0.001835  0.750779  1
  Zn  Zn4  1  0.136495  0.140556  0.248083  1
  Zn  Zn5  1  0.862365  0.860400  0.749980  1
  Zn  Zn6  1  0.008141  0.338725  0.085887  1
  Zn  Zn7  1  0.339298  0.547218  0.247688  1
  Zn  Zn8  1  0.654640  0.451104  0.750001  1
  Ga  Ga9  1  0.991798  0.656826  0.915384  1
  Ga  Ga10  1  0.992115  0.661010  0.587327  1
  Ga  Ga11  1  0.334426  0.001764  0.412389  1
  Ga  Ga12  1  0.008714  0.338214  0.412111  1
  Ga  Ga13  1  0.667021  0.999837  0.586246  1
  Ga  Ga14  1  0.670910  0.003172  0.916246  1
  Ga  Ga15  1  0.334509  0.001224  0.086614  1
  Ga  Ga16  1  0.335317  0.332380  0.561774  1
  Ga  Ga17  1  0.664306  0.667434  0.436913  1
  Ga  Ga18  1  0.664911  0.667240  0.060996  1
  Ga  Ga19  1  0.329300  0.331476  0.944130  1
  Ga  Ga20  1  0.543766  0.345340  0.249609  1
  Ga  Ga21  1  0.458112  0.656472  0.750327  1
  Pd  Pd22  1  0.670638  0.323887  0.001999  1
  Pd  Pd23  1  0.330093  0.681173  0.995328  1
  Pd  Pd24  1  0.325827  0.675825  0.503497  1
  Pd  Pd25  1  0.675915  0.325031  0.496192  1
  Pd  Pd26  1  0.000096  0.993959  0.999824  1
  Pd  Pd27  1  0.001087  0.999388  0.499784  1
