# generated using pymatgen
data_Cr3Cl14
_symmetry_space_group_name_H-M   'P 1'
_cell_length_a   10.26306783
_cell_length_b   11.78557680
_cell_length_c   10.35266506
_cell_angle_alpha   55.17477402
_cell_angle_beta   72.05732427
_cell_angle_gamma   93.68578842
_symmetry_Int_Tables_number   1
_chemical_formula_structural   Cr3Cl14
_chemical_formula_sum   'Cr3 Cl14'
_cell_volume   930.54050335
_cell_formula_units_Z   1
loop_
 _symmetry_equiv_pos_site_id
 _symmetry_equiv_pos_as_xyz
  1  'x, y, z'
loop_
 _atom_site_type_symbol
 _atom_site_label
 _atom_site_symmetry_multiplicity
 _atom_site_fract_x
 _atom_site_fract_y
 _atom_site_fract_z
 _atom_site_occupancy
  Cr  Cr0  1  0.272813  0.731867  0.261042  1
  Cr  Cr1  1  0.834199  0.043312  0.488509  1
  Cr  Cr2  1  0.449272  0.337506  0.952301  1
  Cl  Cl3  1  0.545505  0.548689  0.860459  1
  Cl  Cl4  1  0.655233  0.024961  0.433253  1
  Cl  Cl5  1  0.760719  0.970975  0.745691  1
  Cl  Cl6  1  0.608045  0.266992  0.855296  1
  Cl  Cl7  1  0.954653  0.913392  0.461036  1
  Cl  Cl8  1  0.285960  0.343004  0.866112  1
  Cl  Cl9  1  0.123045  0.874759  0.807662  1
  Cl  Cl10  1  0.358620  0.194261  0.226787  1
  Cl  Cl11  1  0.958574  0.791152  0.032079  1
  Cl  Cl12  1  0.402009  0.738294  0.382976  1
  Cl  Cl13  1  0.964382  0.262823  0.315161  1
  Cl  Cl14  1  0.270264  0.944442  0.079608  1
  Cl  Cl15  1  0.060240  0.597895  0.450157  1
  Cl  Cl16  1  0.357857  0.647445  0.131358  1
