# generated using pymatgen
data_MnFe(Co2Si)2
_symmetry_space_group_name_H-M   'P 1'
_cell_length_a   6.90478988
_cell_length_b   6.90478968
_cell_length_c   6.90478919
_cell_angle_alpha   33.55855436
_cell_angle_beta   33.55855993
_cell_angle_gamma   33.55856350
_symmetry_Int_Tables_number   1
_chemical_formula_structural   MnFe(Co2Si)2
_chemical_formula_sum   'Mn1 Fe1 Co4 Si2'
_cell_volume   89.60121704
_cell_formula_units_Z   1
loop_
 _symmetry_equiv_pos_site_id
 _symmetry_equiv_pos_as_xyz
  1  'x, y, z'
loop_
 _atom_site_type_symbol
 _atom_site_label
 _atom_site_symmetry_multiplicity
 _atom_site_fract_x
 _atom_site_fract_y
 _atom_site_fract_z
 _atom_site_occupancy
  Mn  Mn0  1  0.000000  0.000000  0.000000  1
  Fe  Fe1  1  0.500000  0.500000  0.500000  1
  Co  Co2  1  0.623469  0.623469  0.623469  1
  Co  Co3  1  0.126583  0.126583  0.126583  1
  Co  Co4  1  0.873417  0.873417  0.873417  1
  Co  Co5  1  0.376531  0.376531  0.376531  1
  Si  Si6  1  0.251507  0.251507  0.251507  1
  Si  Si7  1  0.748493  0.748493  0.748493  1
