# generated using pymatgen
data_PrCrCo4As3
_symmetry_space_group_name_H-M   'P 1'
_cell_length_a   3.85752500
_cell_length_b   10.90175900
_cell_length_c   12.41893300
_cell_angle_alpha   90.00000000
_cell_angle_beta   90.00000000
_cell_angle_gamma   90.00000000
_symmetry_Int_Tables_number   1
_chemical_formula_structural   PrCrCo4As3
_chemical_formula_sum   'Pr4 Cr4 Co16 As12'
_cell_volume   522.26342254
_cell_formula_units_Z   4
loop_
 _symmetry_equiv_pos_site_id
 _symmetry_equiv_pos_as_xyz
  1  'x, y, z'
loop_
 _atom_site_type_symbol
 _atom_site_label
 _atom_site_symmetry_multiplicity
 _atom_site_fract_x
 _atom_site_fract_y
 _atom_site_fract_z
 _atom_site_occupancy
  Pr  Pr0  1  0.250000  0.581402  0.703914  1
  Pr  Pr1  1  0.250000  0.918598  0.203914  1
  Pr  Pr2  1  0.750000  0.418598  0.296086  1
  Pr  Pr3  1  0.750000  0.081402  0.796086  1
  Cr  Cr4  1  0.250000  0.702811  0.991857  1
  Cr  Cr5  1  0.250000  0.797189  0.491857  1
  Cr  Cr6  1  0.750000  0.297189  0.008143  1
  Cr  Cr7  1  0.750000  0.202811  0.508143  1
  Co  Co8  1  0.250000  0.404315  0.490671  1
  Co  Co9  1  0.250000  0.095685  0.990671  1
  Co  Co10  1  0.750000  0.595685  0.509329  1
  Co  Co11  1  0.750000  0.904315  0.009329  1
  Co  Co12  1  0.250000  0.218121  0.173689  1
  Co  Co13  1  0.250000  0.281879  0.673689  1
  Co  Co14  1  0.750000  0.781879  0.826311  1
  Co  Co15  1  0.750000  0.718121  0.326311  1
  Co  Co16  1  0.250000  0.882587  0.698208  1
  Co  Co17  1  0.250000  0.617413  0.198208  1
  Co  Co18  1  0.750000  0.117413  0.301792  1
  Co  Co19  1  0.750000  0.382587  0.801792  1
  Co  Co20  1  0.250000  0.466333  0.932056  1
  Co  Co21  1  0.250000  0.033667  0.432056  1
  Co  Co22  1  0.750000  0.533667  0.067944  1
  Co  Co23  1  0.750000  0.966333  0.567944  1
  As  As24  1  0.250000  0.419024  0.111885  1
  As  As25  1  0.250000  0.080976  0.611885  1
  As  As26  1  0.750000  0.580976  0.888115  1
  As  As27  1  0.750000  0.919024  0.388115  1
  As  As28  1  0.250000  0.272704  0.865567  1
  As  As29  1  0.250000  0.227296  0.365567  1
  As  As30  1  0.750000  0.727296  0.134433  1
  As  As31  1  0.750000  0.772704  0.634433  1
  As  As32  1  0.250000  0.599705  0.392231  1
  As  As33  1  0.250000  0.900295  0.892231  1
  As  As34  1  0.750000  0.400295  0.607769  1
  As  As35  1  0.750000  0.099705  0.107769  1
