# generated using pymatgen
data_Sc4Re3Os5
_symmetry_space_group_name_H-M   'P 1'
_cell_length_a   5.20515996
_cell_length_b   5.21636141
_cell_length_c   8.71283700
_cell_angle_alpha   90.00000000
_cell_angle_beta   90.00000000
_cell_angle_gamma   120.07119516
_symmetry_Int_Tables_number   1
_chemical_formula_structural   Sc4Re3Os5
_chemical_formula_sum   'Sc4 Re3 Os5'
_cell_volume   204.72928082
_cell_formula_units_Z   1
loop_
 _symmetry_equiv_pos_site_id
 _symmetry_equiv_pos_as_xyz
  1  'x, y, z'
loop_
 _atom_site_type_symbol
 _atom_site_label
 _atom_site_symmetry_multiplicity
 _atom_site_fract_x
 _atom_site_fract_y
 _atom_site_fract_z
 _atom_site_occupancy
  Sc  Sc0  1  0.337776  0.668888  0.434377  1
  Sc  Sc1  1  0.667131  0.333566  0.564585  1
  Sc  Sc2  1  0.667131  0.333566  0.935415  1
  Sc  Sc3  1  0.337776  0.668888  0.065623  1
  Re  Re4  1  0.162609  0.337213  0.750000  1
  Re  Re5  1  0.162609  0.825397  0.750000  1
  Re  Re6  1  0.337393  0.168696  0.250000  1
  Os  Os7  1  0.820307  0.651023  0.250000  1
  Os  Os8  1  0.645941  0.822971  0.750000  1
  Os  Os9  1  0.020509  0.010255  0.001347  1
  Os  Os10  1  0.820307  0.169283  0.250000  1
  Os  Os11  1  0.020509  0.010255  0.498653  1
