# generated using pymatgen
data_Tm2PtPbAu
_symmetry_space_group_name_H-M   'P 1'
_cell_length_a   8.05306300
_cell_length_b   8.00561700
_cell_length_c   3.58198200
_cell_angle_alpha   90.00000000
_cell_angle_beta   90.00000000
_cell_angle_gamma   90.00000000
_symmetry_Int_Tables_number   1
_chemical_formula_structural   Tm2PtPbAu
_chemical_formula_sum   'Tm4 Pt2 Pb2 Au2'
_cell_volume   230.92944126
_cell_formula_units_Z   2
loop_
 _symmetry_equiv_pos_site_id
 _symmetry_equiv_pos_as_xyz
  1  'x, y, z'
loop_
 _atom_site_type_symbol
 _atom_site_label
 _atom_site_symmetry_multiplicity
 _atom_site_fract_x
 _atom_site_fract_y
 _atom_site_fract_z
 _atom_site_occupancy
  Tm  Tm0  1  0.354224  0.830105  0.500000  1
  Tm  Tm1  1  0.683386  0.163842  0.500000  1
  Tm  Tm2  1  0.145776  0.330105  0.500000  1
  Tm  Tm3  1  0.816614  0.663842  0.500000  1
  Pt  Pt4  1  0.871445  0.378179  0.000000  1
  Pt  Pt5  1  0.628555  0.878179  0.000000  1
  Pb  Pb6  1  0.498557  0.495767  0.000000  1
  Pb  Pb7  1  0.001443  0.995767  0.000000  1
  Au  Au8  1  0.374392  0.132105  0.000000  1
  Au  Au9  1  0.125608  0.632105  0.000000  1
