# generated using pymatgen
data_ScU3Si6Ru7
_symmetry_space_group_name_H-M   'P 1'
_cell_length_a   7.06519628
_cell_length_b   7.01015436
_cell_length_c   7.06519651
_cell_angle_alpha   109.31348057
_cell_angle_beta   109.62849983
_cell_angle_gamma   109.31347817
_symmetry_Int_Tables_number   1
_chemical_formula_structural   ScU3Si6Ru7
_chemical_formula_sum   'Sc1 U3 Si6 Ru7'
_cell_volume   269.89567604
_cell_formula_units_Z   1
loop_
 _symmetry_equiv_pos_site_id
 _symmetry_equiv_pos_as_xyz
  1  'x, y, z'
loop_
 _atom_site_type_symbol
 _atom_site_label
 _atom_site_symmetry_multiplicity
 _atom_site_fract_x
 _atom_site_fract_y
 _atom_site_fract_z
 _atom_site_occupancy
  Sc  Sc0  1  0.000000  0.500000  0.000000  1
  U  U1  1  0.000000  0.000000  0.500000  1
  U  U2  1  0.500000  0.000000  0.000000  1
  U  U3  1  0.500000  0.500000  0.500000  1
  Si  Si4  1  0.691966  0.684626  0.000000  1
  Si  Si5  1  0.308034  0.992661  0.308034  1
  Si  Si6  1  0.000000  0.315374  0.308034  1
  Si  Si7  1  0.308034  0.315374  0.000000  1
  Si  Si8  1  0.691966  0.007339  0.691966  1
  Si  Si9  1  0.000000  0.684626  0.691966  1
  Ru  Ru10  1  0.748683  0.248683  0.497366  1
  Ru  Ru11  1  0.748683  0.500000  0.251317  1
  Ru  Ru12  1  0.497366  0.248683  0.748683  1
  Ru  Ru13  1  0.251317  0.500000  0.748683  1
  Ru  Ru14  1  0.251317  0.751317  0.502634  1
  Ru  Ru15  1  0.502634  0.751317  0.251317  1
  Ru  Ru16  1  0.000000  0.000000  0.000000  1
