# generated using pymatgen
data_Ba3CaRhO6
_symmetry_space_group_name_H-M   'P 1'
_cell_length_a   7.16979909
_cell_length_b   7.16979889
_cell_length_c   7.16979900
_cell_angle_alpha   92.54623691
_cell_angle_beta   92.54623365
_cell_angle_gamma   92.54623597
_symmetry_Int_Tables_number   1
_chemical_formula_structural   Ba3CaRhO6
_chemical_formula_sum   'Ba6 Ca2 Rh2 O12'
_cell_volume   367.44564516
_cell_formula_units_Z   2
loop_
 _symmetry_equiv_pos_site_id
 _symmetry_equiv_pos_as_xyz
  1  'x, y, z'
loop_
 _atom_site_type_symbol
 _atom_site_label
 _atom_site_symmetry_multiplicity
 _atom_site_fract_x
 _atom_site_fract_y
 _atom_site_fract_z
 _atom_site_occupancy
  Ba  Ba0  1  0.614900  0.250000  0.885100  1
  Ba  Ba1  1  0.885100  0.614900  0.250000  1
  Ba  Ba2  1  0.750000  0.114900  0.385100  1
  Ba  Ba3  1  0.385100  0.750000  0.114900  1
  Ba  Ba4  1  0.114900  0.385100  0.750000  1
  Ba  Ba5  1  0.250000  0.885100  0.614900  1
  Ca  Ca6  1  0.250000  0.250000  0.250000  1
  Ca  Ca7  1  0.750000  0.750000  0.750000  1
  Rh  Rh8  1  0.000000  0.000000  0.000000  1
  Rh  Rh9  1  0.500000  0.500000  0.500000  1
  O  O10  1  0.587414  0.775080  0.457361  1
  O  O11  1  0.457361  0.587414  0.775080  1
  O  O12  1  0.775080  0.457361  0.587414  1
  O  O13  1  0.912586  0.042639  0.724920  1
  O  O14  1  0.724920  0.912586  0.042639  1
  O  O15  1  0.042639  0.724920  0.912586  1
  O  O16  1  0.412586  0.224920  0.542639  1
  O  O17  1  0.542639  0.412586  0.224920  1
  O  O18  1  0.224920  0.542639  0.412586  1
  O  O19  1  0.087414  0.957361  0.275080  1
  O  O20  1  0.957361  0.275080  0.087414  1
  O  O21  1  0.275080  0.087414  0.957361  1
