# generated using pymatgen
data_CdBi3Ir3RhO14
_symmetry_space_group_name_H-M   'P 1'
_cell_length_a   7.39290565
_cell_length_b   7.26159311
_cell_length_c   7.39290600
_cell_angle_alpha   59.39998752
_cell_angle_beta   59.99999844
_cell_angle_gamma   59.39998806
_symmetry_Int_Tables_number   1
_chemical_formula_structural   CdBi3Ir3RhO14
_chemical_formula_sum   'Cd1 Bi3 Ir3 Rh1 O14'
_cell_volume   278.06635282
_cell_formula_units_Z   1
loop_
 _symmetry_equiv_pos_site_id
 _symmetry_equiv_pos_as_xyz
  1  'x, y, z'
loop_
 _atom_site_type_symbol
 _atom_site_label
 _atom_site_symmetry_multiplicity
 _atom_site_fract_x
 _atom_site_fract_y
 _atom_site_fract_z
 _atom_site_occupancy
  Cd  Cd0  1  0.125000  0.625000  0.125000  1
  Bi  Bi1  1  0.125000  0.125000  0.125000  1
  Bi  Bi2  1  0.625000  0.125000  0.125000  1
  Bi  Bi3  1  0.125000  0.125000  0.625000  1
  Ir  Ir4  1  0.625000  0.625000  0.625000  1
  Ir  Ir5  1  0.625000  0.625000  0.125000  1
  Ir  Ir6  1  0.125000  0.625000  0.625000  1
  Rh  Rh7  1  0.625000  0.125000  0.625000  1
  O  O8  1  0.248141  0.255577  0.248141  1
  O  O9  1  0.296385  0.704395  0.296385  1
  O  O10  1  0.958698  0.956946  0.542178  1
  O  O11  1  0.542178  0.956946  0.542178  1
  O  O12  1  0.702836  0.704395  0.296385  1
  O  O13  1  0.953615  0.545605  0.547164  1
  O  O14  1  0.707822  0.293054  0.707822  1
  O  O15  1  0.291302  0.293054  0.707822  1
  O  O16  1  0.707822  0.293054  0.291302  1
  O  O17  1  0.296385  0.704395  0.702836  1
  O  O18  1  0.953615  0.545605  0.953615  1
  O  O19  1  0.547164  0.545605  0.953615  1
  O  O20  1  0.001859  0.994423  0.001859  1
  O  O21  1  0.542178  0.956946  0.958698  1
