# generated using pymatgen
data_HfPdPt7
_symmetry_space_group_name_H-M   'P 1'
_cell_length_a   6.30988870
_cell_length_b   6.30988872
_cell_length_c   6.33453316
_cell_angle_alpha   95.73748571
_cell_angle_beta   95.73747764
_cell_angle_gamma   143.06119681
_symmetry_Int_Tables_number   1
_chemical_formula_structural   HfPdPt7
_chemical_formula_sum   'Hf1 Pd1 Pt7'
_cell_volume   143.82252876
_cell_formula_units_Z   1
loop_
 _symmetry_equiv_pos_site_id
 _symmetry_equiv_pos_as_xyz
  1  'x, y, z'
loop_
 _atom_site_type_symbol
 _atom_site_label
 _atom_site_symmetry_multiplicity
 _atom_site_fract_x
 _atom_site_fract_y
 _atom_site_fract_z
 _atom_site_occupancy
  Hf  Hf0  1  0.999667  0.000333  0.000000  1
  Pd  Pd1  1  0.664982  0.335016  0.000000  1
  Pt  Pt2  1  0.335235  0.664763  0.000000  1
  Pt  Pt3  1  0.664206  0.663891  0.328099  1
  Pt  Pt4  1  0.331265  0.000114  0.331379  1
  Pt  Pt5  1  0.999941  0.331293  0.331233  1
  Pt  Pt6  1  0.668707  0.000059  0.668767  1
  Pt  Pt7  1  0.999886  0.668735  0.668621  1
  Pt  Pt8  1  0.336108  0.335793  0.671902  1
