# generated using pymatgen
data_ZrPa3Ge4IrPt3
_symmetry_space_group_name_H-M   'P 1'
_cell_length_a   4.34104100
_cell_length_b   6.94467288
_cell_length_c   7.65626347
_cell_angle_alpha   89.55777148
_cell_angle_beta   90.00000000
_cell_angle_gamma   90.00000000
_symmetry_Int_Tables_number   1
_chemical_formula_structural   ZrPa3Ge4IrPt3
_chemical_formula_sum   'Zr1 Pa3 Ge4 Ir1 Pt3'
_cell_volume   230.80733968
_cell_formula_units_Z   1
loop_
 _symmetry_equiv_pos_site_id
 _symmetry_equiv_pos_as_xyz
  1  'x, y, z'
loop_
 _atom_site_type_symbol
 _atom_site_label
 _atom_site_symmetry_multiplicity
 _atom_site_fract_x
 _atom_site_fract_y
 _atom_site_fract_z
 _atom_site_occupancy
  Zr  Zr0  1  0.750000  0.497454  0.296414  1
  Pa  Pa1  1  0.250000  0.003342  0.798312  1
  Pa  Pa2  1  0.250000  0.495179  0.705011  1
  Pa  Pa3  1  0.750000  0.005198  0.206741  1
  Ge  Ge4  1  0.250000  0.778628  0.407400  1
  Ge  Ge5  1  0.250000  0.315914  0.094652  1
  Ge  Ge6  1  0.750000  0.215357  0.583259  1
  Ge  Ge7  1  0.750000  0.683220  0.910916  1
  Ir  Ir8  1  0.750000  0.274171  0.916169  1
  Pt  Pt9  1  0.250000  0.206207  0.414553  1
  Pt  Pt10  1  0.250000  0.710398  0.080666  1
  Pt  Pt11  1  0.750000  0.814935  0.585908  1
