# generated using pymatgen
data_Ho3Er13(In3Co)2
_symmetry_space_group_name_H-M   'P 1'
_cell_length_a   10.28626400
_cell_length_b   10.28626356
_cell_length_c   6.93493500
_cell_angle_alpha   90.00000000
_cell_angle_beta   90.00000000
_cell_angle_gamma   119.99999499
_symmetry_Int_Tables_number   1
_chemical_formula_structural   Ho3Er13(In3Co)2
_chemical_formula_sum   'Ho3 Er13 In6 Co2'
_cell_volume   635.46021099
_cell_formula_units_Z   1
loop_
 _symmetry_equiv_pos_site_id
 _symmetry_equiv_pos_as_xyz
  1  'x, y, z'
loop_
 _atom_site_type_symbol
 _atom_site_label
 _atom_site_symmetry_multiplicity
 _atom_site_fract_x
 _atom_site_fract_y
 _atom_site_fract_z
 _atom_site_occupancy
  Ho  Ho0  1  0.534250  0.068501  0.791451  1
  Ho  Ho1  1  0.931499  0.465750  0.791451  1
  Ho  Ho2  1  0.534250  0.465750  0.791451  1
  Er  Er3  1  0.465505  0.931010  0.291467  1
  Er  Er4  1  0.068990  0.534495  0.291467  1
  Er  Er5  1  0.465505  0.534495  0.291467  1
  Er  Er6  1  0.821772  0.643543  0.499711  1
  Er  Er7  1  0.356457  0.178228  0.499711  1
  Er  Er8  1  0.821772  0.178228  0.499711  1
  Er  Er9  1  0.178297  0.356593  0.000192  1
  Er  Er10  1  0.643407  0.821703  0.000192  1
  Er  Er11  1  0.178297  0.821703  0.000192  1
  Er  Er12  1  0.666667  0.333333  0.182510  1
  Er  Er13  1  0.333333  0.666667  0.682070  1
  Er  Er14  1  0.000000  0.000000  0.779418  1
  Er  Er15  1  0.000000  0.000000  0.279443  1
  In  In16  1  0.837132  0.674265  0.037793  1
  In  In17  1  0.325735  0.162868  0.037793  1
  In  In18  1  0.837132  0.162868  0.037793  1
  In  In19  1  0.162954  0.325907  0.537606  1
  In  In20  1  0.674093  0.837046  0.537606  1
  In  In21  1  0.162954  0.837046  0.537606  1
  Co  Co22  1  0.666667  0.333333  0.568715  1
  Co  Co23  1  0.333333  0.666667  0.069088  1
