# generated using pymatgen
data_Li3Pr8Ho9Si16
_symmetry_space_group_name_H-M   'P 1'
_cell_length_a   7.35819312
_cell_length_b   7.80082914
_cell_length_c   14.82867000
_cell_angle_alpha   90.00000000
_cell_angle_beta   90.00000000
_cell_angle_gamma   89.97908601
_symmetry_Int_Tables_number   1
_chemical_formula_structural   Li3Pr8Ho9Si16
_chemical_formula_sum   'Li3 Pr8 Ho9 Si16'
_cell_volume   851.16570889
_cell_formula_units_Z   1
loop_
 _symmetry_equiv_pos_site_id
 _symmetry_equiv_pos_as_xyz
  1  'x, y, z'
loop_
 _atom_site_type_symbol
 _atom_site_label
 _atom_site_symmetry_multiplicity
 _atom_site_fract_x
 _atom_site_fract_y
 _atom_site_fract_z
 _atom_site_occupancy
  Li  Li0  1  0.649771  0.988741  0.250000  1
  Li  Li1  1  0.150037  0.509719  0.250000  1
  Li  Li2  1  0.849987  0.488810  0.750000  1
  Pr  Pr3  1  0.971945  0.814829  0.104379  1
  Pr  Pr4  1  0.472347  0.685636  0.396327  1
  Pr  Pr5  1  0.529579  0.323855  0.899717  1
  Pr  Pr6  1  0.019552  0.186217  0.600021  1
  Pr  Pr7  1  0.019552  0.186217  0.899979  1
  Pr  Pr8  1  0.529579  0.323855  0.600283  1
  Pr  Pr9  1  0.472347  0.685636  0.103673  1
  Pr  Pr10  1  0.971945  0.814829  0.395621  1
  Ho  Ho11  1  0.351024  0.006937  0.750000  1
  Ho  Ho12  1  0.683427  0.813905  0.875120  1
  Ho  Ho13  1  0.172374  0.674634  0.625233  1
  Ho  Ho14  1  0.822984  0.317921  0.127120  1
  Ho  Ho15  1  0.325092  0.179296  0.374014  1
  Ho  Ho16  1  0.325092  0.179296  0.125986  1
  Ho  Ho17  1  0.822984  0.317921  0.372880  1
  Ho  Ho18  1  0.172374  0.674634  0.874767  1
  Ho  Ho19  1  0.683427  0.813905  0.624880  1
  Si  Si20  1  0.765721  0.612715  0.250000  1
  Si  Si21  1  0.267423  0.887512  0.250000  1
  Si  Si22  1  0.728033  0.112868  0.750000  1
  Si  Si23  1  0.232329  0.380881  0.750000  1
  Si  Si24  1  0.025374  0.098361  0.250000  1
  Si  Si25  1  0.523856  0.401445  0.250000  1
  Si  Si26  1  0.471802  0.608526  0.750000  1
  Si  Si27  1  0.977522  0.899763  0.750000  1
  Si  Si28  1  0.853611  0.535005  0.967555  1
  Si  Si29  1  0.355117  0.970983  0.540058  1
  Si  Si30  1  0.648828  0.034097  0.034375  1
  Si  Si31  1  0.148705  0.465482  0.462911  1
  Si  Si32  1  0.148705  0.465482  0.037089  1
  Si  Si33  1  0.648828  0.034097  0.465625  1
  Si  Si34  1  0.355117  0.970983  0.959942  1
  Si  Si35  1  0.853611  0.535005  0.532445  1
