# generated using pymatgen
data_PrNd3Cl6
_symmetry_space_group_name_H-M   'P 1'
_cell_length_a   8.17375529
_cell_length_b   8.17375427
_cell_length_c   10.62213363
_cell_angle_alpha   117.08366217
_cell_angle_beta   117.08365741
_cell_angle_gamma   28.83958279
_symmetry_Int_Tables_number   1
_chemical_formula_structural   PrNd3Cl6
_chemical_formula_sum   'Pr1 Nd3 Cl6'
_cell_volume   302.13120714
_cell_formula_units_Z   1
loop_
 _symmetry_equiv_pos_site_id
 _symmetry_equiv_pos_as_xyz
  1  'x, y, z'
loop_
 _atom_site_type_symbol
 _atom_site_label
 _atom_site_symmetry_multiplicity
 _atom_site_fract_x
 _atom_site_fract_y
 _atom_site_fract_z
 _atom_site_occupancy
  Pr  Pr0  1  0.859382  0.859382  0.204962  1
  Nd  Nd1  1  0.591313  0.591313  0.447789  1
  Nd  Nd2  1  0.409299  0.409299  0.553413  1
  Nd  Nd3  1  0.140302  0.140302  0.794607  1
  Cl  Cl4  1  0.656765  0.656765  0.004818  1
  Cl  Cl5  1  0.047356  0.047356  0.238824  1
  Cl  Cl6  1  0.771703  0.771703  0.384557  1
  Cl  Cl7  1  0.228083  0.228083  0.617424  1
  Cl  Cl8  1  0.954154  0.954154  0.762341  1
  Cl  Cl9  1  0.341642  0.341642  0.991266  1
