# generated using pymatgen
data_Ho4BeAl16ZnPd6
_symmetry_space_group_name_H-M   'P 1'
_cell_length_a   7.57487547
_cell_length_b   7.57487409
_cell_length_c   9.38595900
_cell_angle_alpha   90.00000000
_cell_angle_beta   90.00000000
_cell_angle_gamma   119.04734005
_symmetry_Int_Tables_number   1
_chemical_formula_structural   Ho4BeAl16ZnPd6
_chemical_formula_sum   'Ho4 Be1 Al16 Zn1 Pd6'
_cell_volume   470.81439201
_cell_formula_units_Z   1
loop_
 _symmetry_equiv_pos_site_id
 _symmetry_equiv_pos_as_xyz
  1  'x, y, z'
loop_
 _atom_site_type_symbol
 _atom_site_label
 _atom_site_symmetry_multiplicity
 _atom_site_fract_x
 _atom_site_fract_y
 _atom_site_fract_z
 _atom_site_occupancy
  Ho  Ho0  1  0.992528  0.670351  0.250000  1
  Ho  Ho1  1  0.008379  0.327960  0.750000  1
  Ho  Ho2  1  0.670351  0.992528  0.250000  1
  Ho  Ho3  1  0.327960  0.008379  0.750000  1
  Be  Be4  1  0.864973  0.864973  0.750000  1
  Al  Al5  1  0.000869  0.331909  0.078378  1
  Al  Al6  1  0.997456  0.669290  0.915951  1
  Al  Al7  1  0.997456  0.669290  0.584049  1
  Al  Al8  1  0.331909  0.000869  0.421622  1
  Al  Al9  1  0.000869  0.331909  0.421622  1
  Al  Al10  1  0.669290  0.997456  0.584049  1
  Al  Al11  1  0.669290  0.997456  0.915951  1
  Al  Al12  1  0.331909  0.000869  0.078378  1
  Al  Al13  1  0.332820  0.332820  0.555092  1
  Al  Al14  1  0.667745  0.667746  0.447340  1
  Al  Al15  1  0.667745  0.667746  0.052660  1
  Al  Al16  1  0.332820  0.332820  0.944908  1
  Al  Al17  1  0.339314  0.546368  0.250000  1
  Al  Al18  1  0.662938  0.458919  0.750000  1
  Al  Al19  1  0.546368  0.339314  0.250000  1
  Al  Al20  1  0.458919  0.662938  0.750000  1
  Zn  Zn21  1  0.134290  0.134290  0.250000  1
  Pd  Pd22  1  0.673229  0.326178  0.999428  1
  Pd  Pd23  1  0.326178  0.673229  0.999428  1
  Pd  Pd24  1  0.326178  0.673229  0.500572  1
  Pd  Pd25  1  0.673229  0.326178  0.500572  1
  Pd  Pd26  1  0.997494  0.997494  0.990377  1
  Pd  Pd27  1  0.997494  0.997494  0.509623  1
