# generated using pymatgen
data_Ce6Co2Si3Ge
_symmetry_space_group_name_H-M   'P 1'
_cell_length_a   4.15166900
_cell_length_b   11.19479841
_cell_length_c   11.68528236
_cell_angle_alpha   89.72522568
_cell_angle_beta   90.00000000
_cell_angle_gamma   90.00000000
_symmetry_Int_Tables_number   1
_chemical_formula_structural   Ce6Co2Si3Ge
_chemical_formula_sum   'Ce12 Co4 Si6 Ge2'
_cell_volume   543.09176238
_cell_formula_units_Z   2
loop_
 _symmetry_equiv_pos_site_id
 _symmetry_equiv_pos_as_xyz
  1  'x, y, z'
loop_
 _atom_site_type_symbol
 _atom_site_label
 _atom_site_symmetry_multiplicity
 _atom_site_fract_x
 _atom_site_fract_y
 _atom_site_fract_z
 _atom_site_occupancy
  Ce  Ce0  1  0.250000  0.373376  0.050122  1
  Ce  Ce1  1  0.750000  0.626624  0.949878  1
  Ce  Ce2  1  0.750000  0.877236  0.449095  1
  Ce  Ce3  1  0.250000  0.122764  0.550905  1
  Ce  Ce4  1  0.250000  0.705022  0.223075  1
  Ce  Ce5  1  0.750000  0.294978  0.776925  1
  Ce  Ce6  1  0.750000  0.201168  0.278366  1
  Ce  Ce7  1  0.250000  0.798832  0.721634  1
  Ce  Ce8  1  0.250000  0.440760  0.384422  1
  Ce  Ce9  1  0.750000  0.559240  0.615578  1
  Ce  Ce10  1  0.750000  0.939988  0.118618  1
  Ce  Ce11  1  0.250000  0.060012  0.881382  1
  Co  Co12  1  0.250000  0.129259  0.125155  1
  Co  Co13  1  0.750000  0.870741  0.874845  1
  Co  Co14  1  0.750000  0.633404  0.378035  1
  Co  Co15  1  0.250000  0.366596  0.621965  1
  Si  Si16  1  0.250000  0.687726  0.476190  1
  Si  Si17  1  0.750000  0.312274  0.523810  1
  Si  Si18  1  0.750000  0.185275  0.024408  1
  Si  Si19  1  0.250000  0.814725  0.975592  1
  Si  Si20  1  0.250000  0.002367  0.298275  1
  Si  Si21  1  0.750000  0.997633  0.701725  1
  Ge  Ge22  1  0.750000  0.501184  0.199978  1
  Ge  Ge23  1  0.250000  0.498816  0.800022  1
