# generated using pymatgen
data_Pa2ZnAu3
_symmetry_space_group_name_H-M   'P 1'
_cell_length_a   5.73527327
_cell_length_b   5.73756553
_cell_length_c   5.73756573
_cell_angle_alpha   131.19425597
_cell_angle_beta   111.97335239
_cell_angle_gamma   88.12880348
_symmetry_Int_Tables_number   1
_chemical_formula_structural   Pa2ZnAu3
_chemical_formula_sum   'Pa2 Zn1 Au3'
_cell_volume   125.41536975
_cell_formula_units_Z   1
loop_
 _symmetry_equiv_pos_site_id
 _symmetry_equiv_pos_as_xyz
  1  'x, y, z'
loop_
 _atom_site_type_symbol
 _atom_site_label
 _atom_site_symmetry_multiplicity
 _atom_site_fract_x
 _atom_site_fract_y
 _atom_site_fract_z
 _atom_site_occupancy
  Pa  Pa0  1  0.240117  0.494305  0.745813  1
  Pa  Pa1  1  0.758376  0.505771  0.252606  1
  Zn  Zn2  1  0.341925  0.831050  0.510876  1
  Au  Au3  1  0.648865  0.152446  0.496420  1
  Au  Au4  1  0.182004  0.179810  0.002194  1
  Au  Au5  1  0.828713  0.836621  0.992092  1
