# generated using pymatgen
data_NdSm2Eu(SeO)4
_symmetry_space_group_name_H-M   'P 1'
_cell_length_a   7.43576907
_cell_length_b   7.43576960
_cell_length_c   5.89963196
_cell_angle_alpha   90.04198263
_cell_angle_beta   90.04198980
_cell_angle_gamma   133.05410622
_symmetry_Int_Tables_number   1
_chemical_formula_structural   NdSm2Eu(SeO)4
_chemical_formula_sum   'Nd1 Sm2 Eu1 Se4 O4'
_cell_volume   238.35302246
_cell_formula_units_Z   1
loop_
 _symmetry_equiv_pos_site_id
 _symmetry_equiv_pos_as_xyz
  1  'x, y, z'
loop_
 _atom_site_type_symbol
 _atom_site_label
 _atom_site_symmetry_multiplicity
 _atom_site_fract_x
 _atom_site_fract_y
 _atom_site_fract_z
 _atom_site_occupancy
  Nd  Nd0  1  0.669636  0.330364  0.000000  1
  Sm  Sm1  1  0.173100  0.826900  0.500000  1
  Sm  Sm2  1  0.826833  0.173167  0.500000  1
  Eu  Eu3  1  0.334032  0.665968  0.000000  1
  Se  Se4  1  0.866679  0.866020  0.843741  1
  Se  Se5  1  0.349675  0.349772  0.638942  1
  Se  Se6  1  0.133980  0.133321  0.156259  1
  Se  Se7  1  0.650228  0.650325  0.361058  1
  O  O8  1  0.497551  0.998773  0.746497  1
  O  O9  1  0.001227  0.502449  0.253503  1
  O  O10  1  0.505038  0.007978  0.254744  1
  O  O11  1  0.992022  0.494962  0.745256  1
