# generated using pymatgen
data_CaTh(Al5Ru)4
_symmetry_space_group_name_H-M   'P 1'
_cell_length_a   6.88180601
_cell_length_b   6.88180635
_cell_length_c   9.19350300
_cell_angle_alpha   90.00000000
_cell_angle_beta   90.00000000
_cell_angle_gamma   96.87792695
_symmetry_Int_Tables_number   1
_chemical_formula_structural   CaTh(Al5Ru)4
_chemical_formula_sum   'Ca1 Th1 Al20 Ru4'
_cell_volume   432.26414896
_cell_formula_units_Z   1
loop_
 _symmetry_equiv_pos_site_id
 _symmetry_equiv_pos_as_xyz
  1  'x, y, z'
loop_
 _atom_site_type_symbol
 _atom_site_label
 _atom_site_symmetry_multiplicity
 _atom_site_fract_x
 _atom_site_fract_y
 _atom_site_fract_z
 _atom_site_occupancy
  Ca  Ca0  1  0.125345  0.874655  0.250000  1
  Th  Th1  1  0.874984  0.125016  0.750000  1
  Al  Al2  1  0.621403  0.378597  0.552213  1
  Al  Al3  1  0.376778  0.623222  0.454470  1
  Al  Al4  1  0.376778  0.623222  0.045530  1
  Al  Al5  1  0.621403  0.378597  0.947787  1
  Al  Al6  1  0.228477  0.224752  0.497801  1
  Al  Al7  1  0.775248  0.771523  0.497801  1
  Al  Al8  1  0.775248  0.771523  0.002199  1
  Al  Al9  1  0.228477  0.224752  0.002199  1
  Al  Al10  1  0.838802  0.161198  0.102633  1
  Al  Al11  1  0.158162  0.841838  0.900082  1
  Al  Al12  1  0.158162  0.841838  0.599918  1
  Al  Al13  1  0.838802  0.161198  0.397367  1
  Al  Al14  1  0.860089  0.592089  0.750000  1
  Al  Al15  1  0.141199  0.413016  0.250000  1
  Al  Al16  1  0.407911  0.139911  0.750000  1
  Al  Al17  1  0.586984  0.858801  0.250000  1
  Al  Al18  1  0.221011  0.483647  0.750000  1
  Al  Al19  1  0.780858  0.521014  0.250000  1
  Al  Al20  1  0.516353  0.778989  0.750000  1
  Al  Al21  1  0.478986  0.219142  0.250000  1
  Ru  Ru22  1  0.000169  0.495899  0.500958  1
  Ru  Ru23  1  0.000169  0.495899  0.999042  1
  Ru  Ru24  1  0.504101  0.999831  0.999042  1
  Ru  Ru25  1  0.504101  0.999831  0.500958  1
