# generated using pymatgen
data_Nd3MgCd2Si2Au
_symmetry_space_group_name_H-M   'P 1'
_cell_length_a   7.40859724
_cell_length_b   7.40859776
_cell_length_c   4.47220700
_cell_angle_alpha   90.00000000
_cell_angle_beta   90.00000000
_cell_angle_gamma   120.59011068
_symmetry_Int_Tables_number   1
_chemical_formula_structural   Nd3MgCd2Si2Au
_chemical_formula_sum   'Nd3 Mg1 Cd2 Si2 Au1'
_cell_volume   211.30570810
_cell_formula_units_Z   1
loop_
 _symmetry_equiv_pos_site_id
 _symmetry_equiv_pos_as_xyz
  1  'x, y, z'
loop_
 _atom_site_type_symbol
 _atom_site_label
 _atom_site_symmetry_multiplicity
 _atom_site_fract_x
 _atom_site_fract_y
 _atom_site_fract_z
 _atom_site_occupancy
  Nd  Nd0  1  0.582775  0.001763  0.000000  1
  Nd  Nd1  1  0.001763  0.582775  0.000000  1
  Nd  Nd2  1  0.414206  0.414206  0.000000  1
  Mg  Mg3  1  0.761855  0.761855  0.500000  1
  Cd  Cd4  1  0.251036  0.998890  0.500000  1
  Cd  Cd5  1  0.998890  0.251036  0.500000  1
  Si  Si6  1  0.337349  0.666283  0.500000  1
  Si  Si7  1  0.666283  0.337349  0.500000  1
  Au  Au8  1  0.985843  0.985843  0.000000  1
