# generated using pymatgen
data_Nd15Th(HgRu)4
_symmetry_space_group_name_H-M   'P 1'
_cell_length_a   9.94365850
_cell_length_b   9.94365957
_cell_length_c   9.94366052
_cell_angle_alpha   59.40257426
_cell_angle_beta   59.40257144
_cell_angle_gamma   59.40257916
_symmetry_Int_Tables_number   1
_chemical_formula_structural   Nd15Th(HgRu)4
_chemical_formula_sum   'Nd15 Th1 Hg4 Ru4'
_cell_volume   685.77078821
_cell_formula_units_Z   1
loop_
 _symmetry_equiv_pos_site_id
 _symmetry_equiv_pos_as_xyz
  1  'x, y, z'
loop_
 _atom_site_type_symbol
 _atom_site_label
 _atom_site_symmetry_multiplicity
 _atom_site_fract_x
 _atom_site_fract_y
 _atom_site_fract_z
 _atom_site_occupancy
  Nd  Nd0  1  0.347594  0.347594  0.954831  1
  Nd  Nd1  1  0.347594  0.954831  0.347594  1
  Nd  Nd2  1  0.954831  0.347594  0.347594  1
  Nd  Nd3  1  0.810348  0.190822  0.190822  1
  Nd  Nd4  1  0.191531  0.809495  0.809495  1
  Nd  Nd5  1  0.190822  0.810348  0.190822  1
  Nd  Nd6  1  0.809495  0.191531  0.809495  1
  Nd  Nd7  1  0.190822  0.190822  0.810348  1
  Nd  Nd8  1  0.809495  0.809495  0.191531  1
  Nd  Nd9  1  0.940767  0.560833  0.560833  1
  Nd  Nd10  1  0.560953  0.939481  0.939481  1
  Nd  Nd11  1  0.560833  0.940767  0.560833  1
  Nd  Nd12  1  0.939481  0.560953  0.939481  1
  Nd  Nd13  1  0.560833  0.560833  0.940767  1
  Nd  Nd14  1  0.939481  0.939481  0.560953  1
  Th  Th15  1  0.342288  0.342288  0.342288  1
  Hg  Hg16  1  0.583328  0.583328  0.583328  1
  Hg  Hg17  1  0.581886  0.581886  0.249812  1
  Hg  Hg18  1  0.581886  0.249812  0.581886  1
  Hg  Hg19  1  0.249812  0.581886  0.581886  1
  Ru  Ru20  1  0.138304  0.138304  0.138304  1
  Ru  Ru21  1  0.145643  0.145643  0.576327  1
  Ru  Ru22  1  0.145643  0.576327  0.145643  1
  Ru  Ru23  1  0.576327  0.145643  0.145643  1
