# generated using pymatgen
data_NdTm5Al24Os5Pt3
_symmetry_space_group_name_H-M   'P 1'
_cell_length_a   8.81697706
_cell_length_b   8.82328685
_cell_length_c   9.54026611
_cell_angle_alpha   90.12508203
_cell_angle_beta   89.73202126
_cell_angle_gamma   119.54058698
_symmetry_Int_Tables_number   1
_chemical_formula_structural   NdTm5Al24Os5Pt3
_chemical_formula_sum   'Nd1 Tm5 Al24 Os5 Pt3'
_cell_volume   645.69648075
_cell_formula_units_Z   1
loop_
 _symmetry_equiv_pos_site_id
 _symmetry_equiv_pos_as_xyz
  1  'x, y, z'
loop_
 _atom_site_type_symbol
 _atom_site_label
 _atom_site_symmetry_multiplicity
 _atom_site_fract_x
 _atom_site_fract_y
 _atom_site_fract_z
 _atom_site_occupancy
  Nd  Nd0  1  0.186611  0.377646  0.249811  1
  Tm  Tm1  1  0.812057  0.614786  0.748643  1
  Tm  Tm2  1  0.609519  0.813614  0.252536  1
  Tm  Tm3  1  0.389038  0.186492  0.747671  1
  Tm  Tm4  1  0.197749  0.808952  0.252161  1
  Tm  Tm5  1  0.803511  0.192466  0.748051  1
  Al  Al6  1  0.335709  0.672397  0.027879  1
  Al  Al7  1  0.665101  0.329458  0.967851  1
  Al  Al8  1  0.668942  0.331955  0.530001  1
  Al  Al9  1  0.330406  0.669116  0.473662  1
  Al  Al10  1  0.157642  0.325438  0.577883  1
  Al  Al11  1  0.842062  0.674993  0.425825  1
  Al  Al12  1  0.673988  0.841174  0.576147  1
  Al  Al13  1  0.837224  0.676691  0.077213  1
  Al  Al14  1  0.327126  0.158495  0.426218  1
  Al  Al15  1  0.163282  0.323639  0.918919  1
  Al  Al16  1  0.163394  0.835499  0.577532  1
  Al  Al17  1  0.326526  0.157934  0.074665  1
  Al  Al18  1  0.834329  0.164298  0.425319  1
  Al  Al19  1  0.675272  0.841736  0.922802  1
  Al  Al20  1  0.830080  0.158557  0.076449  1
  Al  Al21  1  0.168187  0.841367  0.921171  1
  Al  Al22  1  0.560716  0.125284  0.249968  1
  Al  Al23  1  0.440037  0.875782  0.750191  1
  Al  Al24  1  0.873649  0.439124  0.253116  1
  Al  Al25  1  0.125925  0.562516  0.747728  1
  Al  Al26  1  0.564882  0.437693  0.249673  1
  Al  Al27  1  0.438802  0.563595  0.750214  1
  Al  Al28  1  0.993912  0.994044  0.250219  1
  Al  Al29  1  0.001276  0.997602  0.749771  1
  Os  Os30  1  0.500553  0.001009  0.999546  1
  Os  Os31  1  0.500121  0.000668  0.500567  1
  Os  Os32  1  0.998302  0.500898  0.502365  1
  Os  Os33  1  0.000231  0.000398  0.999842  1
  Os  Os34  1  0.000025  0.000363  0.500124  1
  Pt  Pt35  1  0.998684  0.501315  0.998381  1
  Pt  Pt36  1  0.502931  0.501658  0.998390  1
  Pt  Pt37  1  0.502197  0.501349  0.501499  1
