# generated using pymatgen
data_LiCa3Hg3Pd2
_symmetry_space_group_name_H-M   'P 1'
_cell_length_a   7.85935300
_cell_length_b   7.85940594
_cell_length_c   3.86139700
_cell_angle_alpha   90.00018141
_cell_angle_beta   89.99988233
_cell_angle_gamma   119.99984257
_symmetry_Int_Tables_number   1
_chemical_formula_structural   LiCa3Hg3Pd2
_chemical_formula_sum   'Li1 Ca3 Hg3 Pd2'
_cell_volume   206.56288547
_cell_formula_units_Z   1
loop_
 _symmetry_equiv_pos_site_id
 _symmetry_equiv_pos_as_xyz
  1  'x, y, z'
loop_
 _atom_site_type_symbol
 _atom_site_label
 _atom_site_symmetry_multiplicity
 _atom_site_fract_x
 _atom_site_fract_y
 _atom_site_fract_z
 _atom_site_occupancy
  Li  Li0  1  0.000000  0.000001  0.500000  1
  Ca  Ca1  1  0.410125  0.410124  0.500000  1
  Ca  Ca2  1  0.589875  0.000001  0.500000  1
  Ca  Ca3  1  0.000000  0.589875  0.500000  1
  Hg  Hg4  1  0.740576  0.740575  0.000000  1
  Hg  Hg5  1  0.259425  0.000000  0.000000  1
  Hg  Hg6  1  0.000000  0.259425  0.000000  1
  Pd  Pd7  1  0.666667  0.333332  0.000000  1
  Pd  Pd8  1  0.333332  0.666666  0.000000  1
