# generated using pymatgen
data_TaNb5(Tl2Cl9)2
_symmetry_space_group_name_H-M   'P 1'
_cell_length_a   10.09230219
_cell_length_b   10.09230457
_cell_length_c   10.00232600
_cell_angle_alpha   76.67203783
_cell_angle_beta   76.67198796
_cell_angle_gamma   116.35339233
_symmetry_Int_Tables_number   1
_chemical_formula_structural   TaNb5(Tl2Cl9)2
_chemical_formula_sum   'Ta1 Nb5 Tl4 Cl18'
_cell_volume   821.04254164
_cell_formula_units_Z   1
loop_
 _symmetry_equiv_pos_site_id
 _symmetry_equiv_pos_as_xyz
  1  'x, y, z'
loop_
 _atom_site_type_symbol
 _atom_site_label
 _atom_site_symmetry_multiplicity
 _atom_site_fract_x
 _atom_site_fract_y
 _atom_site_fract_z
 _atom_site_occupancy
  Ta  Ta0  1  0.613487  0.613487  0.125169  1
  Nb  Nb1  1  0.385787  0.385786  0.874039  1
  Nb  Nb2  1  0.454561  0.283426  0.137539  1
  Nb  Nb3  1  0.545105  0.716203  0.862027  1
  Nb  Nb4  1  0.716203  0.545105  0.862028  1
  Nb  Nb5  1  0.283426  0.454561  0.137538  1
  Tl  Tl6  1  0.731139  0.050664  0.328812  1
  Tl  Tl7  1  0.269445  0.950115  0.671567  1
  Tl  Tl8  1  0.950116  0.269446  0.671567  1
  Tl  Tl9  1  0.050665  0.731140  0.328812  1
  Cl  Cl10  1  0.702919  0.297086  0.999986  1
  Cl  Cl11  1  0.297086  0.702919  0.999986  1
  Cl  Cl12  1  0.395502  0.006092  0.318734  1
  Cl  Cl13  1  0.605550  0.994657  0.682144  1
  Cl  Cl14  1  0.994657  0.605550  0.682144  1
  Cl  Cl15  1  0.006092  0.395501  0.318734  1
  Cl  Cl16  1  0.313742  0.109890  0.015081  1
  Cl  Cl17  1  0.685954  0.887723  0.986968  1
  Cl  Cl18  1  0.887723  0.685953  0.986968  1
  Cl  Cl19  1  0.109890  0.313743  0.015080  1
  Cl  Cl20  1  0.755939  0.755939  0.279725  1
  Cl  Cl21  1  0.241417  0.241417  0.717771  1
  Cl  Cl22  1  0.810814  0.810814  0.674927  1
  Cl  Cl23  1  0.189075  0.189075  0.325019  1
  Cl  Cl24  1  0.580785  0.380555  0.308176  1
  Cl  Cl25  1  0.420016  0.622355  0.690644  1
  Cl  Cl26  1  0.622356  0.420017  0.690644  1
  Cl  Cl27  1  0.380554  0.580785  0.308176  1
