# generated using pymatgen
data_Ho4Er8Tc3Ir
_symmetry_space_group_name_H-M   'P 1'
_cell_length_a   6.26487904
_cell_length_b   7.36766012
_cell_length_c   9.06293200
_cell_angle_alpha   90.00000000
_cell_angle_beta   90.00000000
_cell_angle_gamma   89.98328495
_symmetry_Int_Tables_number   1
_chemical_formula_structural   Ho4Er8Tc3Ir
_chemical_formula_sum   'Ho4 Er8 Tc3 Ir1'
_cell_volume   418.32226092
_cell_formula_units_Z   1
loop_
 _symmetry_equiv_pos_site_id
 _symmetry_equiv_pos_as_xyz
  1  'x, y, z'
loop_
 _atom_site_type_symbol
 _atom_site_label
 _atom_site_symmetry_multiplicity
 _atom_site_fract_x
 _atom_site_fract_y
 _atom_site_fract_z
 _atom_site_occupancy
  Ho  Ho0  1  0.874219  0.540505  0.250000  1
  Ho  Ho1  1  0.625143  0.038443  0.250000  1
  Ho  Ho2  1  0.130627  0.458283  0.750000  1
  Ho  Ho3  1  0.371645  0.960052  0.750000  1
  Er  Er4  1  0.333240  0.675972  0.064247  1
  Er  Er5  1  0.163136  0.175610  0.436779  1
  Er  Er6  1  0.664464  0.322975  0.561670  1
  Er  Er7  1  0.835772  0.825285  0.938004  1
  Er  Er8  1  0.664464  0.322975  0.938330  1
  Er  Er9  1  0.835772  0.825285  0.561996  1
  Er  Er10  1  0.333240  0.675972  0.435753  1
  Er  Er11  1  0.163136  0.175610  0.063221  1
  Tc  Tc12  1  0.039822  0.884146  0.250000  1
  Tc  Tc13  1  0.462204  0.386319  0.250000  1
  Tc  Tc14  1  0.959903  0.116335  0.750000  1
  Ir  Ir15  1  0.543214  0.616233  0.750000  1
