# generated using pymatgen
data_Ho2Tm6Ti9Si16Mo3
_symmetry_space_group_name_H-M   'P 1'
_cell_length_a   6.97388511
_cell_length_b   6.97491837
_cell_length_c   12.81171904
_cell_angle_alpha   90.01407619
_cell_angle_beta   89.99026915
_cell_angle_gamma   89.97771429
_symmetry_Int_Tables_number   1
_chemical_formula_structural   Ho2Tm6Ti9Si16Mo3
_chemical_formula_sum   'Ho2 Tm6 Ti9 Si16 Mo3'
_cell_volume   623.19114143
_cell_formula_units_Z   1
loop_
 _symmetry_equiv_pos_site_id
 _symmetry_equiv_pos_as_xyz
  1  'x, y, z'
loop_
 _atom_site_type_symbol
 _atom_site_label
 _atom_site_symmetry_multiplicity
 _atom_site_fract_x
 _atom_site_fract_y
 _atom_site_fract_z
 _atom_site_occupancy
  Ho  Ho0  1  0.002218  0.340349  0.533506  1
  Ho  Ho1  1  0.999551  0.659415  0.032926  1
  Tm  Tm2  1  0.340645  0.001589  0.466455  1
  Tm  Tm3  1  0.499268  0.842136  0.718404  1
  Tm  Tm4  1  0.499542  0.158108  0.216828  1
  Tm  Tm5  1  0.842029  0.499281  0.281658  1
  Tm  Tm6  1  0.158235  0.499519  0.783279  1
  Tm  Tm7  1  0.659036  0.000231  0.967010  1
  Ti  Ti8  1  0.672557  0.672849  0.499945  1
  Ti  Ti9  1  0.151970  0.007955  0.875832  1
  Ti  Ti10  1  0.491975  0.652107  0.124846  1
  Ti  Ti11  1  0.507046  0.347380  0.626837  1
  Ti  Ti12  1  0.651972  0.491692  0.875053  1
  Ti  Ti13  1  0.347592  0.507422  0.373120  1
  Ti  Ti14  1  0.848572  0.992601  0.374550  1
  Ti  Ti15  1  0.008140  0.151916  0.124083  1
  Ti  Ti16  1  0.992353  0.848654  0.625388  1
  Si  Si17  1  0.203330  0.130089  0.683810  1
  Si  Si18  1  0.369343  0.702092  0.933083  1
  Si  Si19  1  0.631027  0.296906  0.433247  1
  Si  Si20  1  0.701292  0.368071  0.066707  1
  Si  Si21  1  0.297812  0.632314  0.566523  1
  Si  Si22  1  0.797213  0.869501  0.184124  1
  Si  Si23  1  0.130865  0.202561  0.316404  1
  Si  Si24  1  0.868702  0.798016  0.816112  1
  Si  Si25  1  0.293082  0.953313  0.064938  1
  Si  Si26  1  0.546645  0.791899  0.315132  1
  Si  Si27  1  0.452625  0.207745  0.815444  1
  Si  Si28  1  0.791406  0.547098  0.685118  1
  Si  Si29  1  0.208164  0.452080  0.184816  1
  Si  Si30  1  0.706497  0.047320  0.565908  1
  Si  Si31  1  0.952603  0.291897  0.934893  1
  Si  Si32  1  0.047980  0.707735  0.433861  1
  Mo  Mo33  1  0.327633  0.327138  0.999970  1
  Mo  Mo34  1  0.173823  0.827587  0.249351  1
  Mo  Mo35  1  0.827259  0.173432  0.750841  1
