# generated using pymatgen
data_TbDyU2(ReB6)2
_symmetry_space_group_name_H-M   'P 1'
_cell_length_a   3.64174600
_cell_length_b   9.30972900
_cell_length_c   11.42901700
_cell_angle_alpha   89.99684031
_cell_angle_beta   90.00000000
_cell_angle_gamma   90.00000000
_symmetry_Int_Tables_number   1
_chemical_formula_structural   TbDyU2(ReB6)2
_chemical_formula_sum   'Tb2 Dy2 U4 Re4 B24'
_cell_volume   387.48560160
_cell_formula_units_Z   2
loop_
 _symmetry_equiv_pos_site_id
 _symmetry_equiv_pos_as_xyz
  1  'x, y, z'
loop_
 _atom_site_type_symbol
 _atom_site_label
 _atom_site_symmetry_multiplicity
 _atom_site_fract_x
 _atom_site_fract_y
 _atom_site_fract_z
 _atom_site_occupancy
  Tb  Tb0  1  0.000000  0.336565  0.407673  1
  Tb  Tb1  1  0.000000  0.663435  0.592327  1
  Dy  Dy2  1  0.000000  0.836525  0.092157  1
  Dy  Dy3  1  0.000000  0.163475  0.907843  1
  U  U4  1  0.000000  0.956319  0.396295  1
  U  U5  1  0.000000  0.043681  0.603705  1
  U  U6  1  0.000000  0.456390  0.103500  1
  U  U7  1  0.000000  0.543610  0.896500  1
  Re  Re8  1  0.000000  0.645800  0.318146  1
  Re  Re9  1  0.000000  0.354200  0.681854  1
  Re  Re10  1  0.000000  0.145466  0.181449  1
  Re  Re11  1  0.000000  0.854534  0.818551  1
  B  B12  1  0.500000  0.552145  0.430613  1
  B  B13  1  0.500000  0.447855  0.569387  1
  B  B14  1  0.500000  0.051831  0.069122  1
  B  B15  1  0.500000  0.948169  0.930878  1
  B  B16  1  0.500000  0.743156  0.422843  1
  B  B17  1  0.500000  0.256844  0.577157  1
  B  B18  1  0.500000  0.242941  0.076903  1
  B  B19  1  0.500000  0.757059  0.923097  1
  B  B20  1  0.500000  0.801803  0.275177  1
  B  B21  1  0.500000  0.198197  0.724823  1
  B  B22  1  0.500000  0.301688  0.224551  1
  B  B23  1  0.500000  0.698312  0.775449  1
  B  B24  1  0.500000  0.644090  0.188490  1
  B  B25  1  0.500000  0.355910  0.811510  1
  B  B26  1  0.500000  0.143844  0.311285  1
  B  B27  1  0.500000  0.856156  0.688715  1
  B  B28  1  0.500000  0.989145  0.219492  1
  B  B29  1  0.500000  0.010855  0.780508  1
  B  B30  1  0.500000  0.489367  0.280223  1
  B  B31  1  0.500000  0.510633  0.719777  1
  B  B32  1  0.500000  0.639853  0.038741  1
  B  B33  1  0.500000  0.360147  0.961259  1
  B  B34  1  0.500000  0.139343  0.461360  1
  B  B35  1  0.500000  0.860657  0.538640  1
