# generated using pymatgen
data_Zn22Fe2Ni
_symmetry_space_group_name_H-M   'P 1'
_cell_length_a   7.70917335
_cell_length_b   7.70917351
_cell_length_c   7.71114306
_cell_angle_alpha   72.00014752
_cell_angle_beta   72.00014962
_cell_angle_gamma   57.74529322
_symmetry_Int_Tables_number   1
_chemical_formula_structural   Zn22Fe2Ni
_chemical_formula_sum   'Zn22 Fe2 Ni1'
_cell_volume   362.63081160
_cell_formula_units_Z   1
loop_
 _symmetry_equiv_pos_site_id
 _symmetry_equiv_pos_as_xyz
  1  'x, y, z'
loop_
 _atom_site_type_symbol
 _atom_site_label
 _atom_site_symmetry_multiplicity
 _atom_site_fract_x
 _atom_site_fract_y
 _atom_site_fract_z
 _atom_site_occupancy
  Zn  Zn0  1  0.342499  0.743498  0.311893  1
  Zn  Zn1  1  0.656651  0.257369  0.688100  1
  Zn  Zn2  1  0.257369  0.656651  0.688100  1
  Zn  Zn3  1  0.743498  0.342499  0.311893  1
  Zn  Zn4  1  0.676377  0.324060  0.001463  1
  Zn  Zn5  1  0.324060  0.676377  0.001463  1
  Zn  Zn6  1  0.830109  0.830109  0.783584  1
  Zn  Zn7  1  0.169238  0.169238  0.216578  1
  Zn  Zn8  1  0.977449  0.977449  0.176929  1
  Zn  Zn9  1  0.021754  0.021754  0.824637  1
  Zn  Zn10  1  0.352518  0.352518  0.271510  1
  Zn  Zn11  1  0.649110  0.649110  0.726553  1
  Zn  Zn12  1  0.685549  0.685549  0.374564  1
  Zn  Zn13  1  0.313530  0.313530  0.624770  1
  Zn  Zn14  1  0.662252  0.024670  0.464160  1
  Zn  Zn15  1  0.337179  0.976672  0.535324  1
  Zn  Zn16  1  0.976672  0.337179  0.535324  1
  Zn  Zn17  1  0.024670  0.662252  0.464160  1
  Zn  Zn18  1  0.616756  0.999122  0.097633  1
  Zn  Zn19  1  0.383527  0.001383  0.901440  1
  Zn  Zn20  1  0.001383  0.383527  0.901440  1
  Zn  Zn21  1  0.999122  0.616756  0.097633  1
  Fe  Fe22  1  0.656132  0.656132  0.055757  1
  Fe  Fe23  1  0.000141  0.000141  0.500553  1
  Ni  Ni24  1  0.342455  0.342455  0.944541  1
