# generated using pymatgen
data_Na6B10Pt17Rh
_symmetry_space_group_name_H-M   'P 1'
_cell_length_a   6.39738594
_cell_length_b   6.39738633
_cell_length_c   15.26824636
_cell_angle_alpha   90.17619089
_cell_angle_beta   89.82380867
_cell_angle_gamma   128.06866931
_symmetry_Int_Tables_number   1
_chemical_formula_structural   Na6B10Pt17Rh
_chemical_formula_sum   'Na6 B10 Pt17 Rh1'
_cell_volume   491.94519968
_cell_formula_units_Z   1
loop_
 _symmetry_equiv_pos_site_id
 _symmetry_equiv_pos_as_xyz
  1  'x, y, z'
loop_
 _atom_site_type_symbol
 _atom_site_label
 _atom_site_symmetry_multiplicity
 _atom_site_fract_x
 _atom_site_fract_y
 _atom_site_fract_z
 _atom_site_occupancy
  Na  Na0  1  0.313927  0.686073  0.750631  1
  Na  Na1  1  0.686073  0.313927  0.249369  1
  Na  Na2  1  0.558518  0.441482  0.085062  1
  Na  Na3  1  0.441482  0.558518  0.914938  1
  Na  Na4  1  0.441252  0.558748  0.586220  1
  Na  Na5  1  0.558748  0.441252  0.413780  1
  B  B6  1  0.943721  0.056279  0.143092  1
  B  B7  1  0.056279  0.943721  0.856908  1
  B  B8  1  0.055790  0.944210  0.647074  1
  B  B9  1  0.944210  0.055790  0.352926  1
  B  B10  1  0.184637  0.815363  0.027392  1
  B  B11  1  0.815363  0.184637  0.972608  1
  B  B12  1  0.811535  0.188465  0.527529  1
  B  B13  1  0.188465  0.811535  0.472471  1
  B  B14  1  0.726673  0.273327  0.751189  1
  B  B15  1  0.273327  0.726673  0.248811  1
  Pt  Pt16  1  0.000000  0.000000  0.500000  1
  Pt  Pt17  1  0.661157  0.831739  0.249468  1
  Pt  Pt18  1  0.831739  0.661157  0.750532  1
  Pt  Pt19  1  0.338843  0.168261  0.750532  1
  Pt  Pt20  1  0.168261  0.338843  0.249468  1
  Pt  Pt21  1  0.126970  0.873030  0.157410  1
  Pt  Pt22  1  0.873030  0.126970  0.842590  1
  Pt  Pt23  1  0.871891  0.128109  0.657152  1
  Pt  Pt24  1  0.128109  0.871891  0.342848  1
  Pt  Pt25  1  0.566479  0.936732  0.079288  1
  Pt  Pt26  1  0.936732  0.566479  0.920712  1
  Pt  Pt27  1  0.432222  0.062680  0.579531  1
  Pt  Pt28  1  0.062680  0.432222  0.420469  1
  Pt  Pt29  1  0.433521  0.063268  0.920712  1
  Pt  Pt30  1  0.063268  0.433521  0.079288  1
  Pt  Pt31  1  0.567778  0.937320  0.420469  1
  Pt  Pt32  1  0.937320  0.567778  0.579531  1
  Rh  Rh33  1  0.000000  0.000000  0.000000  1
