# generated using pymatgen
data_SmDy2IrO7
_symmetry_space_group_name_H-M   'P 1'
_cell_length_a   6.47634200
_cell_length_b   6.47634046
_cell_length_c   7.57206600
_cell_angle_alpha   90.00000000
_cell_angle_beta   90.00000000
_cell_angle_gamma   109.27300836
_symmetry_Int_Tables_number   1
_chemical_formula_structural   SmDy2IrO7
_chemical_formula_sum   'Sm2 Dy4 Ir2 O14'
_cell_volume   299.79600513
_cell_formula_units_Z   2
loop_
 _symmetry_equiv_pos_site_id
 _symmetry_equiv_pos_as_xyz
  1  'x, y, z'
loop_
 _atom_site_type_symbol
 _atom_site_label
 _atom_site_symmetry_multiplicity
 _atom_site_fract_x
 _atom_site_fract_y
 _atom_site_fract_z
 _atom_site_occupancy
  Sm  Sm0  1  0.500000  0.500000  0.500000  1
  Sm  Sm1  1  0.500000  0.500000  0.000000  1
  Dy  Dy2  1  0.533415  0.999988  0.750000  1
  Dy  Dy3  1  0.999988  0.533415  0.250000  1
  Dy  Dy4  1  0.466585  0.000012  0.250000  1
  Dy  Dy5  1  0.000012  0.466585  0.750000  1
  Ir  Ir6  1  0.000000  0.000000  0.500000  1
  Ir  Ir7  1  0.000000  0.000000  0.000000  1
  O  O8  1  0.678931  0.927584  0.471602  1
  O  O9  1  0.927584  0.678931  0.528398  1
  O  O10  1  0.678931  0.927584  0.028398  1
  O  O11  1  0.927584  0.678931  0.971602  1
  O  O12  1  0.321069  0.072416  0.528398  1
  O  O13  1  0.072416  0.321069  0.471602  1
  O  O14  1  0.321069  0.072416  0.971602  1
  O  O15  1  0.072416  0.321069  0.028398  1
  O  O16  1  0.927927  0.072073  0.750000  1
  O  O17  1  0.072073  0.927927  0.250000  1
  O  O18  1  0.365553  0.634446  0.750000  1
  O  O19  1  0.634446  0.365553  0.250000  1
  O  O20  1  0.639179  0.360821  0.750000  1
  O  O21  1  0.360821  0.639179  0.250000  1
