# generated using pymatgen
data_Ho4Er6Sn3Pb5
_symmetry_space_group_name_H-M   'P 1'
_cell_length_a   8.11127400
_cell_length_b   15.49809300
_cell_length_c   8.18202000
_cell_angle_alpha   90.00000000
_cell_angle_beta   90.00000000
_cell_angle_gamma   90.00000000
_symmetry_Int_Tables_number   1
_chemical_formula_structural   Ho4Er6Sn3Pb5
_chemical_formula_sum   'Ho8 Er12 Sn6 Pb10'
_cell_volume   1028.55583333
_cell_formula_units_Z   2
loop_
 _symmetry_equiv_pos_site_id
 _symmetry_equiv_pos_as_xyz
  1  'x, y, z'
loop_
 _atom_site_type_symbol
 _atom_site_label
 _atom_site_symmetry_multiplicity
 _atom_site_fract_x
 _atom_site_fract_y
 _atom_site_fract_z
 _atom_site_occupancy
  Ho  Ho0  1  0.465228  0.603313  0.676442  1
  Ho  Ho1  1  0.965228  0.896687  0.823558  1
  Ho  Ho2  1  0.534476  0.100393  0.325195  1
  Ho  Ho3  1  0.034476  0.399607  0.174805  1
  Ho  Ho4  1  0.534476  0.399607  0.325195  1
  Ho  Ho5  1  0.034476  0.100393  0.174805  1
  Ho  Ho6  1  0.465228  0.896687  0.676442  1
  Ho  Ho7  1  0.965228  0.603313  0.823558  1
  Er  Er8  1  0.622159  0.623327  0.159931  1
  Er  Er9  1  0.122159  0.876673  0.340069  1
  Er  Er10  1  0.377567  0.122280  0.838634  1
  Er  Er11  1  0.877567  0.377720  0.661366  1
  Er  Er12  1  0.377567  0.377720  0.838634  1
  Er  Er13  1  0.877567  0.122280  0.661366  1
  Er  Er14  1  0.622159  0.876673  0.159931  1
  Er  Er15  1  0.122159  0.623327  0.340069  1
  Er  Er16  1  0.790574  0.750000  0.496410  1
  Er  Er17  1  0.290574  0.750000  0.003590  1
  Er  Er18  1  0.209972  0.250000  0.507331  1
  Er  Er19  1  0.709972  0.250000  0.992669  1
  Sn  Sn20  1  0.425847  0.750000  0.375967  1
  Sn  Sn21  1  0.925847  0.750000  0.124033  1
  Sn  Sn22  1  0.573504  0.250000  0.625260  1
  Sn  Sn23  1  0.073504  0.250000  0.874740  1
  Sn  Sn24  1  0.657186  0.750000  0.851336  1
  Sn  Sn25  1  0.157186  0.750000  0.648664  1
  Pb  Pb26  1  0.717657  0.458251  0.966611  1
  Pb  Pb27  1  0.217657  0.041749  0.533389  1
  Pb  Pb28  1  0.282140  0.957920  0.033634  1
  Pb  Pb29  1  0.782140  0.542080  0.466366  1
  Pb  Pb30  1  0.282140  0.542080  0.033634  1
  Pb  Pb31  1  0.782140  0.957920  0.466366  1
  Pb  Pb32  1  0.717657  0.041749  0.966611  1
  Pb  Pb33  1  0.217657  0.458251  0.533389  1
  Pb  Pb34  1  0.344463  0.250000  0.151335  1
  Pb  Pb35  1  0.844463  0.250000  0.348665  1
