# generated using pymatgen
data_DyCd(Pd2Au)2
_symmetry_space_group_name_H-M   'P 1'
_cell_length_a   5.99076700
_cell_length_b   5.98012886
_cell_length_c   7.85909800
_cell_angle_alpha   90.00075690
_cell_angle_beta   89.99978003
_cell_angle_gamma   89.90709274
_symmetry_Int_Tables_number   1
_chemical_formula_structural   DyCd(Pd2Au)2
_chemical_formula_sum   'Dy2 Cd2 Pd8 Au4'
_cell_volume   281.55620612
_cell_formula_units_Z   2
loop_
 _symmetry_equiv_pos_site_id
 _symmetry_equiv_pos_as_xyz
  1  'x, y, z'
loop_
 _atom_site_type_symbol
 _atom_site_label
 _atom_site_symmetry_multiplicity
 _atom_site_fract_x
 _atom_site_fract_y
 _atom_site_fract_z
 _atom_site_occupancy
  Dy  Dy0  1  0.250491  0.250000  0.999986  1
  Dy  Dy1  1  0.749509  0.750001  0.000014  1
  Cd  Cd2  1  0.750843  0.749958  0.499992  1
  Cd  Cd3  1  0.249156  0.250043  0.500008  1
  Pd  Pd4  1  0.000115  0.000038  0.253632  1
  Pd  Pd5  1  0.000143  0.500027  0.253615  1
  Pd  Pd6  1  0.500128  0.000056  0.254752  1
  Pd  Pd7  1  0.500109  0.500020  0.254765  1
  Pd  Pd8  1  0.499873  0.999944  0.745248  1
  Pd  Pd9  1  0.499892  0.499979  0.745235  1
  Pd  Pd10  1  0.999884  0.999962  0.746368  1
  Pd  Pd11  1  0.999856  0.499972  0.746385  1
  Au  Au12  1  0.749855  0.250076  0.000000  1
  Au  Au13  1  0.250144  0.749925  0.000000  1
  Au  Au14  1  0.249374  0.749886  0.499995  1
  Au  Au15  1  0.750625  0.250115  0.500005  1
