# generated using pymatgen
data_Dy5Tc6P12Ir9Rh4
_symmetry_space_group_name_H-M   'P 1'
_cell_length_a   12.66463376
_cell_length_b   12.66290198
_cell_length_c   3.97496400
_cell_angle_alpha   90.00000000
_cell_angle_beta   90.00000000
_cell_angle_gamma   119.94413044
_symmetry_Int_Tables_number   1
_chemical_formula_structural   Dy5Tc6P12Ir9Rh4
_chemical_formula_sum   'Dy5 Tc6 P12 Ir9 Rh4'
_cell_volume   552.37489884
_cell_formula_units_Z   1
loop_
 _symmetry_equiv_pos_site_id
 _symmetry_equiv_pos_as_xyz
  1  'x, y, z'
loop_
 _atom_site_type_symbol
 _atom_site_label
 _atom_site_symmetry_multiplicity
 _atom_site_fract_x
 _atom_site_fract_y
 _atom_site_fract_z
 _atom_site_occupancy
  Dy  Dy0  1  0.333236  0.666253  0.500000  1
  Dy  Dy1  1  0.666674  0.333392  0.500000  1
  Dy  Dy2  1  0.000291  0.812576  0.000000  1
  Dy  Dy3  1  0.187604  0.187916  0.000000  1
  Dy  Dy4  1  0.811846  0.999833  0.000000  1
  Tc  Tc5  1  0.989805  0.445582  0.500000  1
  Tc  Tc6  1  0.554572  0.543924  0.500000  1
  Tc  Tc7  1  0.455656  0.010283  0.500000  1
  Tc  Tc8  1  0.619633  0.798650  0.500000  1
  Tc  Tc9  1  0.200849  0.821088  0.500000  1
  Tc  Tc10  1  0.178818  0.379830  0.500000  1
  P  P11  1  0.006830  0.637300  0.500000  1
  P  P12  1  0.362710  0.369722  0.500000  1
  P  P13  1  0.630913  0.993449  0.500000  1
  P  P14  1  0.521420  0.693417  0.000000  1
  P  P15  1  0.306766  0.828108  0.000000  1
  P  P16  1  0.172021  0.478423  0.000000  1
  P  P17  1  0.482534  0.166752  0.000000  1
  P  P18  1  0.684660  0.517443  0.000000  1
  P  P19  1  0.832666  0.315239  0.000000  1
  P  P20  1  0.004175  0.182710  0.500000  1
  P  P21  1  0.817140  0.821450  0.500000  1
  P  P22  1  0.178638  0.995626  0.500000  1
  Ir  Ir23  1  0.125044  0.632148  0.000000  1
  Ir  Ir24  1  0.367753  0.492325  0.000000  1
  Ir  Ir25  1  0.491463  0.356660  0.000000  1
  Ir  Ir26  1  0.865292  0.508472  0.000000  1
  Ir  Ir27  1  0.643463  0.134751  0.000000  1
  Ir  Ir28  1  0.994749  0.280472  0.000000  1
  Ir  Ir29  1  0.719510  0.714393  0.000000  1
  Ir  Ir30  1  0.285612  0.005421  0.000000  1
  Ir  Ir31  1  0.000174  0.999948  0.500000  1
  Rh  Rh32  1  0.507266  0.875617  0.000000  1
  Rh  Rh33  1  0.373569  0.184951  0.500000  1
  Rh  Rh34  1  0.811101  0.626187  0.500000  1
  Rh  Rh35  1  0.815544  0.189689  0.500000  1
