# generated using pymatgen
data_CeTh3(B4Ir)4
_symmetry_space_group_name_H-M   'P 1'
_cell_length_a   7.10873130
_cell_length_b   7.10873020
_cell_length_c   7.10873095
_cell_angle_alpha   111.81899488
_cell_angle_beta   111.81898840
_cell_angle_gamma   104.87130777
_symmetry_Int_Tables_number   1
_chemical_formula_structural   CeTh3(B4Ir)4
_chemical_formula_sum   'Ce1 Th3 B16 Ir4'
_cell_volume   275.21503917
_cell_formula_units_Z   1
loop_
 _symmetry_equiv_pos_site_id
 _symmetry_equiv_pos_as_xyz
  1  'x, y, z'
loop_
 _atom_site_type_symbol
 _atom_site_label
 _atom_site_symmetry_multiplicity
 _atom_site_fract_x
 _atom_site_fract_y
 _atom_site_fract_z
 _atom_site_occupancy
  Ce  Ce0  1  0.250000  0.750000  0.500000  1
  Th  Th1  1  0.787829  0.787829  0.000000  1
  Th  Th2  1  0.212171  0.212171  0.000000  1
  Th  Th3  1  0.750000  0.250000  0.500000  1
  B  B4  1  0.264131  0.107158  0.371417  1
  B  B5  1  0.735740  0.892714  0.628583  1
  B  B6  1  0.264131  0.892714  0.156974  1
  B  B7  1  0.735740  0.107158  0.843026  1
  B  B8  1  0.107286  0.735869  0.843026  1
  B  B9  1  0.892842  0.264260  0.156974  1
  B  B10  1  0.107286  0.264260  0.371417  1
  B  B11  1  0.892842  0.735869  0.628583  1
  B  B12  1  0.112425  0.111304  0.526555  1
  B  B13  1  0.584748  0.585869  0.473445  1
  B  B14  1  0.112425  0.585869  0.001121  1
  B  B15  1  0.584748  0.111304  0.998879  1
  B  B16  1  0.888696  0.887575  0.473445  1
  B  B17  1  0.414131  0.415252  0.526555  1
  B  B18  1  0.888696  0.415252  0.001121  1
  B  B19  1  0.414131  0.887575  0.998879  1
  Ir  Ir20  1  0.260246  0.500697  0.759549  1
  Ir  Ir21  1  0.741149  0.500697  0.240451  1
  Ir  Ir22  1  0.499303  0.739754  0.240451  1
  Ir  Ir23  1  0.499303  0.258851  0.759549  1
