# generated using pymatgen
data_La2Pr3Bi3C
_symmetry_space_group_name_H-M   'P 1'
_cell_length_a   9.58330038
_cell_length_b   9.58330099
_cell_length_c   6.81043200
_cell_angle_alpha   90.00000000
_cell_angle_beta   90.00000000
_cell_angle_gamma   120.03221068
_symmetry_Int_Tables_number   1
_chemical_formula_structural   La2Pr3Bi3C
_chemical_formula_sum   'La4 Pr6 Bi6 C2'
_cell_volume   541.49502262
_cell_formula_units_Z   2
loop_
 _symmetry_equiv_pos_site_id
 _symmetry_equiv_pos_as_xyz
  1  'x, y, z'
loop_
 _atom_site_type_symbol
 _atom_site_label
 _atom_site_symmetry_multiplicity
 _atom_site_fract_x
 _atom_site_fract_y
 _atom_site_fract_z
 _atom_site_occupancy
  La  La0  1  0.786894  0.786894  0.750000  1
  La  La1  1  0.212138  0.999629  0.750000  1
  La  La2  1  0.999629  0.212138  0.750000  1
  La  La3  1  0.212600  0.212600  0.250000  1
  Pr  Pr4  1  0.666836  0.333427  0.999992  1
  Pr  Pr5  1  0.333427  0.666836  0.999992  1
  Pr  Pr6  1  0.333427  0.666836  0.500008  1
  Pr  Pr7  1  0.666836  0.333427  0.500008  1
  Pr  Pr8  1  0.787383  0.999784  0.250000  1
  Pr  Pr9  1  0.999784  0.787383  0.250000  1
  Bi  Bi10  1  0.403054  0.403054  0.750000  1
  Bi  Bi11  1  0.597018  0.999980  0.750000  1
  Bi  Bi12  1  0.999980  0.597018  0.750000  1
  Bi  Bi13  1  0.598806  0.598806  0.250000  1
  Bi  Bi14  1  0.402339  0.999325  0.250000  1
  Bi  Bi15  1  0.999325  0.402339  0.250000  1
  C  C16  1  0.000263  0.000263  0.999926  1
  C  C17  1  0.000263  0.000263  0.500074  1
