# generated using pymatgen
data_Sm3Y5(SBr6)2
_symmetry_space_group_name_H-M   'P 1'
_cell_length_a   4.01521900
_cell_length_b   13.08475371
_cell_length_c   13.85322800
_cell_angle_alpha   89.86063516
_cell_angle_beta   90.00000000
_cell_angle_gamma   90.00000000
_symmetry_Int_Tables_number   1
_chemical_formula_structural   Sm3Y5(SBr6)2
_chemical_formula_sum   'Sm3 Y5 S2 Br12'
_cell_volume   727.82084110
_cell_formula_units_Z   1
loop_
 _symmetry_equiv_pos_site_id
 _symmetry_equiv_pos_as_xyz
  1  'x, y, z'
loop_
 _atom_site_type_symbol
 _atom_site_label
 _atom_site_symmetry_multiplicity
 _atom_site_fract_x
 _atom_site_fract_y
 _atom_site_fract_z
 _atom_site_occupancy
  Sm  Sm0  1  0.000000  0.115490  0.576748  1
  Sm  Sm1  1  0.000000  0.884735  0.422809  1
  Sm  Sm2  1  0.000000  0.613900  0.923980  1
  Y  Y3  1  0.500000  0.116397  0.344549  1
  Y  Y4  1  0.500000  0.883981  0.655208  1
  Y  Y5  1  0.500000  0.615737  0.154854  1
  Y  Y6  1  0.500000  0.384187  0.845142  1
  Y  Y7  1  0.000000  0.386055  0.075925  1
  S  S8  1  0.500000  0.000114  0.499746  1
  S  S9  1  0.500000  0.496959  0.001988  1
  Br  Br10  1  0.500000  0.246762  0.162004  1
  Br  Br11  1  0.500000  0.757690  0.836434  1
  Br  Br12  1  0.500000  0.740775  0.335624  1
  Br  Br13  1  0.500000  0.258577  0.664790  1
  Br  Br14  1  0.000000  0.258821  0.409608  1
  Br  Br15  1  0.000000  0.741537  0.589934  1
  Br  Br16  1  0.000000  0.758073  0.089615  1
  Br  Br17  1  0.000000  0.243027  0.914118  1
  Br  Br18  1  0.000000  0.003806  0.239152  1
  Br  Br19  1  0.000000  0.997056  0.760392  1
  Br  Br20  1  0.000000  0.499222  0.257387  1
  Br  Br21  1  0.000000  0.497098  0.739992  1
