# generated using pymatgen
data_Th(Ga2Pt)2
_symmetry_space_group_name_H-M   'P 1'
_cell_length_a   4.42142000
_cell_length_b   6.69646100
_cell_length_c   17.39916700
_cell_angle_alpha   90.00000000
_cell_angle_beta   90.00000000
_cell_angle_gamma   90.00000000
_symmetry_Int_Tables_number   1
_chemical_formula_structural   Th(Ga2Pt)2
_chemical_formula_sum   'Th4 Ga16 Pt8'
_cell_volume   515.15221539
_cell_formula_units_Z   4
loop_
 _symmetry_equiv_pos_site_id
 _symmetry_equiv_pos_as_xyz
  1  'x, y, z'
loop_
 _atom_site_type_symbol
 _atom_site_label
 _atom_site_symmetry_multiplicity
 _atom_site_fract_x
 _atom_site_fract_y
 _atom_site_fract_z
 _atom_site_occupancy
  Th  Th0  1  0.750000  0.989993  0.639206  1
  Th  Th1  1  0.250000  0.010007  0.360794  1
  Th  Th2  1  0.250000  0.489993  0.860794  1
  Th  Th3  1  0.750000  0.510007  0.139206  1
  Ga  Ga4  1  0.250000  0.279378  0.689010  1
  Ga  Ga5  1  0.750000  0.720622  0.310990  1
  Ga  Ga6  1  0.750000  0.779378  0.810990  1
  Ga  Ga7  1  0.250000  0.220622  0.189010  1
  Ga  Ga8  1  0.250000  0.675819  0.682840  1
  Ga  Ga9  1  0.750000  0.324181  0.317160  1
  Ga  Ga10  1  0.750000  0.175819  0.817160  1
  Ga  Ga11  1  0.250000  0.824181  0.182840  1
  Ga  Ga12  1  0.250000  0.164320  0.536189  1
  Ga  Ga13  1  0.750000  0.835680  0.463811  1
  Ga  Ga14  1  0.750000  0.664320  0.963811  1
  Ga  Ga15  1  0.250000  0.335680  0.036189  1
  Ga  Ga16  1  0.250000  0.485729  0.430106  1
  Ga  Ga17  1  0.750000  0.514271  0.569894  1
  Ga  Ga18  1  0.750000  0.985729  0.069894  1
  Ga  Ga19  1  0.250000  0.014271  0.930106  1
  Pt  Pt20  1  0.250000  0.754966  0.535846  1
  Pt  Pt21  1  0.750000  0.245034  0.464154  1
  Pt  Pt22  1  0.750000  0.254966  0.964154  1
  Pt  Pt23  1  0.250000  0.745034  0.035846  1
  Pt  Pt24  1  0.250000  0.972930  0.782772  1
  Pt  Pt25  1  0.750000  0.027070  0.217228  1
  Pt  Pt26  1  0.750000  0.472930  0.717228  1
  Pt  Pt27  1  0.250000  0.527070  0.282772  1
