# generated using pymatgen
data_VCrSb2F20
_symmetry_space_group_name_H-M   'P 1'
_cell_length_a   5.62353148
_cell_length_b   7.49789274
_cell_length_c   10.00450767
_cell_angle_alpha   88.40068678
_cell_angle_beta   105.78847279
_cell_angle_gamma   98.96000241
_symmetry_Int_Tables_number   1
_chemical_formula_structural   VCrSb2F20
_chemical_formula_sum   'V1 Cr1 Sb2 F20'
_cell_volume   400.92191660
_cell_formula_units_Z   1
loop_
 _symmetry_equiv_pos_site_id
 _symmetry_equiv_pos_as_xyz
  1  'x, y, z'
loop_
 _atom_site_type_symbol
 _atom_site_label
 _atom_site_symmetry_multiplicity
 _atom_site_fract_x
 _atom_site_fract_y
 _atom_site_fract_z
 _atom_site_occupancy
  V  V0  1  0.341220  0.388099  0.222165  1
  Cr  Cr1  1  0.656939  0.607343  0.776265  1
  Sb  Sb2  1  0.964628  0.765263  0.313542  1
  Sb  Sb3  1  0.035943  0.235581  0.686468  1
  F  F4  1  0.044079  0.264537  0.171855  1
  F  F5  1  0.950557  0.734980  0.828137  1
  F  F6  1  0.491594  0.237863  0.160864  1
  F  F7  1  0.514738  0.761251  0.839117  1
  F  F8  1  0.111968  0.229943  0.882807  1
  F  F9  1  0.886751  0.768104  0.117245  1
  F  F10  1  0.965417  0.288577  0.495376  1
  F  F11  1  0.035873  0.713260  0.504819  1
  F  F12  1  0.758441  0.050568  0.662411  1
  F  F13  1  0.243040  0.949180  0.335670  1
  F  F14  1  0.269262  0.083368  0.678876  1
  F  F15  1  0.733098  0.918891  0.321201  1
  F  F16  1  0.308412  0.450817  0.712636  1
  F  F17  1  0.688556  0.552325  0.289214  1
  F  F18  1  0.812828  0.417265  0.696446  1
  F  F19  1  0.185435  0.581835  0.303795  1
  F  F20  1  0.690616  0.462092  0.915075  1
  F  F21  1  0.309499  0.539660  0.083837  1
  F  F22  1  0.580082  0.668000  0.605038  1
  F  F23  1  0.421026  0.331199  0.397143  1
