# generated using pymatgen
data_Ca5BiPt2
_symmetry_space_group_name_H-M   'P 1'
_cell_length_a   9.26645066
_cell_length_b   9.26645148
_cell_length_c   9.26645187
_cell_angle_alpha   129.92135841
_cell_angle_beta   129.92136382
_cell_angle_gamma   73.53251440
_symmetry_Int_Tables_number   1
_chemical_formula_structural   Ca5BiPt2
_chemical_formula_sum   'Ca10 Bi2 Pt4'
_cell_volume   456.72213400
_cell_formula_units_Z   2
loop_
 _symmetry_equiv_pos_site_id
 _symmetry_equiv_pos_as_xyz
  1  'x, y, z'
loop_
 _atom_site_type_symbol
 _atom_site_label
 _atom_site_symmetry_multiplicity
 _atom_site_fract_x
 _atom_site_fract_y
 _atom_site_fract_z
 _atom_site_occupancy
  Ca  Ca0  1  0.000000  0.000000  0.000000  1
  Ca  Ca1  1  0.500000  0.500000  0.000000  1
  Ca  Ca2  1  0.800037  0.300037  0.836649  1
  Ca  Ca3  1  0.199963  0.699963  0.163351  1
  Ca  Ca4  1  0.463388  0.963388  0.163351  1
  Ca  Ca5  1  0.300037  0.463388  0.500000  1
  Ca  Ca6  1  0.036612  0.199963  0.500000  1
  Ca  Ca7  1  0.536612  0.036612  0.836649  1
  Ca  Ca8  1  0.699963  0.536612  0.500000  1
  Ca  Ca9  1  0.963388  0.800037  0.500000  1
  Bi  Bi10  1  0.250000  0.250000  0.000000  1
  Bi  Bi11  1  0.750000  0.750000  0.000000  1
  Pt  Pt12  1  0.127095  0.627095  0.754191  1
  Pt  Pt13  1  0.872905  0.372905  0.245809  1
  Pt  Pt14  1  0.627095  0.872905  0.500000  1
  Pt  Pt15  1  0.372905  0.127095  0.500000  1
