# generated using pymatgen
data_Tm5P12Ir4Ru15
_symmetry_space_group_name_H-M   'P 1'
_cell_length_a   12.52558600
_cell_length_b   12.52558592
_cell_length_c   3.95875900
_cell_angle_alpha   90.00000000
_cell_angle_beta   90.00000000
_cell_angle_gamma   120.00000550
_symmetry_Int_Tables_number   1
_chemical_formula_structural   Tm5P12Ir4Ru15
_chemical_formula_sum   'Tm5 P12 Ir4 Ru15'
_cell_volume   537.88046885
_cell_formula_units_Z   1
loop_
 _symmetry_equiv_pos_site_id
 _symmetry_equiv_pos_as_xyz
  1  'x, y, z'
loop_
 _atom_site_type_symbol
 _atom_site_label
 _atom_site_symmetry_multiplicity
 _atom_site_fract_x
 _atom_site_fract_y
 _atom_site_fract_z
 _atom_site_occupancy
  Tm  Tm0  1  0.333333  0.666667  0.000000  1
  Tm  Tm1  1  0.666667  0.333333  0.000000  1
  Tm  Tm2  1  0.813452  0.999639  0.500000  1
  Tm  Tm3  1  0.000361  0.813812  0.500000  1
  Tm  Tm4  1  0.186188  0.186548  0.500000  1
  P  P5  1  0.182100  0.997058  0.000000  1
  P  P6  1  0.002942  0.185042  0.000000  1
  P  P7  1  0.814958  0.817900  0.000000  1
  P  P8  1  0.172363  0.479124  0.500000  1
  P  P9  1  0.520876  0.693240  0.500000  1
  P  P10  1  0.306760  0.827637  0.500000  1
  P  P11  1  0.687502  0.518495  0.500000  1
  P  P12  1  0.830992  0.312498  0.500000  1
  P  P13  1  0.481505  0.169008  0.500000  1
  P  P14  1  0.626398  0.995849  0.000000  1
  P  P15  1  0.004151  0.630548  0.000000  1
  P  P16  1  0.369452  0.373602  0.000000  1
  Ir  Ir17  1  0.812940  0.627641  0.000000  1
  Ir  Ir18  1  0.814701  0.187060  0.000000  1
  Ir  Ir19  1  0.372359  0.185299  0.000000  1
  Ir  Ir20  1  0.000000  0.000000  0.000000  1
  Ru  Ru21  1  0.449828  0.006439  0.000000  1
  Ru  Ru22  1  0.993561  0.443389  0.000000  1
  Ru  Ru23  1  0.556611  0.550172  0.000000  1
  Ru  Ru24  1  0.366143  0.491035  0.500000  1
  Ru  Ru25  1  0.508965  0.875107  0.500000  1
  Ru  Ru26  1  0.124893  0.633857  0.500000  1
  Ru  Ru27  1  0.869623  0.509229  0.500000  1
  Ru  Ru28  1  0.639605  0.130377  0.500000  1
  Ru  Ru29  1  0.490771  0.360395  0.500000  1
  Ru  Ru30  1  0.182888  0.378054  0.000000  1
  Ru  Ru31  1  0.621946  0.804835  0.000000  1
  Ru  Ru32  1  0.195165  0.817112  0.000000  1
  Ru  Ru33  1  0.283753  0.001691  0.500000  1
  Ru  Ru34  1  0.998309  0.282062  0.500000  1
  Ru  Ru35  1  0.717938  0.716247  0.500000  1
