# generated using pymatgen
data_Tb5Ce3Ho2(SiB4)4
_symmetry_space_group_name_H-M   'P 1'
_cell_length_a   7.26805539
_cell_length_b   7.26805519
_cell_length_c   8.18866501
_cell_angle_alpha   89.99332986
_cell_angle_beta   89.99332608
_cell_angle_gamma   90.06066897
_symmetry_Int_Tables_number   1
_chemical_formula_structural   Tb5Ce3Ho2(SiB4)4
_chemical_formula_sum   'Tb5 Ce3 Ho2 Si4 B16'
_cell_volume   432.56293214
_cell_formula_units_Z   1
loop_
 _symmetry_equiv_pos_site_id
 _symmetry_equiv_pos_as_xyz
  1  'x, y, z'
loop_
 _atom_site_type_symbol
 _atom_site_label
 _atom_site_symmetry_multiplicity
 _atom_site_fract_x
 _atom_site_fract_y
 _atom_site_fract_z
 _atom_site_occupancy
  Tb  Tb0  1  0.819862  0.679983  0.221744  1
  Tb  Tb1  1  0.819740  0.680294  0.778137  1
  Tb  Tb2  1  0.681497  0.181497  0.777844  1
  Tb  Tb3  1  0.180294  0.319740  0.778137  1
  Tb  Tb4  1  0.179983  0.319862  0.221744  1
  Ce  Ce5  1  0.681712  0.181712  0.228303  1
  Ce  Ce6  1  0.317555  0.817555  0.771564  1
  Ce  Ce7  1  0.318468  0.818468  0.229031  1
  Ho  Ho8  1  0.999235  0.000886  0.500466  1
  Ho  Ho9  1  0.500886  0.499235  0.500466  1
  Si  Si10  1  0.114058  0.614058  0.500603  1
  Si  Si11  1  0.884371  0.384371  0.500759  1
  Si  Si12  1  0.385304  0.115199  0.501129  1
  Si  Si13  1  0.615199  0.885304  0.501129  1
  B  B14  1  0.172350  0.038596  0.998895  1
  B  B15  1  0.827383  0.961655  0.999513  1
  B  B16  1  0.959703  0.172228  0.999229  1
  B  B17  1  0.328537  0.539701  0.999008  1
  B  B18  1  0.039701  0.828537  0.999008  1
  B  B19  1  0.672228  0.459703  0.999229  1
  B  B20  1  0.538596  0.672350  0.998895  1
  B  B21  1  0.461655  0.327383  0.999513  1
  B  B22  1  0.091587  0.591587  0.999132  1
  B  B23  1  0.908697  0.408697  0.000709  1
  B  B24  1  0.409743  0.090547  0.999636  1
  B  B25  1  0.590547  0.909743  0.999636  1
  B  B26  1  0.999766  0.000166  0.159540  1
  B  B27  1  0.000813  0.000365  0.838731  1
  B  B28  1  0.500365  0.500813  0.838731  1
  B  B29  1  0.500166  0.499766  0.159540  1
