# generated using pymatgen
data_Tb3PaAl14(Ga2Ir3)2
_symmetry_space_group_name_H-M   'P 1'
_cell_length_a   7.57294316
_cell_length_b   7.56622299
_cell_length_c   9.50068500
_cell_angle_alpha   90.00000000
_cell_angle_beta   90.00000000
_cell_angle_gamma   119.56764918
_symmetry_Int_Tables_number   1
_chemical_formula_structural   Tb3PaAl14(Ga2Ir3)2
_chemical_formula_sum   'Tb3 Pa1 Al14 Ga4 Ir6'
_cell_volume   473.48368281
_cell_formula_units_Z   1
loop_
 _symmetry_equiv_pos_site_id
 _symmetry_equiv_pos_as_xyz
  1  'x, y, z'
loop_
 _atom_site_type_symbol
 _atom_site_label
 _atom_site_symmetry_multiplicity
 _atom_site_fract_x
 _atom_site_fract_y
 _atom_site_fract_z
 _atom_site_occupancy
  Tb  Tb0  1  0.004870  0.329259  0.750000  1
  Tb  Tb1  1  0.674354  0.995166  0.250000  1
  Tb  Tb2  1  0.329480  0.004329  0.750000  1
  Pa  Pa3  1  0.996815  0.674290  0.250000  1
  Al  Al4  1  0.000817  0.333119  0.074622  1
  Al  Al5  1  0.997579  0.664403  0.923385  1
  Al  Al6  1  0.997579  0.664403  0.576615  1
  Al  Al7  1  0.339176  0.003761  0.425234  1
  Al  Al8  1  0.000817  0.333119  0.425378  1
  Al  Al9  1  0.665057  0.998538  0.573431  1
  Al  Al10  1  0.665057  0.998538  0.926569  1
  Al  Al11  1  0.339176  0.003761  0.074766  1
  Al  Al12  1  0.333107  0.333159  0.553689  1
  Al  Al13  1  0.662660  0.665110  0.443022  1
  Al  Al14  1  0.662660  0.665110  0.056978  1
  Al  Al15  1  0.333107  0.333159  0.946311  1
  Al  Al16  1  0.337001  0.547537  0.250000  1
  Al  Al17  1  0.548116  0.339482  0.250000  1
  Ga  Ga18  1  0.137155  0.136422  0.250000  1
  Ga  Ga19  1  0.871482  0.873256  0.750000  1
  Ga  Ga20  1  0.657787  0.449961  0.750000  1
  Ga  Ga21  1  0.450383  0.659903  0.750000  1
  Ir  Ir22  1  0.673005  0.330185  0.003954  1
  Ir  Ir23  1  0.325947  0.670972  0.004134  1
  Ir  Ir24  1  0.325947  0.670972  0.495866  1
  Ir  Ir25  1  0.673005  0.330185  0.496046  1
  Ir  Ir26  1  0.998930  0.995949  0.003270  1
  Ir  Ir27  1  0.998930  0.995949  0.496730  1
