# generated using pymatgen
data_Dy2Lu2Ga17SiIr6
_symmetry_space_group_name_H-M   'P 1'
_cell_length_a   7.57226915
_cell_length_b   7.55000158
_cell_length_c   9.45252504
_cell_angle_alpha   90.06762819
_cell_angle_beta   89.81291437
_cell_angle_gamma   119.94454796
_symmetry_Int_Tables_number   1
_chemical_formula_structural   Dy2Lu2Ga17SiIr6
_chemical_formula_sum   'Dy2 Lu2 Ga17 Si1 Ir6'
_cell_volume   468.26487224
_cell_formula_units_Z   1
loop_
 _symmetry_equiv_pos_site_id
 _symmetry_equiv_pos_as_xyz
  1  'x, y, z'
loop_
 _atom_site_type_symbol
 _atom_site_label
 _atom_site_symmetry_multiplicity
 _atom_site_fract_x
 _atom_site_fract_y
 _atom_site_fract_z
 _atom_site_occupancy
  Dy  Dy0  1  0.673568  0.002031  0.248362  1
  Dy  Dy1  1  0.330680  0.002567  0.749827  1
  Lu  Lu2  1  0.997190  0.664631  0.248225  1
  Lu  Lu3  1  0.002665  0.331173  0.751510  1
  Ga  Ga4  1  0.129472  0.128274  0.250807  1
  Ga  Ga5  1  0.873089  0.874742  0.750688  1
  Ga  Ga6  1  0.999175  0.669901  0.917293  1
  Ga  Ga7  1  0.000601  0.664982  0.580612  1
  Ga  Ga8  1  0.332764  0.997088  0.418451  1
  Ga  Ga9  1  0.999515  0.335531  0.420149  1
  Ga  Ga10  1  0.666353  0.001273  0.581350  1
  Ga  Ga11  1  0.659833  0.995827  0.916721  1
  Ga  Ga12  1  0.332396  0.996837  0.082413  1
  Ga  Ga13  1  0.331442  0.331743  0.565788  1
  Ga  Ga14  1  0.669432  0.668944  0.433814  1
  Ga  Ga15  1  0.669051  0.669190  0.068334  1
  Ga  Ga16  1  0.337122  0.332523  0.932750  1
  Ga  Ga17  1  0.340545  0.546312  0.251444  1
  Ga  Ga18  1  0.661846  0.452481  0.751065  1
  Ga  Ga19  1  0.548068  0.340191  0.250525  1
  Ga  Ga20  1  0.451064  0.658642  0.750413  1
  Si  Si21  1  0.999602  0.335096  0.073338  1
  Ir  Ir22  1  0.684185  0.329651  0.003305  1
  Ir  Ir23  1  0.313344  0.656825  0.001633  1
  Ir  Ir24  1  0.327687  0.671066  0.500278  1
  Ir  Ir25  1  0.671755  0.328506  0.499980  1
  Ir  Ir26  1  0.998183  0.013799  0.001260  1
  Ir  Ir27  1  0.999370  0.000172  0.499666  1
