# generated using pymatgen
data_La5CoIrO12
_symmetry_space_group_name_H-M   'P 1'
_cell_length_a   7.13310607
_cell_length_b   7.13310570
_cell_length_c   7.73543902
_cell_angle_alpha   74.37792685
_cell_angle_beta   74.37792982
_cell_angle_gamma   50.38991241
_symmetry_Int_Tables_number   1
_chemical_formula_structural   La5CoIrO12
_chemical_formula_sum   'La5 Co1 Ir1 O12'
_cell_volume   289.48184071
_cell_formula_units_Z   1
loop_
 _symmetry_equiv_pos_site_id
 _symmetry_equiv_pos_as_xyz
  1  'x, y, z'
loop_
 _atom_site_type_symbol
 _atom_site_label
 _atom_site_symmetry_multiplicity
 _atom_site_fract_x
 _atom_site_fract_y
 _atom_site_fract_z
 _atom_site_occupancy
  La  La0  1  0.327375  0.291240  0.354267  1
  La  La1  1  0.708760  0.672625  0.645733  1
  La  La2  1  0.696237  0.686649  0.164098  1
  La  La3  1  0.313351  0.303763  0.835902  1
  La  La4  1  0.005997  0.994003  0.500000  1
  Co  Co5  1  0.742772  0.257228  0.000000  1
  Ir  Ir6  1  0.230666  0.769334  0.000000  1
  O  O7  1  0.104357  0.593004  0.575039  1
  O  O8  1  0.982045  0.017332  0.161026  1
  O  O9  1  0.406996  0.895643  0.424961  1
  O  O10  1  0.495197  0.506855  0.164877  1
  O  O11  1  0.102194  0.588851  0.078261  1
  O  O12  1  0.916951  0.394698  0.419212  1
  O  O13  1  0.982668  0.017955  0.838974  1
  O  O14  1  0.605302  0.083048  0.580788  1
  O  O15  1  0.493145  0.504803  0.835123  1
  O  O16  1  0.576660  0.101822  0.078211  1
  O  O17  1  0.411149  0.897806  0.921739  1
  O  O18  1  0.898178  0.423340  0.921789  1
