# generated using pymatgen
data_Ce4Tm11LuTl2(CdRu2)2
_symmetry_space_group_name_H-M   'P 1'
_cell_length_a   9.53845337
_cell_length_b   9.53845304
_cell_length_c   9.53817500
_cell_angle_alpha   60.00096079
_cell_angle_beta   60.00096193
_cell_angle_gamma   60.00970405
_symmetry_Int_Tables_number   1
_chemical_formula_structural   Ce4Tm11LuTl2(CdRu2)2
_chemical_formula_sum   'Ce4 Tm11 Lu1 Tl2 Cd2 Ru4'
_cell_volume   613.68335958
_cell_formula_units_Z   1
loop_
 _symmetry_equiv_pos_site_id
 _symmetry_equiv_pos_as_xyz
  1  'x, y, z'
loop_
 _atom_site_type_symbol
 _atom_site_label
 _atom_site_symmetry_multiplicity
 _atom_site_fract_x
 _atom_site_fract_y
 _atom_site_fract_z
 _atom_site_occupancy
  Ce  Ce0  1  0.346811  0.346791  0.960177  1
  Ce  Ce1  1  0.347890  0.959137  0.346426  1
  Ce  Ce2  1  0.959269  0.347843  0.346350  1
  Ce  Ce3  1  0.348339  0.347835  0.347542  1
  Tm  Tm4  1  0.938766  0.562342  0.935113  1
  Tm  Tm5  1  0.562422  0.936989  0.937398  1
  Tm  Tm6  1  0.940029  0.935873  0.561466  1
  Tm  Tm7  1  0.562081  0.935271  0.562091  1
  Tm  Tm8  1  0.937161  0.561914  0.562385  1
  Tm  Tm9  1  0.187606  0.188500  0.811869  1
  Tm  Tm10  1  0.811576  0.187880  0.812257  1
  Tm  Tm11  1  0.186608  0.812393  0.812826  1
  Tm  Tm12  1  0.812124  0.812591  0.187616  1
  Tm  Tm13  1  0.187161  0.811861  0.188527  1
  Tm  Tm14  1  0.811235  0.188387  0.188705  1
  Lu  Lu15  1  0.562108  0.561472  0.936116  1
  Tl  Tl16  1  0.582398  0.586439  0.247133  1
  Tl  Tl17  1  0.582432  0.246755  0.587221  1
  Cd  Cd18  1  0.251139  0.583728  0.584207  1
  Cd  Cd19  1  0.580285  0.583181  0.584292  1
  Ru  Ru20  1  0.144948  0.145110  0.567760  1
  Ru  Ru21  1  0.145944  0.567140  0.144534  1
  Ru  Ru22  1  0.567306  0.146166  0.144407  1
  Ru  Ru23  1  0.144358  0.144405  0.143582  1
