# generated using pymatgen
data_SrIn6Ag7
_symmetry_space_group_name_H-M   'P 1'
_cell_length_a   9.71447900
_cell_length_b   9.71447885
_cell_length_c   13.70582400
_cell_angle_alpha   90.00000000
_cell_angle_beta   90.00000000
_cell_angle_gamma   90.03536428
_symmetry_Int_Tables_number   1
_chemical_formula_structural   SrIn6Ag7
_chemical_formula_sum   'Sr4 In24 Ag28'
_cell_volume   1293.43345172
_cell_formula_units_Z   4
loop_
 _symmetry_equiv_pos_site_id
 _symmetry_equiv_pos_as_xyz
  1  'x, y, z'
loop_
 _atom_site_type_symbol
 _atom_site_label
 _atom_site_symmetry_multiplicity
 _atom_site_fract_x
 _atom_site_fract_y
 _atom_site_fract_z
 _atom_site_occupancy
  Sr  Sr0  1  0.752389  0.247611  0.500000  1
  Sr  Sr1  1  0.247611  0.752389  0.500000  1
  Sr  Sr2  1  0.247611  0.752389  0.000000  1
  Sr  Sr3  1  0.752389  0.247611  0.000000  1
  In  In4  1  0.379952  0.117552  0.434352  1
  In  In5  1  0.117552  0.379952  0.434352  1
  In  In6  1  0.117552  0.379952  0.065648  1
  In  In7  1  0.614834  0.614834  0.429355  1
  In  In8  1  0.787873  0.045757  0.250000  1
  In  In9  1  0.882448  0.620048  0.934352  1
  In  In10  1  0.588561  0.315484  0.750000  1
  In  In11  1  0.620048  0.882448  0.565648  1
  In  In12  1  0.684517  0.411439  0.250000  1
  In  In13  1  0.614834  0.614834  0.070645  1
  In  In14  1  0.937908  0.937908  0.882793  1
  In  In15  1  0.062092  0.062092  0.382793  1
  In  In16  1  0.379952  0.117552  0.065648  1
  In  In17  1  0.620048  0.882448  0.934352  1
  In  In18  1  0.954243  0.212127  0.750000  1
  In  In19  1  0.385166  0.385166  0.929355  1
  In  In20  1  0.045757  0.787873  0.250000  1
  In  In21  1  0.212127  0.954243  0.750000  1
  In  In22  1  0.385166  0.385166  0.570645  1
  In  In23  1  0.315483  0.588561  0.750000  1
  In  In24  1  0.937908  0.937908  0.617207  1
  In  In25  1  0.062092  0.062092  0.117207  1
  In  In26  1  0.882448  0.620048  0.565648  1
  In  In27  1  0.411439  0.684516  0.250000  1
  Ag  Ag28  1  0.583980  0.583980  0.862535  1
  Ag  Ag29  1  0.051948  0.708379  0.750000  1
  Ag  Ag30  1  0.909417  0.557499  0.363163  1
  Ag  Ag31  1  0.763793  0.763793  0.750000  1
  Ag  Ag32  1  0.909417  0.557499  0.136837  1
  Ag  Ag33  1  0.735749  0.735749  0.250000  1
  Ag  Ag34  1  0.857096  0.857096  0.076723  1
  Ag  Ag35  1  0.416020  0.416020  0.362535  1
  Ag  Ag36  1  0.857096  0.857096  0.423277  1
  Ag  Ag37  1  0.169353  0.524862  0.250000  1
  Ag  Ag38  1  0.830647  0.475138  0.750000  1
  Ag  Ag39  1  0.442501  0.090583  0.636837  1
  Ag  Ag40  1  0.557499  0.909417  0.363163  1
  Ag  Ag41  1  0.708379  0.051948  0.750000  1
  Ag  Ag42  1  0.291621  0.948052  0.250000  1
  Ag  Ag43  1  0.557499  0.909417  0.136837  1
  Ag  Ag44  1  0.090583  0.442501  0.636837  1
  Ag  Ag45  1  0.236207  0.236207  0.250000  1
  Ag  Ag46  1  0.442501  0.090583  0.863163  1
  Ag  Ag47  1  0.475138  0.830647  0.750000  1
  Ag  Ag48  1  0.090583  0.442501  0.863163  1
  Ag  Ag49  1  0.948052  0.291621  0.250000  1
  Ag  Ag50  1  0.416020  0.416020  0.137465  1
  Ag  Ag51  1  0.524862  0.169353  0.250000  1
  Ag  Ag52  1  0.583980  0.583980  0.637465  1
  Ag  Ag53  1  0.142904  0.142904  0.923277  1
  Ag  Ag54  1  0.142904  0.142904  0.576723  1
  Ag  Ag55  1  0.264251  0.264251  0.750000  1
