# generated using pymatgen
data_Th5Sn3Os
_symmetry_space_group_name_H-M   'P 1'
_cell_length_a   9.64165300
_cell_length_b   9.64165101
_cell_length_c   6.48087500
_cell_angle_alpha   90.00000000
_cell_angle_beta   90.00000000
_cell_angle_gamma   119.99999654
_symmetry_Int_Tables_number   1
_chemical_formula_structural   Th5Sn3Os
_chemical_formula_sum   'Th10 Sn6 Os2'
_cell_volume   521.75569351
_cell_formula_units_Z   2
loop_
 _symmetry_equiv_pos_site_id
 _symmetry_equiv_pos_as_xyz
  1  'x, y, z'
loop_
 _atom_site_type_symbol
 _atom_site_label
 _atom_site_symmetry_multiplicity
 _atom_site_fract_x
 _atom_site_fract_y
 _atom_site_fract_z
 _atom_site_occupancy
  Th  Th0  1  0.000000  0.752477  0.750000  1
  Th  Th1  1  0.247523  0.247523  0.750000  1
  Th  Th2  1  0.333333  0.666667  0.500000  1
  Th  Th3  1  0.666667  0.333333  0.500000  1
  Th  Th4  1  0.752477  0.752477  0.250000  1
  Th  Th5  1  0.752477  0.000000  0.750000  1
  Th  Th6  1  0.000000  0.247523  0.250000  1
  Th  Th7  1  0.247523  0.000000  0.250000  1
  Th  Th8  1  0.333333  0.666667  0.000000  1
  Th  Th9  1  0.666667  0.333333  0.000000  1
  Sn  Sn10  1  0.604592  0.604592  0.750000  1
  Sn  Sn11  1  0.000000  0.395408  0.750000  1
  Sn  Sn12  1  0.395408  0.000000  0.750000  1
  Sn  Sn13  1  0.604592  0.000000  0.250000  1
  Sn  Sn14  1  0.395408  0.395408  0.250000  1
  Sn  Sn15  1  0.000000  0.604592  0.250000  1
  Os  Os16  1  0.000000  0.000000  0.000000  1
  Os  Os17  1  0.000000  0.000000  0.500000  1
