# generated using pymatgen
data_TaMn3Cr3NiP4
_symmetry_space_group_name_H-M   'P 1'
_cell_length_a   3.58266100
_cell_length_b   5.89298170
_cell_length_c   6.74147376
_cell_angle_alpha   89.53803928
_cell_angle_beta   90.00000000
_cell_angle_gamma   90.00000000
_symmetry_Int_Tables_number   1
_chemical_formula_structural   TaMn3Cr3NiP4
_chemical_formula_sum   'Ta1 Mn3 Cr3 Ni1 P4'
_cell_volume   142.32511402
_cell_formula_units_Z   1
loop_
 _symmetry_equiv_pos_site_id
 _symmetry_equiv_pos_as_xyz
  1  'x, y, z'
loop_
 _atom_site_type_symbol
 _atom_site_label
 _atom_site_symmetry_multiplicity
 _atom_site_fract_x
 _atom_site_fract_y
 _atom_site_fract_z
 _atom_site_occupancy
  Ta  Ta0  1  0.750000  0.474780  0.673266  1
  Mn  Mn1  1  0.250000  0.639902  0.944209  1
  Mn  Mn2  1  0.750000  0.852640  0.438261  1
  Mn  Mn3  1  0.250000  0.147995  0.552173  1
  Cr  Cr4  1  0.750000  0.970398  0.824935  1
  Cr  Cr5  1  0.250000  0.542800  0.326511  1
  Cr  Cr6  1  0.250000  0.016822  0.172903  1
  Ni  Ni7  1  0.750000  0.353148  0.067717  1
  P  P8  1  0.250000  0.782844  0.629421  1
  P  P9  1  0.750000  0.225568  0.368222  1
  P  P10  1  0.250000  0.252103  0.879827  1
  P  P11  1  0.750000  0.740998  0.122556  1
