# generated using pymatgen
data_Sb2IrRhS2
_symmetry_space_group_name_H-M   'P 1'
_cell_length_a   6.10457000
_cell_length_b   6.10511509
_cell_length_c   6.10504109
_cell_angle_alpha   90.09471281
_cell_angle_beta   90.00000000
_cell_angle_gamma   90.00000000
_symmetry_Int_Tables_number   1
_chemical_formula_structural   Sb2IrRhS2
_chemical_formula_sum   'Sb4 Ir2 Rh2 S4'
_cell_volume   227.52909047
_cell_formula_units_Z   2
loop_
 _symmetry_equiv_pos_site_id
 _symmetry_equiv_pos_as_xyz
  1  'x, y, z'
loop_
 _atom_site_type_symbol
 _atom_site_label
 _atom_site_symmetry_multiplicity
 _atom_site_fract_x
 _atom_site_fract_y
 _atom_site_fract_z
 _atom_site_occupancy
  Sb  Sb0  1  0.877744  0.377349  0.120300  1
  Sb  Sb1  1  0.377744  0.122651  0.879700  1
  Sb  Sb2  1  0.122116  0.878191  0.376119  1
  Sb  Sb3  1  0.622116  0.621809  0.623881  1
  Ir  Ir4  1  0.513046  0.013444  0.488471  1
  Ir  Ir5  1  0.013046  0.486556  0.511529  1
  Rh  Rh6  1  0.486759  0.513145  0.014737  1
  Rh  Rh7  1  0.986759  0.986855  0.985263  1
  S  S8  1  0.117448  0.614863  0.879981  1
  S  S9  1  0.617448  0.885137  0.120019  1
  S  S10  1  0.882887  0.119221  0.614757  1
  S  S11  1  0.382887  0.380779  0.385243  1
