# generated using pymatgen
data_Gd4Sb3Rh7Pb3
_symmetry_space_group_name_H-M   'P 1'
_cell_length_a   7.71738289
_cell_length_b   7.69129042
_cell_length_c   7.69129100
_cell_angle_alpha   109.40239520
_cell_angle_beta   109.53995721
_cell_angle_gamma   109.53996100
_symmetry_Int_Tables_number   1
_chemical_formula_structural   Gd4Sb3Rh7Pb3
_chemical_formula_sum   'Gd4 Sb3 Rh7 Pb3'
_cell_volume   351.13771763
_cell_formula_units_Z   1
loop_
 _symmetry_equiv_pos_site_id
 _symmetry_equiv_pos_as_xyz
  1  'x, y, z'
loop_
 _atom_site_type_symbol
 _atom_site_label
 _atom_site_symmetry_multiplicity
 _atom_site_fract_x
 _atom_site_fract_y
 _atom_site_fract_z
 _atom_site_occupancy
  Gd  Gd0  1  0.467512  0.000000  0.000000  1
  Gd  Gd1  1  0.999514  0.511734  0.000000  1
  Gd  Gd2  1  0.999514  0.000000  0.511734  1
  Gd  Gd3  1  0.487780  0.488266  0.488266  1
  Sb  Sb4  1  0.989598  0.664239  0.664239  1
  Sb  Sb5  1  0.325360  0.000000  0.335761  1
  Sb  Sb6  1  0.325360  0.335761  0.000000  1
  Rh  Rh7  1  0.052889  0.000000  0.000000  1
  Rh  Rh8  1  0.500519  0.754866  0.255211  1
  Rh  Rh9  1  0.745653  0.500347  0.245134  1
  Rh  Rh10  1  0.245307  0.744789  0.499653  1
  Rh  Rh11  1  0.245307  0.499653  0.744789  1
  Rh  Rh12  1  0.500519  0.255211  0.754866  1
  Rh  Rh13  1  0.745653  0.245134  0.500347  1
  Pb  Pb14  1  0.984886  0.292571  0.292571  1
  Pb  Pb15  1  0.692315  0.000000  0.707429  1
  Pb  Pb16  1  0.692315  0.707429  0.000000  1
