# generated using pymatgen
data_Zr3Sc(UTc3)2
_symmetry_space_group_name_H-M   'P 1'
_cell_length_a   5.62451500
_cell_length_b   5.62451536
_cell_length_c   8.08363700
_cell_angle_alpha   90.00000000
_cell_angle_beta   90.00000000
_cell_angle_gamma   120.00000377
_symmetry_Int_Tables_number   1
_chemical_formula_structural   Zr3Sc(UTc3)2
_chemical_formula_sum   'Zr3 Sc1 U2 Tc6'
_cell_volume   221.46627686
_cell_formula_units_Z   1
loop_
 _symmetry_equiv_pos_site_id
 _symmetry_equiv_pos_as_xyz
  1  'x, y, z'
loop_
 _atom_site_type_symbol
 _atom_site_label
 _atom_site_symmetry_multiplicity
 _atom_site_fract_x
 _atom_site_fract_y
 _atom_site_fract_z
 _atom_site_occupancy
  Zr  Zr0  1  0.333333  0.666667  0.441214  1
  Zr  Zr1  1  0.666667  0.333333  0.558687  1
  Zr  Zr2  1  0.666667  0.333333  0.942746  1
  Sc  Sc3  1  0.333333  0.666667  0.057165  1
  U  U4  1  0.000000  0.000000  0.499540  1
  U  U5  1  0.000000  0.000000  0.999803  1
  Tc  Tc6  1  0.832410  0.167590  0.251161  1
  Tc  Tc7  1  0.832410  0.664820  0.251161  1
  Tc  Tc8  1  0.335180  0.167590  0.251161  1
  Tc  Tc9  1  0.167119  0.832881  0.749121  1
  Tc  Tc10  1  0.167119  0.334236  0.749121  1
  Tc  Tc11  1  0.665764  0.832881  0.749121  1
