# generated using pymatgen
data_Ta6MnVS12
_symmetry_space_group_name_H-M   'P 1'
_cell_length_a   5.79033600
_cell_length_b   5.79033680
_cell_length_c   12.43416200
_cell_angle_alpha   90.00000000
_cell_angle_beta   90.00000000
_cell_angle_gamma   119.99999541
_symmetry_Int_Tables_number   1
_chemical_formula_structural   Ta6MnVS12
_chemical_formula_sum   'Ta6 Mn1 V1 S12'
_cell_volume   361.03953778
_cell_formula_units_Z   1
loop_
 _symmetry_equiv_pos_site_id
 _symmetry_equiv_pos_as_xyz
  1  'x, y, z'
loop_
 _atom_site_type_symbol
 _atom_site_label
 _atom_site_symmetry_multiplicity
 _atom_site_fract_x
 _atom_site_fract_y
 _atom_site_fract_z
 _atom_site_occupancy
  Ta  Ta0  1  0.000000  0.000000  0.502229  1
  Ta  Ta1  1  0.000000  0.000000  0.997771  1
  Ta  Ta2  1  0.333333  0.666667  0.997243  1
  Ta  Ta3  1  0.666667  0.333333  0.999987  1
  Ta  Ta4  1  0.666667  0.333333  0.500013  1
  Ta  Ta5  1  0.333333  0.666667  0.502757  1
  Mn  Mn6  1  0.333333  0.666667  0.250000  1
  V  V7  1  0.666667  0.333333  0.750000  1
  S  S8  1  0.331254  0.329115  0.374925  1
  S  S9  1  0.670885  0.002139  0.374925  1
  S  S10  1  0.997861  0.668746  0.374925  1
  S  S11  1  0.334937  0.333083  0.627987  1
  S  S12  1  0.998145  0.665063  0.627987  1
  S  S13  1  0.666917  0.001855  0.627987  1
  S  S14  1  0.666917  0.665063  0.872013  1
  S  S15  1  0.334937  0.001855  0.872013  1
  S  S16  1  0.998145  0.333083  0.872013  1
  S  S17  1  0.670885  0.668746  0.125075  1
  S  S18  1  0.997861  0.329115  0.125075  1
  S  S19  1  0.331254  0.002139  0.125075  1
