# generated using pymatgen
data_AcNi5As3
_symmetry_space_group_name_H-M   'P 1'
_cell_length_a   6.39347677
_cell_length_b   6.39347677
_cell_length_c   11.94588700
_cell_angle_alpha   90.00000000
_cell_angle_beta   90.00000000
_cell_angle_gamma   145.21050065
_symmetry_Int_Tables_number   1
_chemical_formula_structural   AcNi5As3
_chemical_formula_sum   'Ac2 Ni10 As6'
_cell_volume   278.60970479
_cell_formula_units_Z   2
loop_
 _symmetry_equiv_pos_site_id
 _symmetry_equiv_pos_as_xyz
  1  'x, y, z'
loop_
 _atom_site_type_symbol
 _atom_site_label
 _atom_site_symmetry_multiplicity
 _atom_site_fract_x
 _atom_site_fract_y
 _atom_site_fract_z
 _atom_site_occupancy
  Ac  Ac0  1  0.164786  0.835214  0.250000  1
  Ac  Ac1  1  0.835214  0.164786  0.750000  1
  Ni  Ni2  1  0.193702  0.806298  0.932081  1
  Ni  Ni3  1  0.806298  0.193702  0.432081  1
  Ni  Ni4  1  0.000000  0.000000  0.000000  1
  Ni  Ni5  1  0.000000  0.000000  0.500000  1
  Ni  Ni6  1  0.547122  0.452878  0.646091  1
  Ni  Ni7  1  0.452878  0.547122  0.353909  1
  Ni  Ni8  1  0.452878  0.547122  0.146091  1
  Ni  Ni9  1  0.193702  0.806298  0.567919  1
  Ni  Ni10  1  0.806298  0.193702  0.067919  1
  Ni  Ni11  1  0.547122  0.452878  0.853909  1
  As  As12  1  0.620631  0.379369  0.462261  1
  As  As13  1  0.112854  0.887146  0.750000  1
  As  As14  1  0.620631  0.379369  0.037739  1
  As  As15  1  0.379369  0.620631  0.962261  1
  As  As16  1  0.887146  0.112854  0.250000  1
  As  As17  1  0.379369  0.620631  0.537739  1
