# generated using pymatgen
data_HoTm7(AlRu)8
_symmetry_space_group_name_H-M   'P 1'
_cell_length_a   4.05104300
_cell_length_b   6.93635012
_cell_length_c   15.83318542
_cell_angle_alpha   89.95427198
_cell_angle_beta   90.00000000
_cell_angle_gamma   90.00000000
_symmetry_Int_Tables_number   1
_chemical_formula_structural   HoTm7(AlRu)8
_chemical_formula_sum   'Ho1 Tm7 Al8 Ru8'
_cell_volume   444.90370142
_cell_formula_units_Z   1
loop_
 _symmetry_equiv_pos_site_id
 _symmetry_equiv_pos_as_xyz
  1  'x, y, z'
loop_
 _atom_site_type_symbol
 _atom_site_label
 _atom_site_symmetry_multiplicity
 _atom_site_fract_x
 _atom_site_fract_y
 _atom_site_fract_z
 _atom_site_occupancy
  Ho  Ho0  1  0.250000  0.537438  0.719168  1
  Tm  Tm1  1  0.750000  0.962371  0.218980  1
  Tm  Tm2  1  0.250000  0.158024  0.563473  1
  Tm  Tm3  1  0.750000  0.844063  0.435619  1
  Tm  Tm4  1  0.750000  0.462414  0.281020  1
  Tm  Tm5  1  0.750000  0.342310  0.064150  1
  Tm  Tm6  1  0.250000  0.655806  0.936515  1
  Tm  Tm7  1  0.250000  0.037519  0.781439  1
  Al  Al8  1  0.750000  0.502896  0.565364  1
  Al  Al9  1  0.750000  0.364704  0.848997  1
  Al  Al10  1  0.750000  0.000535  0.934524  1
  Al  Al11  1  0.750000  0.867356  0.651100  1
  Al  Al12  1  0.250000  0.499196  0.433698  1
  Al  Al13  1  0.250000  0.997155  0.066443  1
  Al  Al14  1  0.250000  0.633391  0.151788  1
  Al  Al15  1  0.250000  0.134431  0.348266  1
  Ru  Ru16  1  0.750000  0.748223  0.812635  1
  Ru  Ru17  1  0.250000  0.235931  0.937897  1
  Ru  Ru18  1  0.750000  0.263501  0.437518  1
  Ru  Ru19  1  0.250000  0.753451  0.312584  1
  Ru  Ru20  1  0.750000  0.761693  0.062674  1
  Ru  Ru21  1  0.750000  0.246312  0.686981  1
  Ru  Ru22  1  0.250000  0.252388  0.187355  1
  Ru  Ru23  1  0.250000  0.738892  0.561811  1
