# generated using pymatgen
data_K2TmOsO6
_symmetry_space_group_name_H-M   'P 1'
_cell_length_a   5.83312463
_cell_length_b   5.83312005
_cell_length_c   5.83308600
_cell_angle_alpha   60.00021852
_cell_angle_beta   60.00027276
_cell_angle_gamma   90.00059002
_symmetry_Int_Tables_number   1
_chemical_formula_structural   K2TmOsO6
_chemical_formula_sum   'K2 Tm1 Os1 O6'
_cell_volume   140.34163803
_cell_formula_units_Z   1
loop_
 _symmetry_equiv_pos_site_id
 _symmetry_equiv_pos_as_xyz
  1  'x, y, z'
loop_
 _atom_site_type_symbol
 _atom_site_label
 _atom_site_symmetry_multiplicity
 _atom_site_fract_x
 _atom_site_fract_y
 _atom_site_fract_z
 _atom_site_occupancy
  K  K0  1  0.250001  0.750001  0.499999  1
  K  K1  1  0.750001  0.249999  0.500002  1
  Tm  Tm2  1  0.500001  0.499996  0.999999  1
  Os  Os3  1  0.000002  0.999999  0.999993  1
  O  O4  1  0.230997  0.230996  0.000002  1
  O  O5  1  0.768992  0.231008  0.000001  1
  O  O6  1  0.231005  0.768994  0.000000  1
  O  O7  1  0.769003  0.769004  0.999998  1
  O  O8  1  0.768998  0.768999  0.462004  1
  O  O9  1  0.230998  0.231000  0.538003  1
