# generated using pymatgen
data_V3GaCuN
_symmetry_space_group_name_H-M   'P 1'
_cell_length_a   6.50157100
_cell_length_b   6.50157100
_cell_length_c   6.50157100
_cell_angle_alpha   90.00000000
_cell_angle_beta   90.00000000
_cell_angle_gamma   90.00000000
_symmetry_Int_Tables_number   1
_chemical_formula_structural   V3GaCuN
_chemical_formula_sum   'V12 Ga4 Cu4 N4'
_cell_volume   274.82417238
_cell_formula_units_Z   4
loop_
 _symmetry_equiv_pos_site_id
 _symmetry_equiv_pos_as_xyz
  1  'x, y, z'
loop_
 _atom_site_type_symbol
 _atom_site_label
 _atom_site_symmetry_multiplicity
 _atom_site_fract_x
 _atom_site_fract_y
 _atom_site_fract_z
 _atom_site_occupancy
  V  V0  1  0.788198  0.961032  0.374813  1
  V  V1  1  0.711802  0.038968  0.874813  1
  V  V2  1  0.211802  0.461032  0.125187  1
  V  V3  1  0.288198  0.538968  0.625187  1
  V  V4  1  0.961032  0.374813  0.788198  1
  V  V5  1  0.038968  0.874813  0.711802  1
  V  V6  1  0.461032  0.125187  0.211802  1
  V  V7  1  0.538968  0.625187  0.288198  1
  V  V8  1  0.374813  0.788198  0.961032  1
  V  V9  1  0.874813  0.711802  0.038968  1
  V  V10  1  0.125187  0.211802  0.461032  1
  V  V11  1  0.625187  0.288198  0.538968  1
  Ga  Ga12  1  0.573539  0.426461  0.926461  1
  Ga  Ga13  1  0.426461  0.926461  0.573539  1
  Ga  Ga14  1  0.926461  0.573539  0.426461  1
  Ga  Ga15  1  0.073539  0.073539  0.073539  1
  Cu  Cu16  1  0.178568  0.821432  0.321432  1
  Cu  Cu17  1  0.321432  0.178568  0.821432  1
  Cu  Cu18  1  0.821432  0.321432  0.178568  1
  Cu  Cu19  1  0.678568  0.678568  0.678568  1
  N  N20  1  0.876511  0.123489  0.623489  1
  N  N21  1  0.623489  0.876511  0.123489  1
  N  N22  1  0.123489  0.623489  0.876511  1
  N  N23  1  0.376511  0.376511  0.376511  1
