# generated using pymatgen
data_Y3Th11(TcOs2)2
_symmetry_space_group_name_H-M   'P 1'
_cell_length_a   9.87310751
_cell_length_b   9.97596918
_cell_length_c   6.39800560
_cell_angle_alpha   89.95235049
_cell_angle_beta   90.09780181
_cell_angle_gamma   120.25647335
_symmetry_Int_Tables_number   1
_chemical_formula_structural   Y3Th11(TcOs2)2
_chemical_formula_sum   'Y3 Th11 Tc2 Os4'
_cell_volume   544.32136294
_cell_formula_units_Z   1
loop_
 _symmetry_equiv_pos_site_id
 _symmetry_equiv_pos_as_xyz
  1  'x, y, z'
loop_
 _atom_site_type_symbol
 _atom_site_label
 _atom_site_symmetry_multiplicity
 _atom_site_fract_x
 _atom_site_fract_y
 _atom_site_fract_z
 _atom_site_occupancy
  Y  Y0  1  0.461172  0.535354  0.295301  1
  Y  Y1  1  0.073940  0.535560  0.299614  1
  Y  Y2  1  0.926302  0.462149  0.797296  1
  Th  Th3  1  0.251747  0.127697  0.510308  1
  Th  Th4  1  0.542720  0.080753  0.797448  1
  Th  Th5  1  0.748139  0.873074  0.013307  1
  Th  Th6  1  0.667817  0.334981  0.272190  1
  Th  Th7  1  0.123509  0.869259  0.009427  1
  Th  Th8  1  0.462451  0.921738  0.298057  1
  Th  Th9  1  0.537890  0.465769  0.798718  1
  Th  Th10  1  0.875625  0.129527  0.511248  1
  Th  Th11  1  0.121980  0.251068  0.013015  1
  Th  Th12  1  0.874754  0.749677  0.510381  1
  Th  Th13  1  0.332345  0.664742  0.769276  1
  Tc  Tc14  1  0.811742  0.635479  0.045628  1
  Tc  Tc15  1  0.811872  0.175041  0.047149  1
  Os  Os16  1  0.628927  0.814202  0.547751  1
  Os  Os17  1  0.370557  0.186438  0.044550  1
  Os  Os18  1  0.187156  0.368706  0.556788  1
  Os  Os19  1  0.189353  0.818786  0.546545  1
