# generated using pymatgen
data_Ba2SrInP3
_symmetry_space_group_name_H-M   'P 1'
_cell_length_a   13.37016000
_cell_length_b   4.46992400
_cell_length_c   14.43577000
_cell_angle_alpha   90.00000000
_cell_angle_beta   90.00000000
_cell_angle_gamma   90.00000000
_symmetry_Int_Tables_number   1
_chemical_formula_structural   Ba2SrInP3
_chemical_formula_sum   'Ba8 Sr4 In4 P12'
_cell_volume   862.73357052
_cell_formula_units_Z   4
loop_
 _symmetry_equiv_pos_site_id
 _symmetry_equiv_pos_as_xyz
  1  'x, y, z'
loop_
 _atom_site_type_symbol
 _atom_site_label
 _atom_site_symmetry_multiplicity
 _atom_site_fract_x
 _atom_site_fract_y
 _atom_site_fract_z
 _atom_site_occupancy
  Ba  Ba0  1  0.572315  0.250001  0.392493  1
  Ba  Ba1  1  0.927685  0.750001  0.892493  1
  Ba  Ba2  1  0.072314  0.250001  0.107507  1
  Ba  Ba3  1  0.427685  0.750001  0.607507  1
  Ba  Ba4  1  0.355565  0.250001  0.001516  1
  Ba  Ba5  1  0.144435  0.750001  0.501516  1
  Ba  Ba6  1  0.855565  0.250001  0.498484  1
  Ba  Ba7  1  0.644435  0.750001  0.998484  1
  Sr  Sr8  1  0.273809  0.250001  0.291054  1
  Sr  Sr9  1  0.226191  0.750001  0.791054  1
  Sr  Sr10  1  0.773809  0.250001  0.208946  1
  Sr  Sr11  1  0.726191  0.750001  0.708946  1
  In  In12  1  0.554126  0.250001  0.796702  1
  In  In13  1  0.945874  0.750001  0.296702  1
  In  In14  1  0.054126  0.250001  0.703298  1
  In  In15  1  0.445873  0.750001  0.203298  1
  P  P16  1  0.737909  0.250001  0.864976  1
  P  P17  1  0.762091  0.750001  0.364977  1
  P  P18  1  0.237910  0.250001  0.635024  1
  P  P19  1  0.262090  0.750001  0.135023  1
  P  P20  1  0.045047  0.250001  0.350863  1
  P  P21  1  0.454953  0.750001  0.850863  1
  P  P22  1  0.545047  0.250001  0.149137  1
  P  P23  1  0.954953  0.750001  0.649137  1
  P  P24  1  0.600503  0.250001  0.619239  1
  P  P25  1  0.899498  0.750001  0.119239  1
  P  P26  1  0.100502  0.250001  0.880761  1
  P  P27  1  0.399499  0.750001  0.380761  1
