# generated using pymatgen
data_Dy4ReTcOs6
_symmetry_space_group_name_H-M   'P 1'
_cell_length_a   5.27279482
_cell_length_b   5.27279646
_cell_length_c   8.92159900
_cell_angle_alpha   90.00000000
_cell_angle_beta   90.00000000
_cell_angle_gamma   117.55617237
_symmetry_Int_Tables_number   1
_chemical_formula_structural   Dy4ReTcOs6
_chemical_formula_sum   'Dy4 Re1 Tc1 Os6'
_cell_volume   219.90322066
_cell_formula_units_Z   1
loop_
 _symmetry_equiv_pos_site_id
 _symmetry_equiv_pos_as_xyz
  1  'x, y, z'
loop_
 _atom_site_type_symbol
 _atom_site_label
 _atom_site_symmetry_multiplicity
 _atom_site_fract_x
 _atom_site_fract_y
 _atom_site_fract_z
 _atom_site_occupancy
  Dy  Dy0  1  0.330556  0.669444  0.435395  1
  Dy  Dy1  1  0.666645  0.333355  0.563980  1
  Dy  Dy2  1  0.666645  0.333355  0.936020  1
  Dy  Dy3  1  0.330556  0.669444  0.064605  1
  Re  Re4  1  0.831272  0.168728  0.250000  1
  Tc  Tc5  1  0.176431  0.823569  0.750000  1
  Os  Os6  1  0.995324  0.004676  0.500073  1
  Os  Os7  1  0.995324  0.004676  0.999927  1
  Os  Os8  1  0.829350  0.652653  0.250000  1
  Os  Os9  1  0.347347  0.170650  0.250000  1
  Os  Os10  1  0.170931  0.340384  0.750000  1
  Os  Os11  1  0.659616  0.829069  0.750000  1
