# generated using pymatgen
data_Y6Pd7Rh
_symmetry_space_group_name_H-M   'P 1'
_cell_length_a   7.87035808
_cell_length_b   7.87035874
_cell_length_c   7.87035786
_cell_angle_alpha   114.18444725
_cell_angle_beta   114.18444393
_cell_angle_gamma   114.18444922
_symmetry_Int_Tables_number   1
_chemical_formula_structural   Y6Pd7Rh
_chemical_formula_sum   'Y6 Pd7 Rh1'
_cell_volume   292.09263168
_cell_formula_units_Z   1
loop_
 _symmetry_equiv_pos_site_id
 _symmetry_equiv_pos_as_xyz
  1  'x, y, z'
loop_
 _atom_site_type_symbol
 _atom_site_label
 _atom_site_symmetry_multiplicity
 _atom_site_fract_x
 _atom_site_fract_y
 _atom_site_fract_z
 _atom_site_occupancy
  Y  Y0  1  0.399363  0.024263  0.272472  1
  Y  Y1  1  0.024263  0.272472  0.399363  1
  Y  Y2  1  0.272472  0.399363  0.024263  1
  Y  Y3  1  0.600637  0.975737  0.727528  1
  Y  Y4  1  0.975737  0.727528  0.600637  1
  Y  Y5  1  0.727528  0.600637  0.975737  1
  Pd  Pd6  1  0.500000  0.500000  0.500000  1
  Pd  Pd7  1  0.228956  0.063260  0.550688  1
  Pd  Pd8  1  0.063260  0.550688  0.228956  1
  Pd  Pd9  1  0.550688  0.228956  0.063260  1
  Pd  Pd10  1  0.771044  0.936740  0.449312  1
  Pd  Pd11  1  0.936740  0.449312  0.771044  1
  Pd  Pd12  1  0.449312  0.771044  0.936740  1
  Rh  Rh13  1  0.000000  0.000000  0.000000  1
