# generated using pymatgen
data_PrLu19HgBi11
_symmetry_space_group_name_H-M   'P 1'
_cell_length_a   8.10619945
_cell_length_b   9.38957000
_cell_length_c   11.79014500
_cell_angle_alpha   90.00000000
_cell_angle_beta   89.69026538
_cell_angle_gamma   90.00000000
_symmetry_Int_Tables_number   1
_chemical_formula_structural   PrLu19HgBi11
_chemical_formula_sum   'Pr1 Lu19 Hg1 Bi11'
_cell_volume   897.37876689
_cell_formula_units_Z   1
loop_
 _symmetry_equiv_pos_site_id
 _symmetry_equiv_pos_as_xyz
  1  'x, y, z'
loop_
 _atom_site_type_symbol
 _atom_site_label
 _atom_site_symmetry_multiplicity
 _atom_site_fract_x
 _atom_site_fract_y
 _atom_site_fract_z
 _atom_site_occupancy
  Pr  Pr0  1  0.313462  0.750000  0.281249  1
  Lu  Lu1  1  0.033849  0.250000  0.508680  1
  Lu  Lu2  1  0.979712  0.750000  0.491103  1
  Lu  Lu3  1  0.477375  0.750000  0.009655  1
  Lu  Lu4  1  0.524130  0.250000  0.990096  1
  Lu  Lu5  1  0.352537  0.250000  0.289494  1
  Lu  Lu6  1  0.650311  0.750000  0.719448  1
  Lu  Lu7  1  0.149708  0.750000  0.782130  1
  Lu  Lu8  1  0.851572  0.250000  0.215144  1
  Lu  Lu9  1  0.194495  0.250000  0.780313  1
  Lu  Lu10  1  0.808634  0.750000  0.215825  1
  Lu  Lu11  1  0.680078  0.250000  0.711414  1
  Lu  Lu12  1  0.192395  0.067588  0.060101  1
  Lu  Lu13  1  0.807213  0.932738  0.940889  1
  Lu  Lu14  1  0.308008  0.945894  0.560271  1
  Lu  Lu15  1  0.807213  0.567262  0.940889  1
  Lu  Lu16  1  0.686483  0.071140  0.443858  1
  Lu  Lu17  1  0.192395  0.432412  0.060101  1
  Lu  Lu18  1  0.686483  0.428860  0.443858  1
  Lu  Lu19  1  0.308008  0.554106  0.560271  1
  Hg  Hg20  1  0.404418  0.250000  0.540587  1
  Bi  Bi21  1  0.601931  0.750000  0.462088  1
  Bi  Bi22  1  0.094425  0.750000  0.040854  1
  Bi  Bi23  1  0.903409  0.250000  0.953088  1
  Bi  Bi24  1  0.054424  0.005520  0.323177  1
  Bi  Bi25  1  0.937568  0.998152  0.676747  1
  Bi  Bi26  1  0.437236  0.996485  0.825742  1
  Bi  Bi27  1  0.937568  0.501848  0.676747  1
  Bi  Bi28  1  0.566653  0.006885  0.173634  1
  Bi  Bi29  1  0.054424  0.494480  0.323177  1
  Bi  Bi30  1  0.566653  0.493115  0.173634  1
  Bi  Bi31  1  0.437236  0.503515  0.825742  1
