# generated using pymatgen
data_NdBi(TeO4)2
_symmetry_space_group_name_H-M   'P 1'
_cell_length_a   7.12146695
_cell_length_b   7.12146597
_cell_length_c   10.34499220
_cell_angle_alpha   66.72269037
_cell_angle_beta   66.72269378
_cell_angle_gamma   47.33642593
_symmetry_Int_Tables_number   1
_chemical_formula_structural   NdBi(TeO4)2
_chemical_formula_sum   'Nd2 Bi2 Te4 O16'
_cell_volume   348.03841418
_cell_formula_units_Z   2
loop_
 _symmetry_equiv_pos_site_id
 _symmetry_equiv_pos_as_xyz
  1  'x, y, z'
loop_
 _atom_site_type_symbol
 _atom_site_label
 _atom_site_symmetry_multiplicity
 _atom_site_fract_x
 _atom_site_fract_y
 _atom_site_fract_z
 _atom_site_occupancy
  Nd  Nd0  1  0.057904  0.942096  0.500000  1
  Nd  Nd1  1  0.948084  0.051916  0.000000  1
  Bi  Bi2  1  0.671067  0.776280  0.901709  1
  Bi  Bi3  1  0.223720  0.328933  0.098291  1
  Te  Te4  1  0.506077  0.499472  0.749528  1
  Te  Te5  1  0.500528  0.493923  0.250472  1
  Te  Te6  1  0.366568  0.190916  0.624521  1
  Te  Te7  1  0.809084  0.633432  0.375479  1
  O  O8  1  0.790832  0.354076  0.590898  1
  O  O9  1  0.645924  0.209168  0.409102  1
  O  O10  1  0.200161  0.648464  0.903379  1
  O  O11  1  0.351536  0.799839  0.096621  1
  O  O12  1  0.716575  0.483409  0.835820  1
  O  O13  1  0.516591  0.283425  0.164180  1
  O  O14  1  0.295969  0.492964  0.661851  1
  O  O15  1  0.507036  0.704031  0.338149  1
  O  O16  1  0.908862  0.718224  0.162592  1
  O  O17  1  0.281776  0.091138  0.837408  1
  O  O18  1  0.078256  0.282383  0.346512  1
  O  O19  1  0.717617  0.921744  0.653488  1
  O  O20  1  0.155265  0.649661  0.367481  1
  O  O21  1  0.350339  0.844735  0.632519  1
  O  O22  1  0.842283  0.362254  0.125339  1
  O  O23  1  0.637746  0.157717  0.874661  1
