# generated using pymatgen
data_Sr5Ac2Yb(Si3Pd)4
_symmetry_space_group_name_H-M   'P 1'
_cell_length_a   8.38847600
_cell_length_b   8.41505987
_cell_length_c   9.05355700
_cell_angle_alpha   90.00000000
_cell_angle_beta   90.00000000
_cell_angle_gamma   119.89556116
_symmetry_Int_Tables_number   1
_chemical_formula_structural   Sr5Ac2Yb(Si3Pd)4
_chemical_formula_sum   'Sr5 Ac2 Yb1 Si12 Pd4'
_cell_volume   554.04652617
_cell_formula_units_Z   1
loop_
 _symmetry_equiv_pos_site_id
 _symmetry_equiv_pos_as_xyz
  1  'x, y, z'
loop_
 _atom_site_type_symbol
 _atom_site_label
 _atom_site_symmetry_multiplicity
 _atom_site_fract_x
 _atom_site_fract_y
 _atom_site_fract_z
 _atom_site_occupancy
  Sr  Sr0  1  0.499570  0.500329  0.750000  1
  Sr  Sr1  1  0.500460  0.499580  0.250000  1
  Sr  Sr2  1  0.000761  0.500329  0.750000  1
  Sr  Sr3  1  0.999119  0.499580  0.250000  1
  Sr  Sr4  1  0.499631  0.999261  0.750000  1
  Ac  Ac5  1  0.000041  0.000081  0.750000  1
  Ac  Ac6  1  0.999986  0.999972  0.250000  1
  Yb  Yb7  1  0.500314  0.000628  0.250000  1
  Si  Si8  1  0.833063  0.164056  0.003533  1
  Si  Si9  1  0.166913  0.835924  0.003567  1
  Si  Si10  1  0.330993  0.164056  0.003533  1
  Si  Si11  1  0.166913  0.835924  0.496433  1
  Si  Si12  1  0.669011  0.835924  0.003567  1
  Si  Si13  1  0.833063  0.164056  0.496467  1
  Si  Si14  1  0.834321  0.668643  0.000720  1
  Si  Si15  1  0.669011  0.835924  0.496433  1
  Si  Si16  1  0.165699  0.331397  0.001077  1
  Si  Si17  1  0.330993  0.164056  0.496467  1
  Si  Si18  1  0.165699  0.331397  0.498923  1
  Si  Si19  1  0.834321  0.668643  0.499280  1
  Pd  Pd20  1  0.665213  0.330424  0.003942  1
  Pd  Pd21  1  0.334846  0.669693  0.006153  1
  Pd  Pd22  1  0.334846  0.669693  0.493847  1
  Pd  Pd23  1  0.665213  0.330424  0.496058  1
