# generated using pymatgen
data_Lu10Ag3Os
_symmetry_space_group_name_H-M   'P 1'
_cell_length_a   9.26814900
_cell_length_b   9.26814783
_cell_length_c   9.48734800
_cell_angle_alpha   90.00000000
_cell_angle_beta   90.00000000
_cell_angle_gamma   119.99999345
_symmetry_Int_Tables_number   1
_chemical_formula_structural   Lu10Ag3Os
_chemical_formula_sum   'Lu20 Ag6 Os2'
_cell_volume   705.76716749
_cell_formula_units_Z   2
loop_
 _symmetry_equiv_pos_site_id
 _symmetry_equiv_pos_as_xyz
  1  'x, y, z'
loop_
 _atom_site_type_symbol
 _atom_site_label
 _atom_site_symmetry_multiplicity
 _atom_site_fract_x
 _atom_site_fract_y
 _atom_site_fract_z
 _atom_site_occupancy
  Lu  Lu0  1  0.000000  0.000000  0.500000  1
  Lu  Lu1  1  0.000000  0.000000  0.000000  1
  Lu  Lu2  1  0.208839  0.791161  0.443419  1
  Lu  Lu3  1  0.208839  0.417677  0.443419  1
  Lu  Lu4  1  0.582323  0.791161  0.443419  1
  Lu  Lu5  1  0.791161  0.208839  0.556581  1
  Lu  Lu6  1  0.791161  0.582323  0.556581  1
  Lu  Lu7  1  0.417677  0.208839  0.556581  1
  Lu  Lu8  1  0.791161  0.208839  0.943419  1
  Lu  Lu9  1  0.791161  0.582323  0.943419  1
  Lu  Lu10  1  0.417677  0.208839  0.943419  1
  Lu  Lu11  1  0.208839  0.791161  0.056581  1
  Lu  Lu12  1  0.208839  0.417677  0.056581  1
  Lu  Lu13  1  0.582323  0.791161  0.056581  1
  Lu  Lu14  1  0.539647  0.460353  0.250000  1
  Lu  Lu15  1  0.539647  0.079292  0.250000  1
  Lu  Lu16  1  0.920708  0.460353  0.250000  1
  Lu  Lu17  1  0.460353  0.539647  0.750000  1
  Lu  Lu18  1  0.460353  0.920708  0.750000  1
  Lu  Lu19  1  0.079292  0.539647  0.750000  1
  Ag  Ag20  1  0.883467  0.116533  0.250000  1
  Ag  Ag21  1  0.883467  0.766935  0.250000  1
  Ag  Ag22  1  0.233065  0.116533  0.250000  1
  Ag  Ag23  1  0.116533  0.883467  0.750000  1
  Ag  Ag24  1  0.116533  0.233065  0.750000  1
  Ag  Ag25  1  0.766935  0.883467  0.750000  1
  Os  Os26  1  0.333333  0.666667  0.250000  1
  Os  Os27  1  0.666667  0.333333  0.750000  1
