# generated using pymatgen
data_YbTh3(CoB4)4
_symmetry_space_group_name_H-M   'P 1'
_cell_length_a   6.91226915
_cell_length_b   6.91226852
_cell_length_c   6.91226899
_cell_angle_alpha   112.43986184
_cell_angle_beta   112.43985638
_cell_angle_gamma   103.68436501
_symmetry_Int_Tables_number   1
_chemical_formula_structural   YbTh3(CoB4)4
_chemical_formula_sum   'Yb1 Th3 Co4 B16'
_cell_volume   252.31926451
_cell_formula_units_Z   1
loop_
 _symmetry_equiv_pos_site_id
 _symmetry_equiv_pos_as_xyz
  1  'x, y, z'
loop_
 _atom_site_type_symbol
 _atom_site_label
 _atom_site_symmetry_multiplicity
 _atom_site_fract_x
 _atom_site_fract_y
 _atom_site_fract_z
 _atom_site_occupancy
  Yb  Yb0  1  0.250000  0.750000  0.500000  1
  Th  Th1  1  0.214242  0.214242  0.000000  1
  Th  Th2  1  0.785758  0.785758  0.000000  1
  Th  Th3  1  0.750000  0.250000  0.500000  1
  Co  Co4  1  0.501071  0.270834  0.769763  1
  Co  Co5  1  0.501071  0.731308  0.230237  1
  Co  Co6  1  0.729166  0.498929  0.230237  1
  Co  Co7  1  0.268692  0.498929  0.769763  1
  B  B8  1  0.111746  0.277244  0.389378  1
  B  B9  1  0.887866  0.722368  0.610622  1
  B  B10  1  0.887866  0.277244  0.165499  1
  B  B11  1  0.111746  0.722368  0.834501  1
  B  B12  1  0.722756  0.888254  0.610622  1
  B  B13  1  0.277632  0.112134  0.389378  1
  B  B14  1  0.722756  0.112134  0.834501  1
  B  B15  1  0.277632  0.888254  0.165499  1
  B  B16  1  0.416675  0.418324  0.535937  1
  B  B17  1  0.882387  0.880738  0.464063  1
  B  B18  1  0.581676  0.117613  0.998351  1
  B  B19  1  0.119262  0.583325  0.001649  1
  B  B20  1  0.581676  0.583325  0.464063  1
  B  B21  1  0.119262  0.117613  0.535937  1
  B  B22  1  0.882387  0.418324  0.001649  1
  B  B23  1  0.416675  0.880738  0.998351  1
