# generated using pymatgen
data_Sm4DyY3(ReB6)4
_symmetry_space_group_name_H-M   'P 1'
_cell_length_a   3.71329600
_cell_length_b   9.23341700
_cell_length_c   11.66385101
_cell_angle_alpha   90.00351468
_cell_angle_beta   90.00000000
_cell_angle_gamma   90.00000000
_symmetry_Int_Tables_number   1
_chemical_formula_structural   Sm4DyY3(ReB6)4
_chemical_formula_sum   'Sm4 Dy1 Y3 Re4 B24'
_cell_volume   399.91158200
_cell_formula_units_Z   1
loop_
 _symmetry_equiv_pos_site_id
 _symmetry_equiv_pos_as_xyz
  1  'x, y, z'
loop_
 _atom_site_type_symbol
 _atom_site_label
 _atom_site_symmetry_multiplicity
 _atom_site_fract_x
 _atom_site_fract_y
 _atom_site_fract_z
 _atom_site_occupancy
  Sm  Sm0  1  0.000000  0.823288  0.085969  1
  Sm  Sm1  1  0.000000  0.176689  0.914047  1
  Sm  Sm2  1  0.000000  0.323352  0.414012  1
  Sm  Sm3  1  0.000000  0.676657  0.585984  1
  Dy  Dy4  1  0.000000  0.442620  0.130278  1
  Y  Y5  1  0.000000  0.557273  0.869908  1
  Y  Y6  1  0.000000  0.942723  0.369873  1
  Y  Y7  1  0.000000  0.057291  0.630122  1
  Re  Re8  1  0.000000  0.138596  0.179774  1
  Re  Re9  1  0.000000  0.861634  0.820187  1
  Re  Re10  1  0.000000  0.638243  0.320087  1
  Re  Re11  1  0.000000  0.361646  0.679784  1
  B  B12  1  0.500000  0.053932  0.068466  1
  B  B13  1  0.500000  0.946068  0.931533  1
  B  B14  1  0.500000  0.553935  0.431533  1
  B  B15  1  0.500000  0.446061  0.568463  1
  B  B16  1  0.500000  0.248835  0.082963  1
  B  B17  1  0.500000  0.751218  0.917132  1
  B  B18  1  0.500000  0.748773  0.417123  1
  B  B19  1  0.500000  0.251229  0.582879  1
  B  B20  1  0.500000  0.291035  0.233914  1
  B  B21  1  0.500000  0.709012  0.765973  1
  B  B22  1  0.500000  0.790984  0.265971  1
  B  B23  1  0.500000  0.209014  0.734023  1
  B  B24  1  0.500000  0.130146  0.313547  1
  B  B25  1  0.500000  0.869852  0.686456  1
  B  B26  1  0.500000  0.630024  0.186481  1
  B  B27  1  0.500000  0.369859  0.813566  1
  B  B28  1  0.500000  0.483269  0.287468  1
  B  B29  1  0.500000  0.516772  0.712411  1
  B  B30  1  0.500000  0.983235  0.212406  1
  B  B31  1  0.500000  0.016769  0.787593  1
  B  B32  1  0.500000  0.098627  0.472476  1
  B  B33  1  0.500000  0.901377  0.527514  1
  B  B34  1  0.500000  0.598521  0.027534  1
  B  B35  1  0.500000  0.401443  0.972547  1
