# generated using pymatgen
data_CaTb2Pa(Ga3Ir)6
_symmetry_space_group_name_H-M   'P 1'
_cell_length_a   7.62487442
_cell_length_b   7.60775772
_cell_length_c   9.48956100
_cell_angle_alpha   90.00000000
_cell_angle_beta   90.00000000
_cell_angle_gamma   119.76770167
_symmetry_Int_Tables_number   1
_chemical_formula_structural   CaTb2Pa(Ga3Ir)6
_chemical_formula_sum   'Ca1 Tb2 Pa1 Ga18 Ir6'
_cell_volume   477.83500692
_cell_formula_units_Z   1
loop_
 _symmetry_equiv_pos_site_id
 _symmetry_equiv_pos_as_xyz
  1  'x, y, z'
loop_
 _atom_site_type_symbol
 _atom_site_label
 _atom_site_symmetry_multiplicity
 _atom_site_fract_x
 _atom_site_fract_y
 _atom_site_fract_z
 _atom_site_occupancy
  Ca  Ca0  1  0.670160  0.997068  0.250000  1
  Tb  Tb1  1  0.002975  0.331603  0.750000  1
  Tb  Tb2  1  0.330817  0.002332  0.750000  1
  Pa  Pa3  1  0.997617  0.669309  0.250000  1
  Ga  Ga4  1  0.130536  0.129531  0.250000  1
  Ga  Ga5  1  0.872531  0.873800  0.750000  1
  Ga  Ga6  1  0.998342  0.330159  0.080326  1
  Ga  Ga7  1  0.000425  0.665081  0.917299  1
  Ga  Ga8  1  0.000425  0.665081  0.582701  1
  Ga  Ga9  1  0.339512  0.003076  0.419785  1
  Ga  Ga10  1  0.998342  0.330159  0.419674  1
  Ga  Ga11  1  0.665616  0.000777  0.579543  1
  Ga  Ga12  1  0.665616  0.000777  0.920457  1
  Ga  Ga13  1  0.339512  0.003076  0.080215  1
  Ga  Ga14  1  0.331414  0.331261  0.566089  1
  Ga  Ga15  1  0.663801  0.668440  0.435668  1
  Ga  Ga16  1  0.663801  0.668440  0.064332  1
  Ga  Ga17  1  0.331414  0.331261  0.933911  1
  Ga  Ga18  1  0.337895  0.544753  0.250000  1
  Ga  Ga19  1  0.661116  0.453072  0.750000  1
  Ga  Ga20  1  0.545457  0.341159  0.250000  1
  Ga  Ga21  1  0.453274  0.662262  0.750000  1
  Ir  Ir22  1  0.673935  0.332786  0.000730  1
  Ir  Ir23  1  0.324866  0.669765  0.001178  1
  Ir  Ir24  1  0.324866  0.669765  0.498822  1
  Ir  Ir25  1  0.673935  0.332786  0.499270  1
  Ir  Ir26  1  0.000900  0.996210  0.001916  1
  Ir  Ir27  1  0.000900  0.996210  0.498084  1
