# generated using pymatgen
data_Yb2BeCu17Si8
_symmetry_space_group_name_H-M   'P 1'
_cell_length_a   8.10230140
_cell_length_b   8.10230190
_cell_length_c   8.04668891
_cell_angle_alpha   120.48646947
_cell_angle_beta   120.48647482
_cell_angle_gamma   89.56036459
_symmetry_Int_Tables_number   1
_chemical_formula_structural   Yb2BeCu17Si8
_chemical_formula_sum   'Yb2 Be1 Cu17 Si8'
_cell_volume   369.43572641
_cell_formula_units_Z   1
loop_
 _symmetry_equiv_pos_site_id
 _symmetry_equiv_pos_as_xyz
  1  'x, y, z'
loop_
 _atom_site_type_symbol
 _atom_site_label
 _atom_site_symmetry_multiplicity
 _atom_site_fract_x
 _atom_site_fract_y
 _atom_site_fract_z
 _atom_site_occupancy
  Yb  Yb0  1  0.249999  0.250001  0.000000  1
  Yb  Yb1  1  0.750001  0.749999  0.000000  1
  Be  Be2  1  0.000000  0.500000  0.500000  1
  Cu  Cu3  1  0.938446  0.212932  0.151380  1
  Cu  Cu4  1  0.197623  0.060120  0.257745  1
  Cu  Cu5  1  0.802377  0.939880  0.742255  1
  Cu  Cu6  1  0.439880  0.302377  0.742255  1
  Cu  Cu7  1  0.061554  0.787068  0.848620  1
  Cu  Cu8  1  0.811160  0.055337  0.500000  1
  Cu  Cu9  1  0.555337  0.311160  0.500000  1
  Cu  Cu10  1  0.188840  0.944663  0.500000  1
  Cu  Cu11  1  0.444663  0.688840  0.500000  1
  Cu  Cu12  1  0.939910  0.439910  0.740272  1
  Cu  Cu13  1  0.699636  0.199636  0.259724  1
  Cu  Cu14  1  0.060090  0.560090  0.259728  1
  Cu  Cu15  1  0.712932  0.438446  0.151380  1
  Cu  Cu16  1  0.560120  0.697623  0.257745  1
  Cu  Cu17  1  0.500000  0.000000  0.500000  1
  Cu  Cu18  1  0.300364  0.800364  0.740276  1
  Cu  Cu19  1  0.287068  0.561554  0.848620  1
  Si  Si20  1  0.795899  0.295899  0.852697  1
  Si  Si21  1  0.556799  0.056799  0.852694  1
  Si  Si22  1  0.059548  0.208899  0.499996  1
  Si  Si23  1  0.291101  0.440452  0.500004  1
  Si  Si24  1  0.940452  0.791101  0.500004  1
  Si  Si25  1  0.443201  0.943201  0.147306  1
  Si  Si26  1  0.204101  0.704101  0.147303  1
  Si  Si27  1  0.708899  0.559548  0.499996  1
