# generated using pymatgen
data_Pr7Gd(Si3Au)4
_symmetry_space_group_name_H-M   'P 1'
_cell_length_a   8.31043200
_cell_length_b   8.31043170
_cell_length_c   8.75361600
_cell_angle_alpha   90.00000000
_cell_angle_beta   90.00000000
_cell_angle_gamma   119.98560078
_symmetry_Int_Tables_number   1
_chemical_formula_structural   Pr7Gd(Si3Au)4
_chemical_formula_sum   'Pr7 Gd1 Si12 Au4'
_cell_volume   523.63456152
_cell_formula_units_Z   1
loop_
 _symmetry_equiv_pos_site_id
 _symmetry_equiv_pos_as_xyz
  1  'x, y, z'
loop_
 _atom_site_type_symbol
 _atom_site_label
 _atom_site_symmetry_multiplicity
 _atom_site_fract_x
 _atom_site_fract_y
 _atom_site_fract_z
 _atom_site_occupancy
  Pr  Pr0  1  0.500045  0.499955  0.250000  1
  Pr  Pr1  1  0.000162  0.500046  0.750000  1
  Pr  Pr2  1  0.999879  0.499942  0.250000  1
  Pr  Pr3  1  0.499954  0.999838  0.750000  1
  Pr  Pr4  1  0.500058  0.000121  0.250000  1
  Pr  Pr5  1  0.999999  0.000001  0.750000  1
  Pr  Pr6  1  0.999991  0.000009  0.250000  1
  Gd  Gd7  1  0.499938  0.500062  0.750000  1
  Si  Si8  1  0.836001  0.163999  0.000554  1
  Si  Si9  1  0.163991  0.836009  0.000258  1
  Si  Si10  1  0.328129  0.164559  0.997838  1
  Si  Si11  1  0.163991  0.836009  0.499742  1
  Si  Si12  1  0.671857  0.835401  0.997491  1
  Si  Si13  1  0.836001  0.163999  0.499446  1
  Si  Si14  1  0.835441  0.671871  0.997838  1
  Si  Si15  1  0.671857  0.835401  0.502509  1
  Si  Si16  1  0.164599  0.328143  0.997491  1
  Si  Si17  1  0.328129  0.164559  0.502162  1
  Si  Si18  1  0.164599  0.328143  0.502509  1
  Si  Si19  1  0.835441  0.671871  0.502162  1
  Au  Au20  1  0.665785  0.334215  0.996591  1
  Au  Au21  1  0.334184  0.665816  0.997554  1
  Au  Au22  1  0.334184  0.665816  0.502446  1
  Au  Au23  1  0.665785  0.334215  0.503409  1
