# generated using pymatgen
data_PuAu2
_symmetry_space_group_name_H-M   'P 1'
_cell_length_a   5.49571313
_cell_length_b   5.49571340
_cell_length_c   5.49571265
_cell_angle_alpha   140.17094637
_cell_angle_beta   140.17095296
_cell_angle_gamma   57.59382849
_symmetry_Int_Tables_number   1
_chemical_formula_structural   PuAu2
_chemical_formula_sum   'Pu1 Au2'
_cell_volume   67.50502293
_cell_formula_units_Z   1
loop_
 _symmetry_equiv_pos_site_id
 _symmetry_equiv_pos_as_xyz
  1  'x, y, z'
loop_
 _atom_site_type_symbol
 _atom_site_label
 _atom_site_symmetry_multiplicity
 _atom_site_fract_x
 _atom_site_fract_y
 _atom_site_fract_z
 _atom_site_occupancy
  Pu  Pu0  1  0.000000  0.000000  0.000000  1
  Au  Au1  1  0.670874  0.670874  0.000000  1
  Au  Au2  1  0.329126  0.329126  0.000000  1
