# generated using pymatgen
data_La13NdNi5Os
_symmetry_space_group_name_H-M   'P 1'
_cell_length_a   10.09418873
_cell_length_b   10.09418862
_cell_length_c   6.42125100
_cell_angle_alpha   89.63686809
_cell_angle_beta   90.36313191
_cell_angle_gamma   120.11060805
_symmetry_Int_Tables_number   1
_chemical_formula_structural   La13NdNi5Os
_chemical_formula_sum   'La13 Nd1 Ni5 Os1'
_cell_volume   565.97385542
_cell_formula_units_Z   1
loop_
 _symmetry_equiv_pos_site_id
 _symmetry_equiv_pos_as_xyz
  1  'x, y, z'
loop_
 _atom_site_type_symbol
 _atom_site_label
 _atom_site_symmetry_multiplicity
 _atom_site_fract_x
 _atom_site_fract_y
 _atom_site_fract_z
 _atom_site_occupancy
  La  La0  1  0.665743  0.334257  0.971621  1
  La  La1  1  0.128789  0.871211  0.244108  1
  La  La2  1  0.749208  0.877690  0.240654  1
  La  La3  1  0.122310  0.250792  0.240654  1
  La  La4  1  0.873904  0.126096  0.740643  1
  La  La5  1  0.252719  0.125288  0.745108  1
  La  La6  1  0.874712  0.747281  0.745108  1
  La  La7  1  0.537387  0.462613  0.440444  1
  La  La8  1  0.920593  0.463633  0.432342  1
  La  La9  1  0.536367  0.079407  0.432342  1
  La  La10  1  0.462066  0.537934  0.938461  1
  La  La11  1  0.079530  0.537129  0.933714  1
  La  La12  1  0.462871  0.920470  0.933714  1
  Nd  Nd13  1  0.335650  0.664350  0.466685  1
  Ni  Ni14  1  0.370914  0.187963  0.196960  1
  Ni  Ni15  1  0.812037  0.629086  0.196960  1
  Ni  Ni16  1  0.187984  0.812016  0.695908  1
  Ni  Ni17  1  0.625068  0.809621  0.699470  1
  Ni  Ni18  1  0.190379  0.374932  0.699470  1
  Os  Os19  1  0.811771  0.188229  0.191425  1
