# generated using pymatgen
data_TmSc2Co(Ni3B)2
_symmetry_space_group_name_H-M   'P 1'
_cell_length_a   4.92287300
_cell_length_b   4.96316619
_cell_length_c   14.01227300
_cell_angle_alpha   90.00000000
_cell_angle_beta   90.00000000
_cell_angle_gamma   119.73182540
_symmetry_Int_Tables_number   1
_chemical_formula_structural   TmSc2Co(Ni3B)2
_chemical_formula_sum   'Tm2 Sc4 Co2 Ni12 B4'
_cell_volume   297.29248816
_cell_formula_units_Z   2
loop_
 _symmetry_equiv_pos_site_id
 _symmetry_equiv_pos_as_xyz
  1  'x, y, z'
loop_
 _atom_site_type_symbol
 _atom_site_label
 _atom_site_symmetry_multiplicity
 _atom_site_fract_x
 _atom_site_fract_y
 _atom_site_fract_z
 _atom_site_occupancy
  Tm  Tm0  1  0.333691  0.667384  0.750128  1
  Tm  Tm1  1  0.666309  0.332616  0.250128  1
  Sc  Sc2  1  0.333311  0.666625  0.531209  1
  Sc  Sc3  1  0.666689  0.333375  0.031209  1
  Sc  Sc4  1  0.665964  0.331927  0.472280  1
  Sc  Sc5  1  0.334036  0.668073  0.972280  1
  Co  Co6  1  0.164572  0.329144  0.146393  1
  Co  Co7  1  0.835428  0.670856  0.646393  1
  Ni  Ni8  1  0.002362  0.004725  0.999725  1
  Ni  Ni9  1  0.997638  0.995275  0.499725  1
  Ni  Ni10  1  0.666929  0.831881  0.144548  1
  Ni  Ni11  1  0.164952  0.831881  0.144548  1
  Ni  Ni12  1  0.835048  0.168119  0.644548  1
  Ni  Ni13  1  0.333071  0.168119  0.644548  1
  Ni  Ni14  1  0.833545  0.667089  0.855248  1
  Ni  Ni15  1  0.833839  0.166726  0.854289  1
  Ni  Ni16  1  0.332889  0.166726  0.854289  1
  Ni  Ni17  1  0.667111  0.833274  0.354289  1
  Ni  Ni18  1  0.166161  0.833274  0.354289  1
  Ni  Ni19  1  0.166455  0.332911  0.355248  1
  B  B20  1  0.330578  0.661157  0.248545  1
  B  B21  1  0.669422  0.338843  0.748545  1
  B  B22  1  0.003337  0.006674  0.248795  1
  B  B23  1  0.996663  0.993326  0.748795  1
