# generated using pymatgen
data_Sc8Co7Si14Pd
_symmetry_space_group_name_H-M   'P 1'
_cell_length_a   9.50660205
_cell_length_b   9.51328762
_cell_length_c   9.51406600
_cell_angle_alpha   94.13901503
_cell_angle_beta   94.10156649
_cell_angle_gamma   148.89658863
_symmetry_Int_Tables_number   1
_chemical_formula_structural   Sc8Co7Si14Pd
_chemical_formula_sum   'Sc8 Co7 Si14 Pd1'
_cell_volume   428.23237893
_cell_formula_units_Z   1
loop_
 _symmetry_equiv_pos_site_id
 _symmetry_equiv_pos_as_xyz
  1  'x, y, z'
loop_
 _atom_site_type_symbol
 _atom_site_label
 _atom_site_symmetry_multiplicity
 _atom_site_fract_x
 _atom_site_fract_y
 _atom_site_fract_z
 _atom_site_occupancy
  Sc  Sc0  1  0.138305  0.138351  0.276633  1
  Sc  Sc1  1  0.861866  0.861868  0.723721  1
  Sc  Sc2  1  0.859969  0.135244  0.000570  1
  Sc  Sc3  1  0.140567  0.865312  0.000539  1
  Sc  Sc4  1  0.498410  0.303839  0.804708  1
  Sc  Sc5  1  0.498891  0.693941  0.197033  1
  Sc  Sc6  1  0.698301  0.503206  0.197047  1
  Sc  Sc7  1  0.306323  0.500857  0.804648  1
  Co  Co8  1  0.108415  0.608438  0.216823  1
  Co  Co9  1  0.108194  0.895841  0.502005  1
  Co  Co10  1  0.393718  0.606175  0.501958  1
  Co  Co11  1  0.597935  0.399221  0.495302  1
  Co  Co12  1  0.897404  0.096022  0.495332  1
  Co  Co13  1  0.898015  0.398014  0.796358  1
  Co  Co14  1  0.599687  0.099686  0.199387  1
  Si  Si15  1  0.531133  0.127292  0.584656  1
  Si  Si16  1  0.512865  0.920956  0.409207  1
  Si  Si17  1  0.896311  0.488177  0.409200  1
  Si  Si18  1  0.053542  0.457338  0.584633  1
  Si  Si19  1  0.750015  0.750276  0.000529  1
  Si  Si20  1  0.250558  0.250316  0.000516  1
  Si  Si21  1  0.289322  0.289368  0.578491  1
  Si  Si22  1  0.710393  0.710432  0.420887  1
  Si  Si23  1  0.735533  0.315959  0.007770  1
  Si  Si24  1  0.272209  0.691781  0.007774  1
  Si  Si25  1  0.995150  0.294917  0.299580  1
  Si  Si26  1  0.975024  0.682539  0.697209  1
  Si  Si27  1  0.722094  0.014584  0.697151  1
  Si  Si28  1  0.304473  0.004707  0.299529  1
  Pd  Pd29  1  0.395377  0.895344  0.790801  1
