# generated using pymatgen
data_Li5Eu4Pt9
_symmetry_space_group_name_H-M   'P 1'
_cell_length_a   12.73026610
_cell_length_b   12.73026615
_cell_length_c   12.73026700
_cell_angle_alpha   24.50186848
_cell_angle_beta   24.50186800
_cell_angle_gamma   24.50186839
_symmetry_Int_Tables_number   1
_chemical_formula_structural   Li5Eu4Pt9
_chemical_formula_sum   'Li5 Eu4 Pt9'
_cell_volume   311.97770732
_cell_formula_units_Z   1
loop_
 _symmetry_equiv_pos_site_id
 _symmetry_equiv_pos_as_xyz
  1  'x, y, z'
loop_
 _atom_site_type_symbol
 _atom_site_label
 _atom_site_symmetry_multiplicity
 _atom_site_fract_x
 _atom_site_fract_y
 _atom_site_fract_z
 _atom_site_occupancy
  Li  Li0  1  0.500000  0.500000  0.500000  1
  Li  Li1  1  0.721377  0.721377  0.721377  1
  Li  Li2  1  0.278623  0.278623  0.278623  1
  Li  Li3  1  0.611754  0.611754  0.611754  1
  Li  Li4  1  0.388246  0.388246  0.388246  1
  Eu  Eu5  1  0.949746  0.949746  0.949746  1
  Eu  Eu6  1  0.050254  0.050254  0.050254  1
  Eu  Eu7  1  0.852461  0.852461  0.852461  1
  Eu  Eu8  1  0.147539  0.147539  0.147539  1
  Pt  Pt9  1  0.500000  0.500000  0.000000  1
  Pt  Pt10  1  0.000000  0.500000  0.500000  1
  Pt  Pt11  1  0.500000  0.000000  0.500000  1
  Pt  Pt12  1  0.390060  0.891162  0.390060  1
  Pt  Pt13  1  0.390060  0.390060  0.891162  1
  Pt  Pt14  1  0.891162  0.390060  0.390060  1
  Pt  Pt15  1  0.609940  0.108838  0.609940  1
  Pt  Pt16  1  0.609940  0.609940  0.108838  1
  Pt  Pt17  1  0.108838  0.609940  0.609940  1
