# generated using pymatgen
data_HoLuPb4
_symmetry_space_group_name_H-M   'P 1'
_cell_length_a   8.46074800
_cell_length_b   8.46074804
_cell_length_c   4.52645100
_cell_angle_alpha   90.00000000
_cell_angle_beta   90.00000000
_cell_angle_gamma   148.26889600
_symmetry_Int_Tables_number   1
_chemical_formula_structural   HoLuPb4
_chemical_formula_sum   'Ho1 Lu1 Pb4'
_cell_volume   170.41434096
_cell_formula_units_Z   1
loop_
 _symmetry_equiv_pos_site_id
 _symmetry_equiv_pos_as_xyz
  1  'x, y, z'
loop_
 _atom_site_type_symbol
 _atom_site_label
 _atom_site_symmetry_multiplicity
 _atom_site_fract_x
 _atom_site_fract_y
 _atom_site_fract_z
 _atom_site_occupancy
  Ho  Ho0  1  0.907338  0.092663  0.250000  1
  Lu  Lu1  1  0.092928  0.907073  0.750000  1
  Pb  Pb2  1  0.570530  0.429471  0.250000  1
  Pb  Pb3  1  0.251298  0.748703  0.250000  1
  Pb  Pb4  1  0.747771  0.252230  0.750000  1
  Pb  Pb5  1  0.430138  0.569863  0.750000  1
