# generated using pymatgen
data_DyHo4(CoO6)2
_symmetry_space_group_name_H-M   'P 1'
_cell_length_a   6.73024522
_cell_length_b   6.73024499
_cell_length_c   7.17523318
_cell_angle_alpha   74.51516544
_cell_angle_beta   74.51516633
_cell_angle_gamma   50.52899369
_symmetry_Int_Tables_number   1
_chemical_formula_structural   DyHo4(CoO6)2
_chemical_formula_sum   'Dy1 Ho4 Co2 O12'
_cell_volume   239.70835127
_cell_formula_units_Z   1
loop_
 _symmetry_equiv_pos_site_id
 _symmetry_equiv_pos_as_xyz
  1  'x, y, z'
loop_
 _atom_site_type_symbol
 _atom_site_label
 _atom_site_symmetry_multiplicity
 _atom_site_fract_x
 _atom_site_fract_y
 _atom_site_fract_z
 _atom_site_occupancy
  Dy  Dy0  1  0.000000  0.000000  0.500000  1
  Ho  Ho1  1  0.305624  0.305624  0.355927  1
  Ho  Ho2  1  0.694376  0.694376  0.644073  1
  Ho  Ho3  1  0.307883  0.307883  0.835332  1
  Ho  Ho4  1  0.692117  0.692117  0.164668  1
  Co  Co5  1  0.755816  0.244184  0.000000  1
  Co  Co6  1  0.244184  0.755816  0.000000  1
  O  O7  1  0.900954  0.418215  0.920871  1
  O  O8  1  0.418215  0.900954  0.920871  1
  O  O9  1  0.099046  0.581785  0.079129  1
  O  O10  1  0.581785  0.099046  0.079129  1
  O  O11  1  0.096995  0.596948  0.576436  1
  O  O12  1  0.596948  0.096995  0.576436  1
  O  O13  1  0.903005  0.403052  0.423564  1
  O  O14  1  0.403052  0.903005  0.423564  1
  O  O15  1  0.000340  0.000340  0.828614  1
  O  O16  1  0.999660  0.999660  0.171386  1
  O  O17  1  0.500155  0.500155  0.824459  1
  O  O18  1  0.499845  0.499845  0.175541  1
