# generated using pymatgen
data_Tb4Yb2Si24Os3Ru5
_symmetry_space_group_name_H-M   'P 1'
_cell_length_a   10.13121119
_cell_length_b   10.13121224
_cell_length_c   8.14611616
_cell_angle_alpha   90.00588767
_cell_angle_beta   90.00588422
_cell_angle_gamma   132.56763621
_symmetry_Int_Tables_number   1
_chemical_formula_structural   Tb4Yb2Si24Os3Ru5
_chemical_formula_sum   'Tb4 Yb2 Si24 Os3 Ru5'
_cell_volume   615.79181963
_cell_formula_units_Z   1
loop_
 _symmetry_equiv_pos_site_id
 _symmetry_equiv_pos_as_xyz
  1  'x, y, z'
loop_
 _atom_site_type_symbol
 _atom_site_label
 _atom_site_symmetry_multiplicity
 _atom_site_fract_x
 _atom_site_fract_y
 _atom_site_fract_z
 _atom_site_occupancy
  Tb  Tb0  1  0.502222  0.002188  0.750027  1
  Tb  Tb1  1  0.997812  0.497778  0.249973  1
  Tb  Tb2  1  0.499123  0.999141  0.249854  1
  Tb  Tb3  1  0.000859  0.500877  0.750146  1
  Yb  Yb4  1  0.500053  0.499947  0.500000  1
  Yb  Yb5  1  0.999956  0.000044  0.000000  1
  Si  Si6  1  0.796988  0.203012  0.500000  1
  Si  Si7  1  0.297059  0.702941  0.000000  1
  Si  Si8  1  0.202931  0.797069  0.500000  1
  Si  Si9  1  0.703518  0.296482  0.000000  1
  Si  Si10  1  0.333007  0.331888  0.832312  1
  Si  Si11  1  0.668112  0.666993  0.167688  1
  Si  Si12  1  0.167247  0.168277  0.332469  1
  Si  Si13  1  0.831723  0.832753  0.667531  1
  Si  Si14  1  0.122080  0.890899  0.730080  1
  Si  Si15  1  0.109101  0.877920  0.269920  1
  Si  Si16  1  0.610201  0.378409  0.229139  1
  Si  Si17  1  0.621591  0.389799  0.770861  1
  Si  Si18  1  0.877494  0.109586  0.269428  1
  Si  Si19  1  0.890414  0.122506  0.730572  1
  Si  Si20  1  0.391250  0.622341  0.770083  1
  Si  Si21  1  0.377659  0.608750  0.229917  1
  Si  Si22  1  0.345873  0.114746  0.506511  1
  Si  Si23  1  0.885254  0.654127  0.493489  1
  Si  Si24  1  0.385860  0.154703  0.005104  1
  Si  Si25  1  0.845297  0.614140  0.994896  1
  Si  Si26  1  0.654397  0.885298  0.493935  1
  Si  Si27  1  0.114702  0.345603  0.506065  1
  Si  Si28  1  0.615250  0.846918  0.993453  1
  Si  Si29  1  0.153082  0.384750  0.006547  1
  Os  Os30  1  0.671164  0.328836  0.500000  1
  Os  Os31  1  0.171486  0.828514  0.000000  1
  Os  Os32  1  0.328495  0.671505  0.500000  1
  Ru  Ru33  1  0.828912  0.171088  0.000000  1
  Ru  Ru34  1  0.125838  0.126042  0.626014  1
  Ru  Ru35  1  0.873958  0.874162  0.373986  1
  Ru  Ru36  1  0.374155  0.374123  0.126042  1
  Ru  Ru37  1  0.625877  0.625845  0.873958  1
