# generated using pymatgen
data_Dy3Y7(ZnB4)4
_symmetry_space_group_name_H-M   'P 1'
_cell_length_a   7.20817400
_cell_length_b   7.20817900
_cell_length_c   8.41860300
_cell_angle_alpha   90.00244918
_cell_angle_beta   90.00250025
_cell_angle_gamma   89.99769484
_symmetry_Int_Tables_number   1
_chemical_formula_structural   Dy3Y7(ZnB4)4
_chemical_formula_sum   'Dy3 Y7 Zn4 B16'
_cell_volume   437.41216155
_cell_formula_units_Z   1
loop_
 _symmetry_equiv_pos_site_id
 _symmetry_equiv_pos_as_xyz
  1  'x, y, z'
loop_
 _atom_site_type_symbol
 _atom_site_label
 _atom_site_symmetry_multiplicity
 _atom_site_fract_x
 _atom_site_fract_y
 _atom_site_fract_z
 _atom_site_occupancy
  Dy  Dy0  1  0.681951  0.181986  0.787799  1
  Dy  Dy1  1  0.181955  0.318005  0.787755  1
  Dy  Dy2  1  0.181984  0.318023  0.212252  1
  Y  Y3  1  0.681922  0.181955  0.212494  1
  Y  Y4  1  0.318081  0.818112  0.787567  1
  Y  Y5  1  0.318045  0.818078  0.212457  1
  Y  Y6  1  0.818081  0.681919  0.212445  1
  Y  Y7  1  0.818069  0.681892  0.787555  1
  Y  Y8  1  0.000034  0.000102  0.500045  1
  Y  Y9  1  0.499974  0.499899  0.500048  1
  Zn  Zn10  1  0.117666  0.617547  0.500005  1
  Zn  Zn11  1  0.882408  0.382289  0.500067  1
  Zn  Zn12  1  0.382336  0.117726  0.500061  1
  Zn  Zn13  1  0.617641  0.882419  0.500062  1
  B  B14  1  0.171798  0.040579  0.000003  1
  B  B15  1  0.828174  0.959772  0.999926  1
  B  B16  1  0.959789  0.171892  0.999942  1
  B  B17  1  0.328113  0.540101  0.000026  1
  B  B18  1  0.040362  0.828205  0.000026  1
  B  B19  1  0.671802  0.459528  0.999942  1
  B  B20  1  0.540360  0.671781  0.000003  1
  B  B21  1  0.459549  0.328159  0.999927  1
  B  B22  1  0.090689  0.590444  0.999993  1
  B  B23  1  0.909454  0.409208  0.999872  1
  B  B24  1  0.409259  0.090866  0.999868  1
  B  B25  1  0.590659  0.909462  0.999869  1
  B  B26  1  0.000087  0.000096  0.157141  1
  B  B27  1  0.999921  0.000187  0.842854  1
  B  B28  1  0.499964  0.499801  0.842854  1
  B  B29  1  0.499872  0.499966  0.157141  1
