# generated using pymatgen
data_Nd2GaPtI2
_symmetry_space_group_name_H-M   'P 1'
_cell_length_a   4.38378200
_cell_length_b   4.38378287
_cell_length_c   11.85144500
_cell_angle_alpha   90.00000000
_cell_angle_beta   90.00000000
_cell_angle_gamma   120.00000855
_symmetry_Int_Tables_number   1
_chemical_formula_structural   Nd2GaPtI2
_chemical_formula_sum   'Nd2 Ga1 Pt1 I2'
_cell_volume   197.24222079
_cell_formula_units_Z   1
loop_
 _symmetry_equiv_pos_site_id
 _symmetry_equiv_pos_as_xyz
  1  'x, y, z'
loop_
 _atom_site_type_symbol
 _atom_site_label
 _atom_site_symmetry_multiplicity
 _atom_site_fract_x
 _atom_site_fract_y
 _atom_site_fract_z
 _atom_site_occupancy
  Nd  Nd0  1  0.000000  0.000000  0.338064  1
  Nd  Nd1  1  0.000000  0.000000  0.662764  1
  Ga  Ga2  1  0.666666  0.333333  0.502972  1
  Pt  Pt3  1  0.333333  0.666667  0.496992  1
  I  I4  1  0.666666  0.333333  0.157857  1
  I  I5  1  0.333333  0.666667  0.841354  1
