# generated using pymatgen
data_K16YPaSb8
_symmetry_space_group_name_H-M   'P 1'
_cell_length_a   11.74908878
_cell_length_b   11.74908930
_cell_length_c   11.74908900
_cell_angle_alpha   59.99999802
_cell_angle_beta   59.99999656
_cell_angle_gamma   59.99999754
_symmetry_Int_Tables_number   1
_chemical_formula_structural   K16YPaSb8
_chemical_formula_sum   'K16 Y1 Pa1 Sb8'
_cell_volume   1146.82607782
_cell_formula_units_Z   1
loop_
 _symmetry_equiv_pos_site_id
 _symmetry_equiv_pos_as_xyz
  1  'x, y, z'
loop_
 _atom_site_type_symbol
 _atom_site_label
 _atom_site_symmetry_multiplicity
 _atom_site_fract_x
 _atom_site_fract_y
 _atom_site_fract_z
 _atom_site_occupancy
  K  K0  1  0.622360  0.132918  0.622360  1
  K  K1  1  0.622360  0.622360  0.132918  1
  K  K2  1  0.132918  0.622360  0.622360  1
  K  K3  1  0.622360  0.622360  0.622360  1
  K  K4  1  0.033852  0.033852  0.466148  1
  K  K5  1  0.775165  0.224835  0.224835  1
  K  K6  1  0.224835  0.775165  0.775165  1
  K  K7  1  0.775165  0.775165  0.224835  1
  K  K8  1  0.775165  0.224835  0.775165  1
  K  K9  1  0.224835  0.775165  0.224835  1
  K  K10  1  0.466148  0.033852  0.466148  1
  K  K11  1  0.466148  0.033852  0.033852  1
  K  K12  1  0.033852  0.466148  0.466148  1
  K  K13  1  0.033852  0.466148  0.033852  1
  K  K14  1  0.224835  0.224835  0.775165  1
  K  K15  1  0.466148  0.466148  0.033852  1
  Y  Y16  1  0.500000  0.500000  0.500000  1
  Pa  Pa17  1  0.750000  0.750000  0.750000  1
  Sb  Sb18  1  0.393700  0.818901  0.393700  1
  Sb  Sb19  1  0.853084  0.853084  0.440749  1
  Sb  Sb20  1  0.440749  0.853084  0.853084  1
  Sb  Sb21  1  0.853084  0.853084  0.853084  1
  Sb  Sb22  1  0.818901  0.393700  0.393700  1
  Sb  Sb23  1  0.393700  0.393700  0.393700  1
  Sb  Sb24  1  0.393700  0.393700  0.818901  1
  Sb  Sb25  1  0.853084  0.440749  0.853084  1
