# generated using pymatgen
data_Ho3Ta(Ga3Pd)8
_symmetry_space_group_name_H-M   'P 1'
_cell_length_a   8.53037235
_cell_length_b   8.53037347
_cell_length_c   8.53037420
_cell_angle_alpha   89.72397907
_cell_angle_beta   89.72397967
_cell_angle_gamma   89.72397958
_symmetry_Int_Tables_number   1
_chemical_formula_structural   Ho3Ta(Ga3Pd)8
_chemical_formula_sum   'Ho3 Ta1 Ga24 Pd8'
_cell_volume   620.71043462
_cell_formula_units_Z   1
loop_
 _symmetry_equiv_pos_site_id
 _symmetry_equiv_pos_as_xyz
  1  'x, y, z'
loop_
 _atom_site_type_symbol
 _atom_site_label
 _atom_site_symmetry_multiplicity
 _atom_site_fract_x
 _atom_site_fract_y
 _atom_site_fract_z
 _atom_site_occupancy
  Ho  Ho0  1  0.000000  0.500000  0.000000  1
  Ho  Ho1  1  0.500000  0.000000  0.000000  1
  Ho  Ho2  1  0.000000  0.000000  0.500000  1
  Ta  Ta3  1  0.500000  0.500000  0.500000  1
  Ga  Ga4  1  0.988440  0.643964  0.643964  1
  Ga  Ga5  1  0.643964  0.643964  0.988440  1
  Ga  Ga6  1  0.643964  0.988440  0.643964  1
  Ga  Ga7  1  0.011560  0.356036  0.356036  1
  Ga  Ga8  1  0.356036  0.356036  0.011560  1
  Ga  Ga9  1  0.356036  0.011560  0.356036  1
  Ga  Ga10  1  0.738117  0.500000  0.261883  1
  Ga  Ga11  1  0.261883  0.500000  0.738117  1
  Ga  Ga12  1  0.500000  0.261883  0.738117  1
  Ga  Ga13  1  0.500000  0.738117  0.261883  1
  Ga  Ga14  1  0.261883  0.738117  0.500000  1
  Ga  Ga15  1  0.738117  0.261883  0.500000  1
  Ga  Ga16  1  0.838364  0.141268  0.838364  1
  Ga  Ga17  1  0.141268  0.838364  0.838364  1
  Ga  Ga18  1  0.838364  0.838364  0.141268  1
  Ga  Ga19  1  0.161636  0.858732  0.161636  1
  Ga  Ga20  1  0.858732  0.161636  0.161636  1
  Ga  Ga21  1  0.161636  0.161636  0.858732  1
  Ga  Ga22  1  0.729591  0.487192  0.729591  1
  Ga  Ga23  1  0.487192  0.729591  0.729591  1
  Ga  Ga24  1  0.729591  0.729591  0.487192  1
  Ga  Ga25  1  0.270409  0.512808  0.270409  1
  Ga  Ga26  1  0.512808  0.270409  0.270409  1
  Ga  Ga27  1  0.270409  0.270409  0.512808  1
  Pd  Pd28  1  0.837279  0.837279  0.837279  1
  Pd  Pd29  1  0.162721  0.162721  0.162721  1
  Pd  Pd30  1  0.665524  0.334476  0.000000  1
  Pd  Pd31  1  0.000000  0.334476  0.665524  1
  Pd  Pd32  1  0.334476  0.000000  0.665524  1
  Pd  Pd33  1  0.334476  0.665524  0.000000  1
  Pd  Pd34  1  0.000000  0.665524  0.334476  1
  Pd  Pd35  1  0.665524  0.000000  0.334476  1
