# generated using pymatgen
data_Tb5Ho11Cd3InPd4
_symmetry_space_group_name_H-M   'P 1'
_cell_length_a   9.69664693
_cell_length_b   9.69185767
_cell_length_c   9.69185937
_cell_angle_alpha   59.95512462
_cell_angle_beta   59.92155792
_cell_angle_gamma   59.92155794
_symmetry_Int_Tables_number   1
_chemical_formula_structural   Tb5Ho11Cd3InPd4
_chemical_formula_sum   'Tb5 Ho11 Cd3 In1 Pd4'
_cell_volume   643.06906743
_cell_formula_units_Z   1
loop_
 _symmetry_equiv_pos_site_id
 _symmetry_equiv_pos_as_xyz
  1  'x, y, z'
loop_
 _atom_site_type_symbol
 _atom_site_label
 _atom_site_symmetry_multiplicity
 _atom_site_fract_x
 _atom_site_fract_y
 _atom_site_fract_z
 _atom_site_occupancy
  Tb  Tb0  1  0.351756  0.352475  0.352475  1
  Tb  Tb1  1  0.355570  0.355897  0.936432  1
  Tb  Tb2  1  0.355570  0.936432  0.355897  1
  Tb  Tb3  1  0.936922  0.355748  0.355748  1
  Tb  Tb4  1  0.811237  0.188977  0.188977  1
  Ho  Ho5  1  0.189589  0.810152  0.810152  1
  Ho  Ho6  1  0.189382  0.810796  0.188881  1
  Ho  Ho7  1  0.810077  0.189626  0.809791  1
  Ho  Ho8  1  0.189382  0.188881  0.810796  1
  Ho  Ho9  1  0.810077  0.809791  0.189626  1
  Ho  Ho10  1  0.935553  0.566913  0.566913  1
  Ho  Ho11  1  0.565234  0.934822  0.934822  1
  Ho  Ho12  1  0.566650  0.935390  0.567255  1
  Ho  Ho13  1  0.934846  0.565740  0.934488  1
  Ho  Ho14  1  0.566650  0.567255  0.935390  1
  Ho  Ho15  1  0.934846  0.934488  0.565740  1
  Cd  Cd16  1  0.581422  0.581594  0.251341  1
  Cd  Cd17  1  0.581422  0.251341  0.581594  1
  Cd  Cd18  1  0.251235  0.581523  0.581523  1
  In  In19  1  0.582820  0.582846  0.582846  1
  Pd  Pd20  1  0.145633  0.144340  0.144340  1
  Pd  Pd21  1  0.142919  0.142989  0.569187  1
  Pd  Pd22  1  0.142919  0.569187  0.142989  1
  Pd  Pd23  1  0.568282  0.142792  0.142792  1
