# generated using pymatgen
data_Ga7Cu10
_symmetry_space_group_name_H-M   'P 1'
_cell_length_a   8.63578602
_cell_length_b   8.63570822
_cell_length_c   6.42472376
_cell_angle_alpha   88.64759575
_cell_angle_beta   88.64821759
_cell_angle_gamma   80.81045913
_symmetry_Int_Tables_number   1
_chemical_formula_structural   Ga7Cu10
_chemical_formula_sum   'Ga14 Cu20'
_cell_volume   472.75444720
_cell_formula_units_Z   2
loop_
 _symmetry_equiv_pos_site_id
 _symmetry_equiv_pos_as_xyz
  1  'x, y, z'
loop_
 _atom_site_type_symbol
 _atom_site_label
 _atom_site_symmetry_multiplicity
 _atom_site_fract_x
 _atom_site_fract_y
 _atom_site_fract_z
 _atom_site_occupancy
  Ga  Ga0  1  0.115362  0.571354  0.603300  1
  Ga  Ga1  1  0.533767  0.533766  0.711417  1
  Ga  Ga2  1  0.841949  0.296286  0.797978  1
  Ga  Ga3  1  0.884638  0.428646  0.396700  1
  Ga  Ga4  1  0.237818  0.237816  0.931888  1
  Ga  Ga5  1  0.703714  0.158050  0.202022  1
  Ga  Ga6  1  0.166522  0.166523  0.506133  1
  Ga  Ga7  1  0.158051  0.703714  0.202022  1
  Ga  Ga8  1  0.428647  0.884638  0.396697  1
  Ga  Ga9  1  0.833478  0.833477  0.493867  1
  Ga  Ga10  1  0.296286  0.841950  0.797978  1
  Ga  Ga11  1  0.466233  0.466234  0.288583  1
  Ga  Ga12  1  0.762182  0.762184  0.068112  1
  Ga  Ga13  1  0.571353  0.115362  0.603303  1
  Cu  Cu14  1  0.226785  0.990850  0.152079  1
  Cu  Cu15  1  0.710611  0.474801  0.067051  1
  Cu  Cu16  1  0.118288  0.881712  0.500002  1
  Cu  Cu17  1  0.816804  0.588466  0.713566  1
  Cu  Cu18  1  0.773215  0.009150  0.847921  1
  Cu  Cu19  1  0.474796  0.710610  0.067054  1
  Cu  Cu20  1  0.411527  0.183198  0.286429  1
  Cu  Cu21  1  0.881712  0.118288  0.499998  1
  Cu  Cu22  1  0.289389  0.525199  0.932949  1
  Cu  Cu23  1  0.009145  0.773205  0.847931  1
  Cu  Cu24  1  0.183196  0.411534  0.286434  1
  Cu  Cu25  1  0.943211  0.943211  0.170721  1
  Cu  Cu26  1  0.000000  0.500000  0.000000  1
  Cu  Cu27  1  0.648467  0.648466  0.389701  1
  Cu  Cu28  1  0.588473  0.816802  0.713571  1
  Cu  Cu29  1  0.990855  0.226795  0.152069  1
  Cu  Cu30  1  0.525204  0.289390  0.932946  1
  Cu  Cu31  1  0.056789  0.056789  0.829279  1
  Cu  Cu32  1  0.500000  0.000000  0.000000  1
  Cu  Cu33  1  0.351533  0.351534  0.610299  1
