# generated using pymatgen
data_Pr6Sn6Rh5Au
_symmetry_space_group_name_H-M   'P 1'
_cell_length_a   7.72404300
_cell_length_b   7.72404235
_cell_length_c   8.12519300
_cell_angle_alpha   90.00000000
_cell_angle_beta   90.00000000
_cell_angle_gamma   119.99999849
_symmetry_Int_Tables_number   1
_chemical_formula_structural   Pr6Sn6Rh5Au
_chemical_formula_sum   'Pr6 Sn6 Rh5 Au1'
_cell_volume   419.81084481
_cell_formula_units_Z   1
loop_
 _symmetry_equiv_pos_site_id
 _symmetry_equiv_pos_as_xyz
  1  'x, y, z'
loop_
 _atom_site_type_symbol
 _atom_site_label
 _atom_site_symmetry_multiplicity
 _atom_site_fract_x
 _atom_site_fract_y
 _atom_site_fract_z
 _atom_site_occupancy
  Pr  Pr0  1  0.584529  0.991776  0.743784  1
  Pr  Pr1  1  0.407248  0.415471  0.743784  1
  Pr  Pr2  1  0.008224  0.592752  0.743784  1
  Pr  Pr3  1  0.584712  0.993619  0.255931  1
  Pr  Pr4  1  0.408906  0.415288  0.255931  1
  Pr  Pr5  1  0.006381  0.591094  0.255931  1
  Sn  Sn6  1  0.243242  0.990042  0.000047  1
  Sn  Sn7  1  0.750260  0.745928  0.500046  1
  Sn  Sn8  1  0.995668  0.249740  0.500046  1
  Sn  Sn9  1  0.009958  0.253200  0.000047  1
  Sn  Sn10  1  0.746800  0.756758  0.000047  1
  Sn  Sn11  1  0.254072  0.004332  0.500046  1
  Rh  Rh12  1  0.666667  0.333333  0.501477  1
  Rh  Rh13  1  0.333333  0.666667  0.000818  1
  Rh  Rh14  1  0.333333  0.666667  0.499017  1
  Rh  Rh15  1  0.000000  0.000000  0.749232  1
  Rh  Rh16  1  0.000000  0.000000  0.251233  1
  Au  Au17  1  0.666667  0.333333  0.998800  1
