# generated using pymatgen
data_Eu3ThZr4O14
_symmetry_space_group_name_H-M   'P 1'
_cell_length_a   7.64185793
_cell_length_b   7.64185874
_cell_length_c   7.64185769
_cell_angle_alpha   59.63626603
_cell_angle_beta   59.63626390
_cell_angle_gamma   59.63626170
_symmetry_Int_Tables_number   1
_chemical_formula_structural   Eu3ThZr4O14
_chemical_formula_sum   'Eu3 Th1 Zr4 O14'
_cell_volume   312.95172527
_cell_formula_units_Z   1
loop_
 _symmetry_equiv_pos_site_id
 _symmetry_equiv_pos_as_xyz
  1  'x, y, z'
loop_
 _atom_site_type_symbol
 _atom_site_label
 _atom_site_symmetry_multiplicity
 _atom_site_fract_x
 _atom_site_fract_y
 _atom_site_fract_z
 _atom_site_occupancy
  Eu  Eu0  1  0.625000  0.125000  0.625000  1
  Eu  Eu1  1  0.625000  0.625000  0.125000  1
  Eu  Eu2  1  0.125000  0.625000  0.625000  1
  Th  Th3  1  0.625000  0.625000  0.625000  1
  Zr  Zr4  1  0.125000  0.125000  0.125000  1
  Zr  Zr5  1  0.625000  0.125000  0.125000  1
  Zr  Zr6  1  0.125000  0.125000  0.625000  1
  Zr  Zr7  1  0.125000  0.625000  0.125000  1
  O  O8  1  0.217879  0.787873  0.787873  1
  O  O9  1  0.787873  0.787873  0.217879  1
  O  O10  1  0.787873  0.217879  0.787873  1
  O  O11  1  0.208941  0.789074  0.208941  1
  O  O12  1  0.208941  0.208941  0.789074  1
  O  O13  1  0.789074  0.208941  0.208941  1
  O  O14  1  0.460926  0.041059  0.041059  1
  O  O15  1  0.041059  0.041059  0.460926  1
  O  O16  1  0.041059  0.460926  0.041059  1
  O  O17  1  0.462127  0.032121  0.462127  1
  O  O18  1  0.745875  0.745875  0.745875  1
  O  O19  1  0.462127  0.462127  0.032121  1
  O  O20  1  0.032121  0.462127  0.462127  1
  O  O21  1  0.504125  0.504125  0.504125  1
