# generated using pymatgen
data_Er8Tc3B24Os
_symmetry_space_group_name_H-M   'P 1'
_cell_length_a   3.65113700
_cell_length_b   9.11322593
_cell_length_c   11.49001017
_cell_angle_alpha   89.94826799
_cell_angle_beta   90.00000000
_cell_angle_gamma   90.00000000
_symmetry_Int_Tables_number   1
_chemical_formula_structural   Er8Tc3B24Os
_chemical_formula_sum   'Er8 Tc3 B24 Os1'
_cell_volume   382.31426456
_cell_formula_units_Z   1
loop_
 _symmetry_equiv_pos_site_id
 _symmetry_equiv_pos_as_xyz
  1  'x, y, z'
loop_
 _atom_site_type_symbol
 _atom_site_label
 _atom_site_symmetry_multiplicity
 _atom_site_fract_x
 _atom_site_fract_y
 _atom_site_fract_z
 _atom_site_occupancy
  Er  Er0  1  0.000000  0.323823  0.413635  1
  Er  Er1  1  0.000000  0.675417  0.584502  1
  Er  Er2  1  0.000000  0.823020  0.087453  1
  Er  Er3  1  0.000000  0.177931  0.914322  1
  Er  Er4  1  0.000000  0.942938  0.370346  1
  Er  Er5  1  0.000000  0.057817  0.629756  1
  Er  Er6  1  0.000000  0.443264  0.129905  1
  Er  Er7  1  0.000000  0.556562  0.869720  1
  Tc  Tc8  1  0.000000  0.638692  0.320589  1
  Tc  Tc9  1  0.000000  0.361424  0.679862  1
  Tc  Tc10  1  0.000000  0.138183  0.178307  1
  B  B11  1  0.500000  0.552983  0.433177  1
  B  B12  1  0.500000  0.446951  0.566591  1
  B  B13  1  0.500000  0.052875  0.066630  1
  B  B14  1  0.500000  0.946380  0.933179  1
  B  B15  1  0.500000  0.748968  0.419215  1
  B  B16  1  0.500000  0.250750  0.580807  1
  B  B17  1  0.500000  0.249558  0.080896  1
  B  B18  1  0.500000  0.750854  0.918870  1
  B  B19  1  0.500000  0.792296  0.265459  1
  B  B20  1  0.500000  0.207877  0.735064  1
  B  B21  1  0.500000  0.292230  0.234852  1
  B  B22  1  0.500000  0.708488  0.765184  1
  B  B23  1  0.500000  0.631065  0.185324  1
  B  B24  1  0.500000  0.368818  0.815190  1
  B  B25  1  0.500000  0.130601  0.314435  1
  B  B26  1  0.500000  0.868923  0.685419  1
  B  B27  1  0.500000  0.981498  0.211895  1
  B  B28  1  0.500000  0.017294  0.788113  1
  B  B29  1  0.500000  0.481793  0.288034  1
  B  B30  1  0.500000  0.518032  0.711796  1
  B  B31  1  0.500000  0.601689  0.028029  1
  B  B32  1  0.500000  0.399406  0.971813  1
  B  B33  1  0.500000  0.101568  0.471818  1
  B  B34  1  0.500000  0.898535  0.528662  1
  Os  Os35  1  0.000000  0.861497  0.821150  1
