# generated using pymatgen
data_Zn2Ni3GeO8
_symmetry_space_group_name_H-M   'P 1'
_cell_length_a   5.89391378
_cell_length_b   5.93864442
_cell_length_c   5.89391400
_cell_angle_alpha   60.24884838
_cell_angle_beta   59.99999878
_cell_angle_gamma   60.24884236
_symmetry_Int_Tables_number   1
_chemical_formula_structural   Zn2Ni3GeO8
_chemical_formula_sum   'Zn2 Ni3 Ge1 O8'
_cell_volume   146.42094461
_cell_formula_units_Z   1
loop_
 _symmetry_equiv_pos_site_id
 _symmetry_equiv_pos_as_xyz
  1  'x, y, z'
loop_
 _atom_site_type_symbol
 _atom_site_label
 _atom_site_symmetry_multiplicity
 _atom_site_fract_x
 _atom_site_fract_y
 _atom_site_fract_z
 _atom_site_occupancy
  Zn  Zn0  1  0.495391  0.513828  0.495391  1
  Zn  Zn1  1  0.754609  0.736172  0.754609  1
  Ni  Ni2  1  0.125000  0.125000  0.125000  1
  Ni  Ni3  1  0.625000  0.125000  0.125000  1
  Ni  Ni4  1  0.125000  0.125000  0.625000  1
  Ge  Ge5  1  0.125000  0.625000  0.125000  1
  O  O6  1  0.894325  0.868251  0.894325  1
  O  O7  1  0.906902  0.381749  0.355675  1
  O  O8  1  0.359996  0.920013  0.359996  1
  O  O9  1  0.355675  0.381749  0.906902  1
  O  O10  1  0.890004  0.329987  0.890004  1
  O  O11  1  0.894325  0.868251  0.343098  1
  O  O12  1  0.343098  0.868251  0.894325  1
  O  O13  1  0.355675  0.381749  0.355675  1
