# generated using pymatgen
data_TbHo5Co16(P6Os)2
_symmetry_space_group_name_H-M   'P 1'
_cell_length_a   3.71087100
_cell_length_b   10.48972600
_cell_length_c   12.22971900
_cell_angle_alpha   90.00000000
_cell_angle_beta   90.00000000
_cell_angle_gamma   90.00000000
_symmetry_Int_Tables_number   1
_chemical_formula_structural   TbHo5Co16(P6Os)2
_chemical_formula_sum   'Tb1 Ho5 Co16 P12 Os2'
_cell_volume   476.05428653
_cell_formula_units_Z   1
loop_
 _symmetry_equiv_pos_site_id
 _symmetry_equiv_pos_as_xyz
  1  'x, y, z'
loop_
 _atom_site_type_symbol
 _atom_site_label
 _atom_site_symmetry_multiplicity
 _atom_site_fract_x
 _atom_site_fract_y
 _atom_site_fract_z
 _atom_site_occupancy
  Tb  Tb0  1  0.500000  0.000000  0.475855  1
  Ho  Ho1  1  0.000000  0.500000  0.524073  1
  Ho  Ho2  1  0.500000  0.817223  0.206784  1
  Ho  Ho3  1  0.500000  0.182777  0.206784  1
  Ho  Ho4  1  0.000000  0.682693  0.793152  1
  Ho  Ho5  1  0.000000  0.317307  0.793152  1
  Co  Co6  1  0.500000  0.500000  0.703777  1
  Co  Co7  1  0.000000  0.000000  0.295801  1
  Co  Co8  1  0.000000  0.500000  0.986727  1
  Co  Co9  1  0.500000  0.000000  0.013270  1
  Co  Co10  1  0.500000  0.332580  0.990402  1
  Co  Co11  1  0.500000  0.667420  0.990402  1
  Co  Co12  1  0.000000  0.167430  0.009603  1
  Co  Co13  1  0.000000  0.832570  0.009603  1
  Co  Co14  1  0.500000  0.297683  0.430590  1
  Co  Co15  1  0.500000  0.702317  0.430590  1
  Co  Co16  1  0.000000  0.202780  0.569510  1
  Co  Co17  1  0.000000  0.797220  0.569510  1
  Co  Co18  1  0.500000  0.879285  0.709344  1
  Co  Co19  1  0.500000  0.120715  0.709344  1
  Co  Co20  1  0.000000  0.620634  0.290764  1
  Co  Co21  1  0.000000  0.379366  0.290764  1
  P  P22  1  0.500000  0.500000  0.880839  1
  P  P23  1  0.000000  0.000000  0.119107  1
  P  P24  1  0.500000  0.500000  0.350356  1
  P  P25  1  0.000000  0.000000  0.650107  1
  P  P26  1  0.500000  0.311714  0.616171  1
  P  P27  1  0.500000  0.688286  0.616171  1
  P  P28  1  0.000000  0.188690  0.383671  1
  P  P29  1  0.000000  0.811310  0.383671  1
  P  P30  1  0.500000  0.846002  0.893085  1
  P  P31  1  0.500000  0.153998  0.893085  1
  P  P32  1  0.000000  0.653969  0.106906  1
  P  P33  1  0.000000  0.346031  0.106906  1
  Os  Os34  1  0.500000  0.500000  0.158572  1
  Os  Os35  1  0.000000  0.000000  0.841551  1
