# generated using pymatgen
data_Sr2SmCu6Ni7B2
_symmetry_space_group_name_H-M   'P 1'
_cell_length_a   5.14368573
_cell_length_b   5.14368712
_cell_length_c   10.96582000
_cell_angle_alpha   90.00000000
_cell_angle_beta   90.00000000
_cell_angle_gamma   119.83638521
_symmetry_Int_Tables_number   1
_chemical_formula_structural   Sr2SmCu6Ni7B2
_chemical_formula_sum   'Sr2 Sm1 Cu6 Ni7 B2'
_cell_volume   251.67169465
_cell_formula_units_Z   1
loop_
 _symmetry_equiv_pos_site_id
 _symmetry_equiv_pos_as_xyz
  1  'x, y, z'
loop_
 _atom_site_type_symbol
 _atom_site_label
 _atom_site_symmetry_multiplicity
 _atom_site_fract_x
 _atom_site_fract_y
 _atom_site_fract_z
 _atom_site_occupancy
  Sr  Sr0  1  0.000000  0.000000  0.676465  1
  Sr  Sr1  1  0.000000  0.000000  0.323535  1
  Sm  Sm2  1  0.000000  0.000000  0.000000  1
  Cu  Cu3  1  0.500000  0.000000  0.500000  1
  Cu  Cu4  1  0.000000  0.500000  0.500000  1
  Cu  Cu5  1  0.664037  0.335963  0.685884  1
  Cu  Cu6  1  0.335963  0.664037  0.685884  1
  Cu  Cu7  1  0.335963  0.664037  0.314116  1
  Cu  Cu8  1  0.664037  0.335963  0.314116  1
  Ni  Ni9  1  0.500000  0.500000  0.500000  1
  Ni  Ni10  1  0.500000  0.500000  0.874008  1
  Ni  Ni11  1  0.500000  0.000000  0.873853  1
  Ni  Ni12  1  0.000000  0.500000  0.873853  1
  Ni  Ni13  1  0.500000  0.500000  0.125992  1
  Ni  Ni14  1  0.500000  0.000000  0.126147  1
  Ni  Ni15  1  0.000000  0.500000  0.126147  1
  B  B16  1  0.667099  0.332901  0.000000  1
  B  B17  1  0.332901  0.667099  0.000000  1
