# generated using pymatgen
data_Tm5(GaSb)2
_symmetry_space_group_name_H-M   'P 1'
_cell_length_a   8.52741673
_cell_length_b   8.52741654
_cell_length_c   7.83332800
_cell_angle_alpha   90.00000000
_cell_angle_beta   90.00000000
_cell_angle_gamma   125.32865562
_symmetry_Int_Tables_number   1
_chemical_formula_structural   Tm5(GaSb)2
_chemical_formula_sum   'Tm10 Ga4 Sb4'
_cell_volume   464.71938173
_cell_formula_units_Z   2
loop_
 _symmetry_equiv_pos_site_id
 _symmetry_equiv_pos_as_xyz
  1  'x, y, z'
loop_
 _atom_site_type_symbol
 _atom_site_label
 _atom_site_symmetry_multiplicity
 _atom_site_fract_x
 _atom_site_fract_y
 _atom_site_fract_z
 _atom_site_occupancy
  Tm  Tm0  1  0.538639  0.796751  0.166426  1
  Tm  Tm1  1  0.296751  0.038639  0.333574  1
  Tm  Tm2  1  0.203249  0.461361  0.833574  1
  Tm  Tm3  1  0.961361  0.703249  0.666426  1
  Tm  Tm4  1  0.703249  0.961361  0.666426  1
  Tm  Tm5  1  0.461361  0.203249  0.833574  1
  Tm  Tm6  1  0.796751  0.538639  0.166426  1
  Tm  Tm7  1  0.038639  0.296751  0.333574  1
  Tm  Tm8  1  0.500000  0.500000  0.500000  1
  Tm  Tm9  1  0.000000  0.000000  0.000000  1
  Ga  Ga10  1  0.627649  0.627649  0.872707  1
  Ga  Ga11  1  0.127649  0.127649  0.627293  1
  Ga  Ga12  1  0.872351  0.872351  0.372707  1
  Ga  Ga13  1  0.372351  0.372351  0.127293  1
  Sb  Sb14  1  0.294275  0.705725  0.500000  1
  Sb  Sb15  1  0.205725  0.794275  0.000000  1
  Sb  Sb16  1  0.705725  0.294275  0.500000  1
  Sb  Sb17  1  0.794275  0.205725  0.000000  1
