# generated using pymatgen
data_Tb2Dy8Ru3Rh
_symmetry_space_group_name_H-M   'P 1'
_cell_length_a   8.53198820
_cell_length_b   8.54060023
_cell_length_c   7.29574003
_cell_angle_alpha   83.41829728
_cell_angle_beta   83.38669704
_cell_angle_gamma   43.79979157
_symmetry_Int_Tables_number   1
_chemical_formula_structural   Tb2Dy8Ru3Rh
_chemical_formula_sum   'Tb2 Dy8 Ru3 Rh1'
_cell_volume   365.12929246
_cell_formula_units_Z   1
loop_
 _symmetry_equiv_pos_site_id
 _symmetry_equiv_pos_as_xyz
  1  'x, y, z'
loop_
 _atom_site_type_symbol
 _atom_site_label
 _atom_site_symmetry_multiplicity
 _atom_site_fract_x
 _atom_site_fract_y
 _atom_site_fract_z
 _atom_site_occupancy
  Tb  Tb0  1  0.207491  0.980903  0.584955  1
  Tb  Tb1  1  0.020748  0.794225  0.917562  1
  Dy  Dy2  1  0.207323  0.356175  0.313217  1
  Dy  Dy3  1  0.642886  0.792121  0.185580  1
  Dy  Dy4  1  0.789492  0.643057  0.685620  1
  Dy  Dy5  1  0.358807  0.204786  0.816432  1
  Dy  Dy6  1  0.978987  0.206916  0.084860  1
  Dy  Dy7  1  0.791268  0.023541  0.413576  1
  Dy  Dy8  1  0.578910  0.421566  0.750797  1
  Dy  Dy9  1  0.423762  0.577823  0.247696  1
  Ru  Ru10  1  0.396059  0.825248  0.923848  1
  Ru  Ru11  1  0.825599  0.396558  0.425342  1
  Ru  Ru12  1  0.602139  0.176201  0.075366  1
  Rh  Rh13  1  0.176530  0.600880  0.575150  1
