# generated using pymatgen
data_Cs8Tl11Cl
_symmetry_space_group_name_H-M   'P 1'
_cell_length_a   19.46589268
_cell_length_b   19.46589316
_cell_length_c   19.46589263
_cell_angle_alpha   32.50598605
_cell_angle_beta   32.50598498
_cell_angle_gamma   32.50598325
_symmetry_Int_Tables_number   1
_chemical_formula_structural   Cs8Tl11Cl
_chemical_formula_sum   'Cs16 Tl22 Cl2'
_cell_volume   1894.09299895
_cell_formula_units_Z   2
loop_
 _symmetry_equiv_pos_site_id
 _symmetry_equiv_pos_as_xyz
  1  'x, y, z'
loop_
 _atom_site_type_symbol
 _atom_site_label
 _atom_site_symmetry_multiplicity
 _atom_site_fract_x
 _atom_site_fract_y
 _atom_site_fract_z
 _atom_site_occupancy
  Cs  Cs0  1  0.907069  0.693400  0.333256  1
  Cs  Cs1  1  0.333256  0.907069  0.693400  1
  Cs  Cs2  1  0.693400  0.333256  0.907069  1
  Cs  Cs3  1  0.833256  0.193400  0.407069  1
  Cs  Cs4  1  0.407069  0.833256  0.193400  1
  Cs  Cs5  1  0.193400  0.407069  0.833256  1
  Cs  Cs6  1  0.092931  0.306600  0.666744  1
  Cs  Cs7  1  0.666744  0.092931  0.306600  1
  Cs  Cs8  1  0.306600  0.666744  0.092931  1
  Cs  Cs9  1  0.166744  0.806600  0.592931  1
  Cs  Cs10  1  0.592931  0.166744  0.806600  1
  Cs  Cs11  1  0.806600  0.592931  0.166744  1
  Cs  Cs12  1  0.925951  0.925951  0.925951  1
  Cs  Cs13  1  0.425951  0.425951  0.425951  1
  Cs  Cs14  1  0.074049  0.074049  0.074049  1
  Cs  Cs15  1  0.574049  0.574049  0.574049  1
  Tl  Tl16  1  0.956388  0.543612  0.750000  1
  Tl  Tl17  1  0.750000  0.956388  0.543612  1
  Tl  Tl18  1  0.543612  0.750000  0.956388  1
  Tl  Tl19  1  0.250000  0.043612  0.456388  1
  Tl  Tl20  1  0.456388  0.250000  0.043612  1
  Tl  Tl21  1  0.043612  0.456388  0.250000  1
  Tl  Tl22  1  0.299457  0.299457  0.299457  1
  Tl  Tl23  1  0.799457  0.799457  0.799457  1
  Tl  Tl24  1  0.700543  0.700543  0.700543  1
  Tl  Tl25  1  0.200543  0.200543  0.200543  1
  Tl  Tl26  1  0.553643  0.005306  0.280558  1
  Tl  Tl27  1  0.280558  0.553643  0.005306  1
  Tl  Tl28  1  0.005306  0.280558  0.553643  1
  Tl  Tl29  1  0.780558  0.505306  0.053643  1
  Tl  Tl30  1  0.053643  0.780558  0.505306  1
  Tl  Tl31  1  0.505306  0.053643  0.780558  1
  Tl  Tl32  1  0.446357  0.994694  0.719442  1
  Tl  Tl33  1  0.719442  0.446357  0.994694  1
  Tl  Tl34  1  0.994694  0.719442  0.446357  1
  Tl  Tl35  1  0.219442  0.494694  0.946357  1
  Tl  Tl36  1  0.946357  0.219442  0.494694  1
  Tl  Tl37  1  0.494694  0.946357  0.219442  1
  Cl  Cl38  1  0.000000  0.000000  0.000000  1
  Cl  Cl39  1  0.500000  0.500000  0.500000  1
