# generated using pymatgen
data_Ti7Nb5Al8(RhC)4
_symmetry_space_group_name_H-M   'P 1'
_cell_length_a   8.26449335
_cell_length_b   8.25951550
_cell_length_c   8.26633401
_cell_angle_alpha   59.98994935
_cell_angle_beta   59.88052964
_cell_angle_gamma   60.05139325
_symmetry_Int_Tables_number   1
_chemical_formula_structural   Ti7Nb5Al8(RhC)4
_chemical_formula_sum   'Ti7 Nb5 Al8 Rh4 C4'
_cell_volume   398.75875237
_cell_formula_units_Z   1
loop_
 _symmetry_equiv_pos_site_id
 _symmetry_equiv_pos_as_xyz
  1  'x, y, z'
loop_
 _atom_site_type_symbol
 _atom_site_label
 _atom_site_symmetry_multiplicity
 _atom_site_fract_x
 _atom_site_fract_y
 _atom_site_fract_z
 _atom_site_occupancy
  Ti  Ti0  1  0.313634  0.686643  0.313063  1
  Ti  Ti1  1  0.564113  0.936589  0.563408  1
  Ti  Ti2  1  0.563584  0.935935  0.937046  1
  Ti  Ti3  1  0.937856  0.563997  0.562982  1
  Ti  Ti4  1  0.936542  0.564010  0.936082  1
  Ti  Ti5  1  0.312401  0.313777  0.687396  1
  Ti  Ti6  1  0.563232  0.563768  0.937435  1
  Nb  Nb7  1  0.936739  0.935293  0.563970  1
  Nb  Nb8  1  0.687908  0.313865  0.311649  1
  Nb  Nb9  1  0.311398  0.687274  0.687846  1
  Nb  Nb10  1  0.687334  0.686125  0.312396  1
  Nb  Nb11  1  0.687438  0.312835  0.686759  1
  Al  Al12  1  0.916237  0.254069  0.914907  1
  Al  Al13  1  0.333390  0.333388  0.997587  1
  Al  Al14  1  0.999536  0.333716  0.333392  1
  Al  Al15  1  0.333271  0.335842  0.335318  1
  Al  Al16  1  0.253965  0.916008  0.915539  1
  Al  Al17  1  0.915080  0.914956  0.917352  1
  Al  Al18  1  0.915687  0.914656  0.252451  1
  Al  Al19  1  0.333625  0.997201  0.333344  1
  Rh  Rh20  1  0.125769  0.624791  0.124896  1
  Rh  Rh21  1  0.125672  0.125661  0.625068  1
  Rh  Rh22  1  0.624084  0.125658  0.125140  1
  Rh  Rh23  1  0.125234  0.124694  0.124215  1
  C  C24  1  0.618088  0.123370  0.629049  1
  C  C25  1  0.623111  0.628975  0.119314  1
  C  C26  1  0.127089  0.618645  0.624210  1
  C  C27  1  0.627984  0.628259  0.628185  1
