# generated using pymatgen
data_Ta3Te5Se
_symmetry_space_group_name_H-M   'P 1'
_cell_length_a   7.83562408
_cell_length_b   7.83562416
_cell_length_c   9.65811374
_cell_angle_alpha   67.33867706
_cell_angle_beta   67.33867553
_cell_angle_gamma   26.64193706
_symmetry_Int_Tables_number   1
_chemical_formula_structural   Ta3Te5Se
_chemical_formula_sum   'Ta3 Te5 Se1'
_cell_volume   244.17002427
_cell_formula_units_Z   1
loop_
 _symmetry_equiv_pos_site_id
 _symmetry_equiv_pos_as_xyz
  1  'x, y, z'
loop_
 _atom_site_type_symbol
 _atom_site_label
 _atom_site_symmetry_multiplicity
 _atom_site_fract_x
 _atom_site_fract_y
 _atom_site_fract_z
 _atom_site_occupancy
  Ta  Ta0  1  0.999508  0.999508  0.999005  1
  Ta  Ta1  1  0.361873  0.361873  0.282515  1
  Ta  Ta2  1  0.635343  0.635343  0.713286  1
  Te  Te3  1  0.647795  0.647795  0.982507  1
  Te  Te4  1  0.704151  0.704151  0.382146  1
  Te  Te5  1  0.292562  0.292562  0.613590  1
  Te  Te6  1  0.001777  0.001777  0.699731  1
  Te  Te7  1  0.992035  0.992035  0.304441  1
  Se  Se8  1  0.364957  0.364957  0.022779  1
