# generated using pymatgen
data_Ca2Al20IrOs3
_symmetry_space_group_name_H-M   'P 1'
_cell_length_a   6.88588008
_cell_length_b   6.88525441
_cell_length_c   9.16144656
_cell_angle_alpha   90.21931691
_cell_angle_beta   90.03861068
_cell_angle_gamma   96.38525419
_symmetry_Int_Tables_number   1
_chemical_formula_structural   Ca2Al20IrOs3
_chemical_formula_sum   'Ca2 Al20 Ir1 Os3'
_cell_volume   431.65576729
_cell_formula_units_Z   1
loop_
 _symmetry_equiv_pos_site_id
 _symmetry_equiv_pos_as_xyz
  1  'x, y, z'
loop_
 _atom_site_type_symbol
 _atom_site_label
 _atom_site_symmetry_multiplicity
 _atom_site_fract_x
 _atom_site_fract_y
 _atom_site_fract_z
 _atom_site_occupancy
  Ca  Ca0  1  0.627365  0.374874  0.749925  1
  Ca  Ca1  1  0.372635  0.625126  0.250075  1
  Al  Al2  1  0.280207  0.020306  0.747875  1
  Al  Al3  1  0.020216  0.281649  0.249346  1
  Al  Al4  1  0.719793  0.979694  0.252125  1
  Al  Al5  1  0.979784  0.718351  0.750654  1
  Al  Al6  1  0.878359  0.124567  0.953806  1
  Al  Al7  1  0.121641  0.875433  0.046194  1
  Al  Al8  1  0.876277  0.124142  0.545247  1
  Al  Al9  1  0.123723  0.875858  0.454753  1
  Al  Al10  1  0.645685  0.915995  0.749007  1
  Al  Al11  1  0.916581  0.644966  0.250265  1
  Al  Al12  1  0.354315  0.084005  0.250993  1
  Al  Al13  1  0.083419  0.355034  0.749735  1
  Al  Al14  1  0.342198  0.655450  0.898370  1
  Al  Al15  1  0.657802  0.344550  0.101630  1
  Al  Al16  1  0.343368  0.657795  0.600214  1
  Al  Al17  1  0.656632  0.342205  0.399786  1
  Al  Al18  1  0.724059  0.722417  0.998995  1
  Al  Al19  1  0.723931  0.723408  0.500069  1
  Al  Al20  1  0.275941  0.277583  0.001005  1
  Al  Al21  1  0.276069  0.276592  0.499931  1
  Ir  Ir22  1  0.500000  0.000000  0.000000  1
  Os  Os23  1  0.000000  0.500000  0.000000  1
  Os  Os24  1  0.500000  0.000000  0.500000  1
  Os  Os25  1  0.000000  0.500000  0.500000  1
