# generated using pymatgen
data_Tb10Ag3Ir
_symmetry_space_group_name_H-M   'P 1'
_cell_length_a   9.57554800
_cell_length_b   9.57554865
_cell_length_c   9.69968100
_cell_angle_alpha   90.00000000
_cell_angle_beta   90.00000000
_cell_angle_gamma   120.00000465
_symmetry_Int_Tables_number   1
_chemical_formula_structural   Tb10Ag3Ir
_chemical_formula_sum   'Tb20 Ag6 Ir2'
_cell_volume   770.22102189
_cell_formula_units_Z   2
loop_
 _symmetry_equiv_pos_site_id
 _symmetry_equiv_pos_as_xyz
  1  'x, y, z'
loop_
 _atom_site_type_symbol
 _atom_site_label
 _atom_site_symmetry_multiplicity
 _atom_site_fract_x
 _atom_site_fract_y
 _atom_site_fract_z
 _atom_site_occupancy
  Tb  Tb0  1  0.000000  0.000000  0.500000  1
  Tb  Tb1  1  0.000000  0.000000  0.000000  1
  Tb  Tb2  1  0.208387  0.791613  0.442361  1
  Tb  Tb3  1  0.208387  0.416774  0.442361  1
  Tb  Tb4  1  0.583226  0.791613  0.442361  1
  Tb  Tb5  1  0.791613  0.208387  0.557639  1
  Tb  Tb6  1  0.791613  0.583226  0.557639  1
  Tb  Tb7  1  0.416774  0.208387  0.557639  1
  Tb  Tb8  1  0.791613  0.208387  0.942361  1
  Tb  Tb9  1  0.791613  0.583226  0.942361  1
  Tb  Tb10  1  0.416774  0.208387  0.942361  1
  Tb  Tb11  1  0.208387  0.791613  0.057639  1
  Tb  Tb12  1  0.208387  0.416774  0.057639  1
  Tb  Tb13  1  0.583226  0.791613  0.057639  1
  Tb  Tb14  1  0.542364  0.457636  0.250000  1
  Tb  Tb15  1  0.542364  0.084728  0.250000  1
  Tb  Tb16  1  0.915272  0.457636  0.250000  1
  Tb  Tb17  1  0.457636  0.542364  0.750000  1
  Tb  Tb18  1  0.457636  0.915272  0.750000  1
  Tb  Tb19  1  0.084728  0.542364  0.750000  1
  Ag  Ag20  1  0.883861  0.116139  0.250000  1
  Ag  Ag21  1  0.883861  0.767724  0.250000  1
  Ag  Ag22  1  0.232276  0.116139  0.250000  1
  Ag  Ag23  1  0.116139  0.883861  0.750000  1
  Ag  Ag24  1  0.116139  0.232276  0.750000  1
  Ag  Ag25  1  0.767724  0.883861  0.750000  1
  Ir  Ir26  1  0.333333  0.666667  0.250000  1
  Ir  Ir27  1  0.666667  0.333333  0.750000  1
