# generated using pymatgen
data_Tm8Hf11Si16Pd
_symmetry_space_group_name_H-M   'P 1'
_cell_length_a   7.20861537
_cell_length_b   7.20861598
_cell_length_c   13.19726200
_cell_angle_alpha   89.95352666
_cell_angle_beta   90.04647334
_cell_angle_gamma   90.05734447
_symmetry_Int_Tables_number   1
_chemical_formula_structural   Tm8Hf11Si16Pd
_chemical_formula_sum   'Tm8 Hf11 Si16 Pd1'
_cell_volume   685.78357515
_cell_formula_units_Z   1
loop_
 _symmetry_equiv_pos_site_id
 _symmetry_equiv_pos_as_xyz
  1  'x, y, z'
loop_
 _atom_site_type_symbol
 _atom_site_label
 _atom_site_symmetry_multiplicity
 _atom_site_fract_x
 _atom_site_fract_y
 _atom_site_fract_z
 _atom_site_occupancy
  Tm  Tm0  1  0.997610  0.345946  0.210667  1
  Tm  Tm1  1  0.005719  0.653645  0.716900  1
  Tm  Tm2  1  0.155016  0.494994  0.464425  1
  Tm  Tm3  1  0.499683  0.848368  0.032914  1
  Tm  Tm4  1  0.848368  0.499683  0.967086  1
  Tm  Tm5  1  0.494994  0.155016  0.535575  1
  Tm  Tm6  1  0.345946  0.997610  0.789333  1
  Tm  Tm7  1  0.653645  0.005719  0.283100  1
  Hf  Hf8  1  0.824480  0.824480  0.500000  1
  Hf  Hf9  1  0.322608  0.677345  0.248463  1
  Hf  Hf10  1  0.677345  0.322608  0.751537  1
  Hf  Hf11  1  0.144905  0.997897  0.373597  1
  Hf  Hf12  1  0.856410  0.002550  0.879222  1
  Hf  Hf13  1  0.502662  0.645073  0.626173  1
  Hf  Hf14  1  0.355955  0.494908  0.877170  1
  Hf  Hf15  1  0.494908  0.355955  0.122830  1
  Hf  Hf16  1  0.645073  0.502662  0.373827  1
  Hf  Hf17  1  0.997897  0.144905  0.626403  1
  Hf  Hf18  1  0.002550  0.856410  0.120778  1
  Si  Si19  1  0.356505  0.296134  0.315944  1
  Si  Si20  1  0.642813  0.704538  0.819908  1
  Si  Si21  1  0.206837  0.858751  0.568816  1
  Si  Si22  1  0.135451  0.781161  0.928065  1
  Si  Si23  1  0.781161  0.135451  0.071935  1
  Si  Si24  1  0.858751  0.206837  0.431184  1
  Si  Si25  1  0.296134  0.356505  0.684056  1
  Si  Si26  1  0.704538  0.642813  0.180092  1
  Si  Si27  1  0.294324  0.055363  0.185006  1
  Si  Si28  1  0.703191  0.949941  0.687075  1
  Si  Si29  1  0.449993  0.797863  0.435294  1
  Si  Si30  1  0.207226  0.558776  0.063360  1
  Si  Si31  1  0.558776  0.207226  0.936640  1
  Si  Si32  1  0.797863  0.449993  0.564706  1
  Si  Si33  1  0.055363  0.294324  0.814994  1
  Si  Si34  1  0.949941  0.703191  0.312925  1
  Pd  Pd35  1  0.175362  0.175362  0.000000  1
