# generated using pymatgen
data_Lu4AlCo7O20
_symmetry_space_group_name_H-M   'P 1'
_cell_length_a   5.64591600
_cell_length_b   7.08942643
_cell_length_c   8.27480159
_cell_angle_alpha   89.78510180
_cell_angle_beta   90.00000000
_cell_angle_gamma   90.00000000
_symmetry_Int_Tables_number   1
_chemical_formula_structural   Lu4AlCo7O20
_chemical_formula_sum   'Lu4 Al1 Co7 O20'
_cell_volume   331.20741193
_cell_formula_units_Z   1
loop_
 _symmetry_equiv_pos_site_id
 _symmetry_equiv_pos_as_xyz
  1  'x, y, z'
loop_
 _atom_site_type_symbol
 _atom_site_label
 _atom_site_symmetry_multiplicity
 _atom_site_fract_x
 _atom_site_fract_y
 _atom_site_fract_z
 _atom_site_occupancy
  Lu  Lu0  1  0.000000  0.142960  0.169146  1
  Lu  Lu1  1  0.000000  0.863882  0.828693  1
  Lu  Lu2  1  0.000000  0.634161  0.329302  1
  Lu  Lu3  1  0.000000  0.368018  0.671607  1
  Al  Al4  1  0.500000  0.393255  0.355054  1
  Co  Co5  1  0.252645  0.999755  0.498049  1
  Co  Co6  1  0.745891  0.500141  0.001151  1
  Co  Co7  1  0.747355  0.999755  0.498049  1
  Co  Co8  1  0.254109  0.500141  0.001151  1
  Co  Co9  1  0.500000  0.591529  0.650827  1
  Co  Co10  1  0.500000  0.908867  0.151341  1
  Co  Co11  1  0.500000  0.087431  0.849022  1
  O  O12  1  0.269865  0.000295  0.000459  1
  O  O13  1  0.725825  0.500022  0.497808  1
  O  O14  1  0.730135  0.000295  0.000459  1
  O  O15  1  0.274175  0.500022  0.497808  1
  O  O16  1  0.000000  0.165978  0.443493  1
  O  O17  1  0.000000  0.835446  0.556517  1
  O  O18  1  0.000000  0.663442  0.056826  1
  O  O19  1  0.000000  0.332832  0.942334  1
  O  O20  1  0.500000  0.153284  0.424478  1
  O  O21  1  0.500000  0.850276  0.568916  1
  O  O22  1  0.500000  0.654781  0.072252  1
  O  O23  1  0.500000  0.351746  0.930797  1
  O  O24  1  0.246622  0.393329  0.209806  1
  O  O25  1  0.239499  0.608376  0.792443  1
  O  O26  1  0.760672  0.892650  0.293232  1
  O  O27  1  0.758842  0.106490  0.706750  1
  O  O28  1  0.760501  0.608376  0.792443  1
  O  O29  1  0.753378  0.393329  0.209806  1
  O  O30  1  0.241158  0.106490  0.706750  1
  O  O31  1  0.239328  0.892650  0.293232  1
