# generated using pymatgen
data_Ho3In3IrAu
_symmetry_space_group_name_H-M   'P 1'
_cell_length_a   7.81974400
_cell_length_b   7.81974354
_cell_length_c   3.58380100
_cell_angle_alpha   90.00000000
_cell_angle_beta   90.00000000
_cell_angle_gamma   119.99999349
_symmetry_Int_Tables_number   1
_chemical_formula_structural   Ho3In3IrAu
_chemical_formula_sum   'Ho3 In3 Ir1 Au1'
_cell_volume   189.78399828
_cell_formula_units_Z   1
loop_
 _symmetry_equiv_pos_site_id
 _symmetry_equiv_pos_as_xyz
  1  'x, y, z'
loop_
 _atom_site_type_symbol
 _atom_site_label
 _atom_site_symmetry_multiplicity
 _atom_site_fract_x
 _atom_site_fract_y
 _atom_site_fract_z
 _atom_site_occupancy
  Ho  Ho0  1  0.570331  0.981506  0.499999  1
  Ho  Ho1  1  0.411176  0.429668  0.499999  1
  Ho  Ho2  1  0.018494  0.588825  0.499999  1
  In  In3  1  0.227912  0.996002  0.000000  1
  In  In4  1  0.003998  0.231911  0.000000  1
  In  In5  1  0.768089  0.772087  0.000000  1
  Ir  Ir6  1  0.333333  0.666667  0.000000  1
  Au  Au7  1  0.666666  0.333333  0.000000  1
