# generated using pymatgen
data_HfZr(Np3Bi5)2
_symmetry_space_group_name_H-M   'P 1'
_cell_length_a   9.55634300
_cell_length_b   9.55634392
_cell_length_c   6.39063000
_cell_angle_alpha   90.00000000
_cell_angle_beta   90.00000000
_cell_angle_gamma   120.00000720
_symmetry_Int_Tables_number   1
_chemical_formula_structural   HfZr(Np3Bi5)2
_chemical_formula_sum   'Hf1 Zr1 Np6 Bi10'
_cell_volume   505.42622711
_cell_formula_units_Z   1
loop_
 _symmetry_equiv_pos_site_id
 _symmetry_equiv_pos_as_xyz
  1  'x, y, z'
loop_
 _atom_site_type_symbol
 _atom_site_label
 _atom_site_symmetry_multiplicity
 _atom_site_fract_x
 _atom_site_fract_y
 _atom_site_fract_z
 _atom_site_occupancy
  Hf  Hf0  1  0.000000  0.000000  0.000000  1
  Zr  Zr1  1  0.000000  0.000000  0.500000  1
  Np  Np2  1  0.385541  0.000000  0.750660  1
  Np  Np3  1  0.385541  0.385541  0.249340  1
  Np  Np4  1  0.000000  0.614459  0.249340  1
  Np  Np5  1  0.000000  0.385541  0.750660  1
  Np  Np6  1  0.614459  0.614459  0.750660  1
  Np  Np7  1  0.614459  0.000000  0.249340  1
  Bi  Bi8  1  0.333333  0.666667  0.500000  1
  Bi  Bi9  1  0.666667  0.333333  0.000000  1
  Bi  Bi10  1  0.666667  0.333333  0.500000  1
  Bi  Bi11  1  0.333333  0.666667  0.000000  1
  Bi  Bi12  1  0.730109  0.000000  0.751188  1
  Bi  Bi13  1  0.730109  0.730109  0.248812  1
  Bi  Bi14  1  0.000000  0.269891  0.248812  1
  Bi  Bi15  1  0.000000  0.730109  0.751188  1
  Bi  Bi16  1  0.269891  0.000000  0.248812  1
  Bi  Bi17  1  0.269891  0.269891  0.751188  1
