# generated using pymatgen
data_Ce4Mg3GaIr4
_symmetry_space_group_name_H-M   'P 1'
_cell_length_a   4.16407400
_cell_length_b   7.04325198
_cell_length_c   8.52403074
_cell_angle_alpha   89.93321877
_cell_angle_beta   90.00000000
_cell_angle_gamma   90.00000000
_symmetry_Int_Tables_number   1
_chemical_formula_structural   Ce4Mg3GaIr4
_chemical_formula_sum   'Ce4 Mg3 Ga1 Ir4'
_cell_volume   249.99790934
_cell_formula_units_Z   1
loop_
 _symmetry_equiv_pos_site_id
 _symmetry_equiv_pos_as_xyz
  1  'x, y, z'
loop_
 _atom_site_type_symbol
 _atom_site_label
 _atom_site_symmetry_multiplicity
 _atom_site_fract_x
 _atom_site_fract_y
 _atom_site_fract_z
 _atom_site_occupancy
  Ce  Ce0  1  0.250000  0.536643  0.178502  1
  Ce  Ce1  1  0.750000  0.454654  0.822111  1
  Ce  Ce2  1  0.750000  0.964040  0.687084  1
  Ce  Ce3  1  0.250000  0.039766  0.313151  1
  Mg  Mg4  1  0.250000  0.633723  0.558811  1
  Mg  Mg5  1  0.750000  0.365611  0.441538  1
  Mg  Mg6  1  0.750000  0.869276  0.055709  1
  Ga  Ga7  1  0.250000  0.132963  0.942669  1
  Ir  Ir8  1  0.250000  0.747937  0.872955  1
  Ir  Ir9  1  0.750000  0.255009  0.122766  1
  Ir  Ir10  1  0.750000  0.760583  0.368894  1
  Ir  Ir11  1  0.250000  0.239794  0.635812  1
