# generated using pymatgen
data_MnFe5(CoP2)2
_symmetry_space_group_name_H-M   'P 1'
_cell_length_a   3.51510200
_cell_length_b   5.73175811
_cell_length_c   6.57271680
_cell_angle_alpha   90.03954540
_cell_angle_beta   90.00000000
_cell_angle_gamma   90.00000000
_symmetry_Int_Tables_number   1
_chemical_formula_structural   MnFe5(CoP2)2
_chemical_formula_sum   'Mn1 Fe5 Co2 P4'
_cell_volume   132.42518942
_cell_formula_units_Z   1
loop_
 _symmetry_equiv_pos_site_id
 _symmetry_equiv_pos_as_xyz
  1  'x, y, z'
loop_
 _atom_site_type_symbol
 _atom_site_label
 _atom_site_symmetry_multiplicity
 _atom_site_fract_x
 _atom_site_fract_y
 _atom_site_fract_z
 _atom_site_occupancy
  Mn  Mn0  1  0.500000  0.533635  0.670381  1
  Fe  Fe1  1  0.500000  0.639310  0.065761  1
  Fe  Fe2  1  0.500000  0.144964  0.436890  1
  Fe  Fe3  1  0.500000  0.025914  0.835791  1
  Fe  Fe4  1  0.000000  0.467768  0.329023  1
  Fe  Fe5  1  0.000000  0.976522  0.167161  1
  Co  Co6  1  0.000000  0.357404  0.930550  1
  Co  Co7  1  0.000000  0.851301  0.565430  1
  P  P8  1  0.500000  0.256027  0.118509  1
  P  P9  1  0.500000  0.769899  0.370746  1
  P  P10  1  0.000000  0.746470  0.886063  1
  P  P11  1  0.000000  0.230785  0.623693  1
