# generated using pymatgen
data_TbPu4O10
_symmetry_space_group_name_H-M   'P 1'
_cell_length_a   6.58019845
_cell_length_b   6.58019848
_cell_length_c   6.58019846
_cell_angle_alpha   99.60263717
_cell_angle_beta   99.60263469
_cell_angle_gamma   131.78764851
_symmetry_Int_Tables_number   1
_chemical_formula_structural   TbPu4O10
_chemical_formula_sum   'Tb1 Pu4 O10'
_cell_volume   193.91227066
_cell_formula_units_Z   1
loop_
 _symmetry_equiv_pos_site_id
 _symmetry_equiv_pos_as_xyz
  1  'x, y, z'
loop_
 _atom_site_type_symbol
 _atom_site_label
 _atom_site_symmetry_multiplicity
 _atom_site_fract_x
 _atom_site_fract_y
 _atom_site_fract_z
 _atom_site_occupancy
  Tb  Tb0  1  0.500000  0.500000  0.000000  1
  Pu  Pu1  1  0.899396  0.700028  0.599424  1
  Pu  Pu2  1  0.100604  0.299972  0.400576  1
  Pu  Pu3  1  0.700028  0.100604  0.800631  1
  Pu  Pu4  1  0.299972  0.899396  0.199369  1
  O  O5  1  0.041226  0.145893  0.695221  1
  O  O6  1  0.549328  0.653994  0.695221  1
  O  O7  1  0.250000  0.750000  0.500000  1
  O  O8  1  0.450672  0.346006  0.304779  1
  O  O9  1  0.750000  0.250000  0.500000  1
  O  O10  1  0.346006  0.041226  0.895333  1
  O  O11  1  0.854107  0.549328  0.895333  1
  O  O12  1  0.958774  0.854107  0.304779  1
  O  O13  1  0.145893  0.450672  0.104667  1
  O  O14  1  0.653994  0.958774  0.104667  1
