# generated using pymatgen
data_La3Al12(RuPt)2
_symmetry_space_group_name_H-M   'P 1'
_cell_length_a   9.00176963
_cell_length_b   9.00176745
_cell_length_c   9.69779424
_cell_angle_alpha   90.07686850
_cell_angle_beta   89.92313230
_cell_angle_gamma   119.80641834
_symmetry_Int_Tables_number   1
_chemical_formula_structural   La3Al12(RuPt)2
_chemical_formula_sum   'La6 Al24 Ru4 Pt4'
_cell_volume   681.87162378
_cell_formula_units_Z   2
loop_
 _symmetry_equiv_pos_site_id
 _symmetry_equiv_pos_as_xyz
  1  'x, y, z'
loop_
 _atom_site_type_symbol
 _atom_site_label
 _atom_site_symmetry_multiplicity
 _atom_site_fract_x
 _atom_site_fract_y
 _atom_site_fract_z
 _atom_site_occupancy
  La  La0  1  0.188354  0.378880  0.251732  1
  La  La1  1  0.811646  0.621120  0.748268  1
  La  La2  1  0.621120  0.811646  0.251732  1
  La  La3  1  0.378880  0.188354  0.748268  1
  La  La4  1  0.189241  0.810759  0.250391  1
  La  La5  1  0.810759  0.189241  0.749609  1
  Al  Al6  1  0.333242  0.666758  0.021730  1
  Al  Al7  1  0.666758  0.333242  0.978270  1
  Al  Al8  1  0.669325  0.330675  0.518290  1
  Al  Al9  1  0.330675  0.669325  0.481710  1
  Al  Al10  1  0.158221  0.325201  0.573679  1
  Al  Al11  1  0.841779  0.674799  0.426321  1
  Al  Al12  1  0.674799  0.841779  0.573679  1
  Al  Al13  1  0.838319  0.677415  0.076778  1
  Al  Al14  1  0.325201  0.158221  0.426321  1
  Al  Al15  1  0.161681  0.322585  0.923222  1
  Al  Al16  1  0.163726  0.836274  0.574513  1
  Al  Al17  1  0.322585  0.161681  0.076778  1
  Al  Al18  1  0.836274  0.163726  0.425487  1
  Al  Al19  1  0.677415  0.838319  0.923222  1
  Al  Al20  1  0.838131  0.161869  0.078108  1
  Al  Al21  1  0.161869  0.838131  0.921892  1
  Al  Al22  1  0.564360  0.129476  0.253738  1
  Al  Al23  1  0.435640  0.870524  0.746262  1
  Al  Al24  1  0.870524  0.435640  0.253738  1
  Al  Al25  1  0.129476  0.564360  0.746262  1
  Al  Al26  1  0.565495  0.434505  0.249522  1
  Al  Al27  1  0.434505  0.565495  0.750478  1
  Al  Al28  1  0.998800  0.001200  0.250693  1
  Al  Al29  1  0.001200  0.998800  0.749307  1
  Ru  Ru30  1  0.500000  0.000000  0.500000  1
  Ru  Ru31  1  0.000000  0.500000  0.500000  1
  Ru  Ru32  1  0.000000  0.000000  0.000000  1
  Ru  Ru33  1  0.000000  0.000000  0.500000  1
  Pt  Pt34  1  0.500000  0.000000  0.000000  1
  Pt  Pt35  1  0.000000  0.500000  0.000000  1
  Pt  Pt36  1  0.500000  0.500000  0.000000  1
  Pt  Pt37  1  0.500000  0.500000  0.500000  1
