# generated using pymatgen
data_CaNd3(CdPt)4
_symmetry_space_group_name_H-M   'P 1'
_cell_length_a   4.26573100
_cell_length_b   7.37993616
_cell_length_c   8.88237374
_cell_angle_alpha   90.12000833
_cell_angle_beta   90.00000000
_cell_angle_gamma   90.00000000
_symmetry_Int_Tables_number   1
_chemical_formula_structural   CaNd3(CdPt)4
_chemical_formula_sum   'Ca1 Nd3 Cd4 Pt4'
_cell_volume   279.62381723
_cell_formula_units_Z   1
loop_
 _symmetry_equiv_pos_site_id
 _symmetry_equiv_pos_as_xyz
  1  'x, y, z'
loop_
 _atom_site_type_symbol
 _atom_site_label
 _atom_site_symmetry_multiplicity
 _atom_site_fract_x
 _atom_site_fract_y
 _atom_site_fract_z
 _atom_site_occupancy
  Ca  Ca0  1  0.750000  0.456568  0.817039  1
  Nd  Nd1  1  0.250000  0.042374  0.319677  1
  Nd  Nd2  1  0.250000  0.542859  0.176235  1
  Nd  Nd3  1  0.750000  0.954407  0.684567  1
  Cd  Cd4  1  0.250000  0.144974  0.937023  1
  Cd  Cd5  1  0.250000  0.632273  0.564102  1
  Cd  Cd6  1  0.750000  0.863456  0.062141  1
  Cd  Cd7  1  0.750000  0.364734  0.439657  1
  Pt  Pt8  1  0.250000  0.235814  0.624631  1
  Pt  Pt9  1  0.250000  0.750060  0.871010  1
  Pt  Pt10  1  0.750000  0.757566  0.371008  1
  Pt  Pt11  1  0.750000  0.254915  0.132912  1
