# generated using pymatgen
data_LuGa2CuNi2
_symmetry_space_group_name_H-M   'P 1'
_cell_length_a   8.78302900
_cell_length_b   8.78302941
_cell_length_c   4.06067700
_cell_angle_alpha   90.00000000
_cell_angle_beta   90.00000000
_cell_angle_gamma   119.99999468
_symmetry_Int_Tables_number   1
_chemical_formula_structural   LuGa2CuNi2
_chemical_formula_sum   'Lu3 Ga6 Cu3 Ni6'
_cell_volume   271.27998600
_cell_formula_units_Z   3
loop_
 _symmetry_equiv_pos_site_id
 _symmetry_equiv_pos_as_xyz
  1  'x, y, z'
loop_
 _atom_site_type_symbol
 _atom_site_label
 _atom_site_symmetry_multiplicity
 _atom_site_fract_x
 _atom_site_fract_y
 _atom_site_fract_z
 _atom_site_occupancy
  Lu  Lu0  1  0.666667  0.333333  0.500000  1
  Lu  Lu1  1  0.333333  0.666667  0.500000  1
  Lu  Lu2  1  0.000000  0.000000  0.000000  1
  Ga  Ga3  1  0.483831  0.483831  0.000000  1
  Ga  Ga4  1  0.516169  0.000000  0.000000  1
  Ga  Ga5  1  0.000000  0.516169  0.000000  1
  Ga  Ga6  1  0.722628  0.722628  0.500000  1
  Ga  Ga7  1  0.277372  0.000000  0.500000  1
  Ga  Ga8  1  0.000000  0.277372  0.500000  1
  Cu  Cu9  1  0.295805  0.295805  0.500000  1
  Cu  Cu10  1  0.704195  0.000000  0.500000  1
  Cu  Cu11  1  0.000000  0.704195  0.500000  1
  Ni  Ni12  1  0.825303  0.198406  0.000000  1
  Ni  Ni13  1  0.801594  0.626897  0.000000  1
  Ni  Ni14  1  0.373103  0.174697  0.000000  1
  Ni  Ni15  1  0.198406  0.825303  0.000000  1
  Ni  Ni16  1  0.626897  0.801594  0.000000  1
  Ni  Ni17  1  0.174697  0.373103  0.000000  1
