# generated using pymatgen
data_P6Ru3WO24
_symmetry_space_group_name_H-M   'P 1'
_cell_length_a   8.62240780
_cell_length_b   8.62234681
_cell_length_c   8.90408400
_cell_angle_alpha   89.91229217
_cell_angle_beta   61.11646035
_cell_angle_gamma   119.99578329
_symmetry_Int_Tables_number   1
_chemical_formula_structural   P6Ru3WO24
_chemical_formula_sum   'P6 Ru3 W1 O24'
_cell_volume   475.52079876
_cell_formula_units_Z   1
loop_
 _symmetry_equiv_pos_site_id
 _symmetry_equiv_pos_as_xyz
  1  'x, y, z'
loop_
 _atom_site_type_symbol
 _atom_site_label
 _atom_site_symmetry_multiplicity
 _atom_site_fract_x
 _atom_site_fract_y
 _atom_site_fract_z
 _atom_site_occupancy
  P  P0  1  0.284683  0.034469  0.255645  1
  P  P1  1  0.710244  0.749779  0.253432  1
  P  P2  1  0.283287  0.253449  0.746992  1
  P  P3  1  0.724032  0.971214  0.745522  1
  P  P4  1  0.002244  0.531653  0.744880  1
  P  P5  1  0.994236  0.458900  0.255508  1
  Ru  Ru6  1  0.786637  0.142434  0.071128  1
  Ru  Ru7  1  0.793546  0.646196  0.561034  1
  Ru  Ru8  1  0.210721  0.355953  0.432599  1
  W  W9  1  0.215674  0.858494  0.925499  1
  O  O10  1  0.496934  0.093072  0.229974  1
  O  O11  1  0.873003  0.375467  0.921959  1
  O  O12  1  0.893194  0.156338  0.585177  1
  O  O13  1  0.840927  0.538419  0.722194  1
  O  O14  1  0.119489  0.628543  0.080750  1
  O  O15  1  0.107199  0.846921  0.413732  1
  O  O16  1  0.170778  0.475034  0.271127  1
  O  O17  1  0.139165  0.722499  0.774265  1
  O  O18  1  0.175720  0.523668  0.581110  1
  O  O19  1  0.247378  0.191243  0.277251  1
  O  O20  1  0.288924  0.993651  0.080174  1
  O  O21  1  0.674056  0.902947  0.234205  1
  O  O22  1  0.531988  0.555794  0.274511  1
  O  O23  1  0.256613  0.240023  0.587881  1
  O  O24  1  0.830005  0.478600  0.416983  1
  O  O25  1  0.082415  0.205610  0.927644  1
  O  O26  1  0.926156  0.798963  0.074943  1
  O  O27  1  0.501974  0.915430  0.777871  1
  O  O28  1  0.743508  0.756908  0.409001  1
  O  O29  1  0.475665  0.439485  0.718850  1
  O  O30  1  0.310809  0.088535  0.774379  1
  O  O31  1  0.703429  0.992758  0.923608  1
  O  O32  1  0.744177  0.806364  0.716287  1
  O  O33  1  0.861189  0.271184  0.233883  1
