# generated using pymatgen
data_Y2ErHfMg2Rh3
_symmetry_space_group_name_H-M   'P 1'
_cell_length_a   7.24851500
_cell_length_b   7.34179260
_cell_length_c   4.15185200
_cell_angle_alpha   90.00000000
_cell_angle_beta   90.00000000
_cell_angle_gamma   119.58059937
_symmetry_Int_Tables_number   1
_chemical_formula_structural   Y2ErHfMg2Rh3
_chemical_formula_sum   'Y2 Er1 Hf1 Mg2 Rh3'
_cell_volume   192.15141071
_cell_formula_units_Z   1
loop_
 _symmetry_equiv_pos_site_id
 _symmetry_equiv_pos_as_xyz
  1  'x, y, z'
loop_
 _atom_site_type_symbol
 _atom_site_label
 _atom_site_symmetry_multiplicity
 _atom_site_fract_x
 _atom_site_fract_y
 _atom_site_fract_z
 _atom_site_occupancy
  Y  Y0  1  0.991384  0.577795  0.500000  1
  Y  Y1  1  0.413589  0.422205  0.500000  1
  Er  Er2  1  0.601381  0.000000  0.500000  1
  Hf  Hf3  1  0.249050  0.000000  0.000000  1
  Mg  Mg4  1  0.752594  0.752478  0.000000  1
  Mg  Mg5  1  0.000117  0.247522  0.000000  1
  Rh  Rh6  1  0.643330  0.315436  0.000000  1
  Rh  Rh7  1  0.327894  0.684564  0.000000  1
  Rh  Rh8  1  0.020659  0.000000  0.500000  1
