# generated using pymatgen
data_Ti4CrIr2Ru
_symmetry_space_group_name_H-M   'P 1'
_cell_length_a   6.16571300
_cell_length_b   4.36223800
_cell_length_c   8.69252500
_cell_angle_alpha   90.00000000
_cell_angle_beta   90.00001588
_cell_angle_gamma   90.00000000
_symmetry_Int_Tables_number   1
_chemical_formula_structural   Ti4CrIr2Ru
_chemical_formula_sum   'Ti8 Cr2 Ir4 Ru2'
_cell_volume   233.79682575
_cell_formula_units_Z   2
loop_
 _symmetry_equiv_pos_site_id
 _symmetry_equiv_pos_as_xyz
  1  'x, y, z'
loop_
 _atom_site_type_symbol
 _atom_site_label
 _atom_site_symmetry_multiplicity
 _atom_site_fract_x
 _atom_site_fract_y
 _atom_site_fract_z
 _atom_site_occupancy
  Ti  Ti0  1  0.496198  0.750000  0.120157  1
  Ti  Ti1  1  0.003790  0.750000  0.120160  1
  Ti  Ti2  1  0.503829  0.250000  0.379759  1
  Ti  Ti3  1  0.996162  0.250000  0.379760  1
  Ti  Ti4  1  0.997198  0.750000  0.628630  1
  Ti  Ti5  1  0.502802  0.750000  0.628631  1
  Ti  Ti6  1  0.002835  0.250000  0.871389  1
  Ti  Ti7  1  0.497178  0.250000  0.871388  1
  Cr  Cr8  1  0.750024  0.250000  0.623238  1
  Cr  Cr9  1  0.249995  0.750000  0.876931  1
  Ir  Ir10  1  0.249998  0.250000  0.125441  1
  Ir  Ir11  1  0.749996  0.750000  0.374567  1
  Ir  Ir12  1  0.250011  0.250000  0.624800  1
  Ir  Ir13  1  0.749998  0.750000  0.875175  1
  Ru  Ru14  1  0.749989  0.250000  0.126009  1
  Ru  Ru15  1  0.249996  0.750000  0.373964  1
