# generated using pymatgen
data_Ce3Sm2Ho5(Al2Ru3)2
_symmetry_space_group_name_H-M   'P 1'
_cell_length_a   8.44160961
_cell_length_b   8.45626735
_cell_length_c   8.45416971
_cell_angle_alpha   110.31294082
_cell_angle_beta   110.15354188
_cell_angle_gamma   110.08826967
_symmetry_Int_Tables_number   1
_chemical_formula_structural   Ce3Sm2Ho5(Al2Ru3)2
_chemical_formula_sum   'Ce3 Sm2 Ho5 Al4 Ru6'
_cell_volume   451.87842398
_cell_formula_units_Z   1
loop_
 _symmetry_equiv_pos_site_id
 _symmetry_equiv_pos_as_xyz
  1  'x, y, z'
loop_
 _atom_site_type_symbol
 _atom_site_label
 _atom_site_symmetry_multiplicity
 _atom_site_fract_x
 _atom_site_fract_y
 _atom_site_fract_z
 _atom_site_occupancy
  Ce  Ce0  1  0.252828  0.200874  0.943723  1
  Ce  Ce1  1  0.943253  0.253474  0.200171  1
  Ce  Ce2  1  0.200912  0.943989  0.253081  1
  Sm  Sm3  1  0.992114  0.722108  0.505702  1
  Sm  Sm4  1  0.508166  0.994514  0.723328  1
  Ho  Ho5  1  0.780746  0.780233  0.781602  1
  Ho  Ho6  1  0.314828  0.565644  0.753760  1
  Ho  Ho7  1  0.752358  0.313239  0.566614  1
  Ho  Ho8  1  0.566104  0.752274  0.311767  1
  Ho  Ho9  1  0.719839  0.507943  0.992574  1
  Al  Al10  1  0.413527  0.412192  0.412531  1
  Al  Al11  1  0.092543  0.496355  0.002915  1
  Al  Al12  1  0.003678  0.096003  0.496780  1
  Al  Al13  1  0.497180  0.003300  0.096194  1
  Ru  Ru14  1  0.905364  0.118728  0.752059  1
  Ru  Ru15  1  0.752345  0.902940  0.118556  1
  Ru  Ru16  1  0.118859  0.752071  0.906267  1
  Ru  Ru17  1  0.223837  0.591097  0.365499  1
  Ru  Ru18  1  0.368236  0.226729  0.595324  1
  Ru  Ru19  1  0.593283  0.366292  0.221553  1
