# generated using pymatgen
data_NaLa6TcI12
_symmetry_space_group_name_H-M   'P 1'
_cell_length_a   10.17177022
_cell_length_b   10.17176971
_cell_length_c   10.17177005
_cell_angle_alpha   107.11191877
_cell_angle_beta   107.11192183
_cell_angle_gamma   107.11191112
_symmetry_Int_Tables_number   1
_chemical_formula_structural   NaLa6TcI12
_chemical_formula_sum   'Na1 La6 Tc1 I12'
_cell_volume   873.77682024
_cell_formula_units_Z   1
loop_
 _symmetry_equiv_pos_site_id
 _symmetry_equiv_pos_as_xyz
  1  'x, y, z'
loop_
 _atom_site_type_symbol
 _atom_site_label
 _atom_site_symmetry_multiplicity
 _atom_site_fract_x
 _atom_site_fract_y
 _atom_site_fract_z
 _atom_site_occupancy
  Na  Na0  1  0.500000  0.500000  0.500000  1
  La  La1  1  0.308658  0.103973  0.030964  1
  La  La2  1  0.030964  0.308658  0.103973  1
  La  La3  1  0.103973  0.030964  0.308658  1
  La  La4  1  0.896026  0.969036  0.691342  1
  La  La5  1  0.969036  0.691342  0.896026  1
  La  La6  1  0.691342  0.896027  0.969035  1
  Tc  Tc7  1  0.000000  0.000000  0.000000  1
  I  I8  1  0.683267  0.226669  0.075203  1
  I  I9  1  0.378672  0.458092  0.150814  1
  I  I10  1  0.075203  0.683267  0.226669  1
  I  I11  1  0.773330  0.924797  0.316733  1
  I  I12  1  0.458092  0.150815  0.378671  1
  I  I13  1  0.150815  0.378671  0.458092  1
  I  I14  1  0.849186  0.621329  0.541909  1
  I  I15  1  0.541908  0.849186  0.621329  1
  I  I16  1  0.226669  0.075203  0.683267  1
  I  I17  1  0.924797  0.316733  0.773330  1
  I  I18  1  0.621329  0.541909  0.849186  1
  I  I19  1  0.316733  0.773330  0.924797  1
