# generated using pymatgen
data_Lu3In3CoAg2
_symmetry_space_group_name_H-M   'P 1'
_cell_length_a   7.84944300
_cell_length_b   7.84944271
_cell_length_c   3.65559700
_cell_angle_alpha   90.00000000
_cell_angle_beta   90.00000000
_cell_angle_gamma   119.99999700
_symmetry_Int_Tables_number   1
_chemical_formula_structural   Lu3In3CoAg2
_chemical_formula_sum   'Lu3 In3 Co1 Ag2'
_cell_volume   195.05928204
_cell_formula_units_Z   1
loop_
 _symmetry_equiv_pos_site_id
 _symmetry_equiv_pos_as_xyz
  1  'x, y, z'
loop_
 _atom_site_type_symbol
 _atom_site_label
 _atom_site_symmetry_multiplicity
 _atom_site_fract_x
 _atom_site_fract_y
 _atom_site_fract_z
 _atom_site_occupancy
  Lu  Lu0  1  0.038317  0.614558  0.500000  1
  Lu  Lu1  1  0.576240  0.961683  0.500000  1
  Lu  Lu2  1  0.385442  0.423760  0.500000  1
  In  In3  1  0.998079  0.275416  0.000000  1
  In  In4  1  0.277337  0.001921  0.000000  1
  In  In5  1  0.724584  0.722663  0.000000  1
  Co  Co6  1  0.333333  0.666667  0.000000  1
  Ag  Ag7  1  0.000000  0.000000  0.500000  1
  Ag  Ag8  1  0.666667  0.333333  0.000000  1
