# generated using pymatgen
data_Tm2Si5Ir3
_symmetry_space_group_name_H-M   'P 1'
_cell_length_a   8.12094294
_cell_length_b   8.12094366
_cell_length_c   8.12094390
_cell_angle_alpha   138.21274411
_cell_angle_beta   103.70559066
_cell_angle_gamma   90.99945796
_symmetry_Int_Tables_number   1
_chemical_formula_structural   Tm2Si5Ir3
_chemical_formula_sum   'Tm4 Si10 Ir6'
_cell_volume   330.77491846
_cell_formula_units_Z   2
loop_
 _symmetry_equiv_pos_site_id
 _symmetry_equiv_pos_as_xyz
  1  'x, y, z'
loop_
 _atom_site_type_symbol
 _atom_site_label
 _atom_site_symmetry_multiplicity
 _atom_site_fract_x
 _atom_site_fract_y
 _atom_site_fract_z
 _atom_site_occupancy
  Tm  Tm0  1  0.859220  0.631995  0.227225  1
  Tm  Tm1  1  0.140780  0.368005  0.772775  1
  Tm  Tm2  1  0.404769  0.131995  0.272775  1
  Tm  Tm3  1  0.595231  0.868005  0.727225  1
  Si  Si4  1  0.500000  0.750000  0.250000  1
  Si  Si5  1  0.500000  0.250000  0.750000  1
  Si  Si6  1  0.225022  0.975022  0.750000  1
  Si  Si7  1  0.774978  0.524978  0.750000  1
  Si  Si8  1  0.774978  0.024978  0.250000  1
  Si  Si9  1  0.225022  0.475022  0.250000  1
  Si  Si10  1  0.049887  0.893752  0.156135  1
  Si  Si11  1  0.950113  0.106248  0.843865  1
  Si  Si12  1  0.737617  0.393752  0.343865  1
  Si  Si13  1  0.262383  0.606248  0.656135  1
  Ir  Ir14  1  0.000000  0.750000  0.750000  1
  Ir  Ir15  1  0.000000  0.250000  0.250000  1
  Ir  Ir16  1  0.245308  0.860299  0.385010  1
  Ir  Ir17  1  0.754692  0.139701  0.614990  1
  Ir  Ir18  1  0.475289  0.360299  0.114990  1
  Ir  Ir19  1  0.524711  0.639701  0.885010  1
