# generated using pymatgen
data_Nd11Cd9(NiPd)2
_symmetry_space_group_name_H-M   'P 1'
_cell_length_a   13.49329478
_cell_length_b   13.49639077
_cell_length_c   3.75758200
_cell_angle_alpha   90.00000000
_cell_angle_beta   90.00000000
_cell_angle_gamma   112.41627839
_symmetry_Int_Tables_number   1
_chemical_formula_structural   Nd11Cd9(NiPd)2
_chemical_formula_sum   'Nd11 Cd9 Ni2 Pd2'
_cell_volume   632.58921224
_cell_formula_units_Z   1
loop_
 _symmetry_equiv_pos_site_id
 _symmetry_equiv_pos_as_xyz
  1  'x, y, z'
loop_
 _atom_site_type_symbol
 _atom_site_label
 _atom_site_symmetry_multiplicity
 _atom_site_fract_x
 _atom_site_fract_y
 _atom_site_fract_z
 _atom_site_occupancy
  Nd  Nd0  1  0.075661  0.417585  0.000000  1
  Nd  Nd1  1  0.924339  0.582415  0.000000  1
  Nd  Nd2  1  0.419074  0.078786  0.000000  1
  Nd  Nd3  1  0.580926  0.921214  0.000000  1
  Nd  Nd4  1  0.620139  0.367307  0.000000  1
  Nd  Nd5  1  0.379861  0.632693  0.000000  1
  Nd  Nd6  1  0.835944  0.161294  0.000000  1
  Nd  Nd7  1  0.164056  0.838706  0.000000  1
  Nd  Nd8  1  0.000000  0.000000  0.000000  1
  Nd  Nd9  1  0.313980  0.306943  0.000000  1
  Nd  Nd10  1  0.686020  0.693057  0.000000  1
  Cd  Cd11  1  0.837588  0.365030  0.500000  1
  Cd  Cd12  1  0.162412  0.634970  0.500000  1
  Cd  Cd13  1  0.365138  0.837390  0.500000  1
  Cd  Cd14  1  0.634862  0.162610  0.500000  1
  Cd  Cd15  1  0.075687  0.216221  0.500000  1
  Cd  Cd16  1  0.924313  0.783779  0.500000  1
  Cd  Cd17  1  0.217552  0.074993  0.500000  1
  Cd  Cd18  1  0.782448  0.925007  0.500000  1
  Cd  Cd19  1  0.500000  0.500000  0.500000  1
  Ni  Ni20  1  0.450682  0.245718  0.500000  1
  Ni  Ni21  1  0.549318  0.754282  0.500000  1
  Pd  Pd22  1  0.252543  0.451911  0.500000  1
  Pd  Pd23  1  0.747457  0.548089  0.500000  1
