# generated using pymatgen
data_Ca2Lu3Pt4
_symmetry_space_group_name_H-M   'P 1'
_cell_length_a   7.46805100
_cell_length_b   7.59923100
_cell_length_c   14.41051600
_cell_angle_alpha   90.00000000
_cell_angle_beta   90.00000000
_cell_angle_gamma   90.00000000
_symmetry_Int_Tables_number   1
_chemical_formula_structural   Ca2Lu3Pt4
_chemical_formula_sum   'Ca8 Lu12 Pt16'
_cell_volume   817.81760142
_cell_formula_units_Z   4
loop_
 _symmetry_equiv_pos_site_id
 _symmetry_equiv_pos_as_xyz
  1  'x, y, z'
loop_
 _atom_site_type_symbol
 _atom_site_label
 _atom_site_symmetry_multiplicity
 _atom_site_fract_x
 _atom_site_fract_y
 _atom_site_fract_z
 _atom_site_occupancy
  Ca  Ca0  1  0.499310  0.324545  0.905637  1
  Ca  Ca1  1  0.999310  0.175455  0.594363  1
  Ca  Ca2  1  0.500690  0.675455  0.405637  1
  Ca  Ca3  1  0.000690  0.824545  0.094363  1
  Ca  Ca4  1  0.501504  0.676778  0.093986  1
  Ca  Ca5  1  0.001504  0.823222  0.406014  1
  Ca  Ca6  1  0.498496  0.323222  0.593986  1
  Ca  Ca7  1  0.998496  0.176778  0.906014  1
  Lu  Lu8  1  0.661802  0.165019  0.120998  1
  Lu  Lu9  1  0.161802  0.334981  0.379002  1
  Lu  Lu10  1  0.338198  0.834981  0.620999  1
  Lu  Lu11  1  0.838198  0.665019  0.879001  1
  Lu  Lu12  1  0.177292  0.489563  0.750046  1
  Lu  Lu13  1  0.677292  0.010437  0.749954  1
  Lu  Lu14  1  0.822708  0.510437  0.250046  1
  Lu  Lu15  1  0.322708  0.989563  0.249954  1
  Lu  Lu16  1  0.336660  0.835611  0.878466  1
  Lu  Lu17  1  0.836660  0.664389  0.621534  1
  Lu  Lu18  1  0.663340  0.164389  0.378467  1
  Lu  Lu19  1  0.163340  0.335611  0.121533  1
  Pt  Pt20  1  0.329613  0.040843  0.045939  1
  Pt  Pt21  1  0.829613  0.459157  0.454061  1
  Pt  Pt22  1  0.670387  0.959157  0.545939  1
  Pt  Pt23  1  0.170387  0.540843  0.954061  1
  Pt  Pt24  1  0.665186  0.960713  0.952713  1
  Pt  Pt25  1  0.165186  0.539287  0.547287  1
  Pt  Pt26  1  0.334814  0.039287  0.452713  1
  Pt  Pt27  1  0.834814  0.460713  0.047287  1
  Pt  Pt28  1  0.542046  0.636950  0.750374  1
  Pt  Pt29  1  0.042046  0.863050  0.749626  1
  Pt  Pt30  1  0.457954  0.363050  0.250374  1
  Pt  Pt31  1  0.957954  0.136950  0.249626  1
  Pt  Pt32  1  0.307588  0.126894  0.750739  1
  Pt  Pt33  1  0.807588  0.373106  0.749261  1
  Pt  Pt34  1  0.692412  0.873106  0.250739  1
  Pt  Pt35  1  0.192412  0.626894  0.249261  1
