# generated using pymatgen
data_Ce5Th2Os3
_symmetry_space_group_name_H-M   'P 1'
_cell_length_a   9.91613050
_cell_length_b   9.81628757
_cell_length_c   6.14926966
_cell_angle_alpha   89.82310036
_cell_angle_beta   90.19244954
_cell_angle_gamma   120.01191832
_symmetry_Int_Tables_number   1
_chemical_formula_structural   Ce5Th2Os3
_chemical_formula_sum   'Ce10 Th4 Os6'
_cell_volume   518.30868125
_cell_formula_units_Z   2
loop_
 _symmetry_equiv_pos_site_id
 _symmetry_equiv_pos_as_xyz
  1  'x, y, z'
loop_
 _atom_site_type_symbol
 _atom_site_label
 _atom_site_symmetry_multiplicity
 _atom_site_fract_x
 _atom_site_fract_y
 _atom_site_fract_z
 _atom_site_occupancy
  Ce  Ce0  1  0.467020  0.538628  0.295873  1
  Ce  Ce1  1  0.074779  0.540007  0.300572  1
  Ce  Ce2  1  0.922950  0.461538  0.801018  1
  Ce  Ce3  1  0.252113  0.126456  0.510527  1
  Ce  Ce4  1  0.535018  0.075285  0.792473  1
  Ce  Ce5  1  0.744799  0.872004  0.012308  1
  Ce  Ce6  1  0.669120  0.335280  0.283249  1
  Ce  Ce7  1  0.127972  0.873182  0.010931  1
  Ce  Ce8  1  0.463740  0.928418  0.294110  1
  Ce  Ce9  1  0.535699  0.459186  0.797822  1
  Th  Th10  1  0.870333  0.128796  0.511876  1
  Th  Th11  1  0.128013  0.254959  0.013254  1
  Th  Th12  1  0.872877  0.746022  0.512391  1
  Th  Th13  1  0.332142  0.664564  0.785932  1
  Os  Os14  1  0.815490  0.631338  0.041651  1
  Os  Os15  1  0.810662  0.182304  0.040398  1
  Os  Os16  1  0.624109  0.811087  0.545041  1
  Os  Os17  1  0.374045  0.183715  0.049559  1
  Os  Os18  1  0.189488  0.370988  0.539046  1
  Os  Os19  1  0.189634  0.816244  0.545966  1
