# generated using pymatgen
data_Sm3Ho5(Si3Ir)4
_symmetry_space_group_name_H-M   'P 1'
_cell_length_a   8.20051800
_cell_length_b   8.20051863
_cell_length_c   8.01345100
_cell_angle_alpha   90.00000000
_cell_angle_beta   90.00000000
_cell_angle_gamma   120.11773502
_symmetry_Int_Tables_number   1
_chemical_formula_structural   Sm3Ho5(Si3Ir)4
_chemical_formula_sum   'Sm3 Ho5 Si12 Ir4'
_cell_volume   466.13999087
_cell_formula_units_Z   1
loop_
 _symmetry_equiv_pos_site_id
 _symmetry_equiv_pos_as_xyz
  1  'x, y, z'
loop_
 _atom_site_type_symbol
 _atom_site_label
 _atom_site_symmetry_multiplicity
 _atom_site_fract_x
 _atom_site_fract_y
 _atom_site_fract_z
 _atom_site_occupancy
  Sm  Sm0  1  0.000063  0.999937  0.250000  1
  Sm  Sm1  1  0.999961  0.000039  0.750000  1
  Sm  Sm2  1  0.510467  0.489533  0.250000  1
  Ho  Ho3  1  0.509581  0.018609  0.250000  1
  Ho  Ho4  1  0.981391  0.490419  0.250000  1
  Ho  Ho5  1  0.490291  0.509709  0.750000  1
  Ho  Ho6  1  0.490125  0.980284  0.750000  1
  Ho  Ho7  1  0.019716  0.509875  0.750000  1
  Si  Si8  1  0.167246  0.832754  0.500190  1
  Si  Si9  1  0.167270  0.335134  0.500710  1
  Si  Si10  1  0.664866  0.832730  0.500710  1
  Si  Si11  1  0.832171  0.167829  0.500293  1
  Si  Si12  1  0.832842  0.664682  0.502181  1
  Si  Si13  1  0.335318  0.167158  0.502181  1
  Si  Si14  1  0.832171  0.167829  0.999707  1
  Si  Si15  1  0.832842  0.664682  0.997819  1
  Si  Si16  1  0.335318  0.167158  0.997819  1
  Si  Si17  1  0.167246  0.832754  0.999810  1
  Si  Si18  1  0.167270  0.335134  0.999290  1
  Si  Si19  1  0.664866  0.832730  0.999290  1
  Ir  Ir20  1  0.332304  0.667696  0.468832  1
  Ir  Ir21  1  0.667185  0.332815  0.537097  1
  Ir  Ir22  1  0.667185  0.332815  0.962903  1
  Ir  Ir23  1  0.332304  0.667696  0.031168  1
