# generated using pymatgen
data_YSb3Pb4O13
_symmetry_space_group_name_H-M   'P 1'
_cell_length_a   7.68320281
_cell_length_b   7.68320214
_cell_length_c   7.68320187
_cell_angle_alpha   59.71979554
_cell_angle_beta   59.71979649
_cell_angle_gamma   59.71979984
_symmetry_Int_Tables_number   1
_chemical_formula_structural   YSb3Pb4O13
_chemical_formula_sum   'Y1 Sb3 Pb4 O13'
_cell_volume   318.66848922
_cell_formula_units_Z   1
loop_
 _symmetry_equiv_pos_site_id
 _symmetry_equiv_pos_as_xyz
  1  'x, y, z'
loop_
 _atom_site_type_symbol
 _atom_site_label
 _atom_site_symmetry_multiplicity
 _atom_site_fract_x
 _atom_site_fract_y
 _atom_site_fract_z
 _atom_site_occupancy
  Y  Y0  1  0.499976  0.499976  0.499976  1
  Sb  Sb1  1  0.001101  0.500022  0.500022  1
  Sb  Sb2  1  0.500022  0.500022  0.001101  1
  Sb  Sb3  1  0.500022  0.001101  0.500022  1
  Pb  Pb4  1  0.998936  0.998936  0.998936  1
  Pb  Pb5  1  0.497891  0.002672  0.002672  1
  Pb  Pb6  1  0.002672  0.002672  0.497891  1
  Pb  Pb7  1  0.002672  0.497891  0.002672  1
  O  O8  1  0.856449  0.415779  0.415779  1
  O  O9  1  0.418809  0.815104  0.815104  1
  O  O10  1  0.415779  0.415779  0.856449  1
  O  O11  1  0.815104  0.815104  0.418809  1
  O  O12  1  0.815104  0.418809  0.815104  1
  O  O13  1  0.415779  0.856449  0.415779  1
  O  O14  1  0.148505  0.581150  0.581150  1
  O  O15  1  0.580939  0.185707  0.185707  1
  O  O16  1  0.581150  0.581150  0.148505  1
  O  O17  1  0.185707  0.185707  0.580939  1
  O  O18  1  0.185707  0.580939  0.185707  1
  O  O19  1  0.581150  0.148505  0.581150  1
  O  O20  1  0.121525  0.121525  0.121525  1
