# generated using pymatgen
data_La5Y11Cd4OsPt3
_symmetry_space_group_name_H-M   'P 1'
_cell_length_a   9.90716530
_cell_length_b   9.91435098
_cell_length_c   9.91435105
_cell_angle_alpha   59.34922132
_cell_angle_beta   59.56373455
_cell_angle_gamma   59.56372754
_symmetry_Int_Tables_number   1
_chemical_formula_structural   La5Y11Cd4OsPt3
_chemical_formula_sum   'La5 Y11 Cd4 Os1 Pt3'
_cell_volume   680.63484462
_cell_formula_units_Z   1
loop_
 _symmetry_equiv_pos_site_id
 _symmetry_equiv_pos_as_xyz
  1  'x, y, z'
loop_
 _atom_site_type_symbol
 _atom_site_label
 _atom_site_symmetry_multiplicity
 _atom_site_fract_x
 _atom_site_fract_y
 _atom_site_fract_z
 _atom_site_occupancy
  La  La0  1  0.351129  0.354261  0.354261  1
  La  La1  1  0.348689  0.348756  0.947677  1
  La  La2  1  0.348689  0.947677  0.348756  1
  La  La3  1  0.946176  0.351918  0.351918  1
  La  La4  1  0.821678  0.185537  0.185537  1
  Y  Y5  1  0.186311  0.811637  0.811637  1
  Y  Y6  1  0.191439  0.814164  0.185793  1
  Y  Y7  1  0.810455  0.186443  0.808614  1
  Y  Y8  1  0.191439  0.185793  0.814164  1
  Y  Y9  1  0.810455  0.808614  0.186443  1
  Y  Y10  1  0.933965  0.567139  0.567139  1
  Y  Y11  1  0.562863  0.932945  0.932945  1
  Y  Y12  1  0.564124  0.933237  0.567061  1
  Y  Y13  1  0.936482  0.561741  0.933066  1
  Y  Y14  1  0.564124  0.567061  0.933237  1
  Y  Y15  1  0.936482  0.933066  0.561741  1
  Cd  Cd16  1  0.581590  0.582116  0.582116  1
  Cd  Cd17  1  0.581028  0.585637  0.251176  1
  Cd  Cd18  1  0.581028  0.251176  0.585637  1
  Cd  Cd19  1  0.251337  0.582209  0.582209  1
  Os  Os20  1  0.138740  0.144255  0.144255  1
  Pt  Pt21  1  0.142010  0.142572  0.579735  1
  Pt  Pt22  1  0.142010  0.579735  0.142572  1
  Pt  Pt23  1  0.577759  0.142313  0.142313  1
