# generated using pymatgen
data_Ti2MnAs2Pd
_symmetry_space_group_name_H-M   'P 1'
_cell_length_a   3.72012500
_cell_length_b   6.38709894
_cell_length_c   7.58101289
_cell_angle_alpha   90.65274946
_cell_angle_beta   90.00000000
_cell_angle_gamma   90.00000000
_symmetry_Int_Tables_number   1
_chemical_formula_structural   Ti2MnAs2Pd
_chemical_formula_sum   'Ti4 Mn2 As4 Pd2'
_cell_volume   180.11929005
_cell_formula_units_Z   2
loop_
 _symmetry_equiv_pos_site_id
 _symmetry_equiv_pos_as_xyz
  1  'x, y, z'
loop_
 _atom_site_type_symbol
 _atom_site_label
 _atom_site_symmetry_multiplicity
 _atom_site_fract_x
 _atom_site_fract_y
 _atom_site_fract_z
 _atom_site_occupancy
  Ti  Ti0  1  0.250000  0.539352  0.164544  1
  Ti  Ti1  1  0.750000  0.460648  0.835456  1
  Ti  Ti2  1  0.750000  0.968629  0.682005  1
  Ti  Ti3  1  0.250000  0.031371  0.317995  1
  Mn  Mn4  1  0.750000  0.865944  0.055935  1
  Mn  Mn5  1  0.250000  0.134056  0.944065  1
  As  As6  1  0.250000  0.758937  0.878620  1
  As  As7  1  0.750000  0.241063  0.121380  1
  As  As8  1  0.750000  0.754504  0.356893  1
  As  As9  1  0.250000  0.245496  0.643107  1
  Pd  Pd10  1  0.250000  0.648409  0.564753  1
  Pd  Pd11  1  0.750000  0.351591  0.435247  1
