# generated using pymatgen
data_AcP7
_symmetry_space_group_name_H-M   'P 1'
_cell_length_a   11.89314000
_cell_length_b   7.21873184
_cell_length_c   10.53430076
_cell_angle_alpha   49.92356145
_cell_angle_beta   90.00000000
_cell_angle_gamma   90.00000000
_symmetry_Int_Tables_number   1
_chemical_formula_structural   AcP7
_chemical_formula_sum   'Ac4 P28'
_cell_volume   692.03855685
_cell_formula_units_Z   4
loop_
 _symmetry_equiv_pos_site_id
 _symmetry_equiv_pos_as_xyz
  1  'x, y, z'
loop_
 _atom_site_type_symbol
 _atom_site_label
 _atom_site_symmetry_multiplicity
 _atom_site_fract_x
 _atom_site_fract_y
 _atom_site_fract_z
 _atom_site_occupancy
  Ac  Ac0  1  0.649732  0.884355  0.717373  1
  Ac  Ac1  1  0.149732  0.115645  0.782627  1
  Ac  Ac2  1  0.350268  0.115645  0.282627  1
  Ac  Ac3  1  0.850268  0.884355  0.217373  1
  P  P4  1  0.780339  0.289708  0.251341  1
  P  P5  1  0.280339  0.710292  0.248659  1
  P  P6  1  0.219661  0.710292  0.748659  1
  P  P7  1  0.719661  0.289708  0.751341  1
  P  P8  1  0.536388  0.682399  0.409241  1
  P  P9  1  0.036388  0.317601  0.090759  1
  P  P10  1  0.463612  0.317601  0.590759  1
  P  P11  1  0.963612  0.682399  0.909241  1
  P  P12  1  0.886893  0.636383  0.738101  1
  P  P13  1  0.386893  0.363617  0.761899  1
  P  P14  1  0.113107  0.363617  0.261899  1
  P  P15  1  0.613107  0.636383  0.238101  1
  P  P16  1  0.661346  0.293306  0.950481  1
  P  P17  1  0.161346  0.706694  0.549519  1
  P  P18  1  0.338654  0.706694  0.049519  1
  P  P19  1  0.838654  0.293306  0.450481  1
  P  P20  1  0.898899  0.273628  0.817357  1
  P  P21  1  0.398899  0.726372  0.682643  1
  P  P22  1  0.101101  0.726372  0.182643  1
  P  P23  1  0.601101  0.273628  0.317357  1
  P  P24  1  0.489669  0.161792  0.989384  1
  P  P25  1  0.989669  0.838208  0.510616  1
  P  P26  1  0.510331  0.838208  0.010616  1
  P  P27  1  0.010331  0.161792  0.489384  1
  P  P28  1  0.687795  0.680530  0.529190  1
  P  P29  1  0.187795  0.319470  0.970810  1
  P  P30  1  0.312205  0.319470  0.470810  1
  P  P31  1  0.812205  0.680530  0.029190  1
