# generated using pymatgen
data_K3BaCu2F12
_symmetry_space_group_name_H-M   'P 1'
_cell_length_a   5.89253800
_cell_length_b   8.15212400
_cell_length_c   5.89253800
_cell_angle_alpha   90.00000000
_cell_angle_beta   90.00000000
_cell_angle_gamma   90.00000000
_symmetry_Int_Tables_number   1
_chemical_formula_structural   K3BaCu2F12
_chemical_formula_sum   'K3 Ba1 Cu2 F12'
_cell_volume   283.05808280
_cell_formula_units_Z   1
loop_
 _symmetry_equiv_pos_site_id
 _symmetry_equiv_pos_as_xyz
  1  'x, y, z'
loop_
 _atom_site_type_symbol
 _atom_site_label
 _atom_site_symmetry_multiplicity
 _atom_site_fract_x
 _atom_site_fract_y
 _atom_site_fract_z
 _atom_site_occupancy
  K  K0  1  0.000000  0.750000  0.500000  1
  K  K1  1  0.500000  0.750000  0.000000  1
  K  K2  1  0.000000  0.250000  0.500000  1
  Ba  Ba3  1  0.500000  0.250000  0.000000  1
  Cu  Cu4  1  0.000000  0.001219  0.000000  1
  Cu  Cu5  1  0.500000  0.498781  0.500000  1
  F  F6  1  0.000000  0.231063  0.000000  1
  F  F7  1  0.500000  0.724871  0.500000  1
  F  F8  1  0.275545  0.492974  0.267090  1
  F  F9  1  0.767090  0.007026  0.775545  1
  F  F10  1  0.275545  0.492974  0.732910  1
  F  F11  1  0.767090  0.007026  0.224455  1
  F  F12  1  0.000000  0.775129  0.000000  1
  F  F13  1  0.500000  0.268937  0.500000  1
  F  F14  1  0.724455  0.492974  0.732910  1
  F  F15  1  0.232910  0.007026  0.224455  1
  F  F16  1  0.724455  0.492974  0.267090  1
  F  F17  1  0.232910  0.007026  0.775545  1
