# generated using pymatgen
data_Pr8Dy9Tm3Si16
_symmetry_space_group_name_H-M   'P 1'
_cell_length_a   7.53034407
_cell_length_b   7.80853607
_cell_length_c   14.85413700
_cell_angle_alpha   90.00000000
_cell_angle_beta   90.00000000
_cell_angle_gamma   89.98443090
_symmetry_Int_Tables_number   1
_chemical_formula_structural   Pr8Dy9Tm3Si16
_chemical_formula_sum   'Pr8 Dy9 Tm3 Si16'
_cell_volume   873.43753237
_cell_formula_units_Z   1
loop_
 _symmetry_equiv_pos_site_id
 _symmetry_equiv_pos_as_xyz
  1  'x, y, z'
loop_
 _atom_site_type_symbol
 _atom_site_label
 _atom_site_symmetry_multiplicity
 _atom_site_fract_x
 _atom_site_fract_y
 _atom_site_fract_z
 _atom_site_occupancy
  Pr  Pr0  1  0.974579  0.820201  0.098276  1
  Pr  Pr1  1  0.474577  0.679821  0.401726  1
  Pr  Pr2  1  0.525515  0.320168  0.901891  1
  Pr  Pr3  1  0.025273  0.179977  0.598092  1
  Pr  Pr4  1  0.025273  0.179977  0.901908  1
  Pr  Pr5  1  0.525515  0.320168  0.598109  1
  Pr  Pr6  1  0.474577  0.679821  0.098274  1
  Pr  Pr7  1  0.974579  0.820201  0.401724  1
  Dy  Dy8  1  0.351173  0.010491  0.750000  1
  Dy  Dy9  1  0.681577  0.821271  0.876898  1
  Dy  Dy10  1  0.181269  0.678522  0.623104  1
  Dy  Dy11  1  0.818573  0.321376  0.123123  1
  Dy  Dy12  1  0.318525  0.178608  0.376854  1
  Dy  Dy13  1  0.318525  0.178608  0.123146  1
  Dy  Dy14  1  0.818573  0.321376  0.376877  1
  Dy  Dy15  1  0.181269  0.678522  0.876896  1
  Dy  Dy16  1  0.681577  0.821271  0.623102  1
  Tm  Tm17  1  0.649118  0.989414  0.250000  1
  Tm  Tm18  1  0.149062  0.510546  0.250000  1
  Tm  Tm19  1  0.850919  0.489255  0.750000  1
  Si  Si20  1  0.767990  0.620890  0.250000  1
  Si  Si21  1  0.267877  0.879123  0.250000  1
  Si  Si22  1  0.732945  0.120956  0.750000  1
  Si  Si23  1  0.231980  0.380002  0.750000  1
  Si  Si24  1  0.023039  0.110941  0.250000  1
  Si  Si25  1  0.523014  0.388959  0.250000  1
  Si  Si26  1  0.476927  0.610849  0.750000  1
  Si  Si27  1  0.976103  0.888842  0.750000  1
  Si  Si28  1  0.857002  0.530659  0.959807  1
  Si  Si29  1  0.357029  0.969252  0.539917  1
  Si  Si30  1  0.642990  0.030618  0.040257  1
  Si  Si31  1  0.143019  0.469392  0.459778  1
  Si  Si32  1  0.143019  0.469392  0.040222  1
  Si  Si33  1  0.642990  0.030618  0.459743  1
  Si  Si34  1  0.357029  0.969252  0.960083  1
  Si  Si35  1  0.857002  0.530659  0.540193  1
