# generated using pymatgen
data_KZrScSe4
_symmetry_space_group_name_H-M   'P 1'
_cell_length_a   3.91212700
_cell_length_b   8.42029137
_cell_length_c   6.67492649
_cell_angle_alpha   74.37450980
_cell_angle_beta   90.00000000
_cell_angle_gamma   90.00000000
_symmetry_Int_Tables_number   1
_chemical_formula_structural   KZrScSe4
_chemical_formula_sum   'K1 Zr1 Sc1 Se4'
_cell_volume   211.75425939
_cell_formula_units_Z   1
loop_
 _symmetry_equiv_pos_site_id
 _symmetry_equiv_pos_as_xyz
  1  'x, y, z'
loop_
 _atom_site_type_symbol
 _atom_site_label
 _atom_site_symmetry_multiplicity
 _atom_site_fract_x
 _atom_site_fract_y
 _atom_site_fract_z
 _atom_site_occupancy
  K  K0  1  0.500000  0.496813  0.653581  1
  Zr  Zr1  1  0.000000  0.995678  0.003860  1
  Sc  Sc2  1  0.500000  0.005583  0.501310  1
  Se  Se3  1  0.000000  0.812142  0.402894  1
  Se  Se4  1  0.500000  0.807892  0.900686  1
  Se  Se5  1  0.000000  0.192374  0.604402  1
  Se  Se6  1  0.500000  0.188638  0.100228  1
