# generated using pymatgen
data_Rb2Ca(PS3)2
_symmetry_space_group_name_H-M   'P 1'
_cell_length_a   12.62861200
_cell_length_b   6.63690985
_cell_length_c   9.61149703
_cell_angle_alpha   54.36024338
_cell_angle_beta   90.00000000
_cell_angle_gamma   90.00000000
_symmetry_Int_Tables_number   1
_chemical_formula_structural   Rb2Ca(PS3)2
_chemical_formula_sum   'Rb4 Ca2 P4 S12'
_cell_volume   654.69803767
_cell_formula_units_Z   2
loop_
 _symmetry_equiv_pos_site_id
 _symmetry_equiv_pos_as_xyz
  1  'x, y, z'
loop_
 _atom_site_type_symbol
 _atom_site_label
 _atom_site_symmetry_multiplicity
 _atom_site_fract_x
 _atom_site_fract_y
 _atom_site_fract_z
 _atom_site_occupancy
  Rb  Rb0  1  0.327346  0.205007  0.525153  1
  Rb  Rb1  1  0.672654  0.794993  0.474847  1
  Rb  Rb2  1  0.827346  0.794993  0.974847  1
  Rb  Rb3  1  0.172654  0.205007  0.025153  1
  Ca  Ca4  1  0.500000  0.500000  0.000000  1
  Ca  Ca5  1  0.000000  0.500000  0.500000  1
  P  P6  1  0.460221  0.849281  0.124116  1
  P  P7  1  0.039779  0.849281  0.624116  1
  P  P8  1  0.960221  0.150719  0.375884  1
  P  P9  1  0.539779  0.150719  0.875884  1
  S  S10  1  0.078309  0.009396  0.744851  1
  S  S11  1  0.668051  0.260304  0.945400  1
  S  S12  1  0.068448  0.430215  0.248525  1
  S  S13  1  0.921691  0.990604  0.255149  1
  S  S14  1  0.421691  0.009396  0.244851  1
  S  S15  1  0.331949  0.739696  0.054600  1
  S  S16  1  0.431552  0.430215  0.748525  1
  S  S17  1  0.568448  0.569785  0.251475  1
  S  S18  1  0.578309  0.990604  0.755149  1
  S  S19  1  0.168051  0.739696  0.554600  1
  S  S20  1  0.931552  0.569785  0.751475  1
  S  S21  1  0.831949  0.260304  0.445400  1
