# generated using pymatgen
data_Tm12Ru3I16
_symmetry_space_group_name_H-M   'P 1'
_cell_length_a   9.54846849
_cell_length_b   12.54317632
_cell_length_c   13.24010600
_cell_angle_alpha   117.17054536
_cell_angle_beta   101.16715603
_cell_angle_gamma   100.59047216
_symmetry_Int_Tables_number   1
_chemical_formula_structural   Tm12Ru3I16
_chemical_formula_sum   'Tm12 Ru3 I16'
_cell_volume   1315.00490134
_cell_formula_units_Z   1
loop_
 _symmetry_equiv_pos_site_id
 _symmetry_equiv_pos_as_xyz
  1  'x, y, z'
loop_
 _atom_site_type_symbol
 _atom_site_label
 _atom_site_symmetry_multiplicity
 _atom_site_fract_x
 _atom_site_fract_y
 _atom_site_fract_z
 _atom_site_occupancy
  Tm  Tm0  1  0.090426  0.275958  0.362756  1
  Tm  Tm1  1  0.909574  0.724042  0.637244  1
  Tm  Tm2  1  0.781487  0.534927  0.333632  1
  Tm  Tm3  1  0.218513  0.465073  0.666368  1
  Tm  Tm4  1  0.273411  0.724568  0.637466  1
  Tm  Tm5  1  0.726589  0.275432  0.362534  1
  Tm  Tm6  1  0.145259  0.535127  0.333860  1
  Tm  Tm7  1  0.854741  0.464873  0.666140  1
  Tm  Tm8  1  0.410327  0.366634  0.286203  1
  Tm  Tm9  1  0.589673  0.633366  0.713797  1
  Tm  Tm10  1  0.461168  0.317688  0.520254  1
  Tm  Tm11  1  0.538832  0.682312  0.479746  1
  Ru  Ru12  1  0.000000  0.500000  0.500000  1
  Ru  Ru13  1  0.337445  0.500163  0.499925  1
  Ru  Ru14  1  0.662556  0.499837  0.500075  1
  I  I15  1  0.391887  0.737971  0.881138  1
  I  I16  1  0.608113  0.262029  0.118862  1
  I  I17  1  0.185858  0.958109  0.779486  1
  I  I18  1  0.814142  0.041891  0.220514  1
  I  I19  1  0.338960  0.099715  0.254837  1
  I  I20  1  0.661040  0.900285  0.745163  1
  I  I21  1  0.561666  0.437687  0.796607  1
  I  I22  1  0.438334  0.562313  0.203393  1
  I  I23  1  0.302305  0.825509  0.463096  1
  I  I24  1  0.697695  0.174491  0.536904  1
  I  I25  1  0.163834  0.174225  0.535515  1
  I  I26  1  0.836166  0.825775  0.464485  1
  I  I27  1  0.926408  0.573561  0.162573  1
  I  I28  1  0.073592  0.426439  0.837427  1
  I  I29  1  0.927105  0.737243  0.881057  1
  I  I30  1  0.072895  0.262757  0.118943  1
