# generated using pymatgen
data_HgBi3Ir3RuO14
_symmetry_space_group_name_H-M   'P 1'
_cell_length_a   7.26593158
_cell_length_b   7.29040480
_cell_length_c   7.26593161
_cell_angle_alpha   61.46389985
_cell_angle_beta   61.38141677
_cell_angle_gamma   61.46389180
_symmetry_Int_Tables_number   1
_chemical_formula_structural   HgBi3Ir3RuO14
_chemical_formula_sum   'Hg1 Bi3 Ir3 Ru1 O14'
_cell_volume   280.93567757
_cell_formula_units_Z   1
loop_
 _symmetry_equiv_pos_site_id
 _symmetry_equiv_pos_as_xyz
  1  'x, y, z'
loop_
 _atom_site_type_symbol
 _atom_site_label
 _atom_site_symmetry_multiplicity
 _atom_site_fract_x
 _atom_site_fract_y
 _atom_site_fract_z
 _atom_site_occupancy
  Hg  Hg0  1  0.125000  0.125000  0.125000  1
  Bi  Bi1  1  0.125000  0.125000  0.625000  1
  Bi  Bi2  1  0.125000  0.625000  0.125000  1
  Bi  Bi3  1  0.625000  0.125000  0.125000  1
  Ir  Ir4  1  0.625000  0.625000  0.125000  1
  Ir  Ir5  1  0.125000  0.625000  0.625000  1
  Ir  Ir6  1  0.625000  0.625000  0.625000  1
  Ru  Ru7  1  0.625000  0.125000  0.625000  1
  O  O8  1  0.245259  0.247073  0.245259  1
  O  O9  1  0.004741  0.002927  0.004741  1
  O  O10  1  0.544792  0.951812  0.544792  1
  O  O11  1  0.298312  0.694760  0.298312  1
  O  O12  1  0.543853  0.542783  0.954567  1
  O  O13  1  0.954567  0.542783  0.543853  1
  O  O14  1  0.564474  0.947006  0.946696  1
  O  O15  1  0.946696  0.947006  0.564474  1
  O  O16  1  0.951688  0.555240  0.951688  1
  O  O17  1  0.685526  0.302994  0.303304  1
  O  O18  1  0.295433  0.707217  0.706147  1
  O  O19  1  0.705208  0.298188  0.705208  1
  O  O20  1  0.303304  0.302994  0.685526  1
  O  O21  1  0.706147  0.707217  0.295433  1
