# generated using pymatgen
data_Tb5Dy11(HoPb4)4
_symmetry_space_group_name_H-M   'P 1'
_cell_length_a   8.21024458
_cell_length_b   8.29691786
_cell_length_c   15.67351500
_cell_angle_alpha   90.00177476
_cell_angle_beta   89.96448605
_cell_angle_gamma   89.96164701
_symmetry_Int_Tables_number   1
_chemical_formula_structural   Tb5Dy11(HoPb4)4
_chemical_formula_sum   'Tb5 Dy11 Ho4 Pb16'
_cell_volume   1067.67508505
_cell_formula_units_Z   1
loop_
 _symmetry_equiv_pos_site_id
 _symmetry_equiv_pos_as_xyz
  1  'x, y, z'
loop_
 _atom_site_type_symbol
 _atom_site_label
 _atom_site_symmetry_multiplicity
 _atom_site_fract_x
 _atom_site_fract_y
 _atom_site_fract_z
 _atom_site_occupancy
  Tb  Tb0  1  0.965574  0.823153  0.099923  1
  Tb  Tb1  1  0.465771  0.676614  0.099614  1
  Tb  Tb2  1  0.965567  0.823237  0.400303  1
  Tb  Tb3  1  0.534316  0.323301  0.599722  1
  Tb  Tb4  1  0.034133  0.176880  0.900270  1
  Dy  Dy5  1  0.376315  0.841332  0.879019  1
  Dy  Dy6  1  0.876625  0.658774  0.620943  1
  Dy  Dy7  1  0.623292  0.158827  0.379204  1
  Dy  Dy8  1  0.123481  0.341223  0.120800  1
  Dy  Dy9  1  0.623428  0.158751  0.120827  1
  Dy  Dy10  1  0.123336  0.341186  0.379360  1
  Dy  Dy11  1  0.376725  0.841321  0.620931  1
  Dy  Dy12  1  0.876357  0.658595  0.878977  1
  Dy  Dy13  1  0.534843  0.323387  0.899819  1
  Dy  Dy14  1  0.035083  0.176447  0.600243  1
  Dy  Dy15  1  0.464918  0.676391  0.400004  1
  Ho  Ho16  1  0.208391  0.504113  0.749966  1
  Ho  Ho17  1  0.708401  0.995871  0.749943  1
  Ho  Ho18  1  0.791530  0.495857  0.250108  1
  Ho  Ho19  1  0.291705  0.004250  0.250136  1
  Pb  Pb20  1  0.282238  0.033976  0.042867  1
  Pb  Pb21  1  0.781299  0.466753  0.457044  1
  Pb  Pb22  1  0.718636  0.966753  0.543416  1
  Pb  Pb23  1  0.218373  0.533639  0.956643  1
  Pb  Pb24  1  0.717309  0.965883  0.956758  1
  Pb  Pb25  1  0.217757  0.534522  0.542993  1
  Pb  Pb26  1  0.282244  0.034244  0.457507  1
  Pb  Pb27  1  0.782113  0.465171  0.042382  1
  Pb  Pb28  1  0.571611  0.625786  0.749945  1
  Pb  Pb29  1  0.071529  0.874076  0.750086  1
  Pb  Pb30  1  0.428273  0.374082  0.249902  1
  Pb  Pb31  1  0.928348  0.125945  0.250048  1
  Pb  Pb32  1  0.346289  0.153557  0.750218  1
  Pb  Pb33  1  0.846235  0.346421  0.749813  1
  Pb  Pb34  1  0.653635  0.846496  0.250194  1
  Pb  Pb35  1  0.154321  0.653185  0.250073  1
