# generated using pymatgen
data_YbDy5TmCo6Sn23
_symmetry_space_group_name_H-M   'P 1'
_cell_length_a   9.72022832
_cell_length_b   9.72022859
_cell_length_c   9.93713820
_cell_angle_alpha   90.01969131
_cell_angle_beta   89.98030735
_cell_angle_gamma   120.02194157
_symmetry_Int_Tables_number   1
_chemical_formula_structural   YbDy5TmCo6Sn23
_chemical_formula_sum   'Yb1 Dy5 Tm1 Co6 Sn23'
_cell_volume   812.92187037
_cell_formula_units_Z   1
loop_
 _symmetry_equiv_pos_site_id
 _symmetry_equiv_pos_as_xyz
  1  'x, y, z'
loop_
 _atom_site_type_symbol
 _atom_site_label
 _atom_site_symmetry_multiplicity
 _atom_site_fract_x
 _atom_site_fract_y
 _atom_site_fract_z
 _atom_site_occupancy
  Yb  Yb0  1  0.999879  0.000121  0.000201  1
  Dy  Dy1  1  0.520838  0.479162  0.694123  1
  Dy  Dy2  1  0.479077  0.958369  0.305788  1
  Dy  Dy3  1  0.520742  0.041615  0.694106  1
  Dy  Dy4  1  0.041631  0.520923  0.305788  1
  Dy  Dy5  1  0.958385  0.479258  0.694106  1
  Tm  Tm6  1  0.480035  0.519965  0.305336  1
  Co  Co7  1  0.831758  0.168242  0.198522  1
  Co  Co8  1  0.168385  0.831615  0.801753  1
  Co  Co9  1  0.830626  0.662716  0.198598  1
  Co  Co10  1  0.168448  0.336978  0.801490  1
  Co  Co11  1  0.337284  0.169374  0.198598  1
  Co  Co12  1  0.663022  0.831552  0.801490  1
  Sn  Sn13  1  0.345732  0.000267  0.000141  1
  Sn  Sn14  1  0.654260  0.999892  0.000107  1
  Sn  Sn15  1  0.000108  0.345740  0.000107  1
  Sn  Sn16  1  0.999733  0.654268  0.000141  1
  Sn  Sn17  1  0.654329  0.654471  0.000064  1
  Sn  Sn18  1  0.345529  0.345671  0.000064  1
  Sn  Sn19  1  0.333290  0.666710  0.816331  1
  Sn  Sn20  1  0.666576  0.333424  0.183854  1
  Sn  Sn21  1  0.999884  0.000116  0.499837  1
  Sn  Sn22  1  0.781111  0.218889  0.452113  1
  Sn  Sn23  1  0.218843  0.781157  0.547794  1
  Sn  Sn24  1  0.780459  0.562434  0.451809  1
  Sn  Sn25  1  0.219361  0.437707  0.547372  1
  Sn  Sn26  1  0.437566  0.219541  0.451809  1
  Sn  Sn27  1  0.562293  0.780639  0.547372  1
  Sn  Sn28  1  0.334397  0.665603  0.119459  1
  Sn  Sn29  1  0.666658  0.333342  0.881434  1
  Sn  Sn30  1  0.116867  0.883133  0.273486  1
  Sn  Sn31  1  0.883039  0.116961  0.726518  1
  Sn  Sn32  1  0.118050  0.235210  0.273894  1
  Sn  Sn33  1  0.882730  0.765717  0.726251  1
  Sn  Sn34  1  0.764790  0.881950  0.273894  1
  Sn  Sn35  1  0.234283  0.117270  0.726251  1
