# generated using pymatgen
data_Tm2Fe8MoP6W
_symmetry_space_group_name_H-M   'P 1'
_cell_length_a   3.69531200
_cell_length_b   10.39191700
_cell_length_c   11.97673900
_cell_angle_alpha   90.00000000
_cell_angle_beta   90.00000000
_cell_angle_gamma   90.00000000
_symmetry_Int_Tables_number   1
_chemical_formula_structural   Tm2Fe8MoP6W
_chemical_formula_sum   'Tm4 Fe16 Mo2 P12 W2'
_cell_volume   459.92325272
_cell_formula_units_Z   2
loop_
 _symmetry_equiv_pos_site_id
 _symmetry_equiv_pos_as_xyz
  1  'x, y, z'
loop_
 _atom_site_type_symbol
 _atom_site_label
 _atom_site_symmetry_multiplicity
 _atom_site_fract_x
 _atom_site_fract_y
 _atom_site_fract_z
 _atom_site_occupancy
  Tm  Tm0  1  0.250000  0.583390  0.708386  1
  Tm  Tm1  1  0.250000  0.916610  0.208386  1
  Tm  Tm2  1  0.750000  0.417937  0.291276  1
  Tm  Tm3  1  0.750000  0.082063  0.791276  1
  Fe  Fe4  1  0.250000  0.411010  0.492266  1
  Fe  Fe5  1  0.250000  0.088990  0.992266  1
  Fe  Fe6  1  0.750000  0.591037  0.508393  1
  Fe  Fe7  1  0.750000  0.908963  0.008393  1
  Fe  Fe8  1  0.250000  0.217217  0.177309  1
  Fe  Fe9  1  0.250000  0.282783  0.677309  1
  Fe  Fe10  1  0.750000  0.781331  0.823849  1
  Fe  Fe11  1  0.750000  0.718669  0.323849  1
  Fe  Fe12  1  0.250000  0.879006  0.700140  1
  Fe  Fe13  1  0.250000  0.620994  0.200140  1
  Fe  Fe14  1  0.750000  0.122430  0.299177  1
  Fe  Fe15  1  0.750000  0.377570  0.799177  1
  Fe  Fe16  1  0.250000  0.463511  0.932715  1
  Fe  Fe17  1  0.250000  0.036489  0.432715  1
  Fe  Fe18  1  0.750000  0.536588  0.066143  1
  Fe  Fe19  1  0.750000  0.963412  0.566143  1
  Mo  Mo20  1  0.750000  0.292886  0.011313  1
  Mo  Mo21  1  0.750000  0.207114  0.511313  1
  P  P22  1  0.250000  0.424031  0.114002  1
  P  P23  1  0.250000  0.075969  0.614002  1
  P  P24  1  0.750000  0.575156  0.884917  1
  P  P25  1  0.750000  0.924844  0.384917  1
  P  P26  1  0.250000  0.264891  0.865831  1
  P  P27  1  0.250000  0.235109  0.365831  1
  P  P28  1  0.750000  0.733400  0.136103  1
  P  P29  1  0.750000  0.766600  0.636103  1
  P  P30  1  0.250000  0.594125  0.386338  1
  P  P31  1  0.250000  0.905875  0.886338  1
  P  P32  1  0.750000  0.406370  0.612395  1
  P  P33  1  0.750000  0.093630  0.112395  1
  W  W34  1  0.250000  0.705448  0.989447  1
  W  W35  1  0.250000  0.794552  0.489447  1
