# generated using pymatgen
data_MnTlNiO4
_symmetry_space_group_name_H-M   'P 1'
_cell_length_a   9.28247095
_cell_length_b   8.63658328
_cell_length_c   8.71460477
_cell_angle_alpha   90.00107940
_cell_angle_beta   90.81134520
_cell_angle_gamma   90.00245605
_symmetry_Int_Tables_number   1
_chemical_formula_structural   MnTlNiO4
_chemical_formula_sum   'Mn8 Tl8 Ni8 O32'
_cell_volume   698.56965123
_cell_formula_units_Z   8
loop_
 _symmetry_equiv_pos_site_id
 _symmetry_equiv_pos_as_xyz
  1  'x, y, z'
loop_
 _atom_site_type_symbol
 _atom_site_label
 _atom_site_symmetry_multiplicity
 _atom_site_fract_x
 _atom_site_fract_y
 _atom_site_fract_z
 _atom_site_occupancy
  Mn  Mn0  1  0.749887  0.750136  0.999920  1
  Mn  Mn1  1  0.000151  0.250016  0.249939  1
  Mn  Mn2  1  0.499843  0.750156  0.249915  1
  Mn  Mn3  1  0.749885  0.250110  0.499955  1
  Mn  Mn4  1  0.249763  0.749828  0.499943  1
  Mn  Mn5  1  0.500159  0.249793  0.750114  1
  Mn  Mn6  1  0.999871  0.749939  0.749907  1
  Mn  Mn7  1  0.250406  0.249748  0.000217  1
  Tl  Tl8  1  0.625336  0.114608  0.125507  1
  Tl  Tl9  1  0.125182  0.614660  0.124559  1
  Tl  Tl10  1  0.374975  0.385441  0.374856  1
  Tl  Tl11  1  0.874673  0.885385  0.375078  1
  Tl  Tl12  1  0.125154  0.114901  0.625232  1
  Tl  Tl13  1  0.625077  0.615101  0.624809  1
  Tl  Tl14  1  0.874959  0.385043  0.875177  1
  Tl  Tl15  1  0.374572  0.884974  0.874800  1
  Ni  Ni16  1  0.999984  0.000079  0.999994  1
  Ni  Ni17  1  0.500373  0.500241  0.999925  1
  Ni  Ni18  1  0.499694  0.999818  0.499949  1
  Ni  Ni19  1  0.749973  0.500114  0.249976  1
  Ni  Ni20  1  0.249999  0.999919  0.249992  1
  Ni  Ni21  1  0.999993  0.500046  0.500051  1
  Ni  Ni22  1  0.749915  0.999963  0.750027  1
  Ni  Ni23  1  0.250145  0.499878  0.749950  1
  O  O24  1  0.227296  0.022806  0.011639  1
  O  O25  1  0.008828  0.241351  0.024176  1
  O  O26  1  0.727349  0.523131  0.011544  1
  O  O27  1  0.508614  0.741535  0.023865  1
  O  O28  1  0.022743  0.022927  0.238521  1
  O  O29  1  0.241683  0.241359  0.226029  1
  O  O30  1  0.522763  0.523010  0.238256  1
  O  O31  1  0.741137  0.741689  0.225945  1
  O  O32  1  0.977295  0.477215  0.261430  1
  O  O33  1  0.758644  0.258704  0.274244  1
  O  O34  1  0.258489  0.758442  0.273804  1
  O  O35  1  0.477185  0.977067  0.261620  1
  O  O36  1  0.772653  0.477221  0.488425  1
  O  O37  1  0.991484  0.258653  0.476107  1
  O  O38  1  0.491011  0.758497  0.475841  1
  O  O39  1  0.272550  0.977001  0.488442  1
  O  O40  1  0.726904  0.022982  0.511646  1
  O  O41  1  0.508263  0.241102  0.524124  1
  O  O42  1  0.008426  0.741444  0.524036  1
  O  O43  1  0.227219  0.522794  0.511569  1
  O  O44  1  0.522711  0.022875  0.738503  1
  O  O45  1  0.741176  0.241586  0.726037  1
  O  O46  1  0.241266  0.741143  0.725867  1
  O  O47  1  0.022818  0.522687  0.738579  1
  O  O48  1  0.259200  0.258238  0.774263  1
  O  O49  1  0.477382  0.476987  0.761490  1
  O  O50  1  0.758401  0.758779  0.773916  1
  O  O51  1  0.977155  0.977176  0.761533  1
  O  O52  1  0.492086  0.258901  0.976078  1
  O  O53  1  0.273238  0.477007  0.988379  1
  O  O54  1  0.991205  0.758545  0.975819  1
  O  O55  1  0.772811  0.977255  0.988440  1
