# generated using pymatgen
data_Ho3Lu5Cr2(OsC4)2
_symmetry_space_group_name_H-M   'P 1'
_cell_length_a   4.97907300
_cell_length_b   6.42723971
_cell_length_c   9.62396933
_cell_angle_alpha   90.17050579
_cell_angle_beta   90.00000000
_cell_angle_gamma   90.00000000
_symmetry_Int_Tables_number   1
_chemical_formula_structural   Ho3Lu5Cr2(OsC4)2
_chemical_formula_sum   'Ho3 Lu5 Cr2 Os2 C8'
_cell_volume   307.98197441
_cell_formula_units_Z   1
loop_
 _symmetry_equiv_pos_site_id
 _symmetry_equiv_pos_as_xyz
  1  'x, y, z'
loop_
 _atom_site_type_symbol
 _atom_site_label
 _atom_site_symmetry_multiplicity
 _atom_site_fract_x
 _atom_site_fract_y
 _atom_site_fract_z
 _atom_site_occupancy
  Ho  Ho0  1  0.750000  0.467861  0.784813  1
  Ho  Ho1  1  0.750000  0.972137  0.715501  1
  Ho  Ho2  1  0.250000  0.028493  0.284014  1
  Lu  Lu3  1  0.250000  0.679113  0.559408  1
  Lu  Lu4  1  0.750000  0.321428  0.440010  1
  Lu  Lu5  1  0.750000  0.825326  0.056070  1
  Lu  Lu6  1  0.250000  0.174020  0.944534  1
  Lu  Lu7  1  0.250000  0.532988  0.216426  1
  Cr  Cr8  1  0.250000  0.723817  0.863528  1
  Cr  Cr9  1  0.750000  0.276248  0.136792  1
  Os  Os10  1  0.750000  0.776423  0.363673  1
  Os  Os11  1  0.250000  0.223698  0.635444  1
  C  C12  1  0.250000  0.462015  0.764762  1
  C  C13  1  0.750000  0.538356  0.234584  1
  C  C14  1  0.750000  0.049011  0.256562  1
  C  C15  1  0.250000  0.951293  0.743422  1
  C  C16  1  0.250000  0.815548  0.043770  1
  C  C17  1  0.750000  0.181203  0.957826  1
  C  C18  1  0.750000  0.673023  0.550635  1
  C  C19  1  0.250000  0.327999  0.448225  1
