# generated using pymatgen
data_Ca2YbTm(ReB4)4
_symmetry_space_group_name_H-M   'P 1'
_cell_length_a   3.57675100
_cell_length_b   5.98964668
_cell_length_c   11.57855802
_cell_angle_alpha   90.07575189
_cell_angle_beta   90.00000000
_cell_angle_gamma   90.00000000
_symmetry_Int_Tables_number   1
_chemical_formula_structural   Ca2YbTm(ReB4)4
_chemical_formula_sum   'Ca2 Yb1 Tm1 Re4 B16'
_cell_volume   248.05272845
_cell_formula_units_Z   1
loop_
 _symmetry_equiv_pos_site_id
 _symmetry_equiv_pos_as_xyz
  1  'x, y, z'
loop_
 _atom_site_type_symbol
 _atom_site_label
 _atom_site_symmetry_multiplicity
 _atom_site_fract_x
 _atom_site_fract_y
 _atom_site_fract_z
 _atom_site_occupancy
  Ca  Ca0  1  0.500000  0.628363  0.848516  1
  Ca  Ca1  1  0.500000  0.128077  0.649917  1
  Yb  Yb2  1  0.500000  0.872337  0.351133  1
  Tm  Tm3  1  0.500000  0.371576  0.150614  1
  Re  Re4  1  0.500000  0.370032  0.414675  1
  Re  Re5  1  0.500000  0.631116  0.582861  1
  Re  Re6  1  0.500000  0.132127  0.917552  1
  Re  Re7  1  0.500000  0.869956  0.085694  1
  B  B8  1  0.000000  0.113659  0.048280  1
  B  B9  1  0.000000  0.885708  0.952792  1
  B  B10  1  0.000000  0.385501  0.546714  1
  B  B11  1  0.000000  0.614137  0.451737  1
  B  B12  1  0.000000  0.134470  0.467260  1
  B  B13  1  0.000000  0.864800  0.531569  1
  B  B14  1  0.000000  0.364566  0.968824  1
  B  B15  1  0.000000  0.635155  0.032245  1
  B  B16  1  0.000000  0.023994  0.193078  1
  B  B17  1  0.000000  0.976903  0.807940  1
  B  B18  1  0.000000  0.476656  0.692137  1
  B  B19  1  0.000000  0.523705  0.306787  1
  B  B20  1  0.000000  0.213970  0.314728  1
  B  B21  1  0.000000  0.784678  0.684594  1
  B  B22  1  0.000000  0.283917  0.815099  1
  B  B23  1  0.000000  0.714595  0.185253  1
