# generated using pymatgen
data_Ca3HoAs3
_symmetry_space_group_name_H-M   'P 1'
_cell_length_a   7.67534182
_cell_length_b   7.73733000
_cell_length_c   7.67534149
_cell_angle_alpha   109.55885304
_cell_angle_beta   109.11809494
_cell_angle_gamma   109.55884635
_symmetry_Int_Tables_number   1
_chemical_formula_structural   Ca3HoAs3
_chemical_formula_sum   'Ca6 Ho2 As6'
_cell_volume   351.64781387
_cell_formula_units_Z   2
loop_
 _symmetry_equiv_pos_site_id
 _symmetry_equiv_pos_as_xyz
  1  'x, y, z'
loop_
 _atom_site_type_symbol
 _atom_site_label
 _atom_site_symmetry_multiplicity
 _atom_site_fract_x
 _atom_site_fract_y
 _atom_site_fract_z
 _atom_site_occupancy
  Ca  Ca0  1  0.364257  0.360479  0.365530  1
  Ca  Ca1  1  0.998825  0.134345  0.495102  1
  Ca  Ca2  1  0.865530  0.860479  0.864257  1
  Ca  Ca3  1  0.995102  0.634345  0.498825  1
  Ca  Ca4  1  0.635968  0.505458  0.003735  1
  Ca  Ca5  1  0.503735  0.005458  0.135968  1
  Ho  Ho6  1  0.135699  0.499786  0.000400  1
  Ho  Ho7  1  0.500400  0.999786  0.635699  1
  As  As8  1  0.876435  0.250169  0.114049  1
  As  As9  1  0.133283  0.869782  0.253200  1
  As  As10  1  0.371790  0.629980  0.751729  1
  As  As11  1  0.251729  0.129980  0.871790  1
  As  As12  1  0.753200  0.369782  0.633283  1
  As  As13  1  0.614049  0.750169  0.376435  1
