# generated using pymatgen
data_Yb3YHo4(ReC2)4
_symmetry_space_group_name_H-M   'P 1'
_cell_length_a   5.12084700
_cell_length_b   6.53789083
_cell_length_c   10.00099350
_cell_angle_alpha   89.41033592
_cell_angle_beta   90.00000000
_cell_angle_gamma   90.00000000
_symmetry_Int_Tables_number   1
_chemical_formula_structural   Yb3YHo4(ReC2)4
_chemical_formula_sum   'Yb3 Y1 Ho4 Re4 C8'
_cell_volume   334.81091667
_cell_formula_units_Z   1
loop_
 _symmetry_equiv_pos_site_id
 _symmetry_equiv_pos_as_xyz
  1  'x, y, z'
loop_
 _atom_site_type_symbol
 _atom_site_label
 _atom_site_symmetry_multiplicity
 _atom_site_fract_x
 _atom_site_fract_y
 _atom_site_fract_z
 _atom_site_occupancy
  Yb  Yb0  1  0.750000  0.462908  0.777053  1
  Yb  Yb1  1  0.750000  0.962799  0.723407  1
  Yb  Yb2  1  0.250000  0.036416  0.277815  1
  Y  Y3  1  0.250000  0.535139  0.222220  1
  Ho  Ho4  1  0.250000  0.688102  0.554952  1
  Ho  Ho5  1  0.750000  0.314185  0.446015  1
  Ho  Ho6  1  0.750000  0.817895  0.054089  1
  Ho  Ho7  1  0.250000  0.183082  0.944672  1
  Re  Re8  1  0.250000  0.722749  0.861540  1
  Re  Re9  1  0.750000  0.275643  0.138738  1
  Re  Re10  1  0.750000  0.774670  0.361072  1
  Re  Re11  1  0.250000  0.226967  0.637187  1
  C  C12  1  0.250000  0.456643  0.759420  1
  C  C13  1  0.750000  0.543045  0.239054  1
  C  C14  1  0.750000  0.043271  0.261114  1
  C  C15  1  0.250000  0.957754  0.740053  1
  C  C16  1  0.250000  0.811876  0.043260  1
  C  C17  1  0.750000  0.176910  0.960040  1
  C  C18  1  0.750000  0.683740  0.541980  1
  C  C19  1  0.250000  0.326207  0.456319  1
