# generated using pymatgen
data_Ca9NdSi5Sn
_symmetry_space_group_name_H-M   'P 1'
_cell_length_a   9.24117922
_cell_length_b   9.26028296
_cell_length_c   9.24924563
_cell_angle_alpha   130.75884345
_cell_angle_beta   130.74386657
_cell_angle_gamma   72.32357853
_symmetry_Int_Tables_number   1
_chemical_formula_structural   Ca9NdSi5Sn
_chemical_formula_sum   'Ca9 Nd1 Si5 Sn1'
_cell_volume   443.76911404
_cell_formula_units_Z   1
loop_
 _symmetry_equiv_pos_site_id
 _symmetry_equiv_pos_as_xyz
  1  'x, y, z'
loop_
 _atom_site_type_symbol
 _atom_site_label
 _atom_site_symmetry_multiplicity
 _atom_site_fract_x
 _atom_site_fract_y
 _atom_site_fract_z
 _atom_site_occupancy
  Ca  Ca0  1  0.191349  0.674903  0.144281  1
  Ca  Ca1  1  0.455216  0.972458  0.146177  1
  Ca  Ca2  1  0.311503  0.454705  0.485925  1
  Ca  Ca3  1  0.043631  0.191553  0.517144  1
  Ca  Ca4  1  0.528590  0.045217  0.854013  1
  Ca  Ca5  1  0.675317  0.527156  0.484062  1
  Ca  Ca6  1  0.971662  0.825635  0.517021  1
  Ca  Ca7  1  0.992429  0.987257  0.000120  1
  Ca  Ca8  1  0.505263  0.510338  0.999553  1
  Nd  Nd9  1  0.826789  0.309262  0.859438  1
  Si  Si10  1  0.111418  0.611044  0.721833  1
  Si  Si11  1  0.888846  0.388845  0.270181  1
  Si  Si12  1  0.615342  0.890106  0.504034  1
  Si  Si13  1  0.390569  0.115130  0.503347  1
  Si  Si14  1  0.242221  0.249889  0.995431  1
  Sn  Sn15  1  0.749855  0.746504  0.997441  1
