# generated using pymatgen
data_RbVGaF6
_symmetry_space_group_name_H-M   'P 1'
_cell_length_a   7.43256555
_cell_length_b   7.43256633
_cell_length_c   7.43256520
_cell_angle_alpha   119.42533806
_cell_angle_beta   119.84697121
_cell_angle_gamma   90.63174464
_symmetry_Int_Tables_number   1
_chemical_formula_structural   RbVGaF6
_chemical_formula_sum   'Rb2 V2 Ga2 F12'
_cell_volume   291.90888230
_cell_formula_units_Z   2
loop_
 _symmetry_equiv_pos_site_id
 _symmetry_equiv_pos_as_xyz
  1  'x, y, z'
loop_
 _atom_site_type_symbol
 _atom_site_label
 _atom_site_symmetry_multiplicity
 _atom_site_fract_x
 _atom_site_fract_y
 _atom_site_fract_z
 _atom_site_occupancy
  Rb  Rb0  1  0.619663  0.869663  0.750000  1
  Rb  Rb1  1  0.380337  0.130337  0.250000  1
  V  V2  1  0.500000  0.500000  0.000000  1
  V  V3  1  0.000000  0.500000  0.500000  1
  Ga  Ga4  1  0.000000  0.500000  0.000000  1
  Ga  Ga5  1  0.000000  0.000000  0.500000  1
  F  F6  1  0.052208  0.802208  0.250000  1
  F  F7  1  0.658478  0.408478  0.250000  1
  F  F8  1  0.058829  0.838351  0.645569  1
  F  F9  1  0.692783  0.413260  0.854431  1
  F  F10  1  0.692783  0.838351  0.279522  1
  F  F11  1  0.058829  0.413260  0.220478  1
  F  F12  1  0.947792  0.197792  0.750000  1
  F  F13  1  0.341522  0.591522  0.750000  1
  F  F14  1  0.941171  0.161649  0.354431  1
  F  F15  1  0.307217  0.586740  0.145569  1
  F  F16  1  0.307217  0.161649  0.720478  1
  F  F17  1  0.941171  0.586740  0.779522  1
