# generated using pymatgen
data_Hf4Nb4Si2GeP
_symmetry_space_group_name_H-M   'P 1'
_cell_length_a   3.61091800
_cell_length_b   6.99149826
_cell_length_c   8.44582079
_cell_angle_alpha   89.53064015
_cell_angle_beta   90.00000000
_cell_angle_gamma   90.00000000
_symmetry_Int_Tables_number   1
_chemical_formula_structural   Hf4Nb4Si2GeP
_chemical_formula_sum   'Hf4 Nb4 Si2 Ge1 P1'
_cell_volume   213.21373090
_cell_formula_units_Z   1
loop_
 _symmetry_equiv_pos_site_id
 _symmetry_equiv_pos_as_xyz
  1  'x, y, z'
loop_
 _atom_site_type_symbol
 _atom_site_label
 _atom_site_symmetry_multiplicity
 _atom_site_fract_x
 _atom_site_fract_y
 _atom_site_fract_z
 _atom_site_occupancy
  Hf  Hf0  1  0.250000  0.042145  0.670002  1
  Hf  Hf1  1  0.250000  0.538446  0.834647  1
  Hf  Hf2  1  0.750000  0.461996  0.163882  1
  Hf  Hf3  1  0.750000  0.951737  0.334942  1
  Nb  Nb4  1  0.750000  0.867243  0.939551  1
  Nb  Nb5  1  0.250000  0.634237  0.441543  1
  Nb  Nb6  1  0.750000  0.366843  0.564771  1
  Nb  Nb7  1  0.250000  0.137723  0.053250  1
  Si  Si8  1  0.250000  0.758398  0.141059  1
  Si  Si9  1  0.750000  0.745439  0.641827  1
  Ge  Ge10  1  0.250000  0.251969  0.357680  1
  P  P11  1  0.750000  0.243824  0.856845  1
