# generated using pymatgen
data_Er2Lu2B12OsRu
_symmetry_space_group_name_H-M   'P 1'
_cell_length_a   3.60985900
_cell_length_b   9.05594141
_cell_length_c   11.43575500
_cell_angle_alpha   89.93278753
_cell_angle_beta   90.00000000
_cell_angle_gamma   90.00000000
_symmetry_Int_Tables_number   1
_chemical_formula_structural   Er2Lu2B12OsRu
_chemical_formula_sum   'Er4 Lu4 B24 Os2 Ru2'
_cell_volume   373.84225397
_cell_formula_units_Z   2
loop_
 _symmetry_equiv_pos_site_id
 _symmetry_equiv_pos_as_xyz
  1  'x, y, z'
loop_
 _atom_site_type_symbol
 _atom_site_label
 _atom_site_symmetry_multiplicity
 _atom_site_fract_x
 _atom_site_fract_y
 _atom_site_fract_z
 _atom_site_occupancy
  Er  Er0  1  0.000000  0.321392  0.414248  1
  Er  Er1  1  0.000000  0.678608  0.585752  1
  Er  Er2  1  0.000000  0.821335  0.086106  1
  Er  Er3  1  0.000000  0.178665  0.913894  1
  Lu  Lu4  1  0.000000  0.944138  0.372704  1
  Lu  Lu5  1  0.000000  0.055862  0.627296  1
  Lu  Lu6  1  0.000000  0.443524  0.126998  1
  Lu  Lu7  1  0.000000  0.556476  0.873002  1
  B  B8  1  0.500000  0.553960  0.433261  1
  B  B9  1  0.500000  0.446040  0.566739  1
  B  B10  1  0.500000  0.054137  0.066654  1
  B  B11  1  0.500000  0.945863  0.933346  1
  B  B12  1  0.500000  0.749655  0.419739  1
  B  B13  1  0.500000  0.250345  0.580261  1
  B  B14  1  0.500000  0.249308  0.080031  1
  B  B15  1  0.500000  0.750692  0.919969  1
  B  B16  1  0.500000  0.792092  0.265748  1
  B  B17  1  0.500000  0.207908  0.734252  1
  B  B18  1  0.500000  0.291759  0.234041  1
  B  B19  1  0.500000  0.708241  0.765959  1
  B  B20  1  0.500000  0.630626  0.184341  1
  B  B21  1  0.500000  0.369374  0.815659  1
  B  B22  1  0.500000  0.130795  0.315708  1
  B  B23  1  0.500000  0.869205  0.684292  1
  B  B24  1  0.500000  0.982277  0.213332  1
  B  B25  1  0.500000  0.017723  0.786668  1
  B  B26  1  0.500000  0.481865  0.286524  1
  B  B27  1  0.500000  0.518135  0.713476  1
  B  B28  1  0.500000  0.604512  0.028838  1
  B  B29  1  0.500000  0.395488  0.971162  1
  B  B30  1  0.500000  0.104360  0.471208  1
  B  B31  1  0.500000  0.895640  0.528792  1
  Os  Os32  1  0.000000  0.637940  0.320562  1
  Os  Os33  1  0.000000  0.362060  0.679438  1
  Ru  Ru34  1  0.000000  0.137994  0.179645  1
  Ru  Ru35  1  0.000000  0.862006  0.820355  1
