# generated using pymatgen
data_Tm4Al17SiRh6
_symmetry_space_group_name_H-M   'P 1'
_cell_length_a   7.51994047
_cell_length_b   7.50183379
_cell_length_c   9.39944404
_cell_angle_alpha   89.99219193
_cell_angle_beta   89.93483566
_cell_angle_gamma   119.58785197
_symmetry_Int_Tables_number   1
_chemical_formula_structural   Tm4Al17SiRh6
_chemical_formula_sum   'Tm4 Al17 Si1 Rh6'
_cell_volume   461.10829629
_cell_formula_units_Z   1
loop_
 _symmetry_equiv_pos_site_id
 _symmetry_equiv_pos_as_xyz
  1  'x, y, z'
loop_
 _atom_site_type_symbol
 _atom_site_label
 _atom_site_symmetry_multiplicity
 _atom_site_fract_x
 _atom_site_fract_y
 _atom_site_fract_z
 _atom_site_occupancy
  Tm  Tm0  1  0.994509  0.664438  0.247228  1
  Tm  Tm1  1  0.004883  0.329150  0.754555  1
  Tm  Tm2  1  0.676231  0.001864  0.246997  1
  Tm  Tm3  1  0.328580  0.004999  0.750298  1
  Al  Al4  1  0.127251  0.126936  0.249490  1
  Al  Al5  1  0.872238  0.873862  0.749612  1
  Al  Al6  1  0.999098  0.668558  0.922845  1
  Al  Al7  1  0.999948  0.665410  0.575231  1
  Al  Al8  1  0.334454  0.998946  0.423859  1
  Al  Al9  1  0.001011  0.334936  0.428411  1
  Al  Al10  1  0.664456  0.999739  0.575197  1
  Al  Al11  1  0.660548  0.995629  0.922508  1
  Al  Al12  1  0.334438  0.999254  0.076526  1
  Al  Al13  1  0.333373  0.332699  0.554013  1
  Al  Al14  1  0.667932  0.668383  0.446293  1
  Al  Al15  1  0.667246  0.667773  0.054730  1
  Al  Al16  1  0.335676  0.333197  0.946600  1
  Al  Al17  1  0.340034  0.550353  0.250180  1
  Al  Al18  1  0.661394  0.450040  0.750288  1
  Al  Al19  1  0.547142  0.339235  0.249797  1
  Al  Al20  1  0.449340  0.658950  0.749547  1
  Si  Si21  1  0.001398  0.335081  0.076246  1
  Rh  Rh22  1  0.680649  0.328459  0.002027  1
  Rh  Rh23  1  0.319608  0.664332  0.000251  1
  Rh  Rh24  1  0.327117  0.671572  0.499351  1
  Rh  Rh25  1  0.672655  0.328001  0.498786  1
  Rh  Rh26  1  0.998908  0.007283  0.000012  1
  Rh  Rh27  1  0.999884  0.000918  0.499130  1
