# generated using pymatgen
data_La5Nd3Cd2RuPt
_symmetry_space_group_name_H-M   'P 1'
_cell_length_a   10.07349265
_cell_length_b   10.07349212
_cell_length_c   10.13844900
_cell_angle_alpha   59.78645850
_cell_angle_beta   59.78646023
_cell_angle_gamma   59.95030801
_symmetry_Int_Tables_number   1
_chemical_formula_structural   La5Nd3Cd2RuPt
_chemical_formula_sum   'La10 Nd6 Cd4 Ru2 Pt2'
_cell_volume   724.84478918
_cell_formula_units_Z   2
loop_
 _symmetry_equiv_pos_site_id
 _symmetry_equiv_pos_as_xyz
  1  'x, y, z'
loop_
 _atom_site_type_symbol
 _atom_site_label
 _atom_site_symmetry_multiplicity
 _atom_site_fract_x
 _atom_site_fract_y
 _atom_site_fract_z
 _atom_site_occupancy
  La  La0  1  0.346006  0.346006  0.354098  1
  La  La1  1  0.346006  0.346006  0.953891  1
  La  La2  1  0.342619  0.960711  0.348335  1
  La  La3  1  0.960711  0.342619  0.348335  1
  La  La4  1  0.815169  0.190100  0.192765  1
  La  La5  1  0.190100  0.815169  0.801965  1
  La  La6  1  0.190100  0.815169  0.192765  1
  La  La7  1  0.815169  0.190100  0.801965  1
  La  La8  1  0.189916  0.189916  0.810084  1
  La  La9  1  0.803261  0.803261  0.196739  1
  Nd  Nd10  1  0.934632  0.562978  0.567751  1
  Nd  Nd11  1  0.562978  0.934632  0.934640  1
  Nd  Nd12  1  0.562978  0.934632  0.567751  1
  Nd  Nd13  1  0.934632  0.562978  0.934640  1
  Nd  Nd14  1  0.564717  0.564717  0.935283  1
  Nd  Nd15  1  0.934430  0.934430  0.565570  1
  Cd  Cd16  1  0.580287  0.580287  0.580742  1
  Cd  Cd17  1  0.580287  0.580287  0.258686  1
  Cd  Cd18  1  0.582009  0.255455  0.581268  1
  Cd  Cd19  1  0.255455  0.582009  0.581268  1
  Ru  Ru20  1  0.141951  0.141951  0.135523  1
  Ru  Ru21  1  0.141951  0.141951  0.580576  1
  Pt  Pt22  1  0.147308  0.577331  0.137680  1
  Pt  Pt23  1  0.577331  0.147308  0.137680  1
