# generated using pymatgen
data_YbPr19Ir11Os
_symmetry_space_group_name_H-M   'P 1'
_cell_length_a   11.34577513
_cell_length_b   11.34267613
_cell_length_c   6.60948900
_cell_angle_alpha   90.00000000
_cell_angle_beta   90.00000000
_cell_angle_gamma   89.94889746
_symmetry_Int_Tables_number   1
_chemical_formula_structural   YbPr19Ir11Os
_chemical_formula_sum   'Yb1 Pr19 Ir11 Os1'
_cell_volume   850.58440269
_cell_formula_units_Z   1
loop_
 _symmetry_equiv_pos_site_id
 _symmetry_equiv_pos_as_xyz
  1  'x, y, z'
loop_
 _atom_site_type_symbol
 _atom_site_label
 _atom_site_symmetry_multiplicity
 _atom_site_fract_x
 _atom_site_fract_y
 _atom_site_fract_z
 _atom_site_occupancy
  Yb  Yb0  1  0.000000  0.000000  0.496841  1
  Pr  Pr1  1  0.288560  0.087341  0.384086  1
  Pr  Pr2  1  0.291678  0.911643  0.887971  1
  Pr  Pr3  1  0.708322  0.088357  0.887971  1
  Pr  Pr4  1  0.711440  0.912659  0.384086  1
  Pr  Pr5  1  0.589485  0.792756  0.886659  1
  Pr  Pr6  1  0.588411  0.206661  0.382508  1
  Pr  Pr7  1  0.411589  0.793339  0.382508  1
  Pr  Pr8  1  0.410515  0.207244  0.886659  1
  Pr  Pr9  1  0.208244  0.409761  0.617998  1
  Pr  Pr10  1  0.208802  0.589958  0.116763  1
  Pr  Pr11  1  0.791198  0.410042  0.116763  1
  Pr  Pr12  1  0.791756  0.590239  0.617998  1
  Pr  Pr13  1  0.910478  0.709811  0.116007  1
  Pr  Pr14  1  0.911233  0.287318  0.616045  1
  Pr  Pr15  1  0.088767  0.712682  0.616045  1
  Pr  Pr16  1  0.089522  0.290189  0.116007  1
  Pr  Pr17  1  0.000000  0.000000  0.996488  1
  Pr  Pr18  1  0.500000  0.500000  0.996834  1
  Pr  Pr19  1  0.500000  0.500000  0.497467  1
  Ir  Ir20  1  0.847146  0.155384  0.247705  1
  Ir  Ir21  1  0.846733  0.845161  0.750260  1
  Ir  Ir22  1  0.153267  0.154839  0.750260  1
  Ir  Ir23  1  0.152854  0.844616  0.247705  1
  Ir  Ir24  1  0.653931  0.347233  0.748298  1
  Ir  Ir25  1  0.654901  0.652321  0.250326  1
  Ir  Ir26  1  0.345099  0.347679  0.250326  1
  Ir  Ir27  1  0.346069  0.652767  0.748298  1
  Ir  Ir28  1  0.500000  0.000000  0.619213  1
  Ir  Ir29  1  0.000000  0.500000  0.879633  1
  Ir  Ir30  1  0.000000  0.500000  0.382548  1
  Os  Os31  1  0.500000  0.000000  0.121725  1
