# generated using pymatgen
data_La5Ag6
_symmetry_space_group_name_H-M   'P 1'
_cell_length_a   17.62442310
_cell_length_b   17.62442220
_cell_length_c   4.28801300
_cell_angle_alpha   90.00000000
_cell_angle_beta   90.00000000
_cell_angle_gamma   166.60350819
_symmetry_Int_Tables_number   1
_chemical_formula_structural   La5Ag6
_chemical_formula_sum   'La5 Ag6'
_cell_volume   308.59584216
_cell_formula_units_Z   1
loop_
 _symmetry_equiv_pos_site_id
 _symmetry_equiv_pos_as_xyz
  1  'x, y, z'
loop_
 _atom_site_type_symbol
 _atom_site_label
 _atom_site_symmetry_multiplicity
 _atom_site_fract_x
 _atom_site_fract_y
 _atom_site_fract_z
 _atom_site_occupancy
  La  La0  1  0.000000  0.000000  0.000000  1
  La  La1  1  0.621526  0.378472  0.000000  1
  La  La2  1  0.378472  0.621526  0.000000  1
  La  La3  1  0.807947  0.192051  0.500001  1
  La  La4  1  0.192051  0.807947  0.500001  1
  Ag  Ag5  1  0.722714  0.277284  0.000000  1
  Ag  Ag6  1  0.277284  0.722714  0.000000  1
  Ag  Ag7  1  0.907976  0.092023  0.500001  1
  Ag  Ag8  1  0.539541  0.460457  0.500001  1
  Ag  Ag9  1  0.460457  0.539541  0.500001  1
  Ag  Ag10  1  0.092023  0.907976  0.500001  1
