# generated using pymatgen
data_HoEr3Ga4(CoNi)2
_symmetry_space_group_name_H-M   'P 1'
_cell_length_a   4.38285700
_cell_length_b   6.92967099
_cell_length_c   6.95017605
_cell_angle_alpha   90.01848644
_cell_angle_beta   90.00000000
_cell_angle_gamma   90.00000000
_symmetry_Int_Tables_number   1
_chemical_formula_structural   HoEr3Ga4(CoNi)2
_chemical_formula_sum   'Ho1 Er3 Ga4 Co2 Ni2'
_cell_volume   211.08904722
_cell_formula_units_Z   1
loop_
 _symmetry_equiv_pos_site_id
 _symmetry_equiv_pos_as_xyz
  1  'x, y, z'
loop_
 _atom_site_type_symbol
 _atom_site_label
 _atom_site_symmetry_multiplicity
 _atom_site_fract_x
 _atom_site_fract_y
 _atom_site_fract_z
 _atom_site_occupancy
  Ho  Ho0  1  0.750000  0.804448  0.981276  1
  Er  Er1  1  0.250000  0.306009  0.523743  1
  Er  Er2  1  0.250000  0.196958  0.019362  1
  Er  Er3  1  0.750000  0.693529  0.476508  1
  Ga  Ga4  1  0.250000  0.890134  0.696078  1
  Ga  Ga5  1  0.250000  0.599662  0.197519  1
  Ga  Ga6  1  0.750000  0.110284  0.303571  1
  Ga  Ga7  1  0.750000  0.399502  0.803000  1
  Co  Co8  1  0.250000  0.563882  0.844450  1
  Co  Co9  1  0.750000  0.435449  0.155561  1
  Ni  Ni10  1  0.250000  0.933151  0.337066  1
  Ni  Ni11  1  0.750000  0.066993  0.661868  1
