# generated using pymatgen
data_Ho3Er13Cd4TcPt3
_symmetry_space_group_name_H-M   'P 1'
_cell_length_a   9.64509831
_cell_length_b   9.64363063
_cell_length_c   9.64048726
_cell_angle_alpha   59.41562973
_cell_angle_beta   59.41212064
_cell_angle_gamma   59.41869245
_symmetry_Int_Tables_number   1
_chemical_formula_structural   Ho3Er13Cd4TcPt3
_chemical_formula_sum   'Ho3 Er13 Cd4 Tc1 Pt3'
_cell_volume   625.62802527
_cell_formula_units_Z   1
loop_
 _symmetry_equiv_pos_site_id
 _symmetry_equiv_pos_as_xyz
  1  'x, y, z'
loop_
 _atom_site_type_symbol
 _atom_site_label
 _atom_site_symmetry_multiplicity
 _atom_site_fract_x
 _atom_site_fract_y
 _atom_site_fract_z
 _atom_site_occupancy
  Ho  Ho0  1  0.187907  0.806736  0.187808  1
  Ho  Ho1  1  0.815205  0.815460  0.185333  1
  Ho  Ho2  1  0.187679  0.187802  0.806835  1
  Er  Er3  1  0.601483  0.601474  0.601708  1
  Er  Er4  1  0.601081  0.600891  0.197307  1
  Er  Er5  1  0.601250  0.197046  0.601145  1
  Er  Er6  1  0.197034  0.601190  0.601235  1
  Er  Er7  1  0.065294  0.437833  0.438076  1
  Er  Er8  1  0.438976  0.060107  0.059907  1
  Er  Er9  1  0.437995  0.065341  0.437960  1
  Er  Er10  1  0.060060  0.438868  0.059949  1
  Er  Er11  1  0.438111  0.437840  0.065294  1
  Er  Er12  1  0.059952  0.060009  0.438935  1
  Er  Er13  1  0.185586  0.815194  0.815032  1
  Er  Er14  1  0.806565  0.188079  0.187786  1
  Er  Er15  1  0.815190  0.185556  0.815272  1
  Cd  Cd16  1  0.830056  0.830043  0.829924  1
  Cd  Cd17  1  0.830899  0.831096  0.504414  1
  Cd  Cd18  1  0.830960  0.504295  0.831069  1
  Cd  Cd19  1  0.504408  0.830983  0.830897  1
  Tc  Tc20  1  0.394201  0.394066  0.394008  1
  Pt  Pt21  1  0.393990  0.394018  0.822116  1
  Pt  Pt22  1  0.393945  0.822195  0.394019  1
  Pt  Pt23  1  0.822170  0.393874  0.393967  1
