# generated using pymatgen
data_Li3Ta2SnRh6
_symmetry_space_group_name_H-M   'P 1'
_cell_length_a   4.38183400
_cell_length_b   6.12624800
_cell_length_c   13.14128700
_cell_angle_alpha   89.99992335
_cell_angle_beta   90.00137753
_cell_angle_gamma   89.99992336
_symmetry_Int_Tables_number   1
_chemical_formula_structural   Li3Ta2SnRh6
_chemical_formula_sum   'Li6 Ta4 Sn2 Rh12'
_cell_volume   352.76735981
_cell_formula_units_Z   2
loop_
 _symmetry_equiv_pos_site_id
 _symmetry_equiv_pos_as_xyz
  1  'x, y, z'
loop_
 _atom_site_type_symbol
 _atom_site_label
 _atom_site_symmetry_multiplicity
 _atom_site_fract_x
 _atom_site_fract_y
 _atom_site_fract_z
 _atom_site_occupancy
  Li  Li0  1  0.000003  0.499986  0.001103  1
  Li  Li1  1  0.499895  0.000014  0.165596  1
  Li  Li2  1  0.000003  0.500000  0.333708  1
  Li  Li3  1  0.499998  0.000011  0.499227  1
  Li  Li4  1  0.000036  0.499990  0.667389  1
  Li  Li5  1  0.500089  0.999996  0.832967  1
  Ta  Ta6  1  0.999947  0.000009  0.334318  1
  Ta  Ta7  1  0.500004  0.500006  0.499815  1
  Ta  Ta8  1  0.000050  0.999993  0.666825  1
  Ta  Ta9  1  0.500075  0.499991  0.832333  1
  Sn  Sn10  1  0.000013  0.999994  0.001920  1
  Sn  Sn11  1  0.499910  0.500003  0.164817  1
  Rh  Rh12  1  0.500022  0.255161  0.993026  1
  Rh  Rh13  1  0.500021  0.744833  0.993028  1
  Rh  Rh14  1  0.999893  0.244884  0.173650  1
  Rh  Rh15  1  0.999892  0.755126  0.173650  1
  Rh  Rh16  1  0.499951  0.249127  0.337036  1
  Rh  Rh17  1  0.499951  0.750898  0.337034  1
  Rh  Rh18  1  0.000000  0.251631  0.501684  1
  Rh  Rh19  1  0.000003  0.748373  0.501683  1
  Rh  Rh20  1  0.500051  0.248359  0.664958  1
  Rh  Rh21  1  0.500051  0.751635  0.664960  1
  Rh  Rh22  1  0.000075  0.250875  0.829635  1
  Rh  Rh23  1  0.000075  0.749105  0.829638  1
