# generated using pymatgen
data_CsMn8F33
_symmetry_space_group_name_H-M   'P 1'
_cell_length_a   8.61914000
_cell_length_b   8.61913983
_cell_length_c   18.40142600
_cell_angle_alpha   90.00000000
_cell_angle_beta   90.00000000
_cell_angle_gamma   120.00000066
_symmetry_Int_Tables_number   1
_chemical_formula_structural   CsMn8F33
_chemical_formula_sum   'Cs2 Mn16 F66'
_cell_volume   1183.88623105
_cell_formula_units_Z   2
loop_
 _symmetry_equiv_pos_site_id
 _symmetry_equiv_pos_as_xyz
  1  'x, y, z'
loop_
 _atom_site_type_symbol
 _atom_site_label
 _atom_site_symmetry_multiplicity
 _atom_site_fract_x
 _atom_site_fract_y
 _atom_site_fract_z
 _atom_site_occupancy
  Cs  Cs0  1  0.333333  0.666667  0.063650  1
  Cs  Cs1  1  0.666667  0.333333  0.563650  1
  Mn  Mn2  1  0.003827  0.668065  0.251796  1
  Mn  Mn3  1  0.003393  0.335570  0.875184  1
  Mn  Mn4  1  0.332177  0.996607  0.875184  1
  Mn  Mn5  1  0.000000  0.000000  0.997222  1
  Mn  Mn6  1  0.000000  0.000000  0.497222  1
  Mn  Mn7  1  0.333333  0.666667  0.629542  1
  Mn  Mn8  1  0.331935  0.335762  0.251796  1
  Mn  Mn9  1  0.335762  0.331935  0.751796  1
  Mn  Mn10  1  0.664238  0.996173  0.251796  1
  Mn  Mn11  1  0.664430  0.667823  0.875184  1
  Mn  Mn12  1  0.667823  0.664430  0.375184  1
  Mn  Mn13  1  0.335570  0.003393  0.375184  1
  Mn  Mn14  1  0.666667  0.333333  0.129542  1
  Mn  Mn15  1  0.996173  0.664238  0.751796  1
  Mn  Mn16  1  0.668065  0.003827  0.751796  1
  Mn  Mn17  1  0.996607  0.332177  0.375184  1
  F  F18  1  0.067620  0.869130  0.045769  1
  F  F19  1  0.075524  0.857076  0.197405  1
  F  F20  1  0.124396  0.919261  0.428353  1
  F  F21  1  0.125952  0.875915  0.811346  1
  F  F22  1  0.204372  0.789269  0.314049  1
  F  F23  1  0.084168  0.539906  0.815084  1
  F  F24  1  0.115286  0.582227  0.200180  1
  F  F25  1  0.207041  0.745900  0.698486  1
  F  F26  1  0.247088  0.800694  0.927468  1
  F  F27  1  0.116112  0.522110  0.429026  1
  F  F28  1  0.134948  0.534789  0.581126  1
  F  F29  1  0.405998  0.883888  0.429026  1
  F  F30  1  0.080739  0.205135  0.428353  1
  F  F31  1  0.399841  0.865052  0.581126  1
  F  F32  1  0.199306  0.446395  0.927468  1
  F  F33  1  0.124085  0.250037  0.811346  1
  F  F34  1  0.455738  0.915832  0.815084  1
  F  F35  1  0.210731  0.415104  0.314049  1
  F  F36  1  0.466942  0.884714  0.200180  1
  F  F37  1  0.130870  0.198491  0.045769  1
  F  F38  1  0.142924  0.218447  0.197405  1
  F  F39  1  0.254100  0.461142  0.698486  1
  F  F40  1  0.538858  0.792959  0.698486  1
  F  F41  1  0.198491  0.130870  0.545769  1
  F  F42  1  0.218447  0.142924  0.697405  1
  F  F43  1  0.417773  0.533058  0.200180  1
  F  F44  1  0.205135  0.080739  0.928353  1
  F  F45  1  0.465211  0.600159  0.581126  1
  F  F46  1  0.553605  0.752912  0.927468  1
  F  F47  1  0.477890  0.594002  0.429026  1
  F  F48  1  0.460094  0.544262  0.815084  1
  F  F49  1  0.584896  0.795628  0.314049  1
  F  F50  1  0.250037  0.124085  0.311346  1
  F  F51  1  0.415104  0.210731  0.814049  1
  F  F52  1  0.749963  0.874048  0.811346  1
  F  F53  1  0.544262  0.460094  0.315084  1
  F  F54  1  0.781553  0.924476  0.197405  1
  F  F55  1  0.533058  0.417773  0.700180  1
  F  F56  1  0.801509  0.932380  0.045769  1
  F  F57  1  0.461142  0.254100  0.198486  1
  F  F58  1  0.446395  0.199306  0.427468  1
  F  F59  1  0.594002  0.477890  0.929026  1
  F  F60  1  0.600159  0.465211  0.081126  1
  F  F61  1  0.794865  0.875604  0.428353  1
  F  F62  1  0.522110  0.116112  0.929026  1
  F  F63  1  0.875604  0.794865  0.928353  1
  F  F64  1  0.534789  0.134948  0.081126  1
  F  F65  1  0.752912  0.553605  0.427468  1
  F  F66  1  0.874048  0.749963  0.311346  1
  F  F67  1  0.539906  0.084168  0.315084  1
  F  F68  1  0.795628  0.584896  0.814049  1
  F  F69  1  0.582227  0.115286  0.700180  1
  F  F70  1  0.932380  0.801509  0.545769  1
  F  F71  1  0.924476  0.781553  0.697405  1
  F  F72  1  0.792959  0.538858  0.198486  1
  F  F73  1  0.745900  0.207041  0.198486  1
  F  F74  1  0.884714  0.466942  0.700180  1
  F  F75  1  0.865052  0.399841  0.081126  1
  F  F76  1  0.800694  0.247088  0.427468  1
  F  F77  1  0.883888  0.405998  0.929026  1
  F  F78  1  0.915832  0.455738  0.315084  1
  F  F79  1  0.789269  0.204372  0.814049  1
  F  F80  1  0.875915  0.125952  0.311346  1
  F  F81  1  0.857076  0.075524  0.697405  1
  F  F82  1  0.869130  0.067620  0.545769  1
  F  F83  1  0.919261  0.124396  0.928353  1
