# generated using pymatgen
data_Ho2CoIrBr2
_symmetry_space_group_name_H-M   'P 1'
_cell_length_a   4.07440700
_cell_length_b   4.07440764
_cell_length_c   11.63365000
_cell_angle_alpha   90.00000000
_cell_angle_beta   90.00000000
_cell_angle_gamma   119.99998665
_symmetry_Int_Tables_number   1
_chemical_formula_structural   Ho2CoIrBr2
_chemical_formula_sum   'Ho2 Co1 Ir1 Br2'
_cell_volume   167.25363731
_cell_formula_units_Z   1
loop_
 _symmetry_equiv_pos_site_id
 _symmetry_equiv_pos_as_xyz
  1  'x, y, z'
loop_
 _atom_site_type_symbol
 _atom_site_label
 _atom_site_symmetry_multiplicity
 _atom_site_fract_x
 _atom_site_fract_y
 _atom_site_fract_z
 _atom_site_occupancy
  Ho  Ho0  1  0.000000  0.000000  0.158012  1
  Ho  Ho1  1  0.000000  0.000000  0.842675  1
  Co  Co2  1  0.333333  0.666666  0.994591  1
  Ir  Ir3  1  0.666668  0.333335  0.004835  1
  Br  Br4  1  0.333333  0.666666  0.317661  1
  Br  Br5  1  0.666668  0.333335  0.682226  1
