# generated using pymatgen
data_Eu7YSb6
_symmetry_space_group_name_H-M   'P 1'
_cell_length_a   8.30529894
_cell_length_b   8.38894343
_cell_length_c   8.38894381
_cell_angle_alpha   109.67231925
_cell_angle_beta   109.26936766
_cell_angle_gamma   109.26936167
_symmetry_Int_Tables_number   1
_chemical_formula_structural   Eu7YSb6
_chemical_formula_sum   'Eu7 Y1 Sb6'
_cell_volume   451.04905586
_cell_formula_units_Z   1
loop_
 _symmetry_equiv_pos_site_id
 _symmetry_equiv_pos_as_xyz
  1  'x, y, z'
loop_
 _atom_site_type_symbol
 _atom_site_label
 _atom_site_symmetry_multiplicity
 _atom_site_fract_x
 _atom_site_fract_y
 _atom_site_fract_z
 _atom_site_occupancy
  Eu  Eu0  1  0.502113  0.005752  0.363215  1
  Eu  Eu1  1  0.996360  0.357464  0.494248  1
  Eu  Eu2  1  0.501516  0.001400  0.855884  1
  Eu  Eu3  1  0.645632  0.644116  0.645518  1
  Eu  Eu4  1  0.138898  0.136785  0.142536  1
  Eu  Eu5  1  0.856538  0.500000  0.000000  1
  Eu  Eu6  1  0.000115  0.854482  0.498600  1
  Y  Y7  1  0.357541  0.500000  0.000000  1
  Sb  Sb8  1  0.738812  0.865941  0.123367  1
  Sb  Sb9  1  0.372871  0.257426  0.634059  1
  Sb  Sb10  1  0.254220  0.622141  0.366362  1
  Sb  Sb11  1  0.887859  0.133638  0.755779  1
  Sb  Sb12  1  0.615445  0.376633  0.242574  1
  Sb  Sb13  1  0.132080  0.744221  0.877859  1
