# generated using pymatgen
data_Eu4CdBi3O14
_symmetry_space_group_name_H-M   'P 1'
_cell_length_a   7.76728048
_cell_length_b   7.76727989
_cell_length_c   7.76728100
_cell_angle_alpha   60.68152013
_cell_angle_beta   60.68153104
_cell_angle_gamma   60.68153354
_symmetry_Int_Tables_number   1
_chemical_formula_structural   Eu4CdBi3O14
_chemical_formula_sum   'Eu4 Cd1 Bi3 O14'
_cell_volume   336.45138291
_cell_formula_units_Z   1
loop_
 _symmetry_equiv_pos_site_id
 _symmetry_equiv_pos_as_xyz
  1  'x, y, z'
loop_
 _atom_site_type_symbol
 _atom_site_label
 _atom_site_symmetry_multiplicity
 _atom_site_fract_x
 _atom_site_fract_y
 _atom_site_fract_z
 _atom_site_occupancy
  Eu  Eu0  1  0.500000  0.000000  0.500000  1
  Eu  Eu1  1  0.000000  0.500000  0.500000  1
  Eu  Eu2  1  0.500000  0.500000  0.000000  1
  Eu  Eu3  1  0.500000  0.500000  0.500000  1
  Cd  Cd4  1  0.000000  0.000000  0.000000  1
  Bi  Bi5  1  0.000000  0.000000  0.500000  1
  Bi  Bi6  1  0.500000  0.000000  0.000000  1
  Bi  Bi7  1  0.000000  0.500000  0.000000  1
  O  O8  1  0.097328  0.097328  0.640363  1
  O  O9  1  0.902672  0.902672  0.359637  1
  O  O10  1  0.359637  0.902672  0.902672  1
  O  O11  1  0.640363  0.097328  0.097328  1
  O  O12  1  0.904188  0.333182  0.333182  1
  O  O13  1  0.095812  0.666818  0.666818  1
  O  O14  1  0.666818  0.666818  0.095812  1
  O  O15  1  0.333182  0.333182  0.904188  1
  O  O16  1  0.376366  0.376366  0.376366  1
  O  O17  1  0.623634  0.623634  0.623634  1
  O  O18  1  0.902672  0.359637  0.902672  1
  O  O19  1  0.097328  0.640363  0.097328  1
  O  O20  1  0.666818  0.095812  0.666818  1
  O  O21  1  0.333182  0.904188  0.333182  1
