# generated using pymatgen
data_KBa2ReN4
_symmetry_space_group_name_H-M   'P 1'
_cell_length_a   10.86131715
_cell_length_b   10.53402314
_cell_length_c   8.07690600
_cell_angle_alpha   69.98776969
_cell_angle_beta   65.68635089
_cell_angle_gamma   44.32587926
_symmetry_Int_Tables_number   1
_chemical_formula_structural   KBa2ReN4
_chemical_formula_sum   'K4 Ba8 Re4 N16'
_cell_volume   586.78568767
_cell_formula_units_Z   4
loop_
 _symmetry_equiv_pos_site_id
 _symmetry_equiv_pos_as_xyz
  1  'x, y, z'
loop_
 _atom_site_type_symbol
 _atom_site_label
 _atom_site_symmetry_multiplicity
 _atom_site_fract_x
 _atom_site_fract_y
 _atom_site_fract_z
 _atom_site_occupancy
  K  K0  1  0.344724  0.344724  0.655276  1
  K  K1  1  0.905276  0.905276  0.594724  1
  K  K2  1  0.655276  0.655276  0.344724  1
  K  K3  1  0.594724  0.594724  0.905276  1
  Ba  Ba4  1  0.573937  0.926063  0.926063  1
  Ba  Ba5  1  0.926063  0.573937  0.573937  1
  Ba  Ba6  1  0.323937  0.676063  0.676063  1
  Ba  Ba7  1  0.115094  0.115094  0.884906  1
  Ba  Ba8  1  0.134906  0.134906  0.365094  1
  Ba  Ba9  1  0.365094  0.365094  0.134906  1
  Ba  Ba10  1  0.676063  0.323937  0.323937  1
  Ba  Ba11  1  0.884906  0.884906  0.115094  1
  Re  Re12  1  0.478598  0.021402  0.478598  1
  Re  Re13  1  0.021402  0.478598  0.021402  1
  Re  Re14  1  0.771402  0.228598  0.771402  1
  Re  Re15  1  0.228598  0.771402  0.228598  1
  N  N16  1  0.022584  0.642801  0.846815  1
  N  N17  1  0.713557  0.264393  0.009226  1
  N  N18  1  0.642801  0.022584  0.487800  1
  N  N19  1  0.487800  0.846815  0.642801  1
  N  N20  1  0.227416  0.607199  0.403185  1
  N  N21  1  0.762200  0.403185  0.607199  1
  N  N22  1  0.009226  0.012825  0.713557  1
  N  N23  1  0.536443  0.985607  0.240774  1
  N  N24  1  0.403185  0.762200  0.227416  1
  N  N25  1  0.985607  0.536443  0.237175  1
  N  N26  1  0.264393  0.713557  0.012825  1
  N  N27  1  0.846815  0.487800  0.022584  1
  N  N28  1  0.237175  0.240774  0.985607  1
  N  N29  1  0.607199  0.227416  0.762200  1
  N  N30  1  0.240774  0.237175  0.536443  1
  N  N31  1  0.012825  0.009226  0.264393  1
