# generated using pymatgen
data_Y4Ga4PdRh3
_symmetry_space_group_name_H-M   'P 1'
_cell_length_a   4.37461500
_cell_length_b   6.91184173
_cell_length_c   7.73001755
_cell_angle_alpha   89.77085473
_cell_angle_beta   90.00000000
_cell_angle_gamma   90.00000000
_symmetry_Int_Tables_number   1
_chemical_formula_structural   Y4Ga4PdRh3
_chemical_formula_sum   'Y4 Ga4 Pd1 Rh3'
_cell_volume   233.72793910
_cell_formula_units_Z   1
loop_
 _symmetry_equiv_pos_site_id
 _symmetry_equiv_pos_as_xyz
  1  'x, y, z'
loop_
 _atom_site_type_symbol
 _atom_site_label
 _atom_site_symmetry_multiplicity
 _atom_site_fract_x
 _atom_site_fract_y
 _atom_site_fract_z
 _atom_site_occupancy
  Y  Y0  1  0.250000  0.978598  0.307557  1
  Y  Y1  1  0.250000  0.480561  0.195680  1
  Y  Y2  1  0.750000  0.021118  0.688026  1
  Y  Y3  1  0.750000  0.527652  0.808500  1
  Ga  Ga4  1  0.250000  0.338504  0.570991  1
  Ga  Ga5  1  0.250000  0.830899  0.926819  1
  Ga  Ga6  1  0.750000  0.663413  0.426929  1
  Ga  Ga7  1  0.750000  0.162798  0.074889  1
  Pd  Pd8  1  0.250000  0.220017  0.896812  1
  Rh  Rh9  1  0.250000  0.725923  0.603793  1
  Rh  Rh10  1  0.750000  0.775327  0.103331  1
  Rh  Rh11  1  0.750000  0.275190  0.396672  1
