# generated using pymatgen
data_Cs2P2PbO8
_symmetry_space_group_name_H-M   'P 1'
_cell_length_a   5.30352100
_cell_length_b   5.30352082
_cell_length_c   10.11852900
_cell_angle_alpha   90.00000000
_cell_angle_beta   90.00000000
_cell_angle_gamma   119.99999487
_symmetry_Int_Tables_number   1
_chemical_formula_structural   Cs2P2PbO8
_chemical_formula_sum   'Cs2 P2 Pb1 O8'
_cell_volume   246.47711735
_cell_formula_units_Z   1
loop_
 _symmetry_equiv_pos_site_id
 _symmetry_equiv_pos_as_xyz
  1  'x, y, z'
loop_
 _atom_site_type_symbol
 _atom_site_label
 _atom_site_symmetry_multiplicity
 _atom_site_fract_x
 _atom_site_fract_y
 _atom_site_fract_z
 _atom_site_occupancy
  Cs  Cs0  1  0.666667  0.333333  0.358434  1
  Cs  Cs1  1  0.333333  0.666666  0.641566  1
  P  P2  1  0.333333  0.666666  0.176830  1
  P  P3  1  0.666667  0.333333  0.823170  1
  Pb  Pb4  1  0.000000  0.000000  0.000000  1
  O  O5  1  0.290818  0.367266  0.128426  1
  O  O6  1  0.076448  0.709181  0.128426  1
  O  O7  1  0.632733  0.923551  0.128426  1
  O  O8  1  0.333333  0.666666  0.328759  1
  O  O9  1  0.666667  0.333333  0.671241  1
  O  O10  1  0.367266  0.076448  0.871574  1
  O  O11  1  0.923552  0.290818  0.871574  1
  O  O12  1  0.709182  0.632733  0.871574  1
