# generated using pymatgen
data_Ho3Er9Ga2(CoNi)2
_symmetry_space_group_name_H-M   'P 1'
_cell_length_a   8.22241787
_cell_length_b   8.22349459
_cell_length_c   8.22349424
_cell_angle_alpha   112.93499115
_cell_angle_beta   109.47083457
_cell_angle_gamma   106.08520690
_symmetry_Int_Tables_number   1
_chemical_formula_structural   Ho3Er9Ga2(CoNi)2
_chemical_formula_sum   'Ho3 Er9 Ga2 Co2 Ni2'
_cell_volume   426.49057470
_cell_formula_units_Z   1
loop_
 _symmetry_equiv_pos_site_id
 _symmetry_equiv_pos_as_xyz
  1  'x, y, z'
loop_
 _atom_site_type_symbol
 _atom_site_label
 _atom_site_symmetry_multiplicity
 _atom_site_fract_x
 _atom_site_fract_y
 _atom_site_fract_z
 _atom_site_occupancy
  Ho  Ho0  1  0.042276  0.737828  0.304448  1
  Ho  Ho1  1  0.957767  0.262172  0.695595  1
  Ho  Ho2  1  0.566564  0.262140  0.304423  1
  Er  Er3  1  0.433395  0.737781  0.695615  1
  Er  Er4  1  0.669545  0.859511  0.189830  1
  Er  Er5  1  0.330399  0.520360  0.190010  1
  Er  Er6  1  0.330399  0.140387  0.810039  1
  Er  Er7  1  0.669545  0.479715  0.810037  1
  Er  Er8  1  0.180632  0.221046  0.401589  1
  Er  Er9  1  0.819362  0.220869  0.040308  1
  Er  Er10  1  0.180632  0.779044  0.959586  1
  Er  Er11  1  0.819362  0.779055  0.598492  1
  Ga  Ga12  1  0.000158  0.500101  0.500057  1
  Ga  Ga13  1  0.500003  0.999968  0.500035  1
  Co  Co14  1  0.662636  0.499998  0.162637  1
  Co  Co15  1  0.337395  0.500049  0.837346  1
  Ni  Ni16  1  0.880248  0.880302  0.999947  1
  Ni  Ni17  1  0.119680  0.119675  0.000005  1
