# generated using pymatgen
data_Dy2Lu6In3Tc
_symmetry_space_group_name_H-M   'P 1'
_cell_length_a   10.23525200
_cell_length_b   10.23659757
_cell_length_c   7.00286519
_cell_angle_alpha   90.23739589
_cell_angle_beta   90.00000000
_cell_angle_gamma   119.99565188
_symmetry_Int_Tables_number   1
_chemical_formula_structural   Dy2Lu6In3Tc
_chemical_formula_sum   'Dy4 Lu12 In6 Tc2'
_cell_volume   635.44010973
_cell_formula_units_Z   2
loop_
 _symmetry_equiv_pos_site_id
 _symmetry_equiv_pos_as_xyz
  1  'x, y, z'
loop_
 _atom_site_type_symbol
 _atom_site_label
 _atom_site_symmetry_multiplicity
 _atom_site_fract_x
 _atom_site_fract_y
 _atom_site_fract_z
 _atom_site_occupancy
  Dy  Dy0  1  0.530635  0.061270  0.523838  1
  Dy  Dy1  1  0.938920  0.469188  0.525094  1
  Dy  Dy2  1  0.530268  0.469188  0.525094  1
  Dy  Dy3  1  0.468190  0.936379  0.025704  1
  Lu  Lu4  1  0.064640  0.532096  0.026885  1
  Lu  Lu5  1  0.467456  0.532096  0.026885  1
  Lu  Lu6  1  0.177572  0.355143  0.729077  1
  Lu  Lu7  1  0.645368  0.821930  0.727919  1
  Lu  Lu8  1  0.176562  0.821930  0.727919  1
  Lu  Lu9  1  0.822574  0.645148  0.225017  1
  Lu  Lu10  1  0.354157  0.177832  0.225351  1
  Lu  Lu11  1  0.823674  0.177832  0.225351  1
  Lu  Lu12  1  0.667285  0.334568  0.905699  1
  Lu  Lu13  1  0.333025  0.666051  0.401775  1
  Lu  Lu14  1  0.000176  0.000352  0.504840  1
  Lu  Lu15  1  0.999997  0.999993  0.004699  1
  In  In16  1  0.836757  0.673515  0.770603  1
  In  In17  1  0.326302  0.163355  0.771414  1
  In  In18  1  0.837053  0.163355  0.771414  1
  In  In19  1  0.163538  0.327075  0.271178  1
  In  In20  1  0.673153  0.836008  0.271361  1
  In  In21  1  0.162855  0.836008  0.271361  1
  Tc  Tc22  1  0.666778  0.333553  0.299479  1
  Tc  Tc23  1  0.333066  0.666134  0.797720  1
