# generated using pymatgen
data_La8Dy12Si15Ge
_symmetry_space_group_name_H-M   'P 1'
_cell_length_a   7.57263366
_cell_length_b   7.85161566
_cell_length_c   14.91525600
_cell_angle_alpha   90.01446330
_cell_angle_beta   89.90387186
_cell_angle_gamma   90.01848647
_symmetry_Int_Tables_number   1
_chemical_formula_structural   La8Dy12Si15Ge
_chemical_formula_sum   'La8 Dy12 Si15 Ge1'
_cell_volume   886.82115389
_cell_formula_units_Z   1
loop_
 _symmetry_equiv_pos_site_id
 _symmetry_equiv_pos_as_xyz
  1  'x, y, z'
loop_
 _atom_site_type_symbol
 _atom_site_label
 _atom_site_symmetry_multiplicity
 _atom_site_fract_x
 _atom_site_fract_y
 _atom_site_fract_z
 _atom_site_occupancy
  La  La0  1  0.977785  0.822637  0.098421  1
  La  La1  1  0.476888  0.678057  0.401943  1
  La  La2  1  0.521587  0.321091  0.901812  1
  La  La3  1  0.023167  0.178043  0.597981  1
  La  La4  1  0.023381  0.176805  0.901914  1
  La  La5  1  0.522949  0.321910  0.597984  1
  La  La6  1  0.476667  0.678349  0.098342  1
  La  La7  1  0.976986  0.822055  0.401989  1
  Dy  Dy8  1  0.649753  0.990580  0.250097  1
  Dy  Dy9  1  0.149996  0.509433  0.250023  1
  Dy  Dy10  1  0.850101  0.490442  0.748862  1
  Dy  Dy11  1  0.350072  0.009439  0.749737  1
  Dy  Dy12  1  0.680045  0.824235  0.876146  1
  Dy  Dy13  1  0.181377  0.677504  0.623205  1
  Dy  Dy14  1  0.819448  0.321767  0.123917  1
  Dy  Dy15  1  0.318797  0.177500  0.376598  1
  Dy  Dy16  1  0.319147  0.177134  0.123692  1
  Dy  Dy17  1  0.818752  0.322487  0.376531  1
  Dy  Dy18  1  0.182160  0.677571  0.876714  1
  Dy  Dy19  1  0.681223  0.822680  0.623185  1
  Si  Si20  1  0.770033  0.619420  0.249987  1
  Si  Si21  1  0.269974  0.880492  0.250122  1
  Si  Si22  1  0.730255  0.119599  0.749937  1
  Si  Si23  1  0.229814  0.380760  0.750071  1
  Si  Si24  1  0.023990  0.115339  0.250196  1
  Si  Si25  1  0.524125  0.384465  0.250078  1
  Si  Si26  1  0.476052  0.615334  0.749968  1
  Si  Si27  1  0.975895  0.884383  0.749997  1
  Si  Si28  1  0.357477  0.969050  0.539887  1
  Si  Si29  1  0.642947  0.030981  0.039986  1
  Si  Si30  1  0.142567  0.469154  0.460003  1
  Si  Si31  1  0.147007  0.468312  0.040984  1
  Si  Si32  1  0.642564  0.030876  0.459950  1
  Si  Si33  1  0.357262  0.968895  0.960125  1
  Si  Si34  1  0.857439  0.530848  0.539871  1
  Ge  Ge35  1  0.852318  0.532372  0.959744  1
