# generated using pymatgen
data_Cs6HoErBr12
_symmetry_space_group_name_H-M   'P 1'
_cell_length_a   9.99876002
_cell_length_b   10.00106002
_cell_length_c   8.30133300
_cell_angle_alpha   90.00000000
_cell_angle_beta   90.00000000
_cell_angle_gamma   89.99286088
_symmetry_Int_Tables_number   1
_chemical_formula_structural   Cs6HoErBr12
_chemical_formula_sum   'Cs6 Ho1 Er1 Br12'
_cell_volume   830.11834347
_cell_formula_units_Z   1
loop_
 _symmetry_equiv_pos_site_id
 _symmetry_equiv_pos_as_xyz
  1  'x, y, z'
loop_
 _atom_site_type_symbol
 _atom_site_label
 _atom_site_symmetry_multiplicity
 _atom_site_fract_x
 _atom_site_fract_y
 _atom_site_fract_z
 _atom_site_occupancy
  Cs  Cs0  1  0.000000  0.000000  0.500000  1
  Cs  Cs1  1  0.000000  0.000000  0.000000  1
  Cs  Cs2  1  0.234652  0.584820  0.500000  1
  Cs  Cs3  1  0.765348  0.415180  0.500000  1
  Cs  Cs4  1  0.415155  0.234652  0.000000  1
  Cs  Cs5  1  0.584845  0.765348  0.000000  1
  Ho  Ho6  1  0.500000  0.000000  0.500000  1
  Er  Er7  1  0.000000  0.500000  0.000000  1
  Br  Br8  1  0.691209  0.058375  0.739906  1
  Br  Br9  1  0.308791  0.941625  0.739906  1
  Br  Br10  1  0.941740  0.690792  0.239384  1
  Br  Br11  1  0.058260  0.309208  0.239384  1
  Br  Br12  1  0.308791  0.941625  0.260094  1
  Br  Br13  1  0.691209  0.058375  0.260094  1
  Br  Br14  1  0.058260  0.309208  0.760616  1
  Br  Br15  1  0.941740  0.690792  0.760616  1
  Br  Br16  1  0.571172  0.730232  0.500000  1
  Br  Br17  1  0.428828  0.269768  0.500000  1
  Br  Br18  1  0.269129  0.571014  0.000000  1
  Br  Br19  1  0.730871  0.428986  0.000000  1
