# generated using pymatgen
data_Gd4Y6(GaSb)3
_symmetry_space_group_name_H-M   'P 1'
_cell_length_a   8.81116800
_cell_length_b   8.80831309
_cell_length_c   6.49071900
_cell_angle_alpha   90.00000000
_cell_angle_beta   90.00000000
_cell_angle_gamma   120.01072975
_symmetry_Int_Tables_number   1
_chemical_formula_structural   Gd4Y6(GaSb)3
_chemical_formula_sum   'Gd4 Y6 Ga3 Sb3'
_cell_volume   436.21711214
_cell_formula_units_Z   1
loop_
 _symmetry_equiv_pos_site_id
 _symmetry_equiv_pos_as_xyz
  1  'x, y, z'
loop_
 _atom_site_type_symbol
 _atom_site_label
 _atom_site_symmetry_multiplicity
 _atom_site_fract_x
 _atom_site_fract_y
 _atom_site_fract_z
 _atom_site_occupancy
  Gd  Gd0  1  0.327251  0.666915  0.003210  1
  Gd  Gd1  1  0.660337  0.333085  0.496790  1
  Gd  Gd2  1  0.660337  0.333085  0.003210  1
  Gd  Gd3  1  0.327251  0.666915  0.496790  1
  Y  Y4  1  0.235473  0.000000  0.250000  1
  Y  Y5  1  0.242349  0.232012  0.750000  1
  Y  Y6  1  0.010339  0.767988  0.750000  1
  Y  Y7  1  0.011964  0.248312  0.250000  1
  Y  Y8  1  0.763650  0.751688  0.250000  1
  Y  Y9  1  0.754738  0.000000  0.750000  1
  Ga  Ga10  1  0.998588  0.603631  0.250000  1
  Ga  Ga11  1  0.394957  0.396369  0.250000  1
  Ga  Ga12  1  0.397810  0.000000  0.750000  1
  Sb  Sb13  1  0.611279  0.000000  0.250000  1
  Sb  Sb14  1  0.606265  0.608852  0.750000  1
  Sb  Sb15  1  0.997413  0.391148  0.750000  1
