# generated using pymatgen
data_Ho3Pa(Ni2Ag)2
_symmetry_space_group_name_H-M   'P 1'
_cell_length_a   7.34924125
_cell_length_b   7.34924150
_cell_length_c   3.51875100
_cell_angle_alpha   90.00000000
_cell_angle_beta   90.00000000
_cell_angle_gamma   92.16795099
_symmetry_Int_Tables_number   1
_chemical_formula_structural   Ho3Pa(Ni2Ag)2
_chemical_formula_sum   'Ho3 Pa1 Ni4 Ag2'
_cell_volume   189.91645415
_cell_formula_units_Z   1
loop_
 _symmetry_equiv_pos_site_id
 _symmetry_equiv_pos_as_xyz
  1  'x, y, z'
loop_
 _atom_site_type_symbol
 _atom_site_label
 _atom_site_symmetry_multiplicity
 _atom_site_fract_x
 _atom_site_fract_y
 _atom_site_fract_z
 _atom_site_occupancy
  Ho  Ho0  1  0.323432  0.823432  0.500000  1
  Ho  Ho1  1  0.174245  0.325402  0.500000  1
  Ho  Ho2  1  0.825402  0.674245  0.500000  1
  Pa  Pa3  1  0.672644  0.172644  0.500000  1
  Ni  Ni4  1  0.863446  0.363446  0.000000  1
  Ni  Ni5  1  0.113880  0.613880  0.000000  1
  Ni  Ni6  1  0.394275  0.130269  0.000000  1
  Ni  Ni7  1  0.630269  0.894275  0.000000  1
  Ag  Ag8  1  0.494808  0.507600  0.000000  1
  Ag  Ag9  1  0.007600  0.994808  0.000000  1
