# generated using pymatgen
data_Ta8BeVTe8
_symmetry_space_group_name_H-M   'P 1'
_cell_length_a   4.80608800
_cell_length_b   11.05282800
_cell_length_c   19.21592300
_cell_angle_alpha   90.00000000
_cell_angle_beta   90.00000000
_cell_angle_gamma   90.00000000
_symmetry_Int_Tables_number   1
_chemical_formula_structural   Ta8BeVTe8
_chemical_formula_sum   'Ta16 Be2 V2 Te16'
_cell_volume   1020.76643264
_cell_formula_units_Z   2
loop_
 _symmetry_equiv_pos_site_id
 _symmetry_equiv_pos_as_xyz
  1  'x, y, z'
loop_
 _atom_site_type_symbol
 _atom_site_label
 _atom_site_symmetry_multiplicity
 _atom_site_fract_x
 _atom_site_fract_y
 _atom_site_fract_z
 _atom_site_occupancy
  Ta  Ta0  1  0.494272  0.562646  0.384841  1
  Ta  Ta1  1  0.494272  0.437354  0.615159  1
  Ta  Ta2  1  0.505728  0.062646  0.115159  1
  Ta  Ta3  1  0.505728  0.937354  0.884841  1
  Ta  Ta4  1  0.495253  0.700644  0.535927  1
  Ta  Ta5  1  0.495253  0.299356  0.464073  1
  Ta  Ta6  1  0.504747  0.200644  0.964073  1
  Ta  Ta7  1  0.504747  0.799356  0.035927  1
  Ta  Ta8  1  0.005455  0.686206  0.443770  1
  Ta  Ta9  1  0.005455  0.313794  0.556230  1
  Ta  Ta10  1  0.994545  0.186206  0.056230  1
  Ta  Ta11  1  0.994545  0.813794  0.943770  1
  Ta  Ta12  1  0.005294  0.402566  0.393178  1
  Ta  Ta13  1  0.005294  0.597434  0.606822  1
  Ta  Ta14  1  0.994706  0.902566  0.106822  1
  Ta  Ta15  1  0.994706  0.097434  0.893178  1
  Be  Be16  1  0.250095  0.500000  0.500000  1
  Be  Be17  1  0.749905  0.000000  0.000000  1
  V  V18  1  0.750525  0.500000  0.500000  1
  V  V19  1  0.249475  0.000000  0.000000  1
  Te  Te20  1  0.999175  0.845737  0.561992  1
  Te  Te21  1  0.999175  0.154263  0.438008  1
  Te  Te22  1  0.000825  0.345737  0.938008  1
  Te  Te23  1  0.000825  0.654263  0.061992  1
  Te  Te24  1  0.502000  0.332352  0.315859  1
  Te  Te25  1  0.502000  0.667648  0.684141  1
  Te  Te26  1  0.498000  0.832352  0.184141  1
  Te  Te27  1  0.498000  0.167648  0.815859  1
  Te  Te28  1  0.501335  0.820874  0.403209  1
  Te  Te29  1  0.501335  0.179126  0.596791  1
  Te  Te30  1  0.498665  0.320874  0.096791  1
  Te  Te31  1  0.498665  0.679126  0.903209  1
  Te  Te32  1  0.997586  0.607660  0.301442  1
  Te  Te33  1  0.997586  0.392340  0.698558  1
  Te  Te34  1  0.002414  0.107660  0.198558  1
  Te  Te35  1  0.002414  0.892340  0.801442  1
