# generated using pymatgen
data_Eu2Ga6PdAu
_symmetry_space_group_name_H-M   'P 1'
_cell_length_a   6.19830431
_cell_length_b   6.19830455
_cell_length_c   5.92997100
_cell_angle_alpha   90.00000000
_cell_angle_beta   90.00000000
_cell_angle_gamma   116.98014775
_symmetry_Int_Tables_number   1
_chemical_formula_structural   Eu2Ga6PdAu
_chemical_formula_sum   'Eu2 Ga6 Pd1 Au1'
_cell_volume   203.02798246
_cell_formula_units_Z   1
loop_
 _symmetry_equiv_pos_site_id
 _symmetry_equiv_pos_as_xyz
  1  'x, y, z'
loop_
 _atom_site_type_symbol
 _atom_site_label
 _atom_site_symmetry_multiplicity
 _atom_site_fract_x
 _atom_site_fract_y
 _atom_site_fract_z
 _atom_site_occupancy
  Eu  Eu0  1  0.231739  0.768261  0.750000  1
  Eu  Eu1  1  0.767650  0.232350  0.250000  1
  Ga  Ga2  1  0.658146  0.341854  0.750000  1
  Ga  Ga3  1  0.334316  0.665684  0.250000  1
  Ga  Ga4  1  0.716372  0.711343  0.007113  1
  Ga  Ga5  1  0.716372  0.711343  0.492887  1
  Ga  Ga6  1  0.288657  0.283628  0.007113  1
  Ga  Ga7  1  0.288657  0.283628  0.492887  1
  Pd  Pd8  1  0.098629  0.901371  0.250000  1
  Au  Au9  1  0.899462  0.100538  0.750000  1
