# generated using pymatgen
data_TiCr3Cd2(PO4)6
_symmetry_space_group_name_H-M   'P 1'
_cell_length_a   8.78894907
_cell_length_b   8.62657250
_cell_length_c   8.62657300
_cell_angle_alpha   60.00000190
_cell_angle_beta   60.60928633
_cell_angle_gamma   60.60928682
_symmetry_Int_Tables_number   1
_chemical_formula_structural   TiCr3Cd2(PO4)6
_chemical_formula_sum   'Ti1 Cr3 Cd2 P6 O24'
_cell_volume   466.69947744
_cell_formula_units_Z   1
loop_
 _symmetry_equiv_pos_site_id
 _symmetry_equiv_pos_as_xyz
  1  'x, y, z'
loop_
 _atom_site_type_symbol
 _atom_site_label
 _atom_site_symmetry_multiplicity
 _atom_site_fract_x
 _atom_site_fract_y
 _atom_site_fract_z
 _atom_site_occupancy
  Ti  Ti0  1  0.558498  0.147168  0.147168  1
  Cr  Cr1  1  0.067377  0.644208  0.644208  1
  Cr  Cr2  1  0.435531  0.854823  0.854823  1
  Cr  Cr3  1  0.933788  0.355405  0.355405  1
  Cd  Cd4  1  0.000472  0.999842  0.999842  1
  Cd  Cd5  1  0.502592  0.499136  0.499136  1
  P  P6  1  0.247343  0.250732  0.541344  1
  P  P7  1  0.247343  0.960583  0.250732  1
  P  P8  1  0.247343  0.541344  0.960583  1
  P  P9  1  0.751227  0.461988  0.037516  1
  P  P10  1  0.751227  0.037516  0.749270  1
  P  P11  1  0.751227  0.749270  0.461988  1
  O  O12  1  0.072279  0.121327  0.298260  1
  O  O13  1  0.072279  0.508132  0.121327  1
  O  O14  1  0.072279  0.298260  0.508132  1
  O  O15  1  0.248691  0.083591  0.731550  1
  O  O16  1  0.423942  0.196266  0.377305  1
  O  O17  1  0.255263  0.420589  0.552647  1
  O  O18  1  0.248691  0.936169  0.083591  1
  O  O19  1  0.255263  0.771499  0.420589  1
  O  O20  1  0.573145  0.620322  0.008518  1
  O  O21  1  0.255263  0.552647  0.771499  1
  O  O22  1  0.748195  0.268496  0.065799  1
  O  O23  1  0.573145  0.008518  0.798014  1
  O  O24  1  0.423942  0.002489  0.196266  1
  O  O25  1  0.248691  0.731550  0.936169  1
  O  O26  1  0.751346  0.439680  0.228866  1
  O  O27  1  0.423942  0.377305  0.002489  1
  O  O28  1  0.751346  0.228866  0.580109  1
  O  O29  1  0.748195  0.065799  0.917510  1
  O  O30  1  0.751346  0.580109  0.439680  1
  O  O31  1  0.573145  0.798014  0.620322  1
  O  O32  1  0.748195  0.917510  0.268496  1
  O  O33  1  0.929154  0.707210  0.487912  1
  O  O34  1  0.929154  0.487912  0.875724  1
  O  O35  1  0.929154  0.875724  0.707210  1
