# generated using pymatgen
data_Pa4Tc3Sn2Pd
_symmetry_space_group_name_H-M   'P 1'
_cell_length_a   7.65625692
_cell_length_b   7.65625692
_cell_length_c   3.66669200
_cell_angle_alpha   90.00000000
_cell_angle_beta   90.00000000
_cell_angle_gamma   91.80891762
_symmetry_Int_Tables_number   1
_chemical_formula_structural   Pa4Tc3Sn2Pd
_chemical_formula_sum   'Pa4 Tc3 Sn2 Pd1'
_cell_volume   214.82803059
_cell_formula_units_Z   1
loop_
 _symmetry_equiv_pos_site_id
 _symmetry_equiv_pos_as_xyz
  1  'x, y, z'
loop_
 _atom_site_type_symbol
 _atom_site_label
 _atom_site_symmetry_multiplicity
 _atom_site_fract_x
 _atom_site_fract_y
 _atom_site_fract_z
 _atom_site_occupancy
  Pa  Pa0  1  0.685135  0.157546  0.500000  1
  Pa  Pa1  1  0.342454  0.814865  0.500000  1
  Pa  Pa2  1  0.152465  0.347535  0.500000  1
  Pa  Pa3  1  0.829756  0.670244  0.500000  1
  Tc  Tc4  1  0.139825  0.642662  0.000000  1
  Tc  Tc5  1  0.857338  0.360175  0.000000  1
  Tc  Tc6  1  0.624131  0.875869  0.000000  1
  Sn  Sn7  1  0.006897  0.998566  0.000000  1
  Sn  Sn8  1  0.501434  0.493103  0.000000  1
  Pd  Pd9  1  0.360566  0.139434  0.000000  1
