# generated using pymatgen
data_Y3Ho3MnBi2
_symmetry_space_group_name_H-M   'P 1'
_cell_length_a   8.31332900
_cell_length_b   8.31332916
_cell_length_c   4.28495700
_cell_angle_alpha   90.00000000
_cell_angle_beta   90.00000000
_cell_angle_gamma   120.00000334
_symmetry_Int_Tables_number   1
_chemical_formula_structural   Y3Ho3MnBi2
_chemical_formula_sum   'Y3 Ho3 Mn1 Bi2'
_cell_volume   256.46436497
_cell_formula_units_Z   1
loop_
 _symmetry_equiv_pos_site_id
 _symmetry_equiv_pos_as_xyz
  1  'x, y, z'
loop_
 _atom_site_type_symbol
 _atom_site_label
 _atom_site_symmetry_multiplicity
 _atom_site_fract_x
 _atom_site_fract_y
 _atom_site_fract_z
 _atom_site_occupancy
  Y  Y0  1  0.000000  0.607241  0.500000  1
  Y  Y1  1  0.392759  0.392759  0.500000  1
  Y  Y2  1  0.607241  0.000000  0.500000  1
  Ho  Ho3  1  0.232522  0.000000  0.000000  1
  Ho  Ho4  1  0.767478  0.767478  0.000000  1
  Ho  Ho5  1  0.000000  0.232522  0.000000  1
  Mn  Mn6  1  0.000000  0.000000  0.500000  1
  Bi  Bi7  1  0.333333  0.666667  0.000000  1
  Bi  Bi8  1  0.666667  0.333333  0.000000  1
