# generated using pymatgen
data_Dy2TmLu(Al3Ir)6
_symmetry_space_group_name_H-M   'P 1'
_cell_length_a   7.53932696
_cell_length_b   7.54048574
_cell_length_c   9.44426700
_cell_angle_alpha   90.00000000
_cell_angle_beta   90.00000000
_cell_angle_gamma   119.51010237
_symmetry_Int_Tables_number   1
_chemical_formula_structural   Dy2TmLu(Al3Ir)6
_chemical_formula_sum   'Dy2 Tm1 Lu1 Al18 Ir6'
_cell_volume   467.25461569
_cell_formula_units_Z   1
loop_
 _symmetry_equiv_pos_site_id
 _symmetry_equiv_pos_as_xyz
  1  'x, y, z'
loop_
 _atom_site_type_symbol
 _atom_site_label
 _atom_site_symmetry_multiplicity
 _atom_site_fract_x
 _atom_site_fract_y
 _atom_site_fract_z
 _atom_site_occupancy
  Dy  Dy0  1  0.005332  0.328266  0.750000  1
  Dy  Dy1  1  0.671606  0.994699  0.250000  1
  Tm  Tm2  1  0.994775  0.671648  0.250000  1
  Lu  Lu3  1  0.328227  0.005327  0.750000  1
  Al  Al4  1  0.129608  0.129341  0.250000  1
  Al  Al5  1  0.870941  0.870612  0.750000  1
  Al  Al6  1  0.001043  0.335553  0.074692  1
  Al  Al7  1  0.999634  0.665386  0.925022  1
  Al  Al8  1  0.999634  0.665386  0.574978  1
  Al  Al9  1  0.334869  0.000704  0.425899  1
  Al  Al10  1  0.001043  0.335553  0.425308  1
  Al  Al11  1  0.664104  0.999059  0.575189  1
  Al  Al12  1  0.664104  0.999059  0.924811  1
  Al  Al13  1  0.334869  0.000704  0.074101  1
  Al  Al14  1  0.333360  0.332780  0.552681  1
  Al  Al15  1  0.666958  0.666616  0.448017  1
  Al  Al16  1  0.666958  0.666616  0.051983  1
  Al  Al17  1  0.333360  0.332780  0.947319  1
  Al  Al18  1  0.339560  0.548777  0.250000  1
  Al  Al19  1  0.659602  0.450459  0.750000  1
  Al  Al20  1  0.548981  0.339908  0.250000  1
  Al  Al21  1  0.451092  0.660798  0.750000  1
  Ir  Ir22  1  0.671895  0.328001  0.999825  1
  Ir  Ir23  1  0.327775  0.672250  0.999832  1
  Ir  Ir24  1  0.327775  0.672250  0.500168  1
  Ir  Ir25  1  0.671895  0.328001  0.500175  1
  Ir  Ir26  1  0.000502  0.999734  0.999809  1
  Ir  Ir27  1  0.000502  0.999734  0.500191  1
