# generated using pymatgen
data_Lu4InPd10Au
_symmetry_space_group_name_H-M   'P 1'
_cell_length_a   4.16292500
_cell_length_b   5.84823986
_cell_length_c   11.55168100
_cell_angle_alpha   88.43486589
_cell_angle_beta   90.00000000
_cell_angle_gamma   90.00000000
_symmetry_Int_Tables_number   1
_chemical_formula_structural   Lu4InPd10Au
_chemical_formula_sum   'Lu4 In1 Pd10 Au1'
_cell_volume   281.12980654
_cell_formula_units_Z   1
loop_
 _symmetry_equiv_pos_site_id
 _symmetry_equiv_pos_as_xyz
  1  'x, y, z'
loop_
 _atom_site_type_symbol
 _atom_site_label
 _atom_site_symmetry_multiplicity
 _atom_site_fract_x
 _atom_site_fract_y
 _atom_site_fract_z
 _atom_site_occupancy
  Lu  Lu0  1  0.500000  0.771365  0.370812  1
  Lu  Lu1  1  0.500000  0.707139  0.860239  1
  Lu  Lu2  1  0.500000  0.292861  0.139761  1
  Lu  Lu3  1  0.500000  0.228635  0.629188  1
  In  In4  1  0.000000  0.000000  0.000000  1
  Pd  Pd5  1  0.000000  0.026585  0.249360  1
  Pd  Pd6  1  0.000000  0.973415  0.750640  1
  Pd  Pd7  1  0.000000  0.500000  0.000000  1
  Pd  Pd8  1  0.000000  0.527819  0.250039  1
  Pd  Pd9  1  0.000000  0.472181  0.749961  1
  Pd  Pd10  1  0.500000  0.263709  0.378722  1
  Pd  Pd11  1  0.500000  0.220813  0.882539  1
  Pd  Pd12  1  0.500000  0.779187  0.117461  1
  Pd  Pd13  1  0.500000  0.736291  0.621278  1
  Pd  Pd14  1  0.000000  0.000000  0.500000  1
  Au  Au15  1  0.000000  0.500000  0.500000  1
