# generated using pymatgen
data_Er6Ti4Al12Rh7
_symmetry_space_group_name_H-M   'P 1'
_cell_length_a   8.95914101
_cell_length_b   8.95914098
_cell_length_c   8.95914200
_cell_angle_alpha   60.00000360
_cell_angle_beta   60.00000372
_cell_angle_gamma   59.99999810
_symmetry_Int_Tables_number   1
_chemical_formula_structural   Er6Ti4Al12Rh7
_chemical_formula_sum   'Er6 Ti4 Al12 Rh7'
_cell_volume   508.49206774
_cell_formula_units_Z   1
loop_
 _symmetry_equiv_pos_site_id
 _symmetry_equiv_pos_as_xyz
  1  'x, y, z'
loop_
 _atom_site_type_symbol
 _atom_site_label
 _atom_site_symmetry_multiplicity
 _atom_site_fract_x
 _atom_site_fract_y
 _atom_site_fract_z
 _atom_site_occupancy
  Er  Er0  1  0.703048  0.296952  0.296952  1
  Er  Er1  1  0.703048  0.296952  0.703048  1
  Er  Er2  1  0.703048  0.703048  0.296952  1
  Er  Er3  1  0.296952  0.703048  0.703048  1
  Er  Er4  1  0.296952  0.703048  0.296952  1
  Er  Er5  1  0.296952  0.296952  0.703048  1
  Ti  Ti6  1  0.642236  0.119254  0.119254  1
  Ti  Ti7  1  0.119254  0.642236  0.119254  1
  Ti  Ti8  1  0.119254  0.119254  0.642236  1
  Ti  Ti9  1  0.119254  0.119254  0.119254  1
  Al  Al10  1  0.357242  0.880920  0.880920  1
  Al  Al11  1  0.880920  0.357242  0.880920  1
  Al  Al12  1  0.880920  0.880920  0.357242  1
  Al  Al13  1  0.880920  0.880920  0.880920  1
  Al  Al14  1  0.009930  0.330024  0.330024  1
  Al  Al15  1  0.330024  0.009930  0.330024  1
  Al  Al16  1  0.330024  0.330024  0.009930  1
  Al  Al17  1  0.330024  0.330024  0.330024  1
  Al  Al18  1  0.985456  0.671515  0.671515  1
  Al  Al19  1  0.671515  0.985456  0.671515  1
  Al  Al20  1  0.671515  0.671515  0.985456  1
  Al  Al21  1  0.671515  0.671515  0.671515  1
  Rh  Rh22  1  0.000000  0.000000  0.000000  1
  Rh  Rh23  1  0.498672  0.001328  0.001328  1
  Rh  Rh24  1  0.498672  0.001328  0.498672  1
  Rh  Rh25  1  0.498672  0.498672  0.001328  1
  Rh  Rh26  1  0.001328  0.498672  0.498672  1
  Rh  Rh27  1  0.001328  0.498672  0.001328  1
  Rh  Rh28  1  0.001328  0.001328  0.498672  1
