# generated using pymatgen
data_SmEr2In3Ag2Rh
_symmetry_space_group_name_H-M   'P 1'
_cell_length_a   8.03874126
_cell_length_b   8.01866382
_cell_length_c   3.70583400
_cell_angle_alpha   90.00000000
_cell_angle_beta   90.00000000
_cell_angle_gamma   120.05244484
_symmetry_Int_Tables_number   1
_chemical_formula_structural   SmEr2In3Ag2Rh
_chemical_formula_sum   'Sm1 Er2 In3 Ag2 Rh1'
_cell_volume   206.76493840
_cell_formula_units_Z   1
loop_
 _symmetry_equiv_pos_site_id
 _symmetry_equiv_pos_as_xyz
  1  'x, y, z'
loop_
 _atom_site_type_symbol
 _atom_site_label
 _atom_site_symmetry_multiplicity
 _atom_site_fract_x
 _atom_site_fract_y
 _atom_site_fract_z
 _atom_site_occupancy
  Sm  Sm0  1  0.027925  0.609872  0.500000  1
  Er  Er1  1  0.388608  0.421423  0.500000  1
  Er  Er2  1  0.580675  0.967512  0.500000  1
  In  In3  1  0.278115  0.009870  0.000000  1
  In  In4  1  0.729468  0.724172  0.000000  1
  In  In5  1  0.993251  0.267085  0.000000  1
  Ag  Ag6  1  0.662426  0.330207  0.000000  1
  Ag  Ag7  1  0.999923  0.001009  0.500000  1
  Rh  Rh8  1  0.339609  0.668852  0.000000  1
