# generated using pymatgen
data_Ac2AgSn2Au
_symmetry_space_group_name_H-M   'P 1'
_cell_length_a   4.91240000
_cell_length_b   8.36680800
_cell_length_c   8.44383700
_cell_angle_alpha   90.00000000
_cell_angle_beta   90.00000000
_cell_angle_gamma   90.00000000
_symmetry_Int_Tables_number   1
_chemical_formula_structural   Ac2AgSn2Au
_chemical_formula_sum   'Ac4 Ag2 Sn4 Au2'
_cell_volume   347.05105326
_cell_formula_units_Z   2
loop_
 _symmetry_equiv_pos_site_id
 _symmetry_equiv_pos_as_xyz
  1  'x, y, z'
loop_
 _atom_site_type_symbol
 _atom_site_label
 _atom_site_symmetry_multiplicity
 _atom_site_fract_x
 _atom_site_fract_y
 _atom_site_fract_z
 _atom_site_occupancy
  Ac  Ac0  1  0.250000  0.499823  0.228471  1
  Ac  Ac1  1  0.750000  0.504589  0.773533  1
  Ac  Ac2  1  0.250000  0.995411  0.273533  1
  Ac  Ac3  1  0.750000  0.000177  0.728471  1
  Ag  Ag4  1  0.750000  0.278943  0.417832  1
  Ag  Ag5  1  0.250000  0.221057  0.917832  1
  Sn  Sn6  1  0.250000  0.275354  0.585808  1
  Sn  Sn7  1  0.750000  0.224646  0.085808  1
  Sn  Sn8  1  0.250000  0.770640  0.913522  1
  Sn  Sn9  1  0.750000  0.729360  0.413522  1
  Au  Au10  1  0.750000  0.784981  0.080834  1
  Au  Au11  1  0.250000  0.715019  0.580834  1
