# generated using pymatgen
data_Mg2Ga3Ir2
_symmetry_space_group_name_H-M   'P 1'
_cell_length_a   5.17340531
_cell_length_b   5.17340482
_cell_length_c   6.88911524
_cell_angle_alpha   109.37773300
_cell_angle_beta   109.37773261
_cell_angle_gamma   44.93998189
_symmetry_Int_Tables_number   1
_chemical_formula_structural   Mg2Ga3Ir2
_chemical_formula_sum   'Mg2 Ga3 Ir2'
_cell_volume   121.55563476
_cell_formula_units_Z   1
loop_
 _symmetry_equiv_pos_site_id
 _symmetry_equiv_pos_as_xyz
  1  'x, y, z'
loop_
 _atom_site_type_symbol
 _atom_site_label
 _atom_site_symmetry_multiplicity
 _atom_site_fract_x
 _atom_site_fract_y
 _atom_site_fract_z
 _atom_site_occupancy
  Mg  Mg0  1  0.154630  0.154630  0.300031  1
  Mg  Mg1  1  0.845370  0.845370  0.699969  1
  Ga  Ga2  1  0.363801  0.363801  0.044223  1
  Ga  Ga3  1  0.500000  0.500000  0.500000  1
  Ga  Ga4  1  0.636199  0.636199  0.955777  1
  Ir  Ir5  1  0.864671  0.864671  0.293708  1
  Ir  Ir6  1  0.135328  0.135328  0.706291  1
