# generated using pymatgen
data_Sc3Pa(TcNi)2
_symmetry_space_group_name_H-M   'P 1'
_cell_length_a   6.52104359
_cell_length_b   6.57204000
_cell_length_c   6.52097335
_cell_angle_alpha   90.00000000
_cell_angle_beta   93.10027710
_cell_angle_gamma   90.00000000
_symmetry_Int_Tables_number   1
_chemical_formula_structural   Sc3Pa(TcNi)2
_chemical_formula_sum   'Sc6 Pa2 Tc4 Ni4'
_cell_volume   279.05745644
_cell_formula_units_Z   2
loop_
 _symmetry_equiv_pos_site_id
 _symmetry_equiv_pos_as_xyz
  1  'x, y, z'
loop_
 _atom_site_type_symbol
 _atom_site_label
 _atom_site_symmetry_multiplicity
 _atom_site_fract_x
 _atom_site_fract_y
 _atom_site_fract_z
 _atom_site_occupancy
  Sc  Sc0  1  0.750051  0.499992  0.250005  1
  Sc  Sc1  1  0.750051  0.000008  0.250005  1
  Sc  Sc2  1  0.250065  0.999998  0.749988  1
  Sc  Sc3  1  0.250065  0.500002  0.749988  1
  Sc  Sc4  1  0.749948  0.499987  0.750035  1
  Sc  Sc5  1  0.749948  0.000013  0.750035  1
  Pa  Pa6  1  0.249984  0.000094  0.249957  1
  Pa  Pa7  1  0.249984  0.499906  0.249957  1
  Tc  Tc8  1  0.018646  0.750001  0.018618  1
  Tc  Tc9  1  0.481325  0.250001  0.481251  1
  Tc  Tc10  1  0.481337  0.750001  0.481282  1
  Tc  Tc11  1  0.018676  0.250001  0.018538  1
  Ni  Ni12  1  0.511736  0.750001  0.988032  1
  Ni  Ni13  1  0.988162  0.250001  0.512266  1
  Ni  Ni14  1  0.987738  0.750001  0.511567  1
  Ni  Ni15  1  0.512282  0.250001  0.988477  1
