# generated using pymatgen
data_Tm2Ga2Re2C
_symmetry_space_group_name_H-M   'P 1'
_cell_length_a   5.72117457
_cell_length_b   5.72117386
_cell_length_c   7.32017100
_cell_angle_alpha   121.85298518
_cell_angle_beta   121.85299259
_cell_angle_gamma   37.44045433
_symmetry_Int_Tables_number   1
_chemical_formula_structural   Tm2Ga2Re2C
_chemical_formula_sum   'Tm2 Ga2 Re2 C1'
_cell_volume   120.95359451
_cell_formula_units_Z   1
loop_
 _symmetry_equiv_pos_site_id
 _symmetry_equiv_pos_as_xyz
  1  'x, y, z'
loop_
 _atom_site_type_symbol
 _atom_site_label
 _atom_site_symmetry_multiplicity
 _atom_site_fract_x
 _atom_site_fract_y
 _atom_site_fract_z
 _atom_site_occupancy
  Tm  Tm0  1  0.568984  0.568984  0.283522  1
  Tm  Tm1  1  0.431017  0.431017  0.716479  1
  Ga  Ga2  1  0.865688  0.865688  0.348683  1
  Ga  Ga3  1  0.134312  0.134312  0.651317  1
  Re  Re4  1  0.201881  0.201881  0.069610  1
  Re  Re5  1  0.798120  0.798120  0.930391  1
  C  C6  1  0.000000  0.000000  0.000000  1
