# generated using pymatgen
data_AcS2
_symmetry_space_group_name_H-M   'P 1'
_cell_length_a   4.28631400
_cell_length_b   8.41499800
_cell_length_c   16.98008800
_cell_angle_alpha   90.00000000
_cell_angle_beta   90.00000000
_cell_angle_gamma   90.00000000
_symmetry_Int_Tables_number   1
_chemical_formula_structural   AcS2
_chemical_formula_sum   'Ac8 S16'
_cell_volume   612.46029116
_cell_formula_units_Z   8
loop_
 _symmetry_equiv_pos_site_id
 _symmetry_equiv_pos_as_xyz
  1  'x, y, z'
loop_
 _atom_site_type_symbol
 _atom_site_label
 _atom_site_symmetry_multiplicity
 _atom_site_fract_x
 _atom_site_fract_y
 _atom_site_fract_z
 _atom_site_occupancy
  Ac  Ac0  1  0.278618  0.370064  0.611633  1
  Ac  Ac1  1  0.721382  0.629936  0.111633  1
  Ac  Ac2  1  0.221382  0.870064  0.611633  1
  Ac  Ac3  1  0.778618  0.129936  0.111633  1
  Ac  Ac4  1  0.778618  0.129936  0.388367  1
  Ac  Ac5  1  0.221382  0.870064  0.888367  1
  Ac  Ac6  1  0.721382  0.629936  0.388367  1
  Ac  Ac7  1  0.278618  0.370064  0.888367  1
  S  S8  1  0.337627  0.096195  0.250000  1
  S  S9  1  0.662373  0.903805  0.750000  1
  S  S10  1  0.162373  0.596195  0.250000  1
  S  S11  1  0.837627  0.403805  0.750000  1
  S  S12  1  0.864297  0.394352  0.250000  1
  S  S13  1  0.135703  0.605648  0.750000  1
  S  S14  1  0.635703  0.894352  0.250000  1
  S  S15  1  0.364297  0.105648  0.750000  1
  S  S16  1  0.258992  0.375756  0.067445  1
  S  S17  1  0.741008  0.624244  0.567445  1
  S  S18  1  0.241008  0.875756  0.067445  1
  S  S19  1  0.758992  0.124244  0.567445  1
  S  S20  1  0.758992  0.124244  0.932555  1
  S  S21  1  0.241008  0.875756  0.432555  1
  S  S22  1  0.741008  0.624244  0.932555  1
  S  S23  1  0.258992  0.375756  0.432555  1
