# generated using pymatgen
data_Cu4NiPt7S16
_symmetry_space_group_name_H-M   'P 1'
_cell_length_a   10.73015277
_cell_length_b   6.97732900
_cell_length_c   6.76589390
_cell_angle_alpha   89.99995765
_cell_angle_beta   91.30622438
_cell_angle_gamma   90.00001779
_symmetry_Int_Tables_number   1
_chemical_formula_structural   Cu4NiPt7S16
_chemical_formula_sum   'Cu4 Ni1 Pt7 S16'
_cell_volume   506.41600022
_cell_formula_units_Z   1
loop_
 _symmetry_equiv_pos_site_id
 _symmetry_equiv_pos_as_xyz
  1  'x, y, z'
loop_
 _atom_site_type_symbol
 _atom_site_label
 _atom_site_symmetry_multiplicity
 _atom_site_fract_x
 _atom_site_fract_y
 _atom_site_fract_z
 _atom_site_occupancy
  Cu  Cu0  1  0.654658  0.999965  0.011210  1
  Cu  Cu1  1  0.845345  0.999966  0.488784  1
  Cu  Cu2  1  0.151842  0.000032  0.510715  1
  Cu  Cu3  1  0.348159  0.000031  0.989287  1
  Ni  Ni4  1  0.749998  0.499972  0.250001  1
  Pt  Pt5  1  0.997446  0.750464  0.003203  1
  Pt  Pt6  1  0.250000  0.500023  0.250000  1
  Pt  Pt7  1  0.502554  0.750465  0.496798  1
  Pt  Pt8  1  0.502549  0.249535  0.496797  1
  Pt  Pt9  1  0.750000  0.499978  0.750001  1
  Pt  Pt10  1  0.250000  0.500035  0.750000  1
  Pt  Pt11  1  0.997450  0.249535  0.003204  1
  S  S12  1  0.773421  0.276237  0.018159  1
  S  S13  1  0.773418  0.723710  0.018163  1
  S  S14  1  0.022060  0.500003  0.242766  1
  S  S15  1  0.003650  0.000000  0.251369  1
  S  S16  1  0.496351  0.000000  0.248630  1
  S  S17  1  0.477940  0.500005  0.257234  1
  S  S18  1  0.726581  0.723712  0.481838  1
  S  S19  1  0.726578  0.276237  0.481841  1
  S  S20  1  0.278404  0.732882  0.507844  1
  S  S21  1  0.278398  0.267174  0.507850  1
  S  S22  1  0.525412  0.499994  0.737399  1
  S  S23  1  0.507732  0.999999  0.747159  1
  S  S24  1  0.992268  0.999999  0.752842  1
  S  S25  1  0.974587  0.499994  0.762601  1
  S  S26  1  0.221602  0.267173  0.992150  1
  S  S27  1  0.221596  0.732882  0.992156  1
