# generated using pymatgen
data_Er5Tm7Co6Pb
_symmetry_space_group_name_H-M   'P 1'
_cell_length_a   8.27296726
_cell_length_b   8.27151972
_cell_length_c   8.27296886
_cell_angle_alpha   109.45266329
_cell_angle_beta   109.41864203
_cell_angle_gamma   109.54948994
_symmetry_Int_Tables_number   1
_chemical_formula_structural   Er5Tm7Co6Pb
_chemical_formula_sum   'Er5 Tm7 Co6 Pb1'
_cell_volume   435.76005501
_cell_formula_units_Z   1
loop_
 _symmetry_equiv_pos_site_id
 _symmetry_equiv_pos_as_xyz
  1  'x, y, z'
loop_
 _atom_site_type_symbol
 _atom_site_label
 _atom_site_symmetry_multiplicity
 _atom_site_fract_x
 _atom_site_fract_y
 _atom_site_fract_z
 _atom_site_occupancy
  Er  Er0  1  0.805210  0.696943  0.501925  1
  Er  Er1  1  0.194553  0.302993  0.497780  1
  Er  Er2  1  0.195020  0.696943  0.891733  1
  Er  Er3  1  0.805212  0.302993  0.108440  1
  Er  Er4  1  0.696714  0.501990  0.805275  1
  Tm  Tm5  1  0.303656  0.498273  0.194618  1
  Tm  Tm6  1  0.696288  0.891035  0.194748  1
  Tm  Tm7  1  0.303569  0.108984  0.805414  1
  Tm  Tm8  1  0.501624  0.805635  0.696147  1
  Tm  Tm9  1  0.498159  0.194276  0.303568  1
  Tm  Tm10  1  0.109488  0.805635  0.304012  1
  Tm  Tm11  1  0.890708  0.194276  0.696116  1
  Co  Co12  1  0.885797  0.385705  0.499909  1
  Co  Co13  1  0.114203  0.614214  0.500011  1
  Co  Co14  1  0.385935  0.499998  0.886265  1
  Co  Co15  1  0.613733  0.499998  0.114062  1
  Co  Co16  1  0.499985  0.885962  0.385977  1
  Co  Co17  1  0.499905  0.113807  0.613902  1
  Pb  Pb18  1  0.000243  0.000340  0.000097  1
