# generated using pymatgen
data_CePrSi2Ir3Rh
_symmetry_space_group_name_H-M   'P 1'
_cell_length_a   9.13719574
_cell_length_b   9.13719467
_cell_length_c   4.11947300
_cell_angle_alpha   90.00000000
_cell_angle_beta   90.00000000
_cell_angle_gamma   154.25042513
_symmetry_Int_Tables_number   1
_chemical_formula_structural   CePrSi2Ir3Rh
_chemical_formula_sum   'Ce1 Pr1 Si2 Ir3 Rh1'
_cell_volume   149.41556682
_cell_formula_units_Z   1
loop_
 _symmetry_equiv_pos_site_id
 _symmetry_equiv_pos_as_xyz
  1  'x, y, z'
loop_
 _atom_site_type_symbol
 _atom_site_label
 _atom_site_symmetry_multiplicity
 _atom_site_fract_x
 _atom_site_fract_y
 _atom_site_fract_z
 _atom_site_occupancy
  Ce  Ce0  1  0.901868  0.098132  0.250000  1
  Pr  Pr1  1  0.101585  0.898415  0.750000  1
  Si  Si2  1  0.321217  0.678783  0.750000  1
  Si  Si3  1  0.677828  0.322172  0.250000  1
  Ir  Ir4  1  0.542837  0.457163  0.250000  1
  Ir  Ir5  1  0.453725  0.546275  0.750000  1
  Ir  Ir6  1  0.250167  0.749833  0.250000  1
  Rh  Rh7  1  0.750775  0.249225  0.750000  1
