# generated using pymatgen
data_DyLu3Tc4F28
_symmetry_space_group_name_H-M   'P 1'
_cell_length_a   5.50620589
_cell_length_b   8.76315041
_cell_length_c   11.87901124
_cell_angle_alpha   62.85435535
_cell_angle_beta   89.92101923
_cell_angle_gamma   89.99918015
_symmetry_Int_Tables_number   1
_chemical_formula_structural   DyLu3Tc4F28
_chemical_formula_sum   'Dy1 Lu3 Tc4 F28'
_cell_volume   510.04571795
_cell_formula_units_Z   1
loop_
 _symmetry_equiv_pos_site_id
 _symmetry_equiv_pos_as_xyz
  1  'x, y, z'
loop_
 _atom_site_type_symbol
 _atom_site_label
 _atom_site_symmetry_multiplicity
 _atom_site_fract_x
 _atom_site_fract_y
 _atom_site_fract_z
 _atom_site_occupancy
  Dy  Dy0  1  0.258974  0.814881  0.264598  1
  Lu  Lu1  1  0.740528  0.185320  0.735799  1
  Lu  Lu2  1  0.760719  0.188394  0.235541  1
  Lu  Lu3  1  0.240852  0.814987  0.764397  1
  Tc  Tc4  1  0.757341  0.726552  0.040952  1
  Tc  Tc5  1  0.239795  0.274785  0.955503  1
  Tc  Tc6  1  0.259661  0.270359  0.457828  1
  Tc  Tc7  1  0.741850  0.726663  0.545770  1
  F  F8  1  0.939190  0.703993  0.417172  1
  F  F9  1  0.058675  0.294797  0.584451  1
  F  F10  1  0.440422  0.297122  0.082846  1
  F  F11  1  0.559426  0.703442  0.913204  1
  F  F12  1  0.464269  0.724703  0.135428  1
  F  F13  1  0.529597  0.273571  0.858892  1
  F  F14  1  0.968760  0.273487  0.360815  1
  F  F15  1  0.033238  0.726726  0.641168  1
  F  F16  1  0.945961  0.746086  0.174657  1
  F  F17  1  0.043846  0.252651  0.824229  1
  F  F18  1  0.455114  0.250196  0.325465  1
  F  F19  1  0.547304  0.747479  0.677644  1
  F  F20  1  0.776087  0.475516  0.141356  1
  F  F21  1  0.221978  0.525564  0.856754  1
  F  F22  1  0.279544  0.520511  0.358697  1
  F  F23  1  0.725253  0.475062  0.643645  1
  F  F24  1  0.938298  0.276590  0.045593  1
  F  F25  1  0.062306  0.725134  0.953051  1
  F  F26  1  0.440115  0.722827  0.458028  1
  F  F27  1  0.561507  0.273454  0.547072  1
  F  F28  1  0.745614  0.976495  0.449078  1
  F  F29  1  0.254417  0.020360  0.553567  1
  F  F30  1  0.244370  0.024750  0.050709  1
  F  F31  1  0.752509  0.976784  0.946178  1
  F  F32  1  0.587274  0.975238  0.232215  1
  F  F33  1  0.422408  0.027256  0.766693  1
  F  F34  1  0.079867  0.035127  0.267606  1
  F  F35  1  0.922933  0.973137  0.733398  1
