# generated using pymatgen
data_La10CoOs3
_symmetry_space_group_name_H-M   'P 1'
_cell_length_a   9.08193866
_cell_length_b   9.06777875
_cell_length_c   7.40123992
_cell_angle_alpha   85.84061013
_cell_angle_beta   85.76397096
_cell_angle_gamma   43.70106767
_symmetry_Int_Tables_number   1
_chemical_formula_structural   La10CoOs3
_chemical_formula_sum   'La10 Co1 Os3'
_cell_volume   419.79870183
_cell_formula_units_Z   1
loop_
 _symmetry_equiv_pos_site_id
 _symmetry_equiv_pos_as_xyz
  1  'x, y, z'
loop_
 _atom_site_type_symbol
 _atom_site_label
 _atom_site_symmetry_multiplicity
 _atom_site_fract_x
 _atom_site_fract_y
 _atom_site_fract_z
 _atom_site_occupancy
  La  La0  1  0.018510  0.798414  0.893455  1
  La  La1  1  0.197813  0.989253  0.588718  1
  La  La2  1  0.986976  0.195757  0.090347  1
  La  La3  1  0.806636  0.011734  0.405662  1
  La  La4  1  0.356139  0.213992  0.828815  1
  La  La5  1  0.778111  0.647684  0.678923  1
  La  La6  1  0.645271  0.787685  0.178828  1
  La  La7  1  0.211925  0.362286  0.334088  1
  La  La8  1  0.569081  0.429269  0.746607  1
  La  La9  1  0.430039  0.569160  0.247063  1
  Co  Co10  1  0.168056  0.604389  0.585816  1
  Os  Os11  1  0.395722  0.822661  0.922125  1
  Os  Os12  1  0.826079  0.397987  0.422906  1
  Os  Os13  1  0.609643  0.169729  0.076645  1
