# generated using pymatgen
data_Ho2Mg(P3Pd10)2
_symmetry_space_group_name_H-M   'P 1'
_cell_length_a   8.64245201
_cell_length_b   8.64245159
_cell_length_c   8.64245200
_cell_angle_alpha   59.99999842
_cell_angle_beta   60.00000006
_cell_angle_gamma   59.99999840
_symmetry_Int_Tables_number   1
_chemical_formula_structural   Ho2Mg(P3Pd10)2
_chemical_formula_sum   'Ho2 Mg1 P6 Pd20'
_cell_volume   456.45282608
_cell_formula_units_Z   1
loop_
 _symmetry_equiv_pos_site_id
 _symmetry_equiv_pos_as_xyz
  1  'x, y, z'
loop_
 _atom_site_type_symbol
 _atom_site_label
 _atom_site_symmetry_multiplicity
 _atom_site_fract_x
 _atom_site_fract_y
 _atom_site_fract_z
 _atom_site_occupancy
  Ho  Ho0  1  0.250000  0.250000  0.250000  1
  Ho  Ho1  1  0.750000  0.750000  0.750000  1
  Mg  Mg2  1  0.000000  0.000000  0.000000  1
  P  P3  1  0.736983  0.263017  0.263017  1
  P  P4  1  0.263017  0.736983  0.736983  1
  P  P5  1  0.263017  0.736983  0.263017  1
  P  P6  1  0.736983  0.263017  0.736983  1
  P  P7  1  0.263017  0.263017  0.736983  1
  P  P8  1  0.736983  0.736983  0.263017  1
  Pd  Pd9  1  0.384233  0.384233  0.384233  1
  Pd  Pd10  1  0.615767  0.615767  0.615767  1
  Pd  Pd11  1  0.384233  0.384233  0.847301  1
  Pd  Pd12  1  0.384233  0.847301  0.384233  1
  Pd  Pd13  1  0.615767  0.615767  0.152699  1
  Pd  Pd14  1  0.615767  0.152699  0.615767  1
  Pd  Pd15  1  0.847301  0.384233  0.384233  1
  Pd  Pd16  1  0.152699  0.615767  0.615767  1
  Pd  Pd17  1  0.344126  0.000000  0.000000  1
  Pd  Pd18  1  0.655874  0.000000  0.000000  1
  Pd  Pd19  1  0.000000  0.344126  0.655874  1
  Pd  Pd20  1  0.000000  0.655874  0.344126  1
  Pd  Pd21  1  0.000000  0.344126  0.000000  1
  Pd  Pd22  1  0.655874  0.000000  0.344126  1
  Pd  Pd23  1  0.000000  0.655874  0.000000  1
  Pd  Pd24  1  0.344126  0.000000  0.655874  1
  Pd  Pd25  1  0.000000  0.000000  0.344126  1
  Pd  Pd26  1  0.000000  0.000000  0.655874  1
  Pd  Pd27  1  0.655874  0.344126  0.000000  1
  Pd  Pd28  1  0.344126  0.655874  0.000000  1
