# generated using pymatgen
data_RbBi3SeS4
_symmetry_space_group_name_H-M   'P 1'
_cell_length_a   4.14883700
_cell_length_b   12.27945100
_cell_length_c   21.61231200
_cell_angle_alpha   90.00000000
_cell_angle_beta   90.00000000
_cell_angle_gamma   90.00000000
_symmetry_Int_Tables_number   1
_chemical_formula_structural   RbBi3SeS4
_chemical_formula_sum   'Rb4 Bi12 Se4 S16'
_cell_volume   1101.04875827
_cell_formula_units_Z   4
loop_
 _symmetry_equiv_pos_site_id
 _symmetry_equiv_pos_as_xyz
  1  'x, y, z'
loop_
 _atom_site_type_symbol
 _atom_site_label
 _atom_site_symmetry_multiplicity
 _atom_site_fract_x
 _atom_site_fract_y
 _atom_site_fract_z
 _atom_site_occupancy
  Rb  Rb0  1  0.750000  0.994856  0.871359  1
  Rb  Rb1  1  0.250000  0.005144  0.128641  1
  Rb  Rb2  1  0.750000  0.494856  0.628641  1
  Rb  Rb3  1  0.250000  0.505144  0.371359  1
  Bi  Bi4  1  0.250000  0.868262  0.645923  1
  Bi  Bi5  1  0.750000  0.131738  0.354077  1
  Bi  Bi6  1  0.250000  0.368262  0.854077  1
  Bi  Bi7  1  0.750000  0.631738  0.145923  1
  Bi  Bi8  1  0.250000  0.663296  0.972156  1
  Bi  Bi9  1  0.750000  0.336704  0.027844  1
  Bi  Bi10  1  0.250000  0.163296  0.527844  1
  Bi  Bi11  1  0.750000  0.836704  0.472156  1
  Bi  Bi12  1  0.750000  0.647309  0.807699  1
  Bi  Bi13  1  0.250000  0.352691  0.192301  1
  Bi  Bi14  1  0.750000  0.147309  0.692301  1
  Bi  Bi15  1  0.250000  0.852691  0.307699  1
  Se  Se16  1  0.250000  0.712363  0.529253  1
  Se  Se17  1  0.750000  0.287637  0.470747  1
  Se  Se18  1  0.250000  0.212363  0.970747  1
  Se  Se19  1  0.750000  0.787637  0.029253  1
  S  S20  1  0.250000  0.016201  0.740027  1
  S  S21  1  0.750000  0.983799  0.259973  1
  S  S22  1  0.250000  0.516201  0.759973  1
  S  S23  1  0.750000  0.483799  0.240027  1
  S  S24  1  0.250000  0.990392  0.415676  1
  S  S25  1  0.750000  0.009608  0.584324  1
  S  S26  1  0.250000  0.490392  0.084324  1
  S  S27  1  0.750000  0.509608  0.915676  1
  S  S28  1  0.250000  0.753192  0.190630  1
  S  S29  1  0.750000  0.246808  0.809370  1
  S  S30  1  0.250000  0.253192  0.309370  1
  S  S31  1  0.750000  0.746808  0.690630  1
  S  S32  1  0.750000  0.724821  0.367798  1
  S  S33  1  0.250000  0.275179  0.632202  1
  S  S34  1  0.750000  0.224821  0.132202  1
  S  S35  1  0.250000  0.775179  0.867798  1
