# generated using pymatgen
data_Tb12CoTc3
_symmetry_space_group_name_H-M   'P 1'
_cell_length_a   6.29989180
_cell_length_b   7.33166143
_cell_length_c   9.25765400
_cell_angle_alpha   90.00000000
_cell_angle_beta   90.00000000
_cell_angle_gamma   90.09004824
_symmetry_Int_Tables_number   1
_chemical_formula_structural   Tb12CoTc3
_chemical_formula_sum   'Tb12 Co1 Tc3'
_cell_volume   427.59823247
_cell_formula_units_Z   1
loop_
 _symmetry_equiv_pos_site_id
 _symmetry_equiv_pos_as_xyz
  1  'x, y, z'
loop_
 _atom_site_type_symbol
 _atom_site_label
 _atom_site_symmetry_multiplicity
 _atom_site_fract_x
 _atom_site_fract_y
 _atom_site_fract_z
 _atom_site_occupancy
  Tb  Tb0  1  0.330191  0.677987  0.065534  1
  Tb  Tb1  1  0.164040  0.177397  0.437442  1
  Tb  Tb2  1  0.665930  0.326254  0.565003  1
  Tb  Tb3  1  0.831956  0.821122  0.936103  1
  Tb  Tb4  1  0.665930  0.326254  0.934997  1
  Tb  Tb5  1  0.831956  0.821122  0.563897  1
  Tb  Tb6  1  0.330191  0.677987  0.434466  1
  Tb  Tb7  1  0.164040  0.177397  0.062558  1
  Tb  Tb8  1  0.871469  0.542319  0.250000  1
  Tb  Tb9  1  0.627174  0.041753  0.250000  1
  Tb  Tb10  1  0.142697  0.456612  0.750000  1
  Tb  Tb11  1  0.372065  0.950711  0.750000  1
  Co  Co12  1  0.540271  0.613485  0.750000  1
  Tc  Tc13  1  0.038650  0.888333  0.250000  1
  Tc  Tc14  1  0.459980  0.390212  0.250000  1
  Tc  Tc15  1  0.963461  0.111053  0.750000  1
