# generated using pymatgen
data_SrAc8La11Si16
_symmetry_space_group_name_H-M   'P 1'
_cell_length_a   8.12450222
_cell_length_b   8.12450242
_cell_length_c   15.56902200
_cell_angle_alpha   90.05098756
_cell_angle_beta   89.94901244
_cell_angle_gamma   90.08147030
_symmetry_Int_Tables_number   1
_chemical_formula_structural   SrAc8La11Si16
_chemical_formula_sum   'Sr1 Ac8 La11 Si16'
_cell_volume   1027.67095865
_cell_formula_units_Z   1
loop_
 _symmetry_equiv_pos_site_id
 _symmetry_equiv_pos_as_xyz
  1  'x, y, z'
loop_
 _atom_site_type_symbol
 _atom_site_label
 _atom_site_symmetry_multiplicity
 _atom_site_fract_x
 _atom_site_fract_y
 _atom_site_fract_z
 _atom_site_occupancy
  Sr  Sr0  1  0.310708  0.310708  0.000000  1
  Ac  Ac1  1  0.372490  0.015439  0.451863  1
  Ac  Ac2  1  0.484793  0.870943  0.701106  1
  Ac  Ac3  1  0.514156  0.125442  0.201071  1
  Ac  Ac4  1  0.870943  0.484793  0.298894  1
  Ac  Ac5  1  0.125442  0.514156  0.798929  1
  Ac  Ac6  1  0.628534  0.986885  0.949718  1
  Ac  Ac7  1  0.015439  0.372490  0.548137  1
  Ac  Ac8  1  0.986885  0.628534  0.050282  1
  La  La9  1  0.191063  0.813484  0.251882  1
  La  La10  1  0.813484  0.191063  0.748118  1
  La  La11  1  0.690710  0.690710  0.500000  1
  La  La12  1  0.125957  0.982866  0.876314  1
  La  La13  1  0.515124  0.628649  0.127590  1
  La  La14  1  0.480934  0.372589  0.626302  1
  La  La15  1  0.628649  0.515124  0.872410  1
  La  La16  1  0.372589  0.480934  0.373698  1
  La  La17  1  0.871265  0.017891  0.377469  1
  La  La18  1  0.982866  0.125957  0.123686  1
  La  La19  1  0.017891  0.871265  0.622531  1
  Si  Si20  1  0.198514  0.163677  0.703308  1
  Si  Si21  1  0.339207  0.706635  0.950404  1
  Si  Si22  1  0.663970  0.300741  0.453226  1
  Si  Si23  1  0.706635  0.339207  0.049596  1
  Si  Si24  1  0.300741  0.663970  0.546774  1
  Si  Si25  1  0.801513  0.834524  0.203837  1
  Si  Si26  1  0.163677  0.198514  0.296692  1
  Si  Si27  1  0.834524  0.801513  0.796163  1
  Si  Si28  1  0.285161  0.914945  0.060849  1
  Si  Si29  1  0.579070  0.785732  0.309711  1
  Si  Si30  1  0.422217  0.211840  0.807305  1
  Si  Si31  1  0.785732  0.579070  0.690289  1
  Si  Si32  1  0.211840  0.422217  0.192695  1
  Si  Si33  1  0.712819  0.079513  0.560374  1
  Si  Si34  1  0.914945  0.285161  0.939151  1
  Si  Si35  1  0.079513  0.712819  0.439626  1
