# generated using pymatgen
data_K3CuPtO4
_symmetry_space_group_name_H-M   'P 1'
_cell_length_a   5.59831596
_cell_length_b   5.59831620
_cell_length_c   11.18784200
_cell_angle_alpha   90.00000000
_cell_angle_beta   90.00000000
_cell_angle_gamma   113.37482040
_symmetry_Int_Tables_number   1
_chemical_formula_structural   K3CuPtO4
_chemical_formula_sum   'K6 Cu2 Pt2 O8'
_cell_volume   321.86242429
_cell_formula_units_Z   2
loop_
 _symmetry_equiv_pos_site_id
 _symmetry_equiv_pos_as_xyz
  1  'x, y, z'
loop_
 _atom_site_type_symbol
 _atom_site_label
 _atom_site_symmetry_multiplicity
 _atom_site_fract_x
 _atom_site_fract_y
 _atom_site_fract_z
 _atom_site_occupancy
  K  K0  1  0.350874  0.649126  0.929807  1
  K  K1  1  0.649126  0.350874  0.429807  1
  K  K2  1  0.649126  0.350874  0.070193  1
  K  K3  1  0.350874  0.649126  0.570193  1
  K  K4  1  0.703525  0.296475  0.750000  1
  K  K5  1  0.296475  0.703525  0.250000  1
  Cu  Cu6  1  0.000000  0.000000  0.000000  1
  Cu  Cu7  1  0.000000  0.000000  0.500000  1
  Pt  Pt8  1  0.073831  0.926169  0.750000  1
  Pt  Pt9  1  0.926169  0.073831  0.250000  1
  O  O10  1  0.716599  0.870325  0.106035  1
  O  O11  1  0.283401  0.129675  0.606035  1
  O  O12  1  0.870325  0.716599  0.893965  1
  O  O13  1  0.129675  0.283401  0.393965  1
  O  O14  1  0.283401  0.129675  0.893965  1
  O  O15  1  0.716599  0.870325  0.393965  1
  O  O16  1  0.129675  0.283401  0.106035  1
  O  O17  1  0.870325  0.716599  0.606035  1
