# generated using pymatgen
data_Li12Tb11Gd(WO6)8
_symmetry_space_group_name_H-M   'P 1'
_cell_length_a   10.72409583
_cell_length_b   10.72858090
_cell_length_c   10.72409202
_cell_angle_alpha   109.45919335
_cell_angle_beta   109.47871357
_cell_angle_gamma   109.45895326
_symmetry_Int_Tables_number   1
_chemical_formula_structural   Li12Tb11Gd(WO6)8
_chemical_formula_sum   'Li12 Tb11 Gd1 W8 O48'
_cell_volume   950.01752230
_cell_formula_units_Z   1
loop_
 _symmetry_equiv_pos_site_id
 _symmetry_equiv_pos_as_xyz
  1  'x, y, z'
loop_
 _atom_site_type_symbol
 _atom_site_label
 _atom_site_symmetry_multiplicity
 _atom_site_fract_x
 _atom_site_fract_y
 _atom_site_fract_z
 _atom_site_occupancy
  Li  Li0  1  0.750047  0.375066  0.125052  1
  Li  Li1  1  0.875314  0.749999  0.125315  1
  Li  Li2  1  0.125020  0.375066  0.250015  1
  Li  Li3  1  0.625081  0.875003  0.250422  1
  Li  Li4  1  0.249988  0.124936  0.374981  1
  Li  Li5  1  0.624989  0.250001  0.374986  1
  Li  Li6  1  0.374682  0.750000  0.624681  1
  Li  Li7  1  0.749919  0.875001  0.624581  1
  Li  Li8  1  0.374946  0.124933  0.749953  1
  Li  Li9  1  0.875420  0.624995  0.750075  1
  Li  Li10  1  0.125013  0.249999  0.875014  1
  Li  Li11  1  0.249575  0.624996  0.874919  1
  Tb  Tb12  1  0.375001  0.250001  0.125002  1
  Tb  Tb13  1  0.250026  0.875063  0.124997  1
  Tb  Tb14  1  0.875135  0.125355  0.250240  1
  Tb  Tb15  1  0.375004  0.624938  0.249974  1
  Tb  Tb16  1  0.124996  0.749999  0.374997  1
  Tb  Tb17  1  0.749936  0.624936  0.374965  1
  Tb  Tb18  1  0.874996  0.249998  0.624997  1
  Tb  Tb19  1  0.249762  0.374644  0.624863  1
  Tb  Tb20  1  0.624886  0.374643  0.749782  1
  Tb  Tb21  1  0.125034  0.875063  0.750064  1
  Tb  Tb22  1  0.750217  0.125354  0.875114  1
  Gd  Gd23  1  0.625004  0.749996  0.875004  1
  W  W24  1  0.000769  0.000709  0.000455  1
  W  W25  1  0.499940  0.000702  0.000242  1
  W  W26  1  0.000105  0.500027  0.000073  1
  W  W27  1  0.499747  0.499293  0.000060  1
  W  W28  1  0.499925  0.999971  0.499898  1
  W  W29  1  0.999934  0.500032  0.499960  1
  W  W30  1  0.000048  0.999975  0.500076  1
  W  W31  1  0.499543  0.499297  0.499239  1
  O  O32  1  0.200368  0.618730  0.027021  1
  O  O33  1  0.326577  0.408034  0.027192  1
  O  O34  1  0.700416  0.173651  0.081736  1
  O  O35  1  0.883285  0.909524  0.083160  1
  O  O36  1  0.973239  0.173656  0.091917  1
  O  O37  1  0.618551  0.919663  0.092838  1
  O  O38  1  0.026993  0.700232  0.118703  1
  O  O39  1  0.591537  0.417954  0.118992  1
  O  O40  1  0.201038  0.082046  0.173584  1
  O  O41  1  0.472804  0.091966  0.173419  1
  O  O42  1  0.118779  0.526978  0.200430  1
  O  O43  1  0.581518  0.673105  0.200162  1
  O  O44  1  0.326416  0.417955  0.298959  1
  O  O45  1  0.472979  0.881272  0.299635  1
  O  O46  1  0.918473  0.799769  0.326761  1
  O  O47  1  0.908202  0.526976  0.326553  1
  O  O48  1  0.581454  0.408036  0.380841  1
  O  O49  1  0.299569  0.973021  0.381223  1
  O  O50  1  0.826672  0.026968  0.408342  1
  O  O51  1  0.081425  0.381224  0.408124  1
  O  O52  1  0.826605  0.299805  0.418463  1
  O  O53  1  0.091877  0.118778  0.418577  1
  O  O54  1  0.381294  0.799766  0.473006  1
  O  O55  1  0.591584  0.673104  0.472946  1
  O  O56  1  0.408080  0.326347  0.526760  1
  O  O57  1  0.618655  0.200200  0.526799  1
  O  O58  1  0.173245  0.700238  0.581531  1
  O  O59  1  0.908293  0.881273  0.581637  1
  O  O60  1  0.918366  0.618729  0.591708  1
  O  O61  1  0.173452  0.973024  0.591799  1
  O  O62  1  0.416838  0.590475  0.616713  1
  O  O63  1  0.700294  0.026968  0.618626  1
  O  O64  1  0.081545  0.200203  0.673403  1
  O  O65  1  0.091665  0.473035  0.673333  1
  O  O66  1  0.673175  0.580335  0.698893  1
  O  O67  1  0.526899  0.118777  0.700201  1
  O  O68  1  0.418262  0.326346  0.799583  1
  O  O69  1  0.881374  0.473032  0.799705  1
  O  O70  1  0.526236  0.909522  0.826361  1
  O  O71  1  0.801107  0.919660  0.826824  1
  O  O72  1  0.973203  0.299800  0.881341  1
  O  O73  1  0.407161  0.580335  0.881446  1
  O  O74  1  0.027056  0.826893  0.908414  1
  O  O75  1  0.381006  0.082044  0.908461  1
  O  O76  1  0.119160  0.091965  0.918544  1
  O  O77  1  0.299837  0.826894  0.918479  1
  O  O78  1  0.799802  0.381221  0.973099  1
  O  O79  1  0.673635  0.590476  0.973763  1
