# generated using pymatgen
data_Co3SiTc2
_symmetry_space_group_name_H-M   'P 1'
_cell_length_a   4.70472700
_cell_length_b   4.70472716
_cell_length_c   7.34113600
_cell_angle_alpha   90.00000000
_cell_angle_beta   90.00000000
_cell_angle_gamma   120.00000588
_symmetry_Int_Tables_number   1
_chemical_formula_structural   Co3SiTc2
_chemical_formula_sum   'Co6 Si2 Tc4'
_cell_volume   140.72224223
_cell_formula_units_Z   2
loop_
 _symmetry_equiv_pos_site_id
 _symmetry_equiv_pos_as_xyz
  1  'x, y, z'
loop_
 _atom_site_type_symbol
 _atom_site_label
 _atom_site_symmetry_multiplicity
 _atom_site_fract_x
 _atom_site_fract_y
 _atom_site_fract_z
 _atom_site_occupancy
  Co  Co0  1  0.828494  0.171506  0.250000  1
  Co  Co1  1  0.828494  0.656988  0.250000  1
  Co  Co2  1  0.343012  0.171506  0.250000  1
  Co  Co3  1  0.171506  0.828494  0.750000  1
  Co  Co4  1  0.171506  0.343012  0.750000  1
  Co  Co5  1  0.656988  0.828494  0.750000  1
  Si  Si6  1  0.000000  0.000000  0.500000  1
  Si  Si7  1  0.000000  0.000000  0.000000  1
  Tc  Tc8  1  0.333333  0.666667  0.431117  1
  Tc  Tc9  1  0.666667  0.333333  0.568883  1
  Tc  Tc10  1  0.666667  0.333333  0.931117  1
  Tc  Tc11  1  0.333333  0.666667  0.068883  1
