# generated using pymatgen
data_Tb2YbAl3Si2Ni
_symmetry_space_group_name_H-M   'P 1'
_cell_length_a   6.92437200
_cell_length_b   6.87781511
_cell_length_c   4.22085900
_cell_angle_alpha   90.00000000
_cell_angle_beta   90.00000000
_cell_angle_gamma   120.22417512
_symmetry_Int_Tables_number   1
_chemical_formula_structural   Tb2YbAl3Si2Ni
_chemical_formula_sum   'Tb2 Yb1 Al3 Si2 Ni1'
_cell_volume   173.69082648
_cell_formula_units_Z   1
loop_
 _symmetry_equiv_pos_site_id
 _symmetry_equiv_pos_as_xyz
  1  'x, y, z'
loop_
 _atom_site_type_symbol
 _atom_site_label
 _atom_site_symmetry_multiplicity
 _atom_site_fract_x
 _atom_site_fract_y
 _atom_site_fract_z
 _atom_site_occupancy
  Tb  Tb0  1  0.999974  0.409194  0.000000  1
  Tb  Tb1  1  0.590780  0.590805  0.000000  1
  Yb  Yb2  1  0.407055  0.000000  0.000000  1
  Al  Al3  1  0.768464  0.000000  0.499999  1
  Al  Al4  1  0.231688  0.236594  0.499999  1
  Al  Al5  1  0.995094  0.763406  0.499999  1
  Si  Si6  1  0.673259  0.339592  0.499999  1
  Si  Si7  1  0.333667  0.660409  0.499999  1
  Ni  Ni8  1  0.000022  0.000000  0.000000  1
