# generated using pymatgen
data_Pr2Sm4PtI10
_symmetry_space_group_name_H-M   'P 1'
_cell_length_a   7.90633712
_cell_length_b   9.97590386
_cell_length_c   10.06374373
_cell_angle_alpha   107.33688443
_cell_angle_beta   97.01133869
_cell_angle_gamma   105.22752897
_symmetry_Int_Tables_number   1
_chemical_formula_structural   Pr2Sm4PtI10
_chemical_formula_sum   'Pr2 Sm4 Pt1 I10'
_cell_volume   713.58999958
_cell_formula_units_Z   1
loop_
 _symmetry_equiv_pos_site_id
 _symmetry_equiv_pos_as_xyz
  1  'x, y, z'
loop_
 _atom_site_type_symbol
 _atom_site_label
 _atom_site_symmetry_multiplicity
 _atom_site_fract_x
 _atom_site_fract_y
 _atom_site_fract_z
 _atom_site_occupancy
  Pr  Pr0  1  0.619033  0.542968  0.254776  1
  Pr  Pr1  1  0.380967  0.457032  0.745224  1
  Sm  Sm2  1  0.530065  0.212057  0.413480  1
  Sm  Sm3  1  0.469935  0.787943  0.586520  1
  Sm  Sm4  1  0.147395  0.371404  0.332279  1
  Sm  Sm5  1  0.852605  0.628596  0.667721  1
  Pt  Pt6  1  0.500000  0.500000  0.500000  1
  I  I7  1  0.146149  0.047379  0.227687  1
  I  I8  1  0.853851  0.952621  0.772313  1
  I  I9  1  0.232172  0.410003  0.040882  1
  I  I10  1  0.767828  0.589997  0.959118  1
  I  I11  1  0.715313  0.237134  0.153771  1
  I  I12  1  0.284687  0.762866  0.846229  1
  I  I13  1  0.050325  0.681886  0.412005  1
  I  I14  1  0.949675  0.318114  0.587995  1
  I  I15  1  0.415321  0.125755  0.675916  1
  I  I16  1  0.584679  0.874245  0.324084  1
