# generated using pymatgen
data_Th2BIr6
_symmetry_space_group_name_H-M   'P 1'
_cell_length_a   5.97900283
_cell_length_b   5.97900351
_cell_length_c   5.97900300
_cell_angle_alpha   59.99999729
_cell_angle_beta   59.99999352
_cell_angle_gamma   60.00000264
_symmetry_Int_Tables_number   1
_chemical_formula_structural   Th2BIr6
_chemical_formula_sum   'Th2 B1 Ir6'
_cell_volume   151.13718157
_cell_formula_units_Z   1
loop_
 _symmetry_equiv_pos_site_id
 _symmetry_equiv_pos_as_xyz
  1  'x, y, z'
loop_
 _atom_site_type_symbol
 _atom_site_label
 _atom_site_symmetry_multiplicity
 _atom_site_fract_x
 _atom_site_fract_y
 _atom_site_fract_z
 _atom_site_occupancy
  Th  Th0  1  0.750000  0.750000  0.750000  1
  Th  Th1  1  0.250000  0.250000  0.250000  1
  B  B2  1  0.000000  0.000000  0.000000  1
  Ir  Ir3  1  0.743256  0.743256  0.256744  1
  Ir  Ir4  1  0.256744  0.743256  0.256744  1
  Ir  Ir5  1  0.743256  0.256744  0.256744  1
  Ir  Ir6  1  0.256744  0.256744  0.743256  1
  Ir  Ir7  1  0.743256  0.256744  0.743256  1
  Ir  Ir8  1  0.256744  0.743256  0.743256  1
