# generated using pymatgen
data_CaTb2Ga2Co9B4
_symmetry_space_group_name_H-M   'P 1'
_cell_length_a   5.15306722
_cell_length_b   5.15184396
_cell_length_c   9.59077101
_cell_angle_alpha   89.99626024
_cell_angle_beta   90.00151114
_cell_angle_gamma   120.00709557
_symmetry_Int_Tables_number   1
_chemical_formula_structural   CaTb2Ga2Co9B4
_chemical_formula_sum   'Ca1 Tb2 Ga2 Co9 B4'
_cell_volume   220.48629703
_cell_formula_units_Z   1
loop_
 _symmetry_equiv_pos_site_id
 _symmetry_equiv_pos_as_xyz
  1  'x, y, z'
loop_
 _atom_site_type_symbol
 _atom_site_label
 _atom_site_symmetry_multiplicity
 _atom_site_fract_x
 _atom_site_fract_y
 _atom_site_fract_z
 _atom_site_occupancy
  Ca  Ca0  1  0.000012  0.000079  0.000030  1
  Tb  Tb1  1  0.000012  0.999960  0.338647  1
  Tb  Tb2  1  0.000034  0.000013  0.661311  1
  Ga  Ga3  1  0.333245  0.666590  0.000018  1
  Ga  Ga4  1  0.666794  0.333395  0.000040  1
  Co  Co5  1  0.499970  0.999961  0.500045  1
  Co  Co6  1  0.499982  0.500008  0.499970  1
  Co  Co7  1  0.000017  0.499912  0.500013  1
  Co  Co8  1  0.499854  0.999946  0.208858  1
  Co  Co9  1  0.499969  0.499958  0.208955  1
  Co  Co10  1  0.999925  0.500009  0.208931  1
  Co  Co11  1  0.500032  0.999965  0.791125  1
  Co  Co12  1  0.500031  0.499982  0.791038  1
  Co  Co13  1  0.999984  0.500058  0.791071  1
  B  B14  1  0.333243  0.666724  0.350475  1
  B  B15  1  0.666804  0.333396  0.350462  1
  B  B16  1  0.666694  0.333350  0.649503  1
  B  B17  1  0.333298  0.666696  0.649512  1
