# generated using pymatgen
data_Tb4Y3Sn23Os6
_symmetry_space_group_name_H-M   'P 1'
_cell_length_a   9.86854724
_cell_length_b   9.87224218
_cell_length_c   10.14076501
_cell_angle_alpha   89.99999971
_cell_angle_beta   89.99548177
_cell_angle_gamma   120.01239004
_symmetry_Int_Tables_number   1
_chemical_formula_structural   Tb4Y3Sn23Os6
_chemical_formula_sum   'Tb4 Y3 Sn23 Os6'
_cell_volume   855.49236667
_cell_formula_units_Z   1
loop_
 _symmetry_equiv_pos_site_id
 _symmetry_equiv_pos_as_xyz
  1  'x, y, z'
loop_
 _atom_site_type_symbol
 _atom_site_label
 _atom_site_symmetry_multiplicity
 _atom_site_fract_x
 _atom_site_fract_y
 _atom_site_fract_z
 _atom_site_occupancy
  Tb  Tb0  1  0.031442  0.515721  0.302464  1
  Tb  Tb1  1  0.484306  0.968597  0.302421  1
  Tb  Tb2  1  0.484306  0.515708  0.302421  1
  Tb  Tb3  1  0.968598  0.484299  0.697550  1
  Y  Y4  1  0.000007  0.000004  0.999989  1
  Y  Y5  1  0.515765  0.031453  0.697486  1
  Y  Y6  1  0.515765  0.484313  0.697486  1
  Sn  Sn7  1  0.000038  0.000019  0.500024  1
  Sn  Sn8  1  0.117266  0.882648  0.275328  1
  Sn  Sn9  1  0.765390  0.882696  0.275342  1
  Sn  Sn10  1  0.117266  0.234619  0.275328  1
  Sn  Sn11  1  0.882675  0.117258  0.724698  1
  Sn  Sn12  1  0.234560  0.117280  0.724714  1
  Sn  Sn13  1  0.882675  0.765416  0.724698  1
  Sn  Sn14  1  0.349641  0.999929  0.000002  1
  Sn  Sn15  1  0.650297  0.650367  0.999989  1
  Sn  Sn16  1  0.000053  0.349653  0.000021  1
  Sn  Sn17  1  0.349641  0.349712  0.000002  1
  Sn  Sn18  1  0.000053  0.650400  0.000021  1
  Sn  Sn19  1  0.650297  0.999931  0.999989  1
  Sn  Sn20  1  0.780631  0.561044  0.462155  1
  Sn  Sn21  1  0.780631  0.219588  0.462155  1
  Sn  Sn22  1  0.438996  0.219498  0.462170  1
  Sn  Sn23  1  0.219462  0.438954  0.537897  1
  Sn  Sn24  1  0.219462  0.780508  0.537897  1
  Sn  Sn25  1  0.560976  0.780487  0.537994  1
  Sn  Sn26  1  0.666693  0.333346  0.175598  1
  Sn  Sn27  1  0.333355  0.666678  0.824282  1
  Sn  Sn28  1  0.666663  0.333331  0.872252  1
  Sn  Sn29  1  0.333240  0.666621  0.127726  1
  Os  Os30  1  0.169967  0.829974  0.798075  1
  Os  Os31  1  0.660085  0.830043  0.798087  1
  Os  Os32  1  0.169967  0.339993  0.798075  1
  Os  Os33  1  0.829905  0.169947  0.201864  1
  Os  Os34  1  0.340017  0.170009  0.201939  1
  Os  Os35  1  0.829905  0.659958  0.201864  1
