# generated using pymatgen
data_Cs3Li2ZrBi3
_symmetry_space_group_name_H-M   'P 1'
_cell_length_a   14.60644369
_cell_length_b   14.60644259
_cell_length_c   14.60644306
_cell_angle_alpha   151.20985810
_cell_angle_beta   103.76573195
_cell_angle_gamma   83.43431364
_symmetry_Int_Tables_number   1
_chemical_formula_structural   Cs3Li2ZrBi3
_chemical_formula_sum   'Cs12 Li8 Zr4 Bi12'
_cell_volume   1427.82927841
_cell_formula_units_Z   4
loop_
 _symmetry_equiv_pos_site_id
 _symmetry_equiv_pos_as_xyz
  1  'x, y, z'
loop_
 _atom_site_type_symbol
 _atom_site_label
 _atom_site_symmetry_multiplicity
 _atom_site_fract_x
 _atom_site_fract_y
 _atom_site_fract_z
 _atom_site_occupancy
  Cs  Cs0  1  0.591513  0.949876  0.199589  1
  Cs  Cs1  1  0.069986  0.750000  0.819986  1
  Cs  Cs2  1  0.908487  0.108076  0.358363  1
  Cs  Cs3  1  0.408487  0.050124  0.800411  1
  Cs  Cs4  1  0.749714  0.608076  0.699589  1
  Cs  Cs5  1  0.250286  0.391924  0.300411  1
  Cs  Cs6  1  0.091513  0.891924  0.641637  1
  Cs  Cs7  1  0.430014  0.250000  0.680014  1
  Cs  Cs8  1  0.750286  0.449876  0.858363  1
  Cs  Cs9  1  0.249714  0.550124  0.141637  1
  Cs  Cs10  1  0.930014  0.250000  0.180014  1
  Cs  Cs11  1  0.569986  0.750000  0.319986  1
  Li  Li12  1  0.997248  0.247248  0.750000  1
  Li  Li13  1  0.665744  0.915744  0.750000  1
  Li  Li14  1  0.002752  0.752752  0.250000  1
  Li  Li15  1  0.502752  0.252752  0.250000  1
  Li  Li16  1  0.497248  0.747248  0.750000  1
  Li  Li17  1  0.165744  0.415744  0.750000  1
  Li  Li18  1  0.334256  0.084256  0.250000  1
  Li  Li19  1  0.834256  0.584256  0.250000  1
  Zr  Zr20  1  0.667447  0.417447  0.250000  1
  Zr  Zr21  1  0.167447  0.917447  0.250000  1
  Zr  Zr22  1  0.832553  0.082553  0.750000  1
  Zr  Zr23  1  0.332553  0.582553  0.750000  1
  Bi  Bi24  1  0.335583  0.750000  0.085583  1
  Bi  Bi25  1  0.499890  0.566839  0.390568  1
  Bi  Bi26  1  0.999890  0.609322  0.933051  1
  Bi  Bi27  1  0.500110  0.433161  0.609432  1
  Bi  Bi28  1  0.323728  0.890678  0.890568  1
  Bi  Bi29  1  0.676272  0.109322  0.109432  1
  Bi  Bi30  1  0.000110  0.390678  0.066949  1
  Bi  Bi31  1  0.664417  0.250000  0.914417  1
  Bi  Bi32  1  0.823728  0.933161  0.433051  1
  Bi  Bi33  1  0.164417  0.250000  0.414417  1
  Bi  Bi34  1  0.176272  0.066839  0.566949  1
  Bi  Bi35  1  0.835583  0.750000  0.585583  1
