# generated using pymatgen
data_Zr4Ta5Re2Os
_symmetry_space_group_name_H-M   'P 1'
_cell_length_a   5.52777596
_cell_length_b   5.41562670
_cell_length_c   8.98847900
_cell_angle_alpha   90.00000000
_cell_angle_beta   90.00000000
_cell_angle_gamma   120.46410598
_symmetry_Int_Tables_number   1
_chemical_formula_structural   Zr4Ta5Re2Os
_chemical_formula_sum   'Zr4 Ta5 Re2 Os1'
_cell_volume   231.93479062
_cell_formula_units_Z   1
loop_
 _symmetry_equiv_pos_site_id
 _symmetry_equiv_pos_as_xyz
  1  'x, y, z'
loop_
 _atom_site_type_symbol
 _atom_site_label
 _atom_site_symmetry_multiplicity
 _atom_site_fract_x
 _atom_site_fract_y
 _atom_site_fract_z
 _atom_site_occupancy
  Zr  Zr0  1  0.331448  0.663812  0.442465  1
  Zr  Zr1  1  0.664891  0.332164  0.934349  1
  Zr  Zr2  1  0.664891  0.332164  0.565651  1
  Zr  Zr3  1  0.331448  0.663812  0.057535  1
  Ta  Ta4  1  0.654739  0.828595  0.750000  1
  Ta  Ta5  1  0.346535  0.177759  0.250000  1
  Ta  Ta6  1  0.835980  0.176607  0.250000  1
  Ta  Ta7  1  0.003826  0.995726  0.503110  1
  Ta  Ta8  1  0.003826  0.995726  0.996890  1
  Re  Re9  1  0.164083  0.340314  0.750000  1
  Re  Re10  1  0.163162  0.825235  0.750000  1
  Os  Os11  1  0.835170  0.668087  0.250000  1
