# generated using pymatgen
data_Pr6Y10Cd4Ir3Pd
_symmetry_space_group_name_H-M   'P 1'
_cell_length_a   9.82013531
_cell_length_b   9.82013443
_cell_length_c   9.82013489
_cell_angle_alpha   60.10587855
_cell_angle_beta   60.10588479
_cell_angle_gamma   60.10587613
_symmetry_Int_Tables_number   1
_chemical_formula_structural   Pr6Y10Cd4Ir3Pd
_chemical_formula_sum   'Pr6 Y10 Cd4 Ir3 Pd1'
_cell_volume   671.24021047
_cell_formula_units_Z   1
loop_
 _symmetry_equiv_pos_site_id
 _symmetry_equiv_pos_as_xyz
  1  'x, y, z'
loop_
 _atom_site_type_symbol
 _atom_site_label
 _atom_site_symmetry_multiplicity
 _atom_site_fract_x
 _atom_site_fract_y
 _atom_site_fract_z
 _atom_site_occupancy
  Pr  Pr0  1  0.940487  0.560401  0.560401  1
  Pr  Pr1  1  0.561547  0.940429  0.940429  1
  Pr  Pr2  1  0.560401  0.940487  0.560401  1
  Pr  Pr3  1  0.940429  0.561547  0.940429  1
  Pr  Pr4  1  0.560401  0.560401  0.940487  1
  Pr  Pr5  1  0.940429  0.940429  0.561547  1
  Y  Y6  1  0.346383  0.346383  0.346383  1
  Y  Y7  1  0.352375  0.352375  0.951830  1
  Y  Y8  1  0.352375  0.951830  0.352375  1
  Y  Y9  1  0.951830  0.352375  0.352375  1
  Y  Y10  1  0.805927  0.188520  0.188520  1
  Y  Y11  1  0.185775  0.812262  0.812262  1
  Y  Y12  1  0.188520  0.805927  0.188520  1
  Y  Y13  1  0.812262  0.185775  0.812262  1
  Y  Y14  1  0.188520  0.188520  0.805927  1
  Y  Y15  1  0.812262  0.812262  0.185775  1
  Cd  Cd16  1  0.579583  0.579583  0.579583  1
  Cd  Cd17  1  0.579057  0.579057  0.262258  1
  Cd  Cd18  1  0.579057  0.262258  0.579057  1
  Cd  Cd19  1  0.262258  0.579057  0.579057  1
  Ir  Ir20  1  0.141331  0.141331  0.575007  1
  Ir  Ir21  1  0.141331  0.575007  0.141331  1
  Ir  Ir22  1  0.575007  0.141331  0.141331  1
  Pd  Pd23  1  0.142450  0.142450  0.142450  1
