# generated using pymatgen
data_TbDy6Y(B6Ru)4
_symmetry_space_group_name_H-M   'P 1'
_cell_length_a   3.66700800
_cell_length_b   9.15886702
_cell_length_c   11.53139600
_cell_angle_alpha   89.99557185
_cell_angle_beta   90.00000000
_cell_angle_gamma   90.00000000
_symmetry_Int_Tables_number   1
_chemical_formula_structural   TbDy6Y(B6Ru)4
_chemical_formula_sum   'Tb1 Dy6 Y1 B24 Ru4'
_cell_volume   387.28929774
_cell_formula_units_Z   1
loop_
 _symmetry_equiv_pos_site_id
 _symmetry_equiv_pos_as_xyz
  1  'x, y, z'
loop_
 _atom_site_type_symbol
 _atom_site_label
 _atom_site_symmetry_multiplicity
 _atom_site_fract_x
 _atom_site_fract_y
 _atom_site_fract_z
 _atom_site_occupancy
  Tb  Tb0  1  0.000000  0.676967  0.586061  1
  Dy  Dy1  1  0.000000  0.822998  0.085941  1
  Dy  Dy2  1  0.000000  0.177017  0.914080  1
  Dy  Dy3  1  0.000000  0.943763  0.372050  1
  Dy  Dy4  1  0.000000  0.056305  0.627934  1
  Dy  Dy5  1  0.000000  0.443728  0.127653  1
  Dy  Dy6  1  0.000000  0.556243  0.872356  1
  Y  Y7  1  0.000000  0.322723  0.413995  1
  B  B8  1  0.500000  0.554277  0.432744  1
  B  B9  1  0.500000  0.445708  0.567245  1
  B  B10  1  0.500000  0.054087  0.066937  1
  B  B11  1  0.500000  0.945927  0.933062  1
  B  B12  1  0.500000  0.747911  0.419467  1
  B  B13  1  0.500000  0.252111  0.580446  1
  B  B14  1  0.500000  0.247666  0.080080  1
  B  B15  1  0.500000  0.752343  0.919918  1
  B  B16  1  0.500000  0.791064  0.266138  1
  B  B17  1  0.500000  0.208930  0.733829  1
  B  B18  1  0.500000  0.290865  0.233405  1
  B  B19  1  0.500000  0.709234  0.766661  1
  B  B20  1  0.500000  0.632132  0.185043  1
  B  B21  1  0.500000  0.367856  0.814954  1
  B  B22  1  0.500000  0.131875  0.314591  1
  B  B23  1  0.500000  0.868197  0.685426  1
  B  B24  1  0.500000  0.983749  0.212646  1
  B  B25  1  0.500000  0.016271  0.787373  1
  B  B26  1  0.500000  0.483928  0.286951  1
  B  B27  1  0.500000  0.515935  0.713051  1
  B  B28  1  0.500000  0.609252  0.030120  1
  B  B29  1  0.500000  0.390743  0.969883  1
  B  B30  1  0.500000  0.108609  0.470019  1
  B  B31  1  0.500000  0.891638  0.529928  1
  Ru  Ru32  1  0.000000  0.638017  0.320973  1
  Ru  Ru33  1  0.000000  0.361900  0.679038  1
  Ru  Ru34  1  0.000000  0.137761  0.178576  1
  Ru  Ru35  1  0.000000  0.862270  0.821426  1
