# generated using pymatgen
data_Cs2SmNpTe4
_symmetry_space_group_name_H-M   'P 1'
_cell_length_a   4.65200700
_cell_length_b   4.65200741
_cell_length_c   17.83234600
_cell_angle_alpha   90.00000000
_cell_angle_beta   90.00000000
_cell_angle_gamma   119.99998999
_symmetry_Int_Tables_number   1
_chemical_formula_structural   Cs2SmNpTe4
_chemical_formula_sum   'Cs2 Sm1 Np1 Te4'
_cell_volume   334.21036507
_cell_formula_units_Z   1
loop_
 _symmetry_equiv_pos_site_id
 _symmetry_equiv_pos_as_xyz
  1  'x, y, z'
loop_
 _atom_site_type_symbol
 _atom_site_label
 _atom_site_symmetry_multiplicity
 _atom_site_fract_x
 _atom_site_fract_y
 _atom_site_fract_z
 _atom_site_occupancy
  Cs  Cs0  1  0.333333  0.666667  0.250286  1
  Cs  Cs1  1  0.666667  0.333333  0.749714  1
  Sm  Sm2  1  0.000000  0.000000  0.500000  1
  Np  Np3  1  0.000000  0.000000  0.000000  1
  Te  Te4  1  0.333333  0.666667  0.596296  1
  Te  Te5  1  0.666667  0.333333  0.095605  1
  Te  Te6  1  0.666667  0.333333  0.403704  1
  Te  Te7  1  0.333333  0.666667  0.904395  1
