# generated using pymatgen
data_Sc3Nb3Si7Ni16
_symmetry_space_group_name_H-M   'P 1'
_cell_length_a   7.99705610
_cell_length_b   8.04568046
_cell_length_c   8.01125781
_cell_angle_alpha   59.73852287
_cell_angle_beta   60.17361834
_cell_angle_gamma   60.00055443
_symmetry_Int_Tables_number   1
_chemical_formula_structural   Sc3Nb3Si7Ni16
_chemical_formula_sum   'Sc3 Nb3 Si7 Ni16'
_cell_volume   364.23295751
_cell_formula_units_Z   1
loop_
 _symmetry_equiv_pos_site_id
 _symmetry_equiv_pos_as_xyz
  1  'x, y, z'
loop_
 _atom_site_type_symbol
 _atom_site_label
 _atom_site_symmetry_multiplicity
 _atom_site_fract_x
 _atom_site_fract_y
 _atom_site_fract_z
 _atom_site_occupancy
  Sc  Sc0  1  0.795185  0.795210  0.204866  1
  Sc  Sc1  1  0.798452  0.202629  0.797455  1
  Sc  Sc2  1  0.202577  0.798538  0.201467  1
  Nb  Nb3  1  0.795865  0.208546  0.204141  1
  Nb  Nb4  1  0.208514  0.795788  0.791418  1
  Nb  Nb5  1  0.202515  0.202611  0.797463  1
  Si  Si6  1  0.502735  0.502768  0.497210  1
  Si  Si7  1  0.499775  0.002015  0.500195  1
  Si  Si8  1  0.001966  0.499700  0.998048  1
  Si  Si9  1  0.999443  0.999421  0.500439  1
  Si  Si10  1  0.497776  0.001374  0.998687  1
  Si  Si11  1  0.001290  0.497817  0.502108  1
  Si  Si12  1  0.499407  0.499234  0.000624  1
  Ni  Ni13  1  0.167319  0.168199  0.496064  1
  Ni  Ni14  1  0.495124  0.168328  0.167672  1
  Ni  Ni15  1  0.168424  0.167441  0.168372  1
  Ni  Ni16  1  0.504168  0.831542  0.832561  1
  Ni  Ni17  1  0.831090  0.832309  0.831852  1
  Ni  Ni18  1  0.832586  0.830997  0.504732  1
  Ni  Ni19  1  0.168338  0.495226  0.168813  1
  Ni  Ni20  1  0.614739  0.148563  0.616227  1
  Ni  Ni21  1  0.379415  0.383707  0.851576  1
  Ni  Ni22  1  0.855017  0.379768  0.380086  1
  Ni  Ni23  1  0.383584  0.379433  0.385281  1
  Ni  Ni24  1  0.148459  0.614873  0.620684  1
  Ni  Ni25  1  0.614865  0.619868  0.620183  1
  Ni  Ni26  1  0.619825  0.614817  0.145007  1
  Ni  Ni27  1  0.379981  0.854998  0.385073  1
  Ni  Ni28  1  0.831563  0.504281  0.831696  1
