# generated using pymatgen
data_SrNd2Sm4OsBr12
_symmetry_space_group_name_H-M   'P 1'
_cell_length_a   9.46905353
_cell_length_b   9.46979406
_cell_length_c   9.57349059
_cell_angle_alpha   105.97774156
_cell_angle_beta   106.44945097
_cell_angle_gamma   106.10211441
_symmetry_Int_Tables_number   1
_chemical_formula_structural   SrNd2Sm4OsBr12
_chemical_formula_sum   'Sr1 Nd2 Sm4 Os1 Br12'
_cell_volume   730.38561961
_cell_formula_units_Z   1
loop_
 _symmetry_equiv_pos_site_id
 _symmetry_equiv_pos_as_xyz
  1  'x, y, z'
loop_
 _atom_site_type_symbol
 _atom_site_label
 _atom_site_symmetry_multiplicity
 _atom_site_fract_x
 _atom_site_fract_y
 _atom_site_fract_z
 _atom_site_occupancy
  Sr  Sr0  1  0.499975  0.500088  0.500238  1
  Nd  Nd1  1  0.100230  0.307611  0.018859  1
  Nd  Nd2  1  0.308685  0.019434  0.101290  1
  Sm  Sm3  1  0.019333  0.103169  0.315192  1
  Sm  Sm4  1  0.979791  0.895438  0.684118  1
  Sm  Sm5  1  0.693507  0.979753  0.899442  1
  Sm  Sm6  1  0.898942  0.694471  0.980320  1
  Os  Os7  1  0.999690  0.999511  0.999535  1
  Br  Br8  1  0.217712  0.678813  0.071866  1
  Br  Br9  1  0.450440  0.368601  0.149975  1
  Br  Br10  1  0.681836  0.071827  0.217655  1
  Br  Br11  1  0.927839  0.781163  0.319109  1
  Br  Br12  1  0.146341  0.446584  0.366672  1
  Br  Br13  1  0.364387  0.147176  0.448463  1
  Br  Br14  1  0.635520  0.854365  0.554921  1
  Br  Br15  1  0.853960  0.553699  0.636356  1
  Br  Br16  1  0.071413  0.216882  0.677523  1
  Br  Br17  1  0.319801  0.927515  0.779370  1
  Br  Br18  1  0.553587  0.634765  0.852323  1
  Br  Br19  1  0.777013  0.319135  0.926772  1
