# generated using pymatgen
data_YbHoBe25Ni
_symmetry_space_group_name_H-M   'P 1'
_cell_length_a   7.21673808
_cell_length_b   7.25173893
_cell_length_c   7.20319700
_cell_angle_alpha   59.91257404
_cell_angle_beta   59.85758170
_cell_angle_gamma   59.64756317
_symmetry_Int_Tables_number   1
_chemical_formula_structural   YbHoBe25Ni
_chemical_formula_sum   'Yb1 Ho1 Be25 Ni1'
_cell_volume   265.38141175
_cell_formula_units_Z   1
loop_
 _symmetry_equiv_pos_site_id
 _symmetry_equiv_pos_as_xyz
  1  'x, y, z'
loop_
 _atom_site_type_symbol
 _atom_site_label
 _atom_site_symmetry_multiplicity
 _atom_site_fract_x
 _atom_site_fract_y
 _atom_site_fract_z
 _atom_site_occupancy
  Yb  Yb0  1  0.246444  0.253339  0.249988  1
  Ho  Ho1  1  0.749579  0.751451  0.750907  1
  Be  Be2  1  0.501634  0.500751  0.498654  1
  Be  Be3  1  0.999576  0.001921  0.000411  1
  Be  Be4  1  0.202828  0.440326  0.794729  1
  Be  Be5  1  0.568019  0.787152  0.434609  1
  Be  Be6  1  0.435176  0.207716  0.567084  1
  Be  Be7  1  0.292923  0.934018  0.709330  1
  Be  Be8  1  0.708891  0.063816  0.293181  1
  Be  Be9  1  0.932344  0.288502  0.065112  1
  Be  Be10  1  0.066842  0.716221  0.930867  1
  Be  Be11  1  0.206582  0.793499  0.563427  1
  Be  Be12  1  0.790405  0.204707  0.437931  1
  Be  Be13  1  0.438828  0.565985  0.791478  1
  Be  Be14  1  0.563382  0.435405  0.207744  1
  Be  Be15  1  0.711723  0.286287  0.933838  1
  Be  Be16  1  0.289391  0.713884  0.063770  1
  Be  Be17  1  0.063595  0.929814  0.290398  1
  Be  Be18  1  0.934025  0.064887  0.712678  1
  Be  Be19  1  0.562944  0.208085  0.791531  1
  Be  Be20  1  0.436934  0.790157  0.207007  1
  Be  Be21  1  0.791503  0.436417  0.565003  1
  Be  Be22  1  0.206061  0.565119  0.439944  1
  Be  Be23  1  0.935158  0.711900  0.290010  1
  Be  Be24  1  0.063684  0.290379  0.711933  1
  Be  Be25  1  0.291059  0.063134  0.933171  1
  Be  Be26  1  0.712421  0.934929  0.062659  1
  Ni  Ni27  1  0.798049  0.560196  0.202606  1
