# generated using pymatgen
data_Tb11Ho9Co3Bi8Os
_symmetry_space_group_name_H-M   'P 1'
_cell_length_a   7.99580605
_cell_length_b   8.94402500
_cell_length_c   12.45695215
_cell_angle_alpha   90.00000000
_cell_angle_beta   89.73140865
_cell_angle_gamma   90.00000000
_symmetry_Int_Tables_number   1
_chemical_formula_structural   Tb11Ho9Co3Bi8Os
_chemical_formula_sum   'Tb11 Ho9 Co3 Bi8 Os1'
_cell_volume   890.84527284
_cell_formula_units_Z   1
loop_
 _symmetry_equiv_pos_site_id
 _symmetry_equiv_pos_as_xyz
  1  'x, y, z'
loop_
 _atom_site_type_symbol
 _atom_site_label
 _atom_site_symmetry_multiplicity
 _atom_site_fract_x
 _atom_site_fract_y
 _atom_site_fract_z
 _atom_site_occupancy
  Tb  Tb0  1  0.346266  0.750000  0.700846  1
  Tb  Tb1  1  0.653071  0.250000  0.300660  1
  Tb  Tb2  1  0.847561  0.250000  0.800092  1
  Tb  Tb3  1  0.155056  0.750000  0.205857  1
  Tb  Tb4  1  0.880865  0.750000  0.805808  1
  Tb  Tb5  1  0.114717  0.250000  0.189167  1
  Tb  Tb6  1  0.384888  0.250000  0.688381  1
  Tb  Tb7  1  0.614906  0.750000  0.312578  1
  Tb  Tb8  1  0.052491  0.750000  0.497821  1
  Tb  Tb9  1  0.947320  0.250000  0.502566  1
  Tb  Tb10  1  0.554349  0.250000  0.002887  1
  Ho  Ho11  1  0.674770  0.537196  0.562992  1
  Ho  Ho12  1  0.324693  0.461462  0.436995  1
  Ho  Ho13  1  0.176168  0.457924  0.935648  1
  Ho  Ho14  1  0.324693  0.038538  0.436995  1
  Ho  Ho15  1  0.824467  0.537474  0.063640  1
  Ho  Ho16  1  0.674770  0.962804  0.562992  1
  Ho  Ho17  1  0.824467  0.962526  0.063640  1
  Ho  Ho18  1  0.176168  0.042076  0.935648  1
  Ho  Ho19  1  0.444490  0.750000  0.996778  1
  Co  Co20  1  0.931197  0.250000  0.008772  1
  Co  Co21  1  0.565001  0.250000  0.507893  1
  Co  Co22  1  0.433986  0.750000  0.492398  1
  Bi  Bi23  1  0.571560  0.509092  0.826399  1
  Bi  Bi24  1  0.429502  0.490818  0.173305  1
  Bi  Bi25  1  0.072024  0.490237  0.672436  1
  Bi  Bi26  1  0.429502  0.009182  0.173305  1
  Bi  Bi27  1  0.927733  0.509003  0.327238  1
  Bi  Bi28  1  0.571560  0.990908  0.826399  1
  Bi  Bi29  1  0.927733  0.990997  0.327238  1
  Bi  Bi30  1  0.072024  0.009763  0.672436  1
  Os  Os31  1  0.072000  0.750000  0.990189  1
