# generated using pymatgen
data_Dy8Ti7Si16Mo2W3
_symmetry_space_group_name_H-M   'P 1'
_cell_length_a   6.96965378
_cell_length_b   6.96337229
_cell_length_c   12.85454568
_cell_angle_alpha   90.11212937
_cell_angle_beta   90.00552630
_cell_angle_gamma   90.01989209
_symmetry_Int_Tables_number   1
_chemical_formula_structural   Dy8Ti7Si16Mo2W3
_chemical_formula_sum   'Dy8 Ti7 Si16 Mo2 W3'
_cell_volume   623.85935517
_cell_formula_units_Z   1
loop_
 _symmetry_equiv_pos_site_id
 _symmetry_equiv_pos_as_xyz
  1  'x, y, z'
loop_
 _atom_site_type_symbol
 _atom_site_label
 _atom_site_symmetry_multiplicity
 _atom_site_fract_x
 _atom_site_fract_y
 _atom_site_fract_z
 _atom_site_occupancy
  Dy  Dy0  1  0.999730  0.659621  0.032590  1
  Dy  Dy1  1  0.000841  0.340535  0.530740  1
  Dy  Dy2  1  0.659309  0.999071  0.967976  1
  Dy  Dy3  1  0.158687  0.500500  0.782101  1
  Dy  Dy4  1  0.841336  0.499281  0.281912  1
  Dy  Dy5  1  0.501145  0.159659  0.219384  1
  Dy  Dy6  1  0.499241  0.840111  0.717252  1
  Dy  Dy7  1  0.340499  0.999419  0.468237  1
  Ti  Ti8  1  0.846996  0.989999  0.376426  1
  Ti  Ti9  1  0.009347  0.155101  0.125080  1
  Ti  Ti10  1  0.992808  0.846862  0.622881  1
  Ti  Ti11  1  0.507876  0.346278  0.625111  1
  Ti  Ti12  1  0.153681  0.008814  0.875859  1
  Ti  Ti13  1  0.493513  0.653939  0.124825  1
  Ti  Ti14  1  0.654096  0.491794  0.874664  1
  Si  Si15  1  0.048471  0.708261  0.434401  1
  Si  Si16  1  0.954178  0.292109  0.934974  1
  Si  Si17  1  0.708386  0.047859  0.566025  1
  Si  Si18  1  0.207972  0.455690  0.185509  1
  Si  Si19  1  0.790650  0.545518  0.684758  1
  Si  Si20  1  0.454182  0.208271  0.815212  1
  Si  Si21  1  0.543962  0.789197  0.315245  1
  Si  Si22  1  0.292368  0.954076  0.065507  1
  Si  Si23  1  0.799820  0.869860  0.184110  1
  Si  Si24  1  0.298368  0.628992  0.565245  1
  Si  Si25  1  0.700616  0.369622  0.065941  1
  Si  Si26  1  0.628390  0.299859  0.432743  1
  Si  Si27  1  0.369581  0.701196  0.934161  1
  Si  Si28  1  0.129464  0.202442  0.317107  1
  Si  Si29  1  0.199177  0.130632  0.683868  1
  Si  Si30  1  0.869788  0.799951  0.814929  1
  Mo  Mo31  1  0.345688  0.505652  0.374235  1
  Mo  Mo32  1  0.671896  0.671382  0.500005  1
  W  W33  1  0.826110  0.172935  0.750280  1
  W  W34  1  0.173661  0.827767  0.249988  1
  W  W35  1  0.328167  0.327746  0.000721  1
