# generated using pymatgen
data_Co2ReB2Mo
_symmetry_space_group_name_H-M   'P 1'
_cell_length_a   3.23557900
_cell_length_b   5.72027451
_cell_length_c   6.57107524
_cell_angle_alpha   89.28451349
_cell_angle_beta   90.00000000
_cell_angle_gamma   90.00000000
_symmetry_Int_Tables_number   1
_chemical_formula_structural   Co2ReB2Mo
_chemical_formula_sum   'Co4 Re2 B4 Mo2'
_cell_volume   121.61060673
_cell_formula_units_Z   2
loop_
 _symmetry_equiv_pos_site_id
 _symmetry_equiv_pos_as_xyz
  1  'x, y, z'
loop_
 _atom_site_type_symbol
 _atom_site_label
 _atom_site_symmetry_multiplicity
 _atom_site_fract_x
 _atom_site_fract_y
 _atom_site_fract_z
 _atom_site_occupancy
  Co  Co0  1  0.750000  0.853849  0.555234  1
  Co  Co1  1  0.250000  0.146151  0.444766  1
  Co  Co2  1  0.750000  0.354374  0.946088  1
  Co  Co3  1  0.250000  0.645626  0.053912  1
  Re  Re4  1  0.250000  0.029952  0.827383  1
  Re  Re5  1  0.750000  0.970048  0.172617  1
  B  B6  1  0.250000  0.268309  0.123046  1
  B  B7  1  0.750000  0.731691  0.876954  1
  B  B8  1  0.250000  0.775387  0.371089  1
  B  B9  1  0.750000  0.224613  0.628911  1
  Mo  Mo10  1  0.250000  0.528196  0.671957  1
  Mo  Mo11  1  0.750000  0.471804  0.328043  1
