# generated using pymatgen
data_LiTmCoH6
_symmetry_space_group_name_H-M   'P 1'
_cell_length_a   4.63231518
_cell_length_b   4.63232215
_cell_length_c   4.63231800
_cell_angle_alpha   59.99946332
_cell_angle_beta   59.99948972
_cell_angle_gamma   59.99933337
_symmetry_Int_Tables_number   1
_chemical_formula_structural   LiTmCoH6
_chemical_formula_sum   'Li1 Tm1 Co1 H6'
_cell_volume   70.28693396
_cell_formula_units_Z   1
loop_
 _symmetry_equiv_pos_site_id
 _symmetry_equiv_pos_as_xyz
  1  'x, y, z'
loop_
 _atom_site_type_symbol
 _atom_site_label
 _atom_site_symmetry_multiplicity
 _atom_site_fract_x
 _atom_site_fract_y
 _atom_site_fract_z
 _atom_site_occupancy
  Li  Li0  1  0.750004  0.750003  0.750001  1
  Tm  Tm1  1  0.250000  0.250000  0.249997  1
  Co  Co2  1  0.000003  0.999998  0.000001  1
  H  H3  1  0.757978  0.757978  0.242021  1
  H  H4  1  0.757977  0.242022  0.242022  1
  H  H5  1  0.242020  0.757979  0.242021  1
  H  H6  1  0.242022  0.757977  0.757977  1
  H  H7  1  0.757977  0.242023  0.757977  1
  H  H8  1  0.242021  0.242020  0.757979  1
