# generated using pymatgen
data_TbDyU6F30
_symmetry_space_group_name_H-M   'P 1'
_cell_length_a   8.64628284
_cell_length_b   8.64628279
_cell_length_c   8.66036200
_cell_angle_alpha   79.35645505
_cell_angle_beta   79.35646186
_cell_angle_gamma   100.07590208
_symmetry_Int_Tables_number   1
_chemical_formula_structural   TbDyU6F30
_chemical_formula_sum   'Tb1 Dy1 U6 F30'
_cell_volume   610.52229981
_cell_formula_units_Z   1
loop_
 _symmetry_equiv_pos_site_id
 _symmetry_equiv_pos_as_xyz
  1  'x, y, z'
loop_
 _atom_site_type_symbol
 _atom_site_label
 _atom_site_symmetry_multiplicity
 _atom_site_fract_x
 _atom_site_fract_y
 _atom_site_fract_z
 _atom_site_occupancy
  Tb  Tb0  1  0.822816  0.177184  0.750000  1
  Dy  Dy1  1  0.177352  0.822648  0.250000  1
  U  U2  1  0.749386  0.250614  0.250000  1
  U  U3  1  0.250446  0.749554  0.750000  1
  U  U4  1  0.754262  0.678429  0.674924  1
  U  U5  1  0.321571  0.245738  0.825076  1
  U  U6  1  0.245778  0.321030  0.324927  1
  U  U7  1  0.678970  0.754222  0.175073  1
  F  F8  1  0.468500  0.531500  0.250000  1
  F  F9  1  0.749785  0.964545  0.963606  1
  F  F10  1  0.035455  0.250215  0.536394  1
  F  F11  1  0.250420  0.034046  0.036059  1
  F  F12  1  0.965954  0.749580  0.463941  1
  F  F13  1  0.529322  0.470678  0.750000  1
  F  F14  1  0.775874  0.274978  0.993644  1
  F  F15  1  0.011093  0.277970  0.216296  1
  F  F16  1  0.782309  0.511410  0.220997  1
  F  F17  1  0.509303  0.783016  0.721536  1
  F  F18  1  0.277606  0.009599  0.715738  1
  F  F19  1  0.275404  0.775713  0.495233  1
  F  F20  1  0.224287  0.724596  0.004767  1
  F  F21  1  0.990401  0.722394  0.784262  1
  F  F22  1  0.216984  0.490697  0.778464  1
  F  F23  1  0.488590  0.217691  0.279003  1
  F  F24  1  0.722030  0.988907  0.283704  1
  F  F25  1  0.725022  0.224126  0.506356  1
  F  F26  1  0.318322  0.347560  0.054494  1
  F  F27  1  0.946173  0.814785  0.156015  1
  F  F28  1  0.839749  0.447840  0.687081  1
  F  F29  1  0.447365  0.841202  0.187514  1
  F  F30  1  0.814317  0.944991  0.655708  1
  F  F31  1  0.349355  0.317820  0.554195  1
  F  F32  1  0.682180  0.650645  0.945805  1
  F  F33  1  0.055009  0.185683  0.844292  1
  F  F34  1  0.158798  0.552635  0.312486  1
  F  F35  1  0.552160  0.160251  0.812919  1
  F  F36  1  0.185215  0.053827  0.343985  1
  F  F37  1  0.652440  0.681678  0.445506  1
