# generated using pymatgen
data_Ga3Sn2(BIr3)2
_symmetry_space_group_name_H-M   'P 1'
_cell_length_a   6.46295500
_cell_length_b   6.46295543
_cell_length_c   5.58041900
_cell_angle_alpha   90.00000000
_cell_angle_beta   90.00000000
_cell_angle_gamma   119.99999268
_symmetry_Int_Tables_number   1
_chemical_formula_structural   Ga3Sn2(BIr3)2
_chemical_formula_sum   'Ga3 Sn2 B2 Ir6'
_cell_volume   201.86441407
_cell_formula_units_Z   1
loop_
 _symmetry_equiv_pos_site_id
 _symmetry_equiv_pos_as_xyz
  1  'x, y, z'
loop_
 _atom_site_type_symbol
 _atom_site_label
 _atom_site_symmetry_multiplicity
 _atom_site_fract_x
 _atom_site_fract_y
 _atom_site_fract_z
 _atom_site_occupancy
  Ga  Ga0  1  0.000000  0.597139  0.000000  1
  Ga  Ga1  1  0.402861  0.402861  0.000000  1
  Ga  Ga2  1  0.597139  0.000000  0.000000  1
  Sn  Sn3  1  0.666667  0.333333  0.500000  1
  Sn  Sn4  1  0.333333  0.666667  0.500000  1
  B  B5  1  0.000000  0.000000  0.500000  1
  B  B6  1  0.000000  0.000000  0.000000  1
  Ir  Ir7  1  0.000000  0.262177  0.748997  1
  Ir  Ir8  1  0.000000  0.262177  0.251003  1
  Ir  Ir9  1  0.737823  0.737823  0.251003  1
  Ir  Ir10  1  0.262177  0.000000  0.748997  1
  Ir  Ir11  1  0.262177  0.000000  0.251003  1
  Ir  Ir12  1  0.737823  0.737823  0.748997  1
