# generated using pymatgen
data_CaAg3(Ru2O7)2
_symmetry_space_group_name_H-M   'P 1'
_cell_length_a   7.19473810
_cell_length_b   7.25789202
_cell_length_c   7.19473800
_cell_angle_alpha   60.28742589
_cell_angle_beta   60.00000047
_cell_angle_gamma   60.28742574
_symmetry_Int_Tables_number   1
_chemical_formula_structural   CaAg3(Ru2O7)2
_chemical_formula_sum   'Ca1 Ag3 Ru4 O14'
_cell_volume   266.80787711
_cell_formula_units_Z   1
loop_
 _symmetry_equiv_pos_site_id
 _symmetry_equiv_pos_as_xyz
  1  'x, y, z'
loop_
 _atom_site_type_symbol
 _atom_site_label
 _atom_site_symmetry_multiplicity
 _atom_site_fract_x
 _atom_site_fract_y
 _atom_site_fract_z
 _atom_site_occupancy
  Ca  Ca0  1  0.625000  0.125000  0.625000  1
  Ag  Ag1  1  0.625000  0.625000  0.125000  1
  Ag  Ag2  1  0.125000  0.625000  0.625000  1
  Ag  Ag3  1  0.625000  0.625000  0.625000  1
  Ru  Ru4  1  0.625000  0.125000  0.125000  1
  Ru  Ru5  1  0.125000  0.625000  0.125000  1
  Ru  Ru6  1  0.125000  0.125000  0.625000  1
  Ru  Ru7  1  0.125000  0.125000  0.125000  1
  O  O8  1  0.197223  0.192917  0.804930  1
  O  O9  1  0.191364  0.809509  0.191364  1
  O  O10  1  0.445070  0.057083  0.052777  1
  O  O11  1  0.191364  0.809509  0.807763  1
  O  O12  1  0.058636  0.440491  0.442237  1
  O  O13  1  0.807763  0.809509  0.191364  1
  O  O14  1  0.442237  0.440491  0.058636  1
  O  O15  1  0.492151  0.523546  0.492151  1
  O  O16  1  0.052777  0.057083  0.445070  1
  O  O17  1  0.445070  0.057083  0.445070  1
  O  O18  1  0.058636  0.440491  0.058636  1
  O  O19  1  0.757849  0.726454  0.757849  1
  O  O20  1  0.804930  0.192917  0.804930  1
  O  O21  1  0.804930  0.192917  0.197223  1
