# generated using pymatgen
data_Zr8In4IrPd6Pt
_symmetry_space_group_name_H-M   'P 1'
_cell_length_a   7.59012130
_cell_length_b   7.59012191
_cell_length_c   6.83920294
_cell_angle_alpha   90.33833866
_cell_angle_beta   89.66166401
_cell_angle_gamma   89.93087466
_symmetry_Int_Tables_number   1
_chemical_formula_structural   Zr8In4IrPd6Pt
_chemical_formula_sum   'Zr8 In4 Ir1 Pd6 Pt1'
_cell_volume   393.99206999
_cell_formula_units_Z   1
loop_
 _symmetry_equiv_pos_site_id
 _symmetry_equiv_pos_as_xyz
  1  'x, y, z'
loop_
 _atom_site_type_symbol
 _atom_site_label
 _atom_site_symmetry_multiplicity
 _atom_site_fract_x
 _atom_site_fract_y
 _atom_site_fract_z
 _atom_site_occupancy
  Zr  Zr0  1  0.650719  0.657243  0.503581  1
  Zr  Zr1  1  0.815532  0.184468  0.498857  1
  Zr  Zr2  1  0.677171  0.682659  0.997447  1
  Zr  Zr3  1  0.845061  0.154939  0.003817  1
  Zr  Zr4  1  0.186973  0.813027  0.504273  1
  Zr  Zr5  1  0.317341  0.322829  0.997447  1
  Zr  Zr6  1  0.160787  0.839213  0.993430  1
  Zr  Zr7  1  0.342757  0.349281  0.503581  1
  In  In8  1  0.000033  0.500882  0.249850  1
  In  In9  1  0.500149  0.000615  0.750572  1
  In  In10  1  0.499118  0.999967  0.249850  1
  In  In11  1  0.999385  0.499851  0.750572  1
  Ir  Ir12  1  0.374529  0.625471  0.768183  1
  Pd  Pd13  1  0.871550  0.871747  0.721726  1
  Pd  Pd14  1  0.634418  0.365582  0.782937  1
  Pd  Pd15  1  0.368373  0.631627  0.218396  1
  Pd  Pd16  1  0.129443  0.128532  0.278423  1
  Pd  Pd17  1  0.871468  0.870557  0.278423  1
  Pd  Pd18  1  0.128253  0.128450  0.721726  1
  Pt  Pt19  1  0.626942  0.373058  0.226909  1
