# generated using pymatgen
data_PuTl(PSe3)2
_symmetry_space_group_name_H-M   'P 1'
_cell_length_a   7.90158000
_cell_length_b   6.97523320
_cell_length_c   10.62373600
_cell_angle_alpha   87.87734976
_cell_angle_beta   90.00000000
_cell_angle_gamma   90.00000000
_symmetry_Int_Tables_number   1
_chemical_formula_structural   PuTl(PSe3)2
_chemical_formula_sum   'Pu2 Tl2 P4 Se12'
_cell_volume   585.12929343
_cell_formula_units_Z   2
loop_
 _symmetry_equiv_pos_site_id
 _symmetry_equiv_pos_as_xyz
  1  'x, y, z'
loop_
 _atom_site_type_symbol
 _atom_site_label
 _atom_site_symmetry_multiplicity
 _atom_site_fract_x
 _atom_site_fract_y
 _atom_site_fract_z
 _atom_site_occupancy
  Pu  Pu0  1  0.262982  0.213739  0.994008  1
  Pu  Pu1  1  0.762982  0.786261  0.005992  1
  Tl  Tl2  1  0.039941  0.307847  0.498464  1
  Tl  Tl3  1  0.539941  0.692153  0.501536  1
  P  P4  1  0.747241  0.324202  0.832245  1
  P  P5  1  0.247241  0.675798  0.167755  1
  P  P6  1  0.037562  0.798794  0.288306  1
  P  P7  1  0.537562  0.201206  0.711694  1
  Se  Se8  1  0.623099  0.372434  0.019208  1
  Se  Se9  1  0.128073  0.831163  0.478172  1
  Se  Se10  1  0.943946  0.093368  0.838990  1
  Se  Se11  1  0.827850  0.596394  0.264764  1
  Se  Se12  1  0.338040  0.402214  0.250491  1
  Se  Se13  1  0.327850  0.403606  0.735236  1
  Se  Se14  1  0.464767  0.943590  0.832068  1
  Se  Se15  1  0.964767  0.056410  0.167932  1
  Se  Se16  1  0.628073  0.168837  0.521828  1
  Se  Se17  1  0.123099  0.627566  0.980792  1
  Se  Se18  1  0.443946  0.906632  0.161010  1
  Se  Se19  1  0.838040  0.597786  0.749509  1
