# generated using pymatgen
data_Zr10TlCu2Bi4Pb
_symmetry_space_group_name_H-M   'P 1'
_cell_length_a   8.80710700
_cell_length_b   8.80594244
_cell_length_c   5.94772700
_cell_angle_alpha   90.00000000
_cell_angle_beta   90.00000000
_cell_angle_gamma   119.98591579
_symmetry_Int_Tables_number   1
_chemical_formula_structural   Zr10TlCu2Bi4Pb
_chemical_formula_sum   'Zr10 Tl1 Cu2 Bi4 Pb1'
_cell_volume   399.53275651
_cell_formula_units_Z   1
loop_
 _symmetry_equiv_pos_site_id
 _symmetry_equiv_pos_as_xyz
  1  'x, y, z'
loop_
 _atom_site_type_symbol
 _atom_site_label
 _atom_site_symmetry_multiplicity
 _atom_site_fract_x
 _atom_site_fract_y
 _atom_site_fract_z
 _atom_site_occupancy
  Zr  Zr0  1  0.666224  0.332956  0.501996  1
  Zr  Zr1  1  0.332825  0.666730  0.502029  1
  Zr  Zr2  1  0.332825  0.666730  0.997971  1
  Zr  Zr3  1  0.666224  0.332956  0.998004  1
  Zr  Zr4  1  0.741362  0.741682  0.250000  1
  Zr  Zr5  1  0.256361  0.999353  0.250000  1
  Zr  Zr6  1  0.999029  0.256860  0.250000  1
  Zr  Zr7  1  0.260110  0.258064  0.750000  1
  Zr  Zr8  1  0.740768  0.002221  0.750000  1
  Zr  Zr9  1  0.004323  0.742683  0.750000  1
  Tl  Tl10  1  0.386823  0.000254  0.750000  1
  Cu  Cu11  1  0.000799  0.000283  0.503288  1
  Cu  Cu12  1  0.000799  0.000283  0.996712  1
  Bi  Bi13  1  0.385653  0.385701  0.250000  1
  Bi  Bi14  1  0.610162  0.000074  0.250000  1
  Bi  Bi15  1  0.000008  0.612171  0.250000  1
  Bi  Bi16  1  0.615289  0.615084  0.750000  1
  Pb  Pb17  1  0.000416  0.385915  0.750000  1
