# generated using pymatgen
data_La3NdSn4(BRh6)2
_symmetry_space_group_name_H-M   'P 1'
_cell_length_a   5.90878400
_cell_length_b   5.90878309
_cell_length_c   13.60812400
_cell_angle_alpha   90.00000000
_cell_angle_beta   90.00000000
_cell_angle_gamma   120.00000509
_symmetry_Int_Tables_number   1
_chemical_formula_structural   La3NdSn4(BRh6)2
_chemical_formula_sum   'La3 Nd1 Sn4 B2 Rh12'
_cell_volume   411.45754382
_cell_formula_units_Z   1
loop_
 _symmetry_equiv_pos_site_id
 _symmetry_equiv_pos_as_xyz
  1  'x, y, z'
loop_
 _atom_site_type_symbol
 _atom_site_label
 _atom_site_symmetry_multiplicity
 _atom_site_fract_x
 _atom_site_fract_y
 _atom_site_fract_z
 _atom_site_occupancy
  La  La0  1  0.666667  0.333333  0.901360  1
  La  La1  1  0.666667  0.333333  0.597230  1
  La  La2  1  0.333333  0.666667  0.098999  1
  Nd  Nd3  1  0.333333  0.666667  0.405107  1
  Sn  Sn4  1  0.000000  0.000000  0.749847  1
  Sn  Sn5  1  0.000000  0.000000  0.250593  1
  Sn  Sn6  1  0.333333  0.666667  0.749762  1
  Sn  Sn7  1  0.666667  0.333333  0.250325  1
  B  B8  1  0.000000  0.000000  0.499075  1
  B  B9  1  0.000000  0.000000  0.999922  1
  Rh  Rh10  1  0.336628  0.168314  0.407422  1
  Rh  Rh11  1  0.831686  0.168314  0.407422  1
  Rh  Rh12  1  0.831686  0.663372  0.407422  1
  Rh  Rh13  1  0.168120  0.336238  0.907628  1
  Rh  Rh14  1  0.663865  0.831932  0.591815  1
  Rh  Rh15  1  0.663762  0.831880  0.907628  1
  Rh  Rh16  1  0.336329  0.168165  0.092395  1
  Rh  Rh17  1  0.168068  0.336135  0.591815  1
  Rh  Rh18  1  0.168068  0.831932  0.591815  1
  Rh  Rh19  1  0.831835  0.168165  0.092395  1
  Rh  Rh20  1  0.831835  0.663671  0.092395  1
  Rh  Rh21  1  0.168120  0.831880  0.907628  1
