# generated using pymatgen
data_Ho3Er9Tc3Ni
_symmetry_space_group_name_H-M   'P 1'
_cell_length_a   6.22964905
_cell_length_b   7.30552134
_cell_length_c   9.10369508
_cell_angle_alpha   89.98678895
_cell_angle_beta   90.00750421
_cell_angle_gamma   90.18409040
_symmetry_Int_Tables_number   1
_chemical_formula_structural   Ho3Er9Tc3Ni
_chemical_formula_sum   'Ho3 Er9 Tc3 Ni1'
_cell_volume   414.31460321
_cell_formula_units_Z   1
loop_
 _symmetry_equiv_pos_site_id
 _symmetry_equiv_pos_as_xyz
  1  'x, y, z'
loop_
 _atom_site_type_symbol
 _atom_site_label
 _atom_site_symmetry_multiplicity
 _atom_site_fract_x
 _atom_site_fract_y
 _atom_site_fract_z
 _atom_site_occupancy
  Ho  Ho0  1  0.329295  0.677695  0.066345  1
  Ho  Ho1  1  0.139578  0.458078  0.749913  1
  Ho  Ho2  1  0.374077  0.958108  0.749923  1
  Er  Er3  1  0.163134  0.176778  0.437427  1
  Er  Er4  1  0.666035  0.322907  0.562393  1
  Er  Er5  1  0.834908  0.823510  0.938667  1
  Er  Er6  1  0.666181  0.322792  0.937551  1
  Er  Er7  1  0.834843  0.823450  0.561254  1
  Er  Er8  1  0.329251  0.677681  0.433678  1
  Er  Er9  1  0.163023  0.176795  0.062595  1
  Er  Er10  1  0.872145  0.540151  0.250087  1
  Er  Er11  1  0.623371  0.039644  0.250063  1
  Tc  Tc12  1  0.037293  0.885622  0.250084  1
  Tc  Tc13  1  0.461090  0.387688  0.250043  1
  Tc  Tc14  1  0.960994  0.113651  0.750048  1
  Ni  Ni15  1  0.544782  0.615449  0.749930  1
