# generated using pymatgen
data_Li4La8Al4IrRh7
_symmetry_space_group_name_H-M   'P 1'
_cell_length_a   4.07412100
_cell_length_b   7.54306193
_cell_length_c   16.92406099
_cell_angle_alpha   90.04804134
_cell_angle_beta   90.00000000
_cell_angle_gamma   90.00000000
_symmetry_Int_Tables_number   1
_chemical_formula_structural   Li4La8Al4IrRh7
_chemical_formula_sum   'Li4 La8 Al4 Ir1 Rh7'
_cell_volume   520.09900834
_cell_formula_units_Z   1
loop_
 _symmetry_equiv_pos_site_id
 _symmetry_equiv_pos_as_xyz
  1  'x, y, z'
loop_
 _atom_site_type_symbol
 _atom_site_label
 _atom_site_symmetry_multiplicity
 _atom_site_fract_x
 _atom_site_fract_y
 _atom_site_fract_z
 _atom_site_occupancy
  Li  Li0  1  0.250000  0.648245  0.350317  1
  Li  Li1  1  0.750000  0.352999  0.648694  1
  Li  Li2  1  0.750000  0.852962  0.851319  1
  Li  Li3  1  0.250000  0.144167  0.148664  1
  La  La4  1  0.250000  0.531002  0.782947  1
  La  La5  1  0.750000  0.471154  0.217087  1
  La  La6  1  0.750000  0.967290  0.281617  1
  La  La7  1  0.250000  0.030806  0.717319  1
  La  La8  1  0.250000  0.668695  0.560949  1
  La  La9  1  0.750000  0.330591  0.438621  1
  La  La10  1  0.750000  0.831873  0.061272  1
  La  La11  1  0.250000  0.170138  0.939006  1
  Al  Al12  1  0.250000  0.497147  0.061685  1
  Al  Al13  1  0.750000  0.504177  0.939087  1
  Al  Al14  1  0.750000  0.004196  0.561236  1
  Al  Al15  1  0.250000  0.995494  0.438691  1
  Ir  Ir16  1  0.250000  0.741697  0.180302  1
  Rh  Rh17  1  0.750000  0.259063  0.820548  1
  Rh  Rh18  1  0.750000  0.759913  0.679083  1
  Rh  Rh19  1  0.250000  0.240516  0.321985  1
  Rh  Rh20  1  0.250000  0.708986  0.937813  1
  Rh  Rh21  1  0.750000  0.289520  0.061072  1
  Rh  Rh22  1  0.750000  0.788902  0.439296  1
  Rh  Rh23  1  0.250000  0.210470  0.561390  1
