# generated using pymatgen
data_Dy4Co16Si9P3Ru4
_symmetry_space_group_name_H-M   'P 1'
_cell_length_a   3.72376400
_cell_length_b   10.45938000
_cell_length_c   11.90915400
_cell_angle_alpha   89.99963336
_cell_angle_beta   90.00000000
_cell_angle_gamma   90.00000000
_symmetry_Int_Tables_number   1
_chemical_formula_structural   Dy4Co16Si9P3Ru4
_chemical_formula_sum   'Dy4 Co16 Si9 P3 Ru4'
_cell_volume   463.84085860
_cell_formula_units_Z   1
loop_
 _symmetry_equiv_pos_site_id
 _symmetry_equiv_pos_as_xyz
  1  'x, y, z'
loop_
 _atom_site_type_symbol
 _atom_site_label
 _atom_site_symmetry_multiplicity
 _atom_site_fract_x
 _atom_site_fract_y
 _atom_site_fract_z
 _atom_site_occupancy
  Dy  Dy0  1  0.250000  0.581184  0.702145  1
  Dy  Dy1  1  0.250000  0.917787  0.203508  1
  Dy  Dy2  1  0.750000  0.417694  0.295860  1
  Dy  Dy3  1  0.750000  0.081390  0.797173  1
  Co  Co4  1  0.250000  0.406551  0.492181  1
  Co  Co5  1  0.250000  0.089256  0.990084  1
  Co  Co6  1  0.750000  0.589378  0.512558  1
  Co  Co7  1  0.750000  0.910772  0.010035  1
  Co  Co8  1  0.250000  0.212393  0.172745  1
  Co  Co9  1  0.250000  0.286151  0.674105  1
  Co  Co10  1  0.750000  0.787648  0.827027  1
  Co  Co11  1  0.750000  0.714521  0.326116  1
  Co  Co12  1  0.250000  0.886354  0.704108  1
  Co  Co13  1  0.250000  0.614820  0.199595  1
  Co  Co14  1  0.750000  0.113902  0.296594  1
  Co  Co15  1  0.750000  0.385618  0.796222  1
  Co  Co16  1  0.250000  0.468037  0.930287  1
  Co  Co17  1  0.250000  0.032288  0.431266  1
  Co  Co18  1  0.750000  0.531392  0.067222  1
  Co  Co19  1  0.750000  0.969566  0.569765  1
  Si  Si20  1  0.250000  0.416534  0.111606  1
  Si  Si21  1  0.250000  0.083751  0.612578  1
  Si  Si22  1  0.750000  0.583826  0.886856  1
  Si  Si23  1  0.750000  0.916144  0.388684  1
  Si  Si24  1  0.250000  0.271186  0.866439  1
  Si  Si25  1  0.250000  0.228933  0.366284  1
  Si  Si26  1  0.750000  0.728071  0.133526  1
  Si  Si27  1  0.750000  0.771705  0.633629  1
  Si  Si28  1  0.250000  0.599215  0.392559  1
  P  P29  1  0.250000  0.901859  0.891552  1
  P  P30  1  0.750000  0.401078  0.607948  1
  P  P31  1  0.750000  0.098177  0.108636  1
  Ru  Ru32  1  0.250000  0.709690  0.988433  1
  Ru  Ru33  1  0.250000  0.794239  0.491999  1
  Ru  Ru34  1  0.750000  0.290050  0.010154  1
  Ru  Ru35  1  0.750000  0.208838  0.510519  1
