# generated using pymatgen
data_YRhF7
_symmetry_space_group_name_H-M   'P 1'
_cell_length_a   5.51807800
_cell_length_b   8.89355532
_cell_length_c   11.94957105
_cell_angle_alpha   62.45507089
_cell_angle_beta   90.00000000
_cell_angle_gamma   90.00000000
_symmetry_Int_Tables_number   1
_chemical_formula_structural   YRhF7
_chemical_formula_sum   'Y4 Rh4 F28'
_cell_volume   519.95652584
_cell_formula_units_Z   4
loop_
 _symmetry_equiv_pos_site_id
 _symmetry_equiv_pos_as_xyz
  1  'x, y, z'
loop_
 _atom_site_type_symbol
 _atom_site_label
 _atom_site_symmetry_multiplicity
 _atom_site_fract_x
 _atom_site_fract_y
 _atom_site_fract_z
 _atom_site_occupancy
  Y  Y0  1  0.261286  0.814013  0.264173  1
  Y  Y1  1  0.738714  0.185987  0.735827  1
  Y  Y2  1  0.761286  0.185987  0.235827  1
  Y  Y3  1  0.238714  0.814013  0.764173  1
  Rh  Rh4  1  0.758357  0.725861  0.043182  1
  Rh  Rh5  1  0.241643  0.274139  0.956818  1
  Rh  Rh6  1  0.258357  0.274139  0.456818  1
  Rh  Rh7  1  0.741643  0.725861  0.543182  1
  F  F8  1  0.936490  0.708009  0.414386  1
  F  F9  1  0.063510  0.291991  0.585614  1
  F  F10  1  0.436490  0.291991  0.085614  1
  F  F11  1  0.563510  0.708009  0.914386  1
  F  F12  1  0.465930  0.728893  0.133826  1
  F  F13  1  0.534070  0.271107  0.866174  1
  F  F14  1  0.965930  0.271107  0.366174  1
  F  F15  1  0.034070  0.728893  0.633826  1
  F  F16  1  0.950773  0.742205  0.174388  1
  F  F17  1  0.049227  0.257795  0.825612  1
  F  F18  1  0.450773  0.257795  0.325612  1
  F  F19  1  0.549227  0.742205  0.674388  1
  F  F20  1  0.768131  0.481111  0.139070  1
  F  F21  1  0.231869  0.518889  0.860930  1
  F  F22  1  0.268131  0.518889  0.360930  1
  F  F23  1  0.731869  0.481111  0.639070  1
  F  F24  1  0.943450  0.280809  0.043101  1
  F  F25  1  0.056550  0.719191  0.956899  1
  F  F26  1  0.443450  0.719191  0.456899  1
  F  F27  1  0.556550  0.280809  0.543101  1
  F  F28  1  0.739190  0.970278  0.450575  1
  F  F29  1  0.260810  0.029722  0.549425  1
  F  F30  1  0.239190  0.029722  0.049425  1
  F  F31  1  0.760810  0.970278  0.950575  1
  F  F32  1  0.591449  0.968064  0.230359  1
  F  F33  1  0.408551  0.031936  0.769641  1
  F  F34  1  0.091449  0.031936  0.269641  1
  F  F35  1  0.908551  0.968064  0.730359  1
