# generated using pymatgen
data_NdDyTm2(WO6)2
_symmetry_space_group_name_H-M   'P 1'
_cell_length_a   5.42963500
_cell_length_b   7.73124771
_cell_length_c   11.45552178
_cell_angle_alpha   75.57004346
_cell_angle_beta   90.00000000
_cell_angle_gamma   90.00000000
_symmetry_Int_Tables_number   1
_chemical_formula_structural   NdDyTm2(WO6)2
_chemical_formula_sum   'Nd2 Dy2 Tm4 W4 O24'
_cell_volume   465.70794804
_cell_formula_units_Z   2
loop_
 _symmetry_equiv_pos_site_id
 _symmetry_equiv_pos_as_xyz
  1  'x, y, z'
loop_
 _atom_site_type_symbol
 _atom_site_label
 _atom_site_symmetry_multiplicity
 _atom_site_fract_x
 _atom_site_fract_y
 _atom_site_fract_z
 _atom_site_occupancy
  Nd  Nd0  1  0.685120  0.500000  0.750000  1
  Nd  Nd1  1  0.314880  0.500000  0.250000  1
  Dy  Dy2  1  0.743705  0.000000  0.750000  1
  Dy  Dy3  1  0.256295  0.000000  0.250000  1
  Tm  Tm4  1  0.184383  0.796043  0.577991  1
  Tm  Tm5  1  0.815617  0.796043  0.077991  1
  Tm  Tm6  1  0.184383  0.203957  0.922009  1
  Tm  Tm7  1  0.815617  0.203957  0.422009  1
  W  W8  1  0.254820  0.727021  0.885259  1
  W  W9  1  0.745180  0.727021  0.385259  1
  W  W10  1  0.254820  0.272979  0.614741  1
  W  W11  1  0.745180  0.272979  0.114741  1
  O  O12  1  0.045797  0.942120  0.897295  1
  O  O13  1  0.537800  0.842740  0.932256  1
  O  O14  1  0.954203  0.942120  0.397295  1
  O  O15  1  0.454460  0.795188  0.726017  1
  O  O16  1  0.462200  0.842740  0.432256  1
  O  O17  1  0.986511  0.719316  0.769006  1
  O  O18  1  0.545540  0.795188  0.226017  1
  O  O19  1  0.857598  0.640195  0.547124  1
  O  O20  1  0.348826  0.491289  0.888168  1
  O  O21  1  0.013489  0.719316  0.269006  1
  O  O22  1  0.348826  0.508711  0.611832  1
  O  O23  1  0.857598  0.359805  0.952876  1
  O  O24  1  0.142402  0.640195  0.047124  1
  O  O25  1  0.651174  0.491289  0.388168  1
  O  O26  1  0.986511  0.280684  0.730994  1
  O  O27  1  0.651174  0.508711  0.111832  1
  O  O28  1  0.142402  0.359805  0.452876  1
  O  O29  1  0.454460  0.204812  0.773983  1
  O  O30  1  0.013489  0.280684  0.230994  1
  O  O31  1  0.537800  0.157260  0.567744  1
  O  O32  1  0.545540  0.204812  0.273983  1
  O  O33  1  0.045797  0.057880  0.602705  1
  O  O34  1  0.462200  0.157260  0.067744  1
  O  O35  1  0.954203  0.057880  0.102705  1
