# generated using pymatgen
data_ErTm3Ga3Co4Si
_symmetry_space_group_name_H-M   'P 1'
_cell_length_a   4.32222300
_cell_length_b   6.90965193
_cell_length_c   6.87835541
_cell_angle_alpha   89.91341229
_cell_angle_beta   90.00000000
_cell_angle_gamma   90.00000000
_symmetry_Int_Tables_number   1
_chemical_formula_structural   ErTm3Ga3Co4Si
_chemical_formula_sum   'Er1 Tm3 Ga3 Co4 Si1'
_cell_volume   205.42223846
_cell_formula_units_Z   1
loop_
 _symmetry_equiv_pos_site_id
 _symmetry_equiv_pos_as_xyz
  1  'x, y, z'
loop_
 _atom_site_type_symbol
 _atom_site_label
 _atom_site_symmetry_multiplicity
 _atom_site_fract_x
 _atom_site_fract_y
 _atom_site_fract_z
 _atom_site_occupancy
  Er  Er0  1  0.250000  0.983559  0.305624  1
  Tm  Tm1  1  0.750000  0.518381  0.806807  1
  Tm  Tm2  1  0.750000  0.024524  0.694951  1
  Tm  Tm3  1  0.250000  0.479439  0.196274  1
  Ga  Ga4  1  0.750000  0.198604  0.104787  1
  Ga  Ga5  1  0.750000  0.697240  0.394820  1
  Ga  Ga6  1  0.250000  0.804901  0.892983  1
  Co  Co7  1  0.750000  0.342227  0.445846  1
  Co  Co8  1  0.750000  0.844461  0.063679  1
  Co  Co9  1  0.250000  0.638010  0.564191  1
  Co  Co10  1  0.250000  0.164753  0.923263  1
  Si  Si11  1  0.250000  0.303903  0.606774  1
