# generated using pymatgen
data_SmY3(SeO4)6
_symmetry_space_group_name_H-M   'P 1'
_cell_length_a   10.07734709
_cell_length_b   10.07735627
_cell_length_c   10.07735427
_cell_angle_alpha   57.67933640
_cell_angle_beta   57.67934091
_cell_angle_gamma   57.67933938
_symmetry_Int_Tables_number   1
_chemical_formula_structural   SmY3(SeO4)6
_chemical_formula_sum   'Sm1 Y3 Se6 O24'
_cell_volume   685.05533506
_cell_formula_units_Z   1
loop_
 _symmetry_equiv_pos_site_id
 _symmetry_equiv_pos_as_xyz
  1  'x, y, z'
loop_
 _atom_site_type_symbol
 _atom_site_label
 _atom_site_symmetry_multiplicity
 _atom_site_fract_x
 _atom_site_fract_y
 _atom_site_fract_z
 _atom_site_occupancy
  Sm  Sm0  1  0.643353  0.643353  0.643353  1
  Y  Y1  1  0.144084  0.144084  0.144084  1
  Y  Y2  1  0.855258  0.855258  0.855258  1
  Y  Y3  1  0.355822  0.355822  0.355822  1
  Se  Se4  1  0.038750  0.463086  0.750104  1
  Se  Se5  1  0.463086  0.750104  0.038750  1
  Se  Se6  1  0.750104  0.038750  0.463085  1
  Se  Se7  1  0.967240  0.535192  0.246044  1
  Se  Se8  1  0.246044  0.967240  0.535193  1
  Se  Se9  1  0.535192  0.246044  0.967240  1
  O  O10  1  0.224158  0.995661  0.368744  1
  O  O11  1  0.368744  0.224158  0.995661  1
  O  O12  1  0.995661  0.368744  0.224158  1
  O  O13  1  0.772036  0.009409  0.630364  1
  O  O14  1  0.630364  0.772036  0.009409  1
  O  O15  1  0.009409  0.630364  0.772036  1
  O  O16  1  0.269867  0.132731  0.507312  1
  O  O17  1  0.507312  0.269867  0.132731  1
  O  O18  1  0.132731  0.507312  0.269867  1
  O  O19  1  0.729582  0.872229  0.489375  1
  O  O20  1  0.067551  0.294395  0.917691  1
  O  O21  1  0.294396  0.917691  0.067551  1
  O  O22  1  0.917690  0.067551  0.294396  1
  O  O23  1  0.939511  0.704493  0.078259  1
  O  O24  1  0.704492  0.078259  0.939511  1
  O  O25  1  0.078260  0.939511  0.704492  1
  O  O26  1  0.207726  0.435442  0.581879  1
  O  O27  1  0.435443  0.581879  0.207726  1
  O  O28  1  0.581879  0.207726  0.435442  1
  O  O29  1  0.797236  0.562009  0.413404  1
  O  O30  1  0.562008  0.413404  0.797236  1
  O  O31  1  0.413404  0.797236  0.562009  1
  O  O32  1  0.872229  0.489375  0.729582  1
  O  O33  1  0.489375  0.729582  0.872229  1
