# generated using pymatgen
data_Pr6Dy5Y5(CdIr)4
_symmetry_space_group_name_H-M   'P 1'
_cell_length_a   9.78698953
_cell_length_b   9.79778037
_cell_length_c   9.79778055
_cell_angle_alpha   59.98740679
_cell_angle_beta   60.03643324
_cell_angle_gamma   60.03642551
_symmetry_Int_Tables_number   1
_chemical_formula_structural   Pr6Dy5Y5(CdIr)4
_chemical_formula_sum   'Pr6 Dy5 Y5 Cd4 Ir4'
_cell_volume   664.64088671
_cell_formula_units_Z   1
loop_
 _symmetry_equiv_pos_site_id
 _symmetry_equiv_pos_as_xyz
  1  'x, y, z'
loop_
 _atom_site_type_symbol
 _atom_site_label
 _atom_site_symmetry_multiplicity
 _atom_site_fract_x
 _atom_site_fract_y
 _atom_site_fract_z
 _atom_site_occupancy
  Pr  Pr0  1  0.940923  0.559077  0.559077  1
  Pr  Pr1  1  0.558599  0.941401  0.941401  1
  Pr  Pr2  1  0.559092  0.941369  0.558250  1
  Pr  Pr3  1  0.941289  0.558250  0.941369  1
  Pr  Pr4  1  0.559092  0.558250  0.941369  1
  Pr  Pr5  1  0.941289  0.941369  0.558250  1
  Dy  Dy6  1  0.346788  0.347400  0.347400  1
  Dy  Dy7  1  0.347103  0.347535  0.958259  1
  Dy  Dy8  1  0.347103  0.958259  0.347535  1
  Dy  Dy9  1  0.958413  0.347400  0.347400  1
  Dy  Dy10  1  0.812314  0.187686  0.187686  1
  Y  Y11  1  0.187935  0.812065  0.812065  1
  Y  Y12  1  0.188479  0.811626  0.187426  1
  Y  Y13  1  0.812468  0.187426  0.811626  1
  Y  Y14  1  0.188479  0.187426  0.811626  1
  Y  Y15  1  0.812468  0.811626  0.187426  1
  Cd  Cd16  1  0.579178  0.579270  0.579270  1
  Cd  Cd17  1  0.579234  0.579529  0.262002  1
  Cd  Cd18  1  0.579234  0.262002  0.579529  1
  Cd  Cd19  1  0.262282  0.579270  0.579270  1
  Ir  Ir20  1  0.140026  0.142382  0.142382  1
  Ir  Ir21  1  0.141500  0.142265  0.574736  1
  Ir  Ir22  1  0.141500  0.574736  0.142265  1
  Ir  Ir23  1  0.575211  0.142382  0.142382  1
