# generated using pymatgen
data_Cs2Cd(SeO3)2
_symmetry_space_group_name_H-M   'P 1'
_cell_length_a   7.87239823
_cell_length_b   7.87240054
_cell_length_c   7.87250600
_cell_angle_alpha   43.44380217
_cell_angle_beta   43.44322348
_cell_angle_gamma   43.44337231
_symmetry_Int_Tables_number   1
_chemical_formula_structural   Cs2Cd(SeO3)2
_chemical_formula_sum   'Cs2 Cd1 Se2 O6'
_cell_volume   209.29704464
_cell_formula_units_Z   1
loop_
 _symmetry_equiv_pos_site_id
 _symmetry_equiv_pos_as_xyz
  1  'x, y, z'
loop_
 _atom_site_type_symbol
 _atom_site_label
 _atom_site_symmetry_multiplicity
 _atom_site_fract_x
 _atom_site_fract_y
 _atom_site_fract_z
 _atom_site_occupancy
  Cs  Cs0  1  0.200584  0.200585  0.200593  1
  Cs  Cs1  1  0.799416  0.799415  0.799407  1
  Cd  Cd2  1  0.000000  0.000000  0.000000  1
  Se  Se3  1  0.370668  0.370674  0.370669  1
  Se  Se4  1  0.629332  0.629326  0.629331  1
  O  O5  1  0.250410  0.714955  0.250408  1
  O  O6  1  0.714955  0.250413  0.250403  1
  O  O7  1  0.749595  0.749582  0.285056  1
  O  O8  1  0.250405  0.250418  0.714944  1
  O  O9  1  0.749590  0.285045  0.749592  1
  O  O10  1  0.285045  0.749587  0.749597  1
