# generated using pymatgen
data_MnZn3P6N13
_symmetry_space_group_name_H-M   'P 1'
_cell_length_a   6.96998794
_cell_length_b   7.01358800
_cell_length_c   7.01358677
_cell_angle_alpha   109.59679915
_cell_angle_beta   109.34533633
_cell_angle_gamma   109.34535033
_symmetry_Int_Tables_number   1
_chemical_formula_structural   MnZn3P6N13
_chemical_formula_sum   'Mn1 Zn3 P6 N13'
_cell_volume   264.34001127
_cell_formula_units_Z   1
loop_
 _symmetry_equiv_pos_site_id
 _symmetry_equiv_pos_as_xyz
  1  'x, y, z'
loop_
 _atom_site_type_symbol
 _atom_site_label
 _atom_site_symmetry_multiplicity
 _atom_site_fract_x
 _atom_site_fract_y
 _atom_site_fract_z
 _atom_site_occupancy
  Mn  Mn0  1  0.290289  0.000000  0.000000  1
  Zn  Zn1  1  0.004370  0.288124  0.000000  1
  Zn  Zn2  1  0.004370  0.000000  0.288124  1
  Zn  Zn3  1  0.716244  0.711875  0.711875  1
  P  P4  1  0.749798  0.501607  0.251098  1
  P  P5  1  0.498700  0.748901  0.250507  1
  P  P6  1  0.749798  0.251098  0.501607  1
  P  P7  1  0.248193  0.749492  0.498393  1
  P  P8  1  0.498700  0.250507  0.748901  1
  P  P9  1  0.248193  0.498393  0.749492  1
  N  N10  1  0.013344  0.000000  0.000000  1
  N  N11  1  0.536461  0.265275  0.000000  1
  N  N12  1  0.262897  0.542786  0.000000  1
  N  N13  1  0.536461  0.000000  0.265275  1
  N  N14  1  0.998982  0.539189  0.263763  1
  N  N15  1  0.735219  0.736237  0.275424  1
  N  N16  1  0.720111  0.457213  0.457213  1
  N  N17  1  0.459792  0.724575  0.460810  1
  N  N18  1  0.262897  0.000000  0.542786  1
  N  N19  1  0.998982  0.263763  0.539189  1
  N  N20  1  0.459792  0.460810  0.724575  1
  N  N21  1  0.735219  0.275424  0.736237  1
  N  N22  1  0.271184  0.734725  0.734725  1
