# generated using pymatgen
data_Tm2Ti3Si7Pt9
_symmetry_space_group_name_H-M   'P 1'
_cell_length_a   9.91330800
_cell_length_b   9.91330838
_cell_length_c   3.93193300
_cell_angle_alpha   90.00000000
_cell_angle_beta   90.00000000
_cell_angle_gamma   119.99999874
_symmetry_Int_Tables_number   1
_chemical_formula_structural   Tm2Ti3Si7Pt9
_chemical_formula_sum   'Tm2 Ti3 Si7 Pt9'
_cell_volume   334.63700288
_cell_formula_units_Z   1
loop_
 _symmetry_equiv_pos_site_id
 _symmetry_equiv_pos_as_xyz
  1  'x, y, z'
loop_
 _atom_site_type_symbol
 _atom_site_label
 _atom_site_symmetry_multiplicity
 _atom_site_fract_x
 _atom_site_fract_y
 _atom_site_fract_z
 _atom_site_occupancy
  Tm  Tm0  1  0.000000  0.000000  0.000000  1
  Tm  Tm1  1  0.333333  0.666667  0.500000  1
  Ti  Ti2  1  0.885443  0.454016  0.500000  1
  Ti  Ti3  1  0.568573  0.114557  0.500000  1
  Ti  Ti4  1  0.545984  0.431427  0.500000  1
  Si  Si5  1  0.253935  0.207041  0.500000  1
  Si  Si6  1  0.792959  0.046896  0.500000  1
  Si  Si7  1  0.953104  0.746065  0.500000  1
  Si  Si8  1  0.553752  0.638236  0.000000  1
  Si  Si9  1  0.361764  0.915515  0.000000  1
  Si  Si10  1  0.084485  0.446248  0.000000  1
  Si  Si11  1  0.666667  0.333333  0.000000  1
  Pt  Pt12  1  0.221984  0.941558  0.500000  1
  Pt  Pt13  1  0.058442  0.280428  0.500000  1
  Pt  Pt14  1  0.719572  0.778016  0.500000  1
  Pt  Pt15  1  0.308888  0.410530  0.000000  1
  Pt  Pt16  1  0.589470  0.898357  0.000000  1
  Pt  Pt17  1  0.101643  0.691112  0.000000  1
  Pt  Pt18  1  0.389110  0.175029  0.000000  1
  Pt  Pt19  1  0.824971  0.214080  0.000000  1
  Pt  Pt20  1  0.785920  0.610890  0.000000  1
