# generated using pymatgen
data_SiMo12Pt6RhN4
_symmetry_space_group_name_H-M   'P 1'
_cell_length_a   6.87943346
_cell_length_b   6.87943372
_cell_length_c   6.87943320
_cell_angle_alpha   90.02616622
_cell_angle_beta   90.02616664
_cell_angle_gamma   90.02616233
_symmetry_Int_Tables_number   1
_chemical_formula_structural   SiMo12Pt6RhN4
_chemical_formula_sum   'Si1 Mo12 Pt6 Rh1 N4'
_cell_volume   325.58012665
_cell_formula_units_Z   1
loop_
 _symmetry_equiv_pos_site_id
 _symmetry_equiv_pos_as_xyz
  1  'x, y, z'
loop_
 _atom_site_type_symbol
 _atom_site_label
 _atom_site_symmetry_multiplicity
 _atom_site_fract_x
 _atom_site_fract_y
 _atom_site_fract_z
 _atom_site_occupancy
  Si  Si0  1  0.187237  0.187237  0.187237  1
  Mo  Mo1  1  0.617875  0.705848  0.947391  1
  Mo  Mo2  1  0.464012  0.868580  0.307373  1
  Mo  Mo3  1  0.705848  0.947391  0.617875  1
  Mo  Mo4  1  0.548190  0.375322  0.205212  1
  Mo  Mo5  1  0.375322  0.205212  0.548190  1
  Mo  Mo6  1  0.205212  0.548190  0.375322  1
  Mo  Mo7  1  0.868580  0.307373  0.464012  1
  Mo  Mo8  1  0.043684  0.119139  0.793349  1
  Mo  Mo9  1  0.307373  0.464012  0.868580  1
  Mo  Mo10  1  0.119139  0.793349  0.043684  1
  Mo  Mo11  1  0.793349  0.043684  0.119139  1
  Mo  Mo12  1  0.947391  0.617875  0.705848  1
  Pt  Pt13  1  0.307436  0.815929  0.685406  1
  Pt  Pt14  1  0.415278  0.070146  0.960118  1
  Pt  Pt15  1  0.815929  0.685406  0.307436  1
  Pt  Pt16  1  0.685406  0.307436  0.815929  1
  Pt  Pt17  1  0.070146  0.960118  0.415278  1
  Pt  Pt18  1  0.960118  0.415278  0.070146  1
  Rh  Rh19  1  0.558491  0.558491  0.558491  1
  N  N20  1  0.376433  0.628354  0.127646  1
  N  N21  1  0.871550  0.871550  0.871550  1
  N  N22  1  0.127646  0.376433  0.628354  1
  N  N23  1  0.628354  0.127646  0.376433  1
