# generated using pymatgen
data_La6Dy14Si15Hg
_symmetry_space_group_name_H-M   'P 1'
_cell_length_a   7.75302284
_cell_length_b   7.74556164
_cell_length_c   14.97773700
_cell_angle_alpha   90.03068375
_cell_angle_beta   89.75679777
_cell_angle_gamma   90.19222040
_symmetry_Int_Tables_number   1
_chemical_formula_structural   La6Dy14Si15Hg
_chemical_formula_sum   'La6 Dy14 Si15 Hg1'
_cell_volume   899.42253177
_cell_formula_units_Z   1
loop_
 _symmetry_equiv_pos_site_id
 _symmetry_equiv_pos_as_xyz
  1  'x, y, z'
loop_
 _atom_site_type_symbol
 _atom_site_label
 _atom_site_symmetry_multiplicity
 _atom_site_fract_x
 _atom_site_fract_y
 _atom_site_fract_z
 _atom_site_occupancy
  La  La0  1  0.632564  0.984921  0.952839  1
  La  La1  1  0.131557  0.516211  0.799216  1
  La  La2  1  0.861120  0.476131  0.292471  1
  La  La3  1  0.513081  0.127280  0.197673  1
  La  La4  1  0.488783  0.871402  0.702465  1
  La  La5  1  0.374251  0.019559  0.452220  1
  Dy  Dy6  1  0.373180  0.479841  0.373423  1
  Dy  Dy7  1  0.861418  0.022913  0.371761  1
  Dy  Dy8  1  0.984697  0.131149  0.122149  1
  Dy  Dy9  1  0.016182  0.871125  0.626238  1
  Dy  Dy10  1  0.635577  0.519004  0.875543  1
  Dy  Dy11  1  0.486421  0.364291  0.628206  1
  Dy  Dy12  1  0.516360  0.632473  0.122911  1
  Dy  Dy13  1  0.128925  0.986580  0.877868  1
  Dy  Dy14  1  0.992984  0.620572  0.051686  1
  Dy  Dy15  1  0.006114  0.370900  0.556324  1
  Dy  Dy16  1  0.681844  0.690325  0.500086  1
  Dy  Dy17  1  0.811784  0.189758  0.751440  1
  Dy  Dy18  1  0.185068  0.808168  0.246558  1
  Dy  Dy19  1  0.312262  0.312577  0.999306  1
  Si  Si20  1  0.931257  0.289629  0.938960  1
  Si  Si21  1  0.719595  0.076395  0.563692  1
  Si  Si22  1  0.215341  0.428480  0.186131  1
  Si  Si23  1  0.785929  0.572116  0.687336  1
  Si  Si24  1  0.426474  0.218039  0.813383  1
  Si  Si25  1  0.573328  0.782635  0.309550  1
  Si  Si26  1  0.279374  0.922349  0.061396  1
  Si  Si27  1  0.836742  0.807566  0.798727  1
  Si  Si28  1  0.165230  0.192214  0.296538  1
  Si  Si29  1  0.805449  0.832952  0.194229  1
  Si  Si30  1  0.306126  0.654631  0.557813  1
  Si  Si31  1  0.700717  0.342547  0.050971  1
  Si  Si32  1  0.670734  0.310883  0.454691  1
  Si  Si33  1  0.330941  0.692366  0.951800  1
  Si  Si34  1  0.192140  0.167453  0.699164  1
  Hg  Hg35  1  0.066454  0.714567  0.435240  1
