# generated using pymatgen
data_Tc6Ag(PO11)2
_symmetry_space_group_name_H-M   'P 1'
_cell_length_a   5.35117700
_cell_length_b   6.62119524
_cell_length_c   11.92746157
_cell_angle_alpha   86.11123539
_cell_angle_beta   90.00000000
_cell_angle_gamma   90.00000000
_symmetry_Int_Tables_number   1
_chemical_formula_structural   Tc6Ag(PO11)2
_chemical_formula_sum   'Tc6 Ag1 P2 O22'
_cell_volume   421.63112418
_cell_formula_units_Z   1
loop_
 _symmetry_equiv_pos_site_id
 _symmetry_equiv_pos_as_xyz
  1  'x, y, z'
loop_
 _atom_site_type_symbol
 _atom_site_label
 _atom_site_symmetry_multiplicity
 _atom_site_fract_x
 _atom_site_fract_y
 _atom_site_fract_z
 _atom_site_occupancy
  Tc  Tc0  1  0.000000  0.639777  0.311959  1
  Tc  Tc1  1  0.500000  0.364037  0.688173  1
  Tc  Tc2  1  0.000000  0.016660  0.809502  1
  Tc  Tc3  1  0.500000  0.984572  0.191514  1
  Tc  Tc4  1  0.000000  0.324855  0.061143  1
  Tc  Tc5  1  0.500000  0.676400  0.939340  1
  Ag  Ag6  1  0.000000  0.137267  0.499332  1
  P  P7  1  0.000000  0.679955  0.592290  1
  P  P8  1  0.500000  0.317659  0.407213  1
  O  O9  1  0.236814  0.553981  0.615121  1
  O  O10  1  0.742595  0.439911  0.387182  1
  O  O11  1  0.257405  0.439911  0.387182  1
  O  O12  1  0.763186  0.553981  0.615121  1
  O  O13  1  0.000000  0.767530  0.466546  1
  O  O14  1  0.500000  0.231614  0.533115  1
  O  O15  1  0.751070  0.808570  0.262919  1
  O  O16  1  0.251689  0.192418  0.737352  1
  O  O17  1  0.748311  0.192418  0.737352  1
  O  O18  1  0.248930  0.808570  0.262919  1
  O  O19  1  0.000000  0.873926  0.658649  1
  O  O20  1  0.500000  0.131102  0.337241  1
  O  O21  1  0.000000  0.169983  0.934502  1
  O  O22  1  0.500000  0.831054  0.065829  1
  O  O23  1  0.750159  0.155263  0.131632  1
  O  O24  1  0.249584  0.845282  0.868311  1
  O  O25  1  0.750416  0.845282  0.868311  1
  O  O26  1  0.249841  0.155263  0.131632  1
  O  O27  1  0.000000  0.489476  0.191520  1
  O  O28  1  0.500000  0.512269  0.809024  1
  O  O29  1  0.249961  0.500456  0.000287  1
  O  O30  1  0.750039  0.500456  0.000287  1
