# generated using pymatgen
data_Tb10Nd5Y(CdIr)4
_symmetry_space_group_name_H-M   'P 1'
_cell_length_a   9.75983298
_cell_length_b   9.75580433
_cell_length_c   9.75580331
_cell_angle_alpha   59.98182667
_cell_angle_beta   59.98633019
_cell_angle_gamma   59.98633483
_symmetry_Int_Tables_number   1
_chemical_formula_structural   Tb10Nd5Y(CdIr)4
_chemical_formula_sum   'Tb10 Nd5 Y1 Cd4 Ir4'
_cell_volume   656.60486565
_cell_formula_units_Z   1
loop_
 _symmetry_equiv_pos_site_id
 _symmetry_equiv_pos_as_xyz
  1  'x, y, z'
loop_
 _atom_site_type_symbol
 _atom_site_label
 _atom_site_symmetry_multiplicity
 _atom_site_fract_x
 _atom_site_fract_y
 _atom_site_fract_z
 _atom_site_occupancy
  Tb  Tb0  1  0.348108  0.348553  0.348553  1
  Tb  Tb1  1  0.346986  0.350667  0.955361  1
  Tb  Tb2  1  0.346986  0.955361  0.350667  1
  Tb  Tb3  1  0.954786  0.348553  0.348553  1
  Tb  Tb4  1  0.811689  0.188311  0.188311  1
  Tb  Tb5  1  0.188159  0.811841  0.811841  1
  Tb  Tb6  1  0.189162  0.810709  0.188730  1
  Tb  Tb7  1  0.811399  0.188730  0.810709  1
  Tb  Tb8  1  0.189162  0.188730  0.810709  1
  Tb  Tb9  1  0.811399  0.810709  0.188730  1
  Nd  Nd10  1  0.558077  0.941923  0.941923  1
  Nd  Nd11  1  0.561705  0.939081  0.558488  1
  Nd  Nd12  1  0.940727  0.558488  0.939081  1
  Nd  Nd13  1  0.561705  0.558488  0.939081  1
  Nd  Nd14  1  0.940727  0.939081  0.558488  1
  Y  Y15  1  0.943055  0.556945  0.556945  1
  Cd  Cd16  1  0.582501  0.579327  0.579327  1
  Cd  Cd17  1  0.579878  0.580258  0.259986  1
  Cd  Cd18  1  0.579878  0.259986  0.580258  1
  Cd  Cd19  1  0.258845  0.579327  0.579327  1
  Ir  Ir20  1  0.140966  0.142057  0.142057  1
  Ir  Ir21  1  0.139591  0.145454  0.575363  1
  Ir  Ir22  1  0.139591  0.575363  0.145454  1
  Ir  Ir23  1  0.574920  0.142057  0.142057  1
