# generated using pymatgen
data_La2Nd6AlPd24
_symmetry_space_group_name_H-M   'P 1'
_cell_length_a   8.50894500
_cell_length_b   8.51195138
_cell_length_c   8.51195100
_cell_angle_alpha   90.03257909
_cell_angle_beta   90.00000000
_cell_angle_gamma   90.00000000
_symmetry_Int_Tables_number   1
_chemical_formula_structural   La2Nd6AlPd24
_chemical_formula_sum   'La2 Nd6 Al1 Pd24'
_cell_volume   616.50115595
_cell_formula_units_Z   1
loop_
 _symmetry_equiv_pos_site_id
 _symmetry_equiv_pos_as_xyz
  1  'x, y, z'
loop_
 _atom_site_type_symbol
 _atom_site_label
 _atom_site_symmetry_multiplicity
 _atom_site_fract_x
 _atom_site_fract_y
 _atom_site_fract_z
 _atom_site_occupancy
  La  La0  1  0.252171  0.252113  0.747887  1
  La  La1  1  0.252171  0.747887  0.252113  1
  Nd  Nd2  1  0.748399  0.251733  0.251733  1
  Nd  Nd3  1  0.748399  0.748267  0.748267  1
  Nd  Nd4  1  0.748364  0.748225  0.251775  1
  Nd  Nd5  1  0.748364  0.251775  0.748225  1
  Nd  Nd6  1  0.251616  0.748482  0.748482  1
  Nd  Nd7  1  0.251616  0.251518  0.251518  1
  Al  Al8  1  0.999501  0.000000  0.000000  1
  Pd  Pd9  1  0.500583  0.500789  0.746617  1
  Pd  Pd10  1  0.500583  0.253383  0.499211  1
  Pd  Pd11  1  0.253382  0.500000  0.500000  1
  Pd  Pd12  1  0.500583  0.499211  0.253383  1
  Pd  Pd13  1  0.500583  0.746617  0.500789  1
  Pd  Pd14  1  0.746648  0.500000  0.500000  1
  Pd  Pd15  1  0.999347  0.999236  0.707499  1
  Pd  Pd16  1  0.999347  0.292501  0.000764  1
  Pd  Pd17  1  0.292628  0.000000  0.000000  1
  Pd  Pd18  1  0.999347  0.000764  0.292501  1
  Pd  Pd19  1  0.999347  0.707499  0.999236  1
  Pd  Pd20  1  0.707511  0.000000  0.000000  1
  Pd  Pd21  1  0.999429  0.500621  0.739038  1
  Pd  Pd22  1  0.500551  0.261007  0.000705  1
  Pd  Pd23  1  0.260851  0.000000  0.500000  1
  Pd  Pd24  1  0.999429  0.260962  0.499379  1
  Pd  Pd25  1  0.500551  0.999295  0.738993  1
  Pd  Pd26  1  0.260851  0.500000  0.000000  1
  Pd  Pd27  1  0.999429  0.499379  0.260962  1
  Pd  Pd28  1  0.500551  0.738993  0.999295  1
  Pd  Pd29  1  0.999429  0.739038  0.500621  1
  Pd  Pd30  1  0.500551  0.000705  0.261007  1
  Pd  Pd31  1  0.738940  0.000000  0.500000  1
  Pd  Pd32  1  0.738940  0.500000  0.000000  1
