# generated using pymatgen
data_Ac2VMoO6
_symmetry_space_group_name_H-M   'P 1'
_cell_length_a   5.77589282
_cell_length_b   5.90621501
_cell_length_c   8.19200712
_cell_angle_alpha   89.99936584
_cell_angle_beta   89.96981789
_cell_angle_gamma   90.00515021
_symmetry_Int_Tables_number   1
_chemical_formula_structural   Ac2VMoO6
_chemical_formula_sum   'Ac4 V2 Mo2 O12'
_cell_volume   279.45934547
_cell_formula_units_Z   2
loop_
 _symmetry_equiv_pos_site_id
 _symmetry_equiv_pos_as_xyz
  1  'x, y, z'
loop_
 _atom_site_type_symbol
 _atom_site_label
 _atom_site_symmetry_multiplicity
 _atom_site_fract_x
 _atom_site_fract_y
 _atom_site_fract_z
 _atom_site_occupancy
  Ac  Ac0  1  0.509330  0.544683  0.249434  1
  Ac  Ac1  1  0.990676  0.044672  0.250560  1
  Ac  Ac2  1  0.490675  0.455316  0.750567  1
  Ac  Ac3  1  0.009319  0.955328  0.749440  1
  V  V4  1  0.499998  0.000001  0.499999  1
  V  V5  1  0.000004  0.499998  0.000000  1
  Mo  Mo6  1  0.000001  0.500001  0.500000  1
  Mo  Mo7  1  0.499998  0.999999  0.000000  1
  O  O8  1  0.797573  0.785714  0.043761  1
  O  O9  1  0.702408  0.285688  0.456250  1
  O  O10  1  0.202424  0.214287  0.956239  1
  O  O11  1  0.297595  0.714309  0.543750  1
  O  O12  1  0.212459  0.202777  0.540469  1
  O  O13  1  0.287526  0.702757  0.959533  1
  O  O14  1  0.787543  0.797226  0.459531  1
  O  O15  1  0.712471  0.297243  0.040466  1
  O  O16  1  0.420371  0.978348  0.256719  1
  O  O17  1  0.079621  0.478344  0.243273  1
  O  O18  1  0.579626  0.021653  0.743281  1
  O  O19  1  0.920381  0.521658  0.756727  1
