# generated using pymatgen
data_K2HgPd3
_symmetry_space_group_name_H-M   'P 1'
_cell_length_a   5.80082192
_cell_length_b   5.69538801
_cell_length_c   5.69538840
_cell_angle_alpha   118.78129733
_cell_angle_beta   120.37173147
_cell_angle_gamma   90.20053542
_symmetry_Int_Tables_number   1
_chemical_formula_structural   K2HgPd3
_chemical_formula_sum   'K2 Hg1 Pd3'
_cell_volume   134.48557148
_cell_formula_units_Z   1
loop_
 _symmetry_equiv_pos_site_id
 _symmetry_equiv_pos_as_xyz
  1  'x, y, z'
loop_
 _atom_site_type_symbol
 _atom_site_label
 _atom_site_symmetry_multiplicity
 _atom_site_fract_x
 _atom_site_fract_y
 _atom_site_fract_z
 _atom_site_occupancy
  K  K0  1  0.377178  0.122351  0.254827  1
  K  K1  1  0.622822  0.877649  0.745172  1
  Hg  Hg2  1  0.000000  0.499999  0.499999  1
  Pd  Pd3  1  0.000000  0.499999  0.000000  1
  Pd  Pd4  1  0.500001  0.500001  0.000000  1
  Pd  Pd5  1  0.000000  0.000000  0.499999  1
