# generated using pymatgen
data_Sr6LiCd32
_symmetry_space_group_name_H-M   'P 1'
_cell_length_a   9.91370400
_cell_length_b   9.91370400
_cell_length_c   9.91370400
_cell_angle_alpha   90.00000000
_cell_angle_beta   90.00000000
_cell_angle_gamma   90.00000000
_symmetry_Int_Tables_number   1
_chemical_formula_structural   Sr6LiCd32
_chemical_formula_sum   'Sr6 Li1 Cd32'
_cell_volume   974.33396734
_cell_formula_units_Z   1
loop_
 _symmetry_equiv_pos_site_id
 _symmetry_equiv_pos_as_xyz
  1  'x, y, z'
loop_
 _atom_site_type_symbol
 _atom_site_label
 _atom_site_symmetry_multiplicity
 _atom_site_fract_x
 _atom_site_fract_y
 _atom_site_fract_z
 _atom_site_occupancy
  Sr  Sr0  1  0.208277  0.000000  0.500000  1
  Sr  Sr1  1  0.791723  0.000000  0.500000  1
  Sr  Sr2  1  0.500000  0.208277  0.000000  1
  Sr  Sr3  1  0.500000  0.791723  0.000000  1
  Sr  Sr4  1  0.000000  0.500000  0.208277  1
  Sr  Sr5  1  0.000000  0.500000  0.791723  1
  Li  Li6  1  0.000000  0.000000  0.000000  1
  Cd  Cd7  1  0.317030  0.500000  0.000000  1
  Cd  Cd8  1  0.682970  0.500000  0.000000  1
  Cd  Cd9  1  0.000000  0.317030  0.500000  1
  Cd  Cd10  1  0.000000  0.682970  0.500000  1
  Cd  Cd11  1  0.500000  0.000000  0.317030  1
  Cd  Cd12  1  0.500000  0.000000  0.682970  1
  Cd  Cd13  1  0.282094  0.282094  0.282094  1
  Cd  Cd14  1  0.717906  0.717906  0.717906  1
  Cd  Cd15  1  0.717906  0.717906  0.282094  1
  Cd  Cd16  1  0.717906  0.282094  0.717906  1
  Cd  Cd17  1  0.282094  0.282094  0.717906  1
  Cd  Cd18  1  0.282094  0.717906  0.282094  1
  Cd  Cd19  1  0.282094  0.717906  0.717906  1
  Cd  Cd20  1  0.717906  0.282094  0.282094  1
  Cd  Cd21  1  0.259199  0.500000  0.500000  1
  Cd  Cd22  1  0.740801  0.500000  0.500000  1
  Cd  Cd23  1  0.500000  0.259199  0.500000  1
  Cd  Cd24  1  0.500000  0.740801  0.500000  1
  Cd  Cd25  1  0.500000  0.500000  0.259199  1
  Cd  Cd26  1  0.500000  0.500000  0.740801  1
  Cd  Cd27  1  0.000000  0.151251  0.255228  1
  Cd  Cd28  1  0.000000  0.848749  0.744772  1
  Cd  Cd29  1  0.000000  0.848749  0.255228  1
  Cd  Cd30  1  0.000000  0.151251  0.744772  1
  Cd  Cd31  1  0.255228  0.000000  0.151251  1
  Cd  Cd32  1  0.744772  0.000000  0.848749  1
  Cd  Cd33  1  0.255228  0.000000  0.848749  1
  Cd  Cd34  1  0.744772  0.000000  0.151251  1
  Cd  Cd35  1  0.151251  0.255228  0.000000  1
  Cd  Cd36  1  0.848749  0.744772  0.000000  1
  Cd  Cd37  1  0.151251  0.744772  0.000000  1
  Cd  Cd38  1  0.848749  0.255228  0.000000  1
