# generated using pymatgen
data_Dy13Ho3(ZnCo)4
_symmetry_space_group_name_H-M   'P 1'
_cell_length_a   9.34215898
_cell_length_b   9.33645578
_cell_length_c   9.34242500
_cell_angle_alpha   59.97885901
_cell_angle_beta   59.99906865
_cell_angle_gamma   59.96683514
_symmetry_Int_Tables_number   1
_chemical_formula_structural   Dy13Ho3(ZnCo)4
_chemical_formula_sum   'Dy13 Ho3 Zn4 Co4'
_cell_volume   575.96022530
_cell_formula_units_Z   1
loop_
 _symmetry_equiv_pos_site_id
 _symmetry_equiv_pos_as_xyz
  1  'x, y, z'
loop_
 _atom_site_type_symbol
 _atom_site_label
 _atom_site_symmetry_multiplicity
 _atom_site_fract_x
 _atom_site_fract_y
 _atom_site_fract_z
 _atom_site_occupancy
  Dy  Dy0  1  0.937745  0.561927  0.562377  1
  Dy  Dy1  1  0.550469  0.150240  0.149646  1
  Dy  Dy2  1  0.149488  0.150095  0.550333  1
  Dy  Dy3  1  0.937673  0.937625  0.562351  1
  Dy  Dy4  1  0.309462  0.690557  0.309000  1
  Dy  Dy5  1  0.562370  0.937598  0.937882  1
  Dy  Dy6  1  0.562370  0.937598  0.562150  1
  Dy  Dy7  1  0.691033  0.690211  0.309377  1
  Dy  Dy8  1  0.562403  0.561744  0.937926  1
  Dy  Dy9  1  0.937745  0.561927  0.937952  1
  Dy  Dy10  1  0.309462  0.690557  0.690981  1
  Dy  Dy11  1  0.149488  0.150095  0.150083  1
  Dy  Dy12  1  0.309705  0.309629  0.690333  1
  Ho  Ho13  1  0.150212  0.549429  0.150179  1
  Ho  Ho14  1  0.690632  0.309726  0.690303  1
  Ho  Ho15  1  0.690632  0.309726  0.309340  1
  Zn  Zn16  1  0.921918  0.233612  0.922236  1
  Zn  Zn17  1  0.921966  0.922202  0.922006  1
  Zn  Zn18  1  0.921966  0.922202  0.233826  1
  Zn  Zn19  1  0.233978  0.921963  0.922030  1
  Co  Co20  1  0.358059  0.358801  0.925045  1
  Co  Co21  1  0.358303  0.924918  0.358390  1
  Co  Co22  1  0.924867  0.358815  0.358160  1
  Co  Co23  1  0.358059  0.358801  0.358096  1
