# generated using pymatgen
data_Tb5Al3Si4Ni3
_symmetry_space_group_name_H-M   'P 1'
_cell_length_a   4.17792200
_cell_length_b   18.99264000
_cell_length_c   6.87376900
_cell_angle_alpha   90.00000000
_cell_angle_beta   90.00000000
_cell_angle_gamma   90.00000000
_symmetry_Int_Tables_number   1
_chemical_formula_structural   Tb5Al3Si4Ni3
_chemical_formula_sum   'Tb10 Al6 Si8 Ni6'
_cell_volume   545.43197883
_cell_formula_units_Z   2
loop_
 _symmetry_equiv_pos_site_id
 _symmetry_equiv_pos_as_xyz
  1  'x, y, z'
loop_
 _atom_site_type_symbol
 _atom_site_label
 _atom_site_symmetry_multiplicity
 _atom_site_fract_x
 _atom_site_fract_y
 _atom_site_fract_z
 _atom_site_occupancy
  Tb  Tb0  1  0.750000  0.120136  0.004183  1
  Tb  Tb1  1  0.750000  0.379864  0.004183  1
  Tb  Tb2  1  0.750000  0.250000  0.385396  1
  Tb  Tb3  1  0.750000  0.070300  0.502091  1
  Tb  Tb4  1  0.750000  0.429699  0.502091  1
  Tb  Tb5  1  0.250001  0.570300  0.497909  1
  Tb  Tb6  1  0.250001  0.929700  0.497909  1
  Tb  Tb7  1  0.250001  0.750000  0.614604  1
  Tb  Tb8  1  0.250001  0.620136  0.995817  1
  Tb  Tb9  1  0.250001  0.879864  0.995817  1
  Al  Al10  1  0.250001  0.250000  0.031550  1
  Al  Al11  1  0.750000  0.676673  0.318191  1
  Al  Al12  1  0.750000  0.823327  0.318191  1
  Al  Al13  1  0.250001  0.176673  0.681809  1
  Al  Al14  1  0.250001  0.323327  0.681809  1
  Al  Al15  1  0.750000  0.750000  0.968450  1
  Si  Si16  1  0.750000  0.536378  0.194483  1
  Si  Si17  1  0.750000  0.963622  0.194483  1
  Si  Si18  1  0.250001  0.143887  0.289364  1
  Si  Si19  1  0.250001  0.356113  0.289364  1
  Si  Si20  1  0.750000  0.643887  0.710636  1
  Si  Si21  1  0.750000  0.856113  0.710636  1
  Si  Si22  1  0.250001  0.036379  0.805517  1
  Si  Si23  1  0.250001  0.463621  0.805517  1
  Ni  Ni24  1  0.250001  0.025608  0.162986  1
  Ni  Ni25  1  0.250001  0.474392  0.162986  1
  Ni  Ni26  1  0.250001  0.750000  0.207448  1
  Ni  Ni27  1  0.750000  0.250000  0.792552  1
  Ni  Ni28  1  0.750000  0.525608  0.837014  1
  Ni  Ni29  1  0.750000  0.974392  0.837014  1
