# generated using pymatgen
data_Ho10GaGePb6
_symmetry_space_group_name_H-M   'P 1'
_cell_length_a   9.27884100
_cell_length_b   9.27884036
_cell_length_c   6.57220500
_cell_angle_alpha   90.00000000
_cell_angle_beta   90.00000000
_cell_angle_gamma   120.00000583
_symmetry_Int_Tables_number   1
_chemical_formula_structural   Ho10GaGePb6
_chemical_formula_sum   'Ho10 Ga1 Ge1 Pb6'
_cell_volume   490.03730582
_cell_formula_units_Z   1
loop_
 _symmetry_equiv_pos_site_id
 _symmetry_equiv_pos_as_xyz
  1  'x, y, z'
loop_
 _atom_site_type_symbol
 _atom_site_label
 _atom_site_symmetry_multiplicity
 _atom_site_fract_x
 _atom_site_fract_y
 _atom_site_fract_z
 _atom_site_occupancy
  Ho  Ho0  1  0.666667  0.333333  0.000000  1
  Ho  Ho1  1  0.333333  0.666667  0.000000  1
  Ho  Ho2  1  0.333333  0.666667  0.500000  1
  Ho  Ho3  1  0.666667  0.333333  0.500000  1
  Ho  Ho4  1  0.745987  0.745987  0.754021  1
  Ho  Ho5  1  0.254013  0.000000  0.754021  1
  Ho  Ho6  1  0.000000  0.254013  0.754021  1
  Ho  Ho7  1  0.254013  0.254013  0.245979  1
  Ho  Ho8  1  0.745987  0.000000  0.245979  1
  Ho  Ho9  1  0.000000  0.745987  0.245979  1
  Ga  Ga10  1  0.000000  0.000000  0.500000  1
  Ge  Ge11  1  0.000000  0.000000  0.000000  1
  Pb  Pb12  1  0.389025  0.389025  0.749545  1
  Pb  Pb13  1  0.610975  0.000000  0.749545  1
  Pb  Pb14  1  0.000000  0.610975  0.749545  1
  Pb  Pb15  1  0.610975  0.610975  0.250455  1
  Pb  Pb16  1  0.389025  0.000000  0.250455  1
  Pb  Pb17  1  0.000000  0.389025  0.250455  1
