# generated using pymatgen
data_UPa3(ZnIr)4
_symmetry_space_group_name_H-M   'P 1'
_cell_length_a   4.18483500
_cell_length_b   6.72467478
_cell_length_c   8.12764468
_cell_angle_alpha   90.45332942
_cell_angle_beta   90.00000000
_cell_angle_gamma   90.00000000
_symmetry_Int_Tables_number   1
_chemical_formula_structural   UPa3(ZnIr)4
_chemical_formula_sum   'U1 Pa3 Zn4 Ir4'
_cell_volume   228.71820839
_cell_formula_units_Z   1
loop_
 _symmetry_equiv_pos_site_id
 _symmetry_equiv_pos_as_xyz
  1  'x, y, z'
loop_
 _atom_site_type_symbol
 _atom_site_label
 _atom_site_symmetry_multiplicity
 _atom_site_fract_x
 _atom_site_fract_y
 _atom_site_fract_z
 _atom_site_occupancy
  U  U0  1  0.750000  0.036898  0.191824  1
  Pa  Pa1  1  0.250000  0.461767  0.690325  1
  Pa  Pa2  1  0.750000  0.537825  0.308712  1
  Pa  Pa3  1  0.250000  0.962069  0.811893  1
  Zn  Zn4  1  0.250000  0.360150  0.061671  1
  Zn  Zn5  1  0.750000  0.637921  0.939086  1
  Zn  Zn6  1  0.250000  0.863957  0.438501  1
  Zn  Zn7  1  0.750000  0.137407  0.560190  1
  Ir  Ir8  1  0.750000  0.738656  0.619770  1
  Ir  Ir9  1  0.250000  0.262252  0.380153  1
  Ir  Ir10  1  0.750000  0.238555  0.879699  1
  Ir  Ir11  1  0.250000  0.762545  0.118174  1
