# generated using pymatgen
data_Tm16In3Hg(IrRh)2
_symmetry_space_group_name_H-M   'P 1'
_cell_length_a   9.51536762
_cell_length_b   9.51536815
_cell_length_c   9.54057591
_cell_angle_alpha   60.02882079
_cell_angle_beta   60.02881994
_cell_angle_gamma   59.87045586
_symmetry_Int_Tables_number   1
_chemical_formula_structural   Tm16In3Hg(IrRh)2
_chemical_formula_sum   'Tm16 In3 Hg1 Ir2 Rh2'
_cell_volume   610.48141951
_cell_formula_units_Z   1
loop_
 _symmetry_equiv_pos_site_id
 _symmetry_equiv_pos_as_xyz
  1  'x, y, z'
loop_
 _atom_site_type_symbol
 _atom_site_label
 _atom_site_symmetry_multiplicity
 _atom_site_fract_x
 _atom_site_fract_y
 _atom_site_fract_z
 _atom_site_occupancy
  Tm  Tm0  1  0.060220  0.060220  0.440304  1
  Tm  Tm1  1  0.438594  0.064212  0.437626  1
  Tm  Tm2  1  0.061300  0.440016  0.061303  1
  Tm  Tm3  1  0.051710  0.648386  0.649842  1
  Tm  Tm4  1  0.436661  0.436661  0.065965  1
  Tm  Tm5  1  0.648386  0.051710  0.649842  1
  Tm  Tm6  1  0.190068  0.811936  0.189419  1
  Tm  Tm7  1  0.189252  0.189252  0.811655  1
  Tm  Tm8  1  0.809518  0.809518  0.189945  1
  Tm  Tm9  1  0.440016  0.061300  0.061303  1
  Tm  Tm10  1  0.811936  0.190068  0.189419  1
  Tm  Tm11  1  0.064212  0.438594  0.437626  1
  Tm  Tm12  1  0.810366  0.190267  0.809133  1
  Tm  Tm13  1  0.190267  0.810366  0.809133  1
  Tm  Tm14  1  0.649685  0.649685  0.050243  1
  Tm  Tm15  1  0.650584  0.650584  0.651655  1
  In  In16  1  0.748865  0.417115  0.416896  1
  In  In17  1  0.417115  0.748865  0.416896  1
  In  In18  1  0.417155  0.417155  0.748851  1
  Hg  Hg19  1  0.413575  0.413575  0.412999  1
  Ir  Ir20  1  0.858663  0.858663  0.425633  1
  Ir  Ir21  1  0.857524  0.857524  0.857470  1
  Rh  Rh22  1  0.425776  0.858551  0.858419  1
  Rh  Rh23  1  0.858551  0.425776  0.858419  1
