# generated using pymatgen
data_Er4ThCr2O12
_symmetry_space_group_name_H-M   'P 1'
_cell_length_a   6.80083789
_cell_length_b   6.80083862
_cell_length_c   7.21792240
_cell_angle_alpha   74.72618252
_cell_angle_beta   74.72619054
_cell_angle_gamma   50.58021600
_symmetry_Int_Tables_number   1
_chemical_formula_structural   Er4ThCr2O12
_chemical_formula_sum   'Er4 Th1 Cr2 O12'
_cell_volume   246.70649656
_cell_formula_units_Z   1
loop_
 _symmetry_equiv_pos_site_id
 _symmetry_equiv_pos_as_xyz
  1  'x, y, z'
loop_
 _atom_site_type_symbol
 _atom_site_label
 _atom_site_symmetry_multiplicity
 _atom_site_fract_x
 _atom_site_fract_y
 _atom_site_fract_z
 _atom_site_occupancy
  Er  Er0  1  0.307824  0.307824  0.351695  1
  Er  Er1  1  0.692176  0.692176  0.648305  1
  Er  Er2  1  0.305161  0.305161  0.842556  1
  Er  Er3  1  0.694839  0.694839  0.157444  1
  Th  Th4  1  0.000000  0.000000  0.500000  1
  Cr  Cr5  1  0.753383  0.246617  0.000000  1
  Cr  Cr6  1  0.246617  0.753383  0.000000  1
  O  O7  1  0.898451  0.428620  0.916918  1
  O  O8  1  0.428620  0.898451  0.916918  1
  O  O9  1  0.101549  0.571380  0.083082  1
  O  O10  1  0.571380  0.101549  0.083082  1
  O  O11  1  0.093747  0.595744  0.576359  1
  O  O12  1  0.595744  0.093747  0.576359  1
  O  O13  1  0.906253  0.404256  0.423641  1
  O  O14  1  0.404256  0.906253  0.423641  1
  O  O15  1  0.999865  0.999865  0.823199  1
  O  O16  1  0.000135  0.000135  0.176801  1
  O  O17  1  0.498786  0.498786  0.812833  1
  O  O18  1  0.501214  0.501214  0.187167  1
