# generated using pymatgen
data_Ti3InPt12
_symmetry_space_group_name_H-M   'P 1'
_cell_length_a   5.63515300
_cell_length_b   5.63515355
_cell_length_c   9.16631100
_cell_angle_alpha   90.00000000
_cell_angle_beta   90.00000000
_cell_angle_gamma   120.00000263
_symmetry_Int_Tables_number   1
_chemical_formula_structural   Ti3InPt12
_chemical_formula_sum   'Ti3 In1 Pt12'
_cell_volume   252.07900442
_cell_formula_units_Z   1
loop_
 _symmetry_equiv_pos_site_id
 _symmetry_equiv_pos_as_xyz
  1  'x, y, z'
loop_
 _atom_site_type_symbol
 _atom_site_label
 _atom_site_symmetry_multiplicity
 _atom_site_fract_x
 _atom_site_fract_y
 _atom_site_fract_z
 _atom_site_occupancy
  Ti  Ti0  1  0.000000  0.000000  0.501388  1
  Ti  Ti1  1  0.000000  0.000000  0.998612  1
  Ti  Ti2  1  0.666667  0.333333  0.750000  1
  In  In3  1  0.333333  0.666667  0.250000  1
  Pt  Pt4  1  0.502887  0.497113  0.506433  1
  Pt  Pt5  1  0.502887  0.005773  0.506433  1
  Pt  Pt6  1  0.994227  0.497113  0.506433  1
  Pt  Pt7  1  0.502887  0.497113  0.993567  1
  Pt  Pt8  1  0.502887  0.005773  0.993567  1
  Pt  Pt9  1  0.994227  0.497113  0.993567  1
  Pt  Pt10  1  0.832761  0.665523  0.250000  1
  Pt  Pt11  1  0.334477  0.167239  0.250000  1
  Pt  Pt12  1  0.832761  0.167239  0.250000  1
  Pt  Pt13  1  0.166474  0.332946  0.750000  1
  Pt  Pt14  1  0.667054  0.833526  0.750000  1
  Pt  Pt15  1  0.166474  0.833526  0.750000  1
