# generated using pymatgen
data_SrHo4Zr3(As3Pd4)4
_symmetry_space_group_name_H-M   'P 1'
_cell_length_a   13.57866300
_cell_length_b   13.57866229
_cell_length_c   4.11042800
_cell_angle_alpha   90.00000000
_cell_angle_beta   90.00000000
_cell_angle_gamma   120.00000416
_symmetry_Int_Tables_number   1
_chemical_formula_structural   SrHo4Zr3(As3Pd4)4
_chemical_formula_sum   'Sr1 Ho4 Zr3 As12 Pd16'
_cell_volume   656.34420645
_cell_formula_units_Z   1
loop_
 _symmetry_equiv_pos_site_id
 _symmetry_equiv_pos_as_xyz
  1  'x, y, z'
loop_
 _atom_site_type_symbol
 _atom_site_label
 _atom_site_symmetry_multiplicity
 _atom_site_fract_x
 _atom_site_fract_y
 _atom_site_fract_z
 _atom_site_occupancy
  Sr  Sr0  1  0.333333  0.666667  0.000000  1
  Ho  Ho1  1  0.188874  0.188708  0.500000  1
  Ho  Ho2  1  0.811292  0.000164  0.500000  1
  Ho  Ho3  1  0.999836  0.811126  0.500000  1
  Ho  Ho4  1  0.666667  0.333333  0.000000  1
  Zr  Zr5  1  0.558326  0.555650  0.000000  1
  Zr  Zr6  1  0.444350  0.002676  0.000000  1
  Zr  Zr7  1  0.997324  0.441674  0.000000  1
  As  As8  1  0.827058  0.826453  0.000000  1
  As  As9  1  0.173547  0.000605  0.000000  1
  As  As10  1  0.999395  0.172942  0.000000  1
  As  As11  1  0.162341  0.478340  0.500000  1
  As  As12  1  0.521660  0.684000  0.500000  1
  As  As13  1  0.316000  0.837659  0.500000  1
  As  As14  1  0.682661  0.515327  0.500000  1
  As  As15  1  0.832666  0.317339  0.500000  1
  As  As16  1  0.484673  0.167334  0.500000  1
  As  As17  1  0.357501  0.358637  0.000000  1
  As  As18  1  0.641363  0.998864  0.000000  1
  As  As19  1  0.001136  0.642499  0.000000  1
  Pd  Pd20  1  0.724238  0.722469  0.500000  1
  Pd  Pd21  1  0.277531  0.001769  0.500000  1
  Pd  Pd22  1  0.998231  0.275762  0.500000  1
  Pd  Pd23  1  0.180635  0.370651  0.000000  1
  Pd  Pd24  1  0.629349  0.809984  0.000000  1
  Pd  Pd25  1  0.190016  0.819365  0.000000  1
  Pd  Pd26  1  0.811363  0.628899  0.000000  1
  Pd  Pd27  1  0.817536  0.188637  0.000000  1
  Pd  Pd28  1  0.371101  0.182464  0.000000  1
  Pd  Pd29  1  0.357732  0.483538  0.500000  1
  Pd  Pd30  1  0.516462  0.874194  0.500000  1
  Pd  Pd31  1  0.125806  0.642268  0.500000  1
  Pd  Pd32  1  0.869087  0.514716  0.500000  1
  Pd  Pd33  1  0.645629  0.130913  0.500000  1
  Pd  Pd34  1  0.485284  0.354371  0.500000  1
  Pd  Pd35  1  0.000000  0.000000  0.000000  1
