# generated using pymatgen
data_DyYPb4
_symmetry_space_group_name_H-M   'P 1'
_cell_length_a   8.57446300
_cell_length_b   8.57446168
_cell_length_c   4.52940700
_cell_angle_alpha   90.00000000
_cell_angle_beta   90.00000000
_cell_angle_gamma   148.54118940
_symmetry_Int_Tables_number   1
_chemical_formula_structural   DyYPb4
_chemical_formula_sum   'Dy1 Y1 Pb4'
_cell_volume   173.79222798
_cell_formula_units_Z   1
loop_
 _symmetry_equiv_pos_site_id
 _symmetry_equiv_pos_as_xyz
  1  'x, y, z'
loop_
 _atom_site_type_symbol
 _atom_site_label
 _atom_site_symmetry_multiplicity
 _atom_site_fract_x
 _atom_site_fract_y
 _atom_site_fract_z
 _atom_site_occupancy
  Dy  Dy0  1  0.095653  0.904347  0.250000  1
  Y  Y1  1  0.904656  0.095344  0.750000  1
  Pb  Pb2  1  0.568902  0.431098  0.750000  1
  Pb  Pb3  1  0.431568  0.568432  0.250000  1
  Pb  Pb4  1  0.250120  0.749880  0.750000  1
  Pb  Pb5  1  0.749101  0.250899  0.250000  1
