# generated using pymatgen
data_Pu2Al(Co2B)3
_symmetry_space_group_name_H-M   'P 1'
_cell_length_a   5.23258600
_cell_length_b   5.23258652
_cell_length_c   12.71811900
_cell_angle_alpha   90.00000000
_cell_angle_beta   90.00000000
_cell_angle_gamma   119.99999673
_symmetry_Int_Tables_number   1
_chemical_formula_structural   Pu2Al(Co2B)3
_chemical_formula_sum   'Pu4 Al2 Co12 B6'
_cell_volume   301.56874101
_cell_formula_units_Z   2
loop_
 _symmetry_equiv_pos_site_id
 _symmetry_equiv_pos_as_xyz
  1  'x, y, z'
loop_
 _atom_site_type_symbol
 _atom_site_label
 _atom_site_symmetry_multiplicity
 _atom_site_fract_x
 _atom_site_fract_y
 _atom_site_fract_z
 _atom_site_occupancy
  Pu  Pu0  1  0.000000  0.000000  0.000000  1
  Pu  Pu1  1  0.000000  0.000000  0.500000  1
  Pu  Pu2  1  0.000000  0.000000  0.734611  1
  Pu  Pu3  1  0.000000  0.000000  0.265389  1
  Al  Al4  1  0.666667  0.333333  0.000000  1
  Al  Al5  1  0.333333  0.666667  0.000000  1
  Co  Co6  1  0.500000  0.500000  0.838730  1
  Co  Co7  1  0.500000  0.000000  0.838730  1
  Co  Co8  1  0.000000  0.500000  0.838730  1
  Co  Co9  1  0.500000  0.500000  0.161270  1
  Co  Co10  1  0.500000  0.000000  0.161270  1
  Co  Co11  1  0.000000  0.500000  0.161270  1
  Co  Co12  1  0.500000  0.500000  0.614303  1
  Co  Co13  1  0.500000  0.000000  0.614303  1
  Co  Co14  1  0.000000  0.500000  0.614303  1
  Co  Co15  1  0.500000  0.500000  0.385697  1
  Co  Co16  1  0.500000  0.000000  0.385697  1
  Co  Co17  1  0.000000  0.500000  0.385697  1
  B  B18  1  0.666667  0.333333  0.500000  1
  B  B19  1  0.333333  0.666667  0.500000  1
  B  B20  1  0.666667  0.333333  0.731554  1
  B  B21  1  0.333333  0.666667  0.731554  1
  B  B22  1  0.333333  0.666667  0.268446  1
  B  B23  1  0.666667  0.333333  0.268446  1
