# generated using pymatgen
data_NaPr4Nd2CoI12
_symmetry_space_group_name_H-M   'P 1'
_cell_length_a   10.00214661
_cell_length_b   9.99200145
_cell_length_c   10.13907166
_cell_angle_alpha   106.68143503
_cell_angle_beta   107.29711571
_cell_angle_gamma   106.92407549
_symmetry_Int_Tables_number   1
_chemical_formula_structural   NaPr4Nd2CoI12
_chemical_formula_sum   'Na1 Pr4 Nd2 Co1 I12'
_cell_volume   844.62423301
_cell_formula_units_Z   1
loop_
 _symmetry_equiv_pos_site_id
 _symmetry_equiv_pos_as_xyz
  1  'x, y, z'
loop_
 _atom_site_type_symbol
 _atom_site_label
 _atom_site_symmetry_multiplicity
 _atom_site_fract_x
 _atom_site_fract_y
 _atom_site_fract_z
 _atom_site_occupancy
  Na  Na0  1  0.500000  0.500000  0.500000  1
  Pr  Pr1  1  0.099184  0.297775  0.027204  1
  Pr  Pr2  1  0.298993  0.027725  0.099448  1
  Pr  Pr3  1  0.900816  0.702225  0.972796  1
  Pr  Pr4  1  0.701007  0.972275  0.900552  1
  Nd  Nd5  1  0.971268  0.895428  0.687269  1
  Nd  Nd6  1  0.028732  0.104572  0.312731  1
  Co  Co7  1  0.000000  0.000000  0.000000  1
  I  I8  1  0.543906  0.623936  0.851479  1
  I  I9  1  0.456094  0.376064  0.148521  1
  I  I10  1  0.317611  0.925480  0.775271  1
  I  I11  1  0.374389  0.147002  0.453620  1
  I  I12  1  0.925374  0.775303  0.318182  1
  I  I13  1  0.682389  0.074520  0.224729  1
  I  I14  1  0.074626  0.224697  0.681818  1
  I  I15  1  0.773332  0.318431  0.924622  1
  I  I16  1  0.226668  0.681569  0.075378  1
  I  I17  1  0.853338  0.546917  0.626418  1
  I  I18  1  0.146662  0.453083  0.373582  1
  I  I19  1  0.625611  0.852998  0.546380  1
