# generated using pymatgen
data_Y3Ho2Er5(In2Pd)4
_symmetry_space_group_name_H-M   'P 1'
_cell_length_a   3.61372500
_cell_length_b   8.13613129
_cell_length_c   18.20862686
_cell_angle_alpha   89.93564344
_cell_angle_beta   90.00000000
_cell_angle_gamma   90.00000000
_symmetry_Int_Tables_number   1
_chemical_formula_structural   Y3Ho2Er5(In2Pd)4
_chemical_formula_sum   'Y3 Ho2 Er5 In8 Pd4'
_cell_volume   535.36499391
_cell_formula_units_Z   1
loop_
 _symmetry_equiv_pos_site_id
 _symmetry_equiv_pos_as_xyz
  1  'x, y, z'
loop_
 _atom_site_type_symbol
 _atom_site_label
 _atom_site_symmetry_multiplicity
 _atom_site_fract_x
 _atom_site_fract_y
 _atom_site_fract_z
 _atom_site_occupancy
  Y  Y0  1  0.000000  0.499658  0.500184  1
  Y  Y1  1  0.000000  0.999981  0.000068  1
  Y  Y2  1  0.000000  0.739228  0.281016  1
  Ho  Ho3  1  0.000000  0.261134  0.719025  1
  Ho  Ho4  1  0.000000  0.761422  0.781037  1
  Er  Er5  1  0.000000  0.238671  0.219078  1
  Er  Er6  1  0.000000  0.615875  0.083760  1
  Er  Er7  1  0.000000  0.383824  0.916308  1
  Er  Er8  1  0.000000  0.883481  0.583536  1
  Er  Er9  1  0.000000  0.116545  0.416329  1
  In  In10  1  0.500000  0.708886  0.932668  1
  In  In11  1  0.500000  0.291361  0.067264  1
  In  In12  1  0.500000  0.790889  0.432787  1
  In  In13  1  0.500000  0.208170  0.567302  1
  In  In14  1  0.500000  0.582860  0.650454  1
  In  In15  1  0.500000  0.418137  0.349671  1
  In  In16  1  0.500000  0.917968  0.149926  1
  In  In17  1  0.500000  0.081737  0.850009  1
  Pd  Pd18  1  0.500000  0.520924  0.195281  1
  Pd  Pd19  1  0.500000  0.476719  0.804503  1
  Pd  Pd20  1  0.500000  0.976781  0.695491  1
  Pd  Pd21  1  0.500000  0.025751  0.304305  1
