# generated using pymatgen
data_LuTh2(SnIr)3
_symmetry_space_group_name_H-M   'P 1'
_cell_length_a   7.51594600
_cell_length_b   7.53951488
_cell_length_c   4.07600600
_cell_angle_alpha   90.00000000
_cell_angle_beta   90.00000000
_cell_angle_gamma   119.89664497
_symmetry_Int_Tables_number   1
_chemical_formula_structural   LuTh2(SnIr)3
_chemical_formula_sum   'Lu1 Th2 Sn3 Ir3'
_cell_volume   200.23678556
_cell_formula_units_Z   1
loop_
 _symmetry_equiv_pos_site_id
 _symmetry_equiv_pos_as_xyz
  1  'x, y, z'
loop_
 _atom_site_type_symbol
 _atom_site_label
 _atom_site_symmetry_multiplicity
 _atom_site_fract_x
 _atom_site_fract_y
 _atom_site_fract_z
 _atom_site_occupancy
  Lu  Lu0  1  0.402678  0.000000  0.500000  1
  Th  Th1  1  0.999520  0.410773  0.500000  1
  Th  Th2  1  0.588747  0.589227  0.500000  1
  Sn  Sn3  1  0.011074  0.755265  0.000000  1
  Sn  Sn4  1  0.255809  0.244735  0.000000  1
  Sn  Sn5  1  0.736634  0.000000  0.000000  1
  Ir  Ir6  1  0.332973  0.658926  0.000000  1
  Ir  Ir7  1  0.674048  0.341074  0.000000  1
  Ir  Ir8  1  0.998517  0.000000  0.500000  1
