# generated using pymatgen
data_Er3MgZn2IrPd2
_symmetry_space_group_name_H-M   'P 1'
_cell_length_a   7.26492221
_cell_length_b   7.33149708
_cell_length_c   3.88543100
_cell_angle_alpha   90.00000000
_cell_angle_beta   90.00000000
_cell_angle_gamma   119.84992444
_symmetry_Int_Tables_number   1
_chemical_formula_structural   Er3MgZn2IrPd2
_chemical_formula_sum   'Er3 Mg1 Zn2 Ir1 Pd2'
_cell_volume   179.49330295
_cell_formula_units_Z   1
loop_
 _symmetry_equiv_pos_site_id
 _symmetry_equiv_pos_as_xyz
  1  'x, y, z'
loop_
 _atom_site_type_symbol
 _atom_site_label
 _atom_site_symmetry_multiplicity
 _atom_site_fract_x
 _atom_site_fract_y
 _atom_site_fract_z
 _atom_site_occupancy
  Er  Er0  1  0.599103  0.986422  0.000000  1
  Er  Er1  1  0.003989  0.583628  0.000000  1
  Er  Er2  1  0.408267  0.427683  0.000000  1
  Mg  Mg3  1  0.245130  0.000415  0.500000  1
  Zn  Zn4  1  0.005259  0.257777  0.500000  1
  Zn  Zn5  1  0.746851  0.743353  0.500000  1
  Ir  Ir6  1  0.332585  0.668031  0.500000  1
  Pd  Pd7  1  0.992547  0.000048  0.000000  1
  Pd  Pd8  1  0.666267  0.332644  0.500000  1
