# generated using pymatgen
data_LiUBiH
_symmetry_space_group_name_H-M   'P 1'
_cell_length_a   4.21379100
_cell_length_b   4.21379100
_cell_length_c   8.47695900
_cell_angle_alpha   90.00000000
_cell_angle_beta   90.00000000
_cell_angle_gamma   90.00000000
_symmetry_Int_Tables_number   1
_chemical_formula_structural   LiUBiH
_chemical_formula_sum   'Li2 U2 Bi2 H2'
_cell_volume   150.51717724
_cell_formula_units_Z   2
loop_
 _symmetry_equiv_pos_site_id
 _symmetry_equiv_pos_as_xyz
  1  'x, y, z'
loop_
 _atom_site_type_symbol
 _atom_site_label
 _atom_site_symmetry_multiplicity
 _atom_site_fract_x
 _atom_site_fract_y
 _atom_site_fract_z
 _atom_site_occupancy
  Li  Li0  1  0.000000  0.000000  0.000000  1
  Li  Li1  1  0.500000  0.500000  0.000000  1
  U  U2  1  0.000000  0.500000  0.391306  1
  U  U3  1  0.500000  0.000000  0.608694  1
  Bi  Bi4  1  0.000000  0.500000  0.777971  1
  Bi  Bi5  1  0.500000  0.000000  0.222029  1
  H  H6  1  0.000000  0.000000  0.500000  1
  H  H7  1  0.500000  0.500000  0.500000  1
