# generated using pymatgen
data_PrNd3(In2Br5)4
_symmetry_space_group_name_H-M   'P 1'
_cell_length_a   8.78627633
_cell_length_b   9.20486200
_cell_length_c   13.57701367
_cell_angle_alpha   90.00000000
_cell_angle_beta   90.31381370
_cell_angle_gamma   90.00000000
_symmetry_Int_Tables_number   1
_chemical_formula_structural   PrNd3(In2Br5)4
_chemical_formula_sum   'Pr1 Nd3 In8 Br20'
_cell_volume   1098.04434753
_cell_formula_units_Z   1
loop_
 _symmetry_equiv_pos_site_id
 _symmetry_equiv_pos_as_xyz
  1  'x, y, z'
loop_
 _atom_site_type_symbol
 _atom_site_label
 _atom_site_symmetry_multiplicity
 _atom_site_fract_x
 _atom_site_fract_y
 _atom_site_fract_z
 _atom_site_occupancy
  Pr  Pr0  1  0.422004  0.250000  0.993601  1
  Nd  Nd1  1  0.923536  0.750000  0.505809  1
  Nd  Nd2  1  0.577659  0.750000  0.006075  1
  Nd  Nd3  1  0.077260  0.250000  0.494150  1
  In  In4  1  0.941480  0.003406  0.826678  1
  In  In5  1  0.056941  0.996173  0.173092  1
  In  In6  1  0.557838  0.496435  0.328588  1
  In  In7  1  0.056941  0.503827  0.173092  1
  In  In8  1  0.941480  0.496594  0.826678  1
  In  In9  1  0.441753  0.503999  0.671298  1
  In  In10  1  0.557838  0.003565  0.328588  1
  In  In11  1  0.441753  0.996001  0.671298  1
  Br  Br12  1  0.582115  0.750000  0.506432  1
  Br  Br13  1  0.168863  0.953020  0.429363  1
  Br  Br14  1  0.832068  0.046977  0.570476  1
  Br  Br15  1  0.331418  0.548445  0.927158  1
  Br  Br16  1  0.168863  0.546980  0.429363  1
  Br  Br17  1  0.344080  0.250000  0.206417  1
  Br  Br18  1  0.331418  0.951555  0.927158  1
  Br  Br19  1  0.832068  0.453023  0.570476  1
  Br  Br20  1  0.395097  0.750000  0.188183  1
  Br  Br21  1  0.668845  0.045546  0.072839  1
  Br  Br22  1  0.156216  0.250000  0.705470  1
  Br  Br23  1  0.607409  0.250000  0.810606  1
  Br  Br24  1  0.418567  0.250000  0.494318  1
  Br  Br25  1  0.105928  0.750000  0.688588  1
  Br  Br26  1  0.668845  0.454454  0.072839  1
  Br  Br27  1  0.078734  0.250000  0.994223  1
  Br  Br28  1  0.919113  0.750000  0.006009  1
  Br  Br29  1  0.844012  0.750000  0.294813  1
  Br  Br30  1  0.655539  0.750000  0.794835  1
  Br  Br31  1  0.894315  0.250000  0.311488  1
