# generated using pymatgen
data_Sr5LaU2O12
_symmetry_space_group_name_H-M   'P 1'
_cell_length_a   7.06242777
_cell_length_b   6.98425339
_cell_length_c   7.04423100
_cell_angle_alpha   91.06993016
_cell_angle_beta   90.15479164
_cell_angle_gamma   90.81498037
_symmetry_Int_Tables_number   1
_chemical_formula_structural   Sr5LaU2O12
_chemical_formula_sum   'Sr5 La1 U2 O12'
_cell_volume   347.36497102
_cell_formula_units_Z   1
loop_
 _symmetry_equiv_pos_site_id
 _symmetry_equiv_pos_as_xyz
  1  'x, y, z'
loop_
 _atom_site_type_symbol
 _atom_site_label
 _atom_site_symmetry_multiplicity
 _atom_site_fract_x
 _atom_site_fract_y
 _atom_site_fract_z
 _atom_site_occupancy
  Sr  Sr0  1  0.750705  0.940921  0.446640  1
  Sr  Sr1  1  0.550714  0.248934  0.060971  1
  Sr  Sr2  1  0.250198  0.055900  0.551506  1
  Sr  Sr3  1  0.062613  0.554732  0.250999  1
  Sr  Sr4  1  0.446877  0.749140  0.941638  1
  La  La5  1  0.938165  0.445954  0.748968  1
  U  U6  1  0.999100  0.999915  0.999145  1
  U  U7  1  0.498954  0.499605  0.500690  1
  O  O8  1  0.280796  0.064485  0.926868  1
  O  O9  1  0.064953  0.926996  0.281484  1
  O  O10  1  0.923454  0.294149  0.056505  1
  O  O11  1  0.717786  0.934089  0.072723  1
  O  O12  1  0.934471  0.085725  0.714132  1
  O  O13  1  0.071522  0.704702  0.925783  1
  O  O14  1  0.206011  0.416333  0.548216  1
  O  O15  1  0.418743  0.543327  0.217094  1
  O  O16  1  0.459058  0.783783  0.583930  1
  O  O17  1  0.591396  0.455997  0.785948  1
  O  O18  1  0.793621  0.580416  0.468685  1
  O  O19  1  0.540865  0.214894  0.418078  1
