# generated using pymatgen
data_Y2Sc3Si7Pt7Rh2
_symmetry_space_group_name_H-M   'P 1'
_cell_length_a   10.04810211
_cell_length_b   10.01835251
_cell_length_c   3.95124500
_cell_angle_alpha   90.00000000
_cell_angle_beta   90.00000000
_cell_angle_gamma   119.76949182
_symmetry_Int_Tables_number   1
_chemical_formula_structural   Y2Sc3Si7Pt7Rh2
_chemical_formula_sum   'Y2 Sc3 Si7 Pt7 Rh2'
_cell_volume   345.26218918
_cell_formula_units_Z   1
loop_
 _symmetry_equiv_pos_site_id
 _symmetry_equiv_pos_as_xyz
  1  'x, y, z'
loop_
 _atom_site_type_symbol
 _atom_site_label
 _atom_site_symmetry_multiplicity
 _atom_site_fract_x
 _atom_site_fract_y
 _atom_site_fract_z
 _atom_site_occupancy
  Y  Y0  1  0.001755  0.000555  0.000000  1
  Y  Y1  1  0.331381  0.665914  0.500000  1
  Sc  Sc2  1  0.894546  0.454825  0.500000  1
  Sc  Sc3  1  0.560008  0.104226  0.500000  1
  Sc  Sc4  1  0.543765  0.438808  0.500000  1
  Si  Si5  1  0.245193  0.196842  0.500000  1
  Si  Si6  1  0.809033  0.054411  0.500000  1
  Si  Si7  1  0.955482  0.755220  0.500000  1
  Si  Si8  1  0.555476  0.646433  0.000000  1
  Si  Si9  1  0.349351  0.909602  0.000000  1
  Si  Si10  1  0.089367  0.440091  0.000000  1
  Si  Si11  1  0.666210  0.332505  0.000000  1
  Pt  Pt12  1  0.717902  0.781163  0.500000  1
  Pt  Pt13  1  0.312604  0.410170  0.000000  1
  Pt  Pt14  1  0.586193  0.901381  0.000000  1
  Pt  Pt15  1  0.097044  0.687891  0.000000  1
  Pt  Pt16  1  0.384396  0.172064  0.000000  1
  Pt  Pt17  1  0.827294  0.210253  0.000000  1
  Pt  Pt18  1  0.787681  0.615035  0.000000  1
  Rh  Rh19  1  0.221926  0.937821  0.500000  1
  Rh  Rh20  1  0.063390  0.284792  0.500000  1
