# generated using pymatgen
data_Na12MnV3S8(O4F)8
_symmetry_space_group_name_H-M   'P 1'
_cell_length_a   6.75612100
_cell_length_b   9.01049200
_cell_length_c   14.19045000
_cell_angle_alpha   90.00000000
_cell_angle_beta   90.00000000
_cell_angle_gamma   90.00000000
_symmetry_Int_Tables_number   1
_chemical_formula_structural   Na12MnV3S8(O4F)8
_chemical_formula_sum   'Na12 Mn1 V3 S8 O32 F8'
_cell_volume   863.85746839
_cell_formula_units_Z   1
loop_
 _symmetry_equiv_pos_site_id
 _symmetry_equiv_pos_as_xyz
  1  'x, y, z'
loop_
 _atom_site_type_symbol
 _atom_site_label
 _atom_site_symmetry_multiplicity
 _atom_site_fract_x
 _atom_site_fract_y
 _atom_site_fract_z
 _atom_site_occupancy
  Na  Na0  1  0.519551  0.666476  0.903659  1
  Na  Na1  1  0.018534  0.832022  0.596575  1
  Na  Na2  1  0.481466  0.167978  0.596575  1
  Na  Na3  1  0.980449  0.333524  0.903659  1
  Na  Na4  1  0.481371  0.332863  0.095339  1
  Na  Na5  1  0.981090  0.167247  0.403785  1
  Na  Na6  1  0.518910  0.832753  0.403785  1
  Na  Na7  1  0.018629  0.667137  0.095339  1
  Na  Na8  1  0.750000  0.000000  0.048278  1
  Na  Na9  1  0.250000  0.500000  0.451350  1
  Na  Na10  1  0.250000  0.000000  0.949914  1
  Na  Na11  1  0.750000  0.500000  0.549072  1
  Mn  Mn12  1  0.750000  0.000000  0.801012  1
  V  V13  1  0.250000  0.500000  0.698323  1
  V  V14  1  0.250000  0.000000  0.197271  1
  V  V15  1  0.750000  0.500000  0.302483  1
  S  S16  1  0.003569  0.690840  0.857132  1
  S  S17  1  0.503949  0.807498  0.643621  1
  S  S18  1  0.996051  0.192502  0.643621  1
  S  S19  1  0.496431  0.309160  0.857132  1
  S  S20  1  0.997905  0.306762  0.142646  1
  S  S21  1  0.497776  0.193088  0.357499  1
  S  S22  1  0.002224  0.806912  0.357499  1
  S  S23  1  0.502095  0.693238  0.142646  1
  O  O24  1  0.443874  0.449498  0.801859  1
  O  O25  1  0.944503  0.052670  0.699981  1
  O  O26  1  0.555497  0.947330  0.699981  1
  O  O27  1  0.056126  0.550502  0.801859  1
  O  O28  1  0.553362  0.554683  0.199474  1
  O  O29  1  0.053399  0.945485  0.300640  1
  O  O30  1  0.446601  0.054515  0.300640  1
  O  O31  1  0.946638  0.445317  0.199474  1
  O  O32  1  0.185067  0.764484  0.889668  1
  O  O33  1  0.684926  0.734448  0.610884  1
  O  O34  1  0.815074  0.265552  0.610884  1
  O  O35  1  0.314933  0.235516  0.889668  1
  O  O36  1  0.816027  0.233886  0.110393  1
  O  O37  1  0.315761  0.265649  0.389893  1
  O  O38  1  0.184239  0.734351  0.389893  1
  O  O39  1  0.683973  0.766114  0.110393  1
  O  O40  1  0.878834  0.641696  0.936827  1
  O  O41  1  0.379363  0.859900  0.564820  1
  O  O42  1  0.120637  0.140100  0.564820  1
  O  O43  1  0.621166  0.358304  0.936827  1
  O  O44  1  0.122534  0.356830  0.063408  1
  O  O45  1  0.622530  0.143014  0.436771  1
  O  O46  1  0.877470  0.856986  0.436771  1
  O  O47  1  0.377466  0.643170  0.063408  1
  O  O48  1  0.386500  0.709767  0.708049  1
  O  O49  1  0.888213  0.786048  0.791223  1
  O  O50  1  0.611787  0.213952  0.791223  1
  O  O51  1  0.113500  0.290233  0.708049  1
  O  O52  1  0.614459  0.291314  0.292649  1
  O  O53  1  0.114739  0.208636  0.207579  1
  O  O54  1  0.385261  0.791364  0.207579  1
  O  O55  1  0.885541  0.708686  0.292649  1
  F  F56  1  0.579918  0.930052  0.899447  1
  F  F57  1  0.076300  0.570722  0.597477  1
  F  F58  1  0.423700  0.429278  0.597477  1
  F  F59  1  0.920082  0.069948  0.899447  1
  F  F60  1  0.424014  0.070466  0.097121  1
  F  F61  1  0.923830  0.429039  0.402729  1
  F  F62  1  0.576170  0.570961  0.402729  1
  F  F63  1  0.075986  0.929534  0.097121  1
