# generated using pymatgen
data_CsCdAg2(NO3)8
_symmetry_space_group_name_H-M   'P 1'
_cell_length_a   8.33468356
_cell_length_b   8.01536836
_cell_length_c   8.44221693
_cell_angle_alpha   91.56800179
_cell_angle_beta   86.62545351
_cell_angle_gamma   86.73233645
_symmetry_Int_Tables_number   1
_chemical_formula_structural   CsCdAg2(NO3)8
_chemical_formula_sum   'Cs1 Cd1 Ag2 N8 O24'
_cell_volume   561.82668034
_cell_formula_units_Z   1
loop_
 _symmetry_equiv_pos_site_id
 _symmetry_equiv_pos_as_xyz
  1  'x, y, z'
loop_
 _atom_site_type_symbol
 _atom_site_label
 _atom_site_symmetry_multiplicity
 _atom_site_fract_x
 _atom_site_fract_y
 _atom_site_fract_z
 _atom_site_occupancy
  Cs  Cs0  1  0.500000  0.500000  0.500000  1
  Cd  Cd1  1  0.000000  0.000000  0.500000  1
  Ag  Ag2  1  0.500000  0.000000  0.000000  1
  Ag  Ag3  1  0.000000  0.500000  0.000000  1
  N  N4  1  0.697254  0.104033  0.318140  1
  N  N5  1  0.667996  0.307148  0.891659  1
  N  N6  1  0.823023  0.826617  0.831335  1
  N  N7  1  0.891190  0.684757  0.326601  1
  N  N8  1  0.176977  0.173383  0.168665  1
  N  N9  1  0.108810  0.315243  0.673399  1
  N  N10  1  0.332004  0.692852  0.108341  1
  N  N11  1  0.302746  0.895967  0.681860  1
  O  O12  1  0.554763  0.207459  0.856261  1
  O  O13  1  0.563405  0.176470  0.295443  1
  O  O14  1  0.675708  0.434491  0.811347  1
  O  O15  1  0.758449  0.990041  0.226866  1
  O  O16  1  0.798975  0.710286  0.447930  1
  O  O17  1  0.712620  0.813857  0.941640  1
  O  O18  1  0.758779  0.271842  0.998580  1
  O  O19  1  0.772218  0.151838  0.440853  1
  O  O20  1  0.814426  0.941017  0.734098  1
  O  O21  1  0.852680  0.576930  0.221500  1
  O  O22  1  0.940903  0.719297  0.823959  1
  O  O23  1  0.017473  0.762255  0.305736  1
  O  O24  1  0.982527  0.237745  0.694264  1
  O  O25  1  0.059097  0.280703  0.176041  1
  O  O26  1  0.147320  0.423070  0.778500  1
  O  O27  1  0.185574  0.058983  0.265902  1
  O  O28  1  0.241221  0.728158  0.001420  1
  O  O29  1  0.227782  0.848162  0.559147  1
  O  O30  1  0.287380  0.186143  0.058360  1
  O  O31  1  0.201025  0.289714  0.552070  1
  O  O32  1  0.324292  0.565509  0.188653  1
  O  O33  1  0.241551  0.009959  0.773134  1
  O  O34  1  0.436595  0.823530  0.704557  1
  O  O35  1  0.445237  0.792541  0.143739  1
