# generated using pymatgen
data_Dy3Be2Rh5
_symmetry_space_group_name_H-M   'P 1'
_cell_length_a   9.85094400
_cell_length_b   9.85094400
_cell_length_c   3.37157900
_cell_angle_alpha   90.00000000
_cell_angle_beta   90.00000000
_cell_angle_gamma   90.00000000
_symmetry_Int_Tables_number   1
_chemical_formula_structural   Dy3Be2Rh5
_chemical_formula_sum   'Dy6 Be4 Rh10'
_cell_volume   327.18172711
_cell_formula_units_Z   2
loop_
 _symmetry_equiv_pos_site_id
 _symmetry_equiv_pos_as_xyz
  1  'x, y, z'
loop_
 _atom_site_type_symbol
 _atom_site_label
 _atom_site_symmetry_multiplicity
 _atom_site_fract_x
 _atom_site_fract_y
 _atom_site_fract_z
 _atom_site_occupancy
  Dy  Dy0  1  0.825714  0.325714  0.000000  1
  Dy  Dy1  1  0.325714  0.174286  0.000000  1
  Dy  Dy2  1  0.674286  0.825714  0.000000  1
  Dy  Dy3  1  0.174286  0.674286  0.000000  1
  Dy  Dy4  1  0.000000  0.000000  0.000000  1
  Dy  Dy5  1  0.500000  0.500000  0.000000  1
  Be  Be6  1  0.621022  0.121022  0.000000  1
  Be  Be7  1  0.121022  0.378978  0.000000  1
  Be  Be8  1  0.878978  0.621022  0.000000  1
  Be  Be9  1  0.378978  0.878978  0.000000  1
  Rh  Rh10  1  0.071312  0.222460  0.500000  1
  Rh  Rh11  1  0.222460  0.928688  0.500000  1
  Rh  Rh12  1  0.777540  0.071312  0.500000  1
  Rh  Rh13  1  0.928688  0.777540  0.500000  1
  Rh  Rh14  1  0.428688  0.722460  0.500000  1
  Rh  Rh15  1  0.571312  0.277540  0.500000  1
  Rh  Rh16  1  0.722460  0.571312  0.500000  1
  Rh  Rh17  1  0.277540  0.428688  0.500000  1
  Rh  Rh18  1  0.500000  0.000000  0.500000  1
  Rh  Rh19  1  0.000000  0.500000  0.500000  1
