# generated using pymatgen
data_Ho2Lu2Si4TcRh3
_symmetry_space_group_name_H-M   'P 1'
_cell_length_a   4.25159300
_cell_length_b   6.87427894
_cell_length_c   7.27797357
_cell_angle_alpha   90.03035929
_cell_angle_beta   90.00000000
_cell_angle_gamma   90.00000000
_symmetry_Int_Tables_number   1
_chemical_formula_structural   Ho2Lu2Si4TcRh3
_chemical_formula_sum   'Ho2 Lu2 Si4 Tc1 Rh3'
_cell_volume   212.71065604
_cell_formula_units_Z   1
loop_
 _symmetry_equiv_pos_site_id
 _symmetry_equiv_pos_as_xyz
  1  'x, y, z'
loop_
 _atom_site_type_symbol
 _atom_site_label
 _atom_site_symmetry_multiplicity
 _atom_site_fract_x
 _atom_site_fract_y
 _atom_site_fract_z
 _atom_site_occupancy
  Ho  Ho0  1  0.750000  0.999991  0.185166  1
  Ho  Ho1  1  0.750000  0.506420  0.312144  1
  Lu  Lu2  1  0.250000  0.000254  0.810400  1
  Lu  Lu3  1  0.250000  0.496029  0.692069  1
  Si  Si4  1  0.250000  0.296577  0.107452  1
  Si  Si5  1  0.750000  0.702746  0.884203  1
  Si  Si6  1  0.250000  0.796661  0.402416  1
  Si  Si7  1  0.750000  0.202208  0.607561  1
  Tc  Tc8  1  0.750000  0.844660  0.568734  1
  Rh  Rh9  1  0.250000  0.158018  0.435364  1
  Rh  Rh10  1  0.750000  0.342353  0.932407  1
  Rh  Rh11  1  0.250000  0.654085  0.062084  1
