# generated using pymatgen
data_Dy2Ga9Ir2Pd
_symmetry_space_group_name_H-M   'P 1'
_cell_length_a   7.63073254
_cell_length_b   7.63073225
_cell_length_c   9.51645700
_cell_angle_alpha   90.00000000
_cell_angle_beta   90.00000000
_cell_angle_gamma   119.72744411
_symmetry_Int_Tables_number   1
_chemical_formula_structural   Dy2Ga9Ir2Pd
_chemical_formula_sum   'Dy4 Ga18 Ir4 Pd2'
_cell_volume   481.19886872
_cell_formula_units_Z   2
loop_
 _symmetry_equiv_pos_site_id
 _symmetry_equiv_pos_as_xyz
  1  'x, y, z'
loop_
 _atom_site_type_symbol
 _atom_site_label
 _atom_site_symmetry_multiplicity
 _atom_site_fract_x
 _atom_site_fract_y
 _atom_site_fract_z
 _atom_site_occupancy
  Dy  Dy0  1  0.996803  0.669838  0.250000  1
  Dy  Dy1  1  0.003197  0.330162  0.750000  1
  Dy  Dy2  1  0.669838  0.996803  0.250000  1
  Dy  Dy3  1  0.330162  0.003197  0.750000  1
  Ga  Ga4  1  0.128458  0.128458  0.250000  1
  Ga  Ga5  1  0.871542  0.871542  0.750000  1
  Ga  Ga6  1  0.999028  0.337221  0.081004  1
  Ga  Ga7  1  0.000972  0.662779  0.918996  1
  Ga  Ga8  1  0.000972  0.662779  0.581004  1
  Ga  Ga9  1  0.337221  0.999028  0.418996  1
  Ga  Ga10  1  0.999028  0.337221  0.418996  1
  Ga  Ga11  1  0.662779  0.000972  0.581004  1
  Ga  Ga12  1  0.662779  0.000972  0.918996  1
  Ga  Ga13  1  0.337221  0.999028  0.081004  1
  Ga  Ga14  1  0.335058  0.335058  0.567357  1
  Ga  Ga15  1  0.664942  0.664942  0.432643  1
  Ga  Ga16  1  0.664942  0.664942  0.067357  1
  Ga  Ga17  1  0.335058  0.335058  0.932643  1
  Ga  Ga18  1  0.337395  0.546154  0.250000  1
  Ga  Ga19  1  0.662605  0.453846  0.750000  1
  Ga  Ga20  1  0.546154  0.337395  0.250000  1
  Ga  Ga21  1  0.453846  0.662605  0.750000  1
  Ir  Ir22  1  0.671354  0.328646  0.000000  1
  Ir  Ir23  1  0.328646  0.671354  0.000000  1
  Ir  Ir24  1  0.328646  0.671354  0.500000  1
  Ir  Ir25  1  0.671354  0.328646  0.500000  1
  Pd  Pd26  1  0.000000  0.000000  0.000000  1
  Pd  Pd27  1  0.000000  0.000000  0.500000  1
