# generated using pymatgen
data_TmSc2Ga5Pt
_symmetry_space_group_name_H-M   'P 1'
_cell_length_a   6.80917427
_cell_length_b   6.80917343
_cell_length_c   4.16592400
_cell_angle_alpha   90.00000000
_cell_angle_beta   90.00000000
_cell_angle_gamma   120.73272107
_symmetry_Int_Tables_number   1
_chemical_formula_structural   TmSc2Ga5Pt
_chemical_formula_sum   'Tm1 Sc2 Ga5 Pt1'
_cell_volume   166.02621643
_cell_formula_units_Z   1
loop_
 _symmetry_equiv_pos_site_id
 _symmetry_equiv_pos_as_xyz
  1  'x, y, z'
loop_
 _atom_site_type_symbol
 _atom_site_label
 _atom_site_symmetry_multiplicity
 _atom_site_fract_x
 _atom_site_fract_y
 _atom_site_fract_z
 _atom_site_occupancy
  Tm  Tm0  1  0.418468  0.418468  0.000000  1
  Sc  Sc1  1  0.587240  0.002875  0.000000  1
  Sc  Sc2  1  0.002875  0.587240  0.000000  1
  Ga  Ga3  1  0.245365  0.998582  0.500000  1
  Ga  Ga4  1  0.998582  0.245365  0.500000  1
  Ga  Ga5  1  0.753302  0.753302  0.500000  1
  Ga  Ga6  1  0.330897  0.672108  0.500000  1
  Ga  Ga7  1  0.672108  0.330897  0.500000  1
  Pt  Pt8  1  0.991163  0.991163  0.000000  1
