# generated using pymatgen
data_Ce7Dy(Si4W3)4
_symmetry_space_group_name_H-M   'P 1'
_cell_length_a   6.89628020
_cell_length_b   6.97362604
_cell_length_c   13.03078243
_cell_angle_alpha   90.04569217
_cell_angle_beta   90.00826245
_cell_angle_gamma   90.06125519
_symmetry_Int_Tables_number   1
_chemical_formula_structural   Ce7Dy(Si4W3)4
_chemical_formula_sum   'Ce7 Dy1 Si16 W12'
_cell_volume   626.67685662
_cell_formula_units_Z   1
loop_
 _symmetry_equiv_pos_site_id
 _symmetry_equiv_pos_as_xyz
  1  'x, y, z'
loop_
 _atom_site_type_symbol
 _atom_site_label
 _atom_site_symmetry_multiplicity
 _atom_site_fract_x
 _atom_site_fract_y
 _atom_site_fract_z
 _atom_site_occupancy
  Ce  Ce0  1  0.494457  0.660925  0.592455  1
  Ce  Ce1  1  0.994861  0.837840  0.907822  1
  Ce  Ce2  1  0.505389  0.338535  0.091958  1
  Ce  Ce3  1  0.004055  0.166466  0.405892  1
  Ce  Ce4  1  0.506222  0.338686  0.408597  1
  Ce  Ce5  1  0.006380  0.161746  0.092061  1
  Ce  Ce6  1  0.494357  0.662588  0.907216  1
  Dy  Dy7  1  0.994632  0.833496  0.593632  1
  Si  Si8  1  0.659403  0.954506  0.454010  1
  Si  Si9  1  0.156974  0.546277  0.047098  1
  Si  Si10  1  0.344209  0.047028  0.952339  1
  Si  Si11  1  0.843682  0.455458  0.546838  1
  Si  Si12  1  0.339441  0.044059  0.547247  1
  Si  Si13  1  0.842067  0.453859  0.953527  1
  Si  Si14  1  0.657988  0.954078  0.047261  1
  Si  Si15  1  0.156269  0.548191  0.453430  1
  Si  Si16  1  0.461416  0.363767  0.751422  1
  Si  Si17  1  0.962713  0.130982  0.748647  1
  Si  Si18  1  0.538223  0.635900  0.250414  1
  Si  Si19  1  0.038379  0.867003  0.250375  1
  Si  Si20  1  0.693461  0.867903  0.748890  1
  Si  Si21  1  0.191406  0.629991  0.749431  1
  Si  Si22  1  0.308217  0.131231  0.249923  1
  Si  Si23  1  0.808077  0.370782  0.249201  1
  W  W24  1  0.665725  0.163034  0.626085  1
  W  W25  1  0.165113  0.337701  0.873086  1
  W  W26  1  0.332187  0.839062  0.126304  1
  W  W27  1  0.831562  0.662150  0.373652  1
  W  W28  1  0.331670  0.839006  0.374015  1
  W  W29  1  0.832477  0.663110  0.126725  1
  W  W30  1  0.672192  0.159887  0.872965  1
  W  W31  1  0.165886  0.335612  0.626522  1
  W  W32  1  0.832233  0.495704  0.750159  1
  W  W33  1  0.332796  0.000538  0.750256  1
  W  W34  1  0.168380  0.503667  0.249908  1
  W  W35  1  0.667502  0.999232  0.250638  1
