# generated using pymatgen
data_LiGd3Te4
_symmetry_space_group_name_H-M   'P 1'
_cell_length_a   8.79041954
_cell_length_b   8.79041948
_cell_length_c   8.83981700
_cell_angle_alpha   59.81393082
_cell_angle_beta   59.81393105
_cell_angle_gamma   59.80270266
_symmetry_Int_Tables_number   1
_chemical_formula_structural   LiGd3Te4
_chemical_formula_sum   'Li2 Gd6 Te8'
_cell_volume   480.91931135
_cell_formula_units_Z   2
loop_
 _symmetry_equiv_pos_site_id
 _symmetry_equiv_pos_as_xyz
  1  'x, y, z'
loop_
 _atom_site_type_symbol
 _atom_site_label
 _atom_site_symmetry_multiplicity
 _atom_site_fract_x
 _atom_site_fract_y
 _atom_site_fract_z
 _atom_site_occupancy
  Li  Li0  1  0.125000  0.625000  0.125000  1
  Li  Li1  1  0.625000  0.125000  0.125000  1
  Gd  Gd2  1  0.625000  0.125000  0.625000  1
  Gd  Gd3  1  0.625000  0.625000  0.625000  1
  Gd  Gd4  1  0.125000  0.625000  0.625000  1
  Gd  Gd5  1  0.625000  0.625000  0.125000  1
  Gd  Gd6  1  0.125000  0.125000  0.625000  1
  Gd  Gd7  1  0.125000  0.125000  0.125000  1
  Te  Te8  1  0.379445  0.880807  0.369874  1
  Te  Te9  1  0.870555  0.369193  0.880126  1
  Te  Te10  1  0.875211  0.875211  0.367816  1
  Te  Te11  1  0.875211  0.875211  0.881763  1
  Te  Te12  1  0.880807  0.379445  0.369874  1
  Te  Te13  1  0.374789  0.374789  0.882184  1
  Te  Te14  1  0.374789  0.374789  0.368237  1
  Te  Te15  1  0.369193  0.870555  0.880126  1
