# generated using pymatgen
data_Cs(YI3)2
_symmetry_space_group_name_H-M   'P 1'
_cell_length_a   8.99945900
_cell_length_b   8.99945815
_cell_length_c   14.55996800
_cell_angle_alpha   90.00000000
_cell_angle_beta   90.00000000
_cell_angle_gamma   119.99999209
_symmetry_Int_Tables_number   1
_chemical_formula_structural   Cs(YI3)2
_chemical_formula_sum   'Cs2 Y4 I12'
_cell_volume   1021.23067480
_cell_formula_units_Z   2
loop_
 _symmetry_equiv_pos_site_id
 _symmetry_equiv_pos_as_xyz
  1  'x, y, z'
loop_
 _atom_site_type_symbol
 _atom_site_label
 _atom_site_symmetry_multiplicity
 _atom_site_fract_x
 _atom_site_fract_y
 _atom_site_fract_z
 _atom_site_occupancy
  Cs  Cs0  1  0.333333  0.666667  0.872821  1
  Cs  Cs1  1  0.666667  0.333333  0.372821  1
  Y  Y2  1  0.000000  0.000000  0.125803  1
  Y  Y3  1  0.000000  0.000000  0.375925  1
  Y  Y4  1  0.000000  0.000000  0.625803  1
  Y  Y5  1  0.000000  0.000000  0.875925  1
  I  I6  1  0.974415  0.712813  0.001918  1
  I  I7  1  0.257482  0.967632  0.249809  1
  I  I8  1  0.032368  0.289850  0.249809  1
  I  I9  1  0.287187  0.261604  0.001918  1
  I  I10  1  0.261604  0.287187  0.501918  1
  I  I11  1  0.738396  0.025585  0.001918  1
  I  I12  1  0.289850  0.032368  0.749809  1
  I  I13  1  0.710150  0.742518  0.249809  1
  I  I14  1  0.742518  0.710150  0.749809  1
  I  I15  1  0.025585  0.738396  0.501918  1
  I  I16  1  0.712813  0.974415  0.501918  1
  I  I17  1  0.967632  0.257482  0.749809  1
