# generated using pymatgen
data_Dy3TmIn4
_symmetry_space_group_name_H-M   'P 1'
_cell_length_a   6.48781878
_cell_length_b   6.48781740
_cell_length_c   10.26624600
_cell_angle_alpha   90.00000000
_cell_angle_beta   90.00000000
_cell_angle_gamma   103.18571284
_symmetry_Int_Tables_number   1
_chemical_formula_structural   Dy3TmIn4
_chemical_formula_sum   'Dy6 Tm2 In8'
_cell_volume   420.73199123
_cell_formula_units_Z   2
loop_
 _symmetry_equiv_pos_site_id
 _symmetry_equiv_pos_as_xyz
  1  'x, y, z'
loop_
 _atom_site_type_symbol
 _atom_site_label
 _atom_site_symmetry_multiplicity
 _atom_site_fract_x
 _atom_site_fract_y
 _atom_site_fract_z
 _atom_site_occupancy
  Dy  Dy0  1  0.523447  0.523447  0.250000  1
  Dy  Dy1  1  0.476553  0.476553  0.750000  1
  Dy  Dy2  1  0.246827  0.753173  0.500000  1
  Dy  Dy3  1  0.246827  0.753173  0.000000  1
  Dy  Dy4  1  0.753173  0.246827  0.500000  1
  Dy  Dy5  1  0.753173  0.246827  0.000000  1
  Tm  Tm6  1  0.989513  0.989513  0.250000  1
  Tm  Tm7  1  0.010487  0.010487  0.750000  1
  In  In8  1  0.252540  0.252540  0.011855  1
  In  In9  1  0.747460  0.747460  0.988145  1
  In  In10  1  0.252540  0.252540  0.488145  1
  In  In11  1  0.747460  0.747460  0.511855  1
  In  In12  1  0.494208  0.015151  0.250000  1
  In  In13  1  0.984849  0.505792  0.750000  1
  In  In14  1  0.505792  0.984849  0.750000  1
  In  In15  1  0.015151  0.494208  0.250000  1
