# generated using pymatgen
data_Cs4Li2DyScSb4
_symmetry_space_group_name_H-M   'P 1'
_cell_length_a   11.49130166
_cell_length_b   11.49130038
_cell_length_c   7.25164200
_cell_angle_alpha   90.00000000
_cell_angle_beta   90.00000000
_cell_angle_gamma   101.57098416
_symmetry_Int_Tables_number   1
_chemical_formula_structural   Cs4Li2DyScSb4
_chemical_formula_sum   'Cs8 Li4 Dy2 Sc2 Sb8'
_cell_volume   938.11839173
_cell_formula_units_Z   2
loop_
 _symmetry_equiv_pos_site_id
 _symmetry_equiv_pos_as_xyz
  1  'x, y, z'
loop_
 _atom_site_type_symbol
 _atom_site_label
 _atom_site_symmetry_multiplicity
 _atom_site_fract_x
 _atom_site_fract_y
 _atom_site_fract_z
 _atom_site_occupancy
  Cs  Cs0  1  0.571671  0.928329  0.750000  1
  Cs  Cs1  1  0.928329  0.571671  0.250000  1
  Cs  Cs2  1  0.425095  0.074905  0.250000  1
  Cs  Cs3  1  0.074905  0.425095  0.750000  1
  Cs  Cs4  1  0.671918  0.322580  0.776961  1
  Cs  Cs5  1  0.828082  0.177420  0.276961  1
  Cs  Cs6  1  0.322580  0.671918  0.223039  1
  Cs  Cs7  1  0.177420  0.828082  0.723039  1
  Li  Li8  1  0.619398  0.619398  0.000000  1
  Li  Li9  1  0.880602  0.880602  0.500000  1
  Li  Li10  1  0.376250  0.376250  0.000000  1
  Li  Li11  1  0.123750  0.123750  0.500000  1
  Dy  Dy12  1  0.871809  0.871809  0.000000  1
  Dy  Dy13  1  0.628191  0.628191  0.500000  1
  Sc  Sc14  1  0.131527  0.131527  0.000000  1
  Sc  Sc15  1  0.368473  0.368473  0.500000  1
  Sb  Sb16  1  0.332832  0.167168  0.750000  1
  Sb  Sb17  1  0.167168  0.332832  0.250000  1
  Sb  Sb18  1  0.659135  0.840865  0.250000  1
  Sb  Sb19  1  0.840865  0.659135  0.750000  1
  Sb  Sb20  1  0.919676  0.093081  0.767074  1
  Sb  Sb21  1  0.580324  0.406919  0.267074  1
  Sb  Sb22  1  0.093081  0.919676  0.232926  1
  Sb  Sb23  1  0.406919  0.580324  0.732926  1
