# generated using pymatgen
data_Tb10GaSi3Sb4
_symmetry_space_group_name_H-M   'P 1'
_cell_length_a   8.59288372
_cell_length_b   8.59288437
_cell_length_c   7.92519349
_cell_angle_alpha   89.89917909
_cell_angle_beta   89.89918417
_cell_angle_gamma   125.15431370
_symmetry_Int_Tables_number   1
_chemical_formula_structural   Tb10GaSi3Sb4
_chemical_formula_sum   'Tb10 Ga1 Si3 Sb4'
_cell_volume   478.44030518
_cell_formula_units_Z   1
loop_
 _symmetry_equiv_pos_site_id
 _symmetry_equiv_pos_as_xyz
  1  'x, y, z'
loop_
 _atom_site_type_symbol
 _atom_site_label
 _atom_site_symmetry_multiplicity
 _atom_site_fract_x
 _atom_site_fract_y
 _atom_site_fract_z
 _atom_site_occupancy
  Tb  Tb0  1  0.041335  0.295608  0.332087  1
  Tb  Tb1  1  0.957455  0.704274  0.668395  1
  Tb  Tb2  1  0.457696  0.203601  0.830656  1
  Tb  Tb3  1  0.797084  0.543174  0.168572  1
  Tb  Tb4  1  0.543174  0.797084  0.168572  1
  Tb  Tb5  1  0.203601  0.457696  0.830656  1
  Tb  Tb6  1  0.704274  0.957455  0.668395  1
  Tb  Tb7  1  0.295608  0.041335  0.332087  1
  Tb  Tb8  1  0.999171  0.999171  0.999404  1
  Tb  Tb9  1  0.500628  0.500628  0.500828  1
  Ga  Ga10  1  0.373675  0.373675  0.125880  1
  Si  Si11  1  0.626184  0.626184  0.874391  1
  Si  Si12  1  0.126393  0.126393  0.625582  1
  Si  Si13  1  0.873779  0.873779  0.374242  1
  Sb  Sb14  1  0.793530  0.206022  0.999980  1
  Sb  Sb15  1  0.206022  0.793530  0.999980  1
  Sb  Sb16  1  0.706449  0.293940  0.500148  1
  Sb  Sb17  1  0.293940  0.706449  0.500148  1
