# generated using pymatgen
data_PrSmU4O12
_symmetry_space_group_name_H-M   'P 1'
_cell_length_a   6.68728042
_cell_length_b   6.68728065
_cell_length_c   6.65973470
_cell_angle_alpha   80.35130243
_cell_angle_beta   80.35129104
_cell_angle_gamma   120.17724283
_symmetry_Int_Tables_number   1
_chemical_formula_structural   PrSmU4O12
_chemical_formula_sum   'Pr1 Sm1 U4 O12'
_cell_volume   242.48040371
_cell_formula_units_Z   1
loop_
 _symmetry_equiv_pos_site_id
 _symmetry_equiv_pos_as_xyz
  1  'x, y, z'
loop_
 _atom_site_type_symbol
 _atom_site_label
 _atom_site_symmetry_multiplicity
 _atom_site_fract_x
 _atom_site_fract_y
 _atom_site_fract_z
 _atom_site_occupancy
  Pr  Pr0  1  0.499866  0.500134  0.500000  1
  Sm  Sm1  1  0.833567  0.166433  0.500000  1
  U  U2  1  0.167004  0.832996  0.500000  1
  U  U3  1  0.668084  0.331916  0.000000  1
  U  U4  1  0.001003  0.998997  0.000000  1
  U  U5  1  0.330721  0.669279  0.000000  1
  O  O6  1  0.113142  0.103968  0.642274  1
  O  O7  1  0.701044  0.039830  0.888441  1
  O  O8  1  0.960170  0.298956  0.111559  1
  O  O9  1  0.367154  0.364198  0.893847  1
  O  O10  1  0.042698  0.707263  0.884315  1
  O  O11  1  0.530883  0.194508  0.362130  1
  O  O12  1  0.896032  0.886858  0.357726  1
  O  O13  1  0.442856  0.788253  0.640929  1
  O  O14  1  0.635802  0.632846  0.106153  1
  O  O15  1  0.292737  0.957302  0.115685  1
  O  O16  1  0.805492  0.469117  0.637870  1
  O  O17  1  0.211747  0.557144  0.359071  1
