# generated using pymatgen
data_Cs4Na2HoIn(BiSb)2
_symmetry_space_group_name_H-M   'P 1'
_cell_length_a   10.39463401
_cell_length_b   10.39463367
_cell_length_c   10.39463400
_cell_angle_alpha   137.33149716
_cell_angle_beta   61.22245401
_cell_angle_gamma   138.25564543
_symmetry_Int_Tables_number   1
_chemical_formula_structural   Cs4Na2HoIn(BiSb)2
_chemical_formula_sum   'Cs4 Na2 Ho1 In1 Bi2 Sb2'
_cell_volume   501.16340542
_cell_formula_units_Z   1
loop_
 _symmetry_equiv_pos_site_id
 _symmetry_equiv_pos_as_xyz
  1  'x, y, z'
loop_
 _atom_site_type_symbol
 _atom_site_label
 _atom_site_symmetry_multiplicity
 _atom_site_fract_x
 _atom_site_fract_y
 _atom_site_fract_z
 _atom_site_occupancy
  Cs  Cs0  1  0.330780  0.774393  0.094912  1
  Cs  Cs1  1  0.169220  0.264132  0.443614  1
  Cs  Cs2  1  0.820439  0.725163  0.556927  1
  Cs  Cs3  1  0.679562  0.236489  0.904725  1
  Na  Na4  1  0.750000  0.252528  0.502528  1
  Na  Na5  1  0.250000  0.751663  0.501663  1
  Ho  Ho6  1  0.250000  0.245994  0.995994  1
  In  In7  1  0.750000  0.745912  0.995912  1
  Bi  Bi8  1  0.898591  0.221066  0.127196  1
  Bi  Bi9  1  0.601409  0.728604  0.322476  1
  Sb  Sb10  1  0.409743  0.281336  0.682462  1
  Sb  Sb11  1  0.090257  0.772719  0.871593  1
