# generated using pymatgen
data_Y7Ho3(SnSb)3
_symmetry_space_group_name_H-M   'P 1'
_cell_length_a   6.41435700
_cell_length_b   8.99370898
_cell_length_c   8.99365200
_cell_angle_alpha   120.00009489
_cell_angle_beta   90.00001281
_cell_angle_gamma   90.00025115
_symmetry_Int_Tables_number   1
_chemical_formula_structural   Y7Ho3(SnSb)3
_chemical_formula_sum   'Y7 Ho3 Sn3 Sb3'
_cell_volume   449.32258968
_cell_formula_units_Z   1
loop_
 _symmetry_equiv_pos_site_id
 _symmetry_equiv_pos_as_xyz
  1  'x, y, z'
loop_
 _atom_site_type_symbol
 _atom_site_label
 _atom_site_symmetry_multiplicity
 _atom_site_fract_x
 _atom_site_fract_y
 _atom_site_fract_z
 _atom_site_occupancy
  Y  Y0  1  0.999429  0.333330  0.666663  1
  Y  Y1  1  0.749973  0.241852  0.000025  1
  Y  Y2  1  0.749977  0.758196  0.758167  1
  Y  Y3  1  0.749979  0.999980  0.241811  1
  Y  Y4  1  0.250029  0.757299  0.999993  1
  Y  Y5  1  0.250035  0.242668  0.242678  1
  Y  Y6  1  0.250031  0.000002  0.757326  1
  Ho  Ho7  1  0.500632  0.333334  0.666666  1
  Ho  Ho8  1  0.500750  0.666667  0.333335  1
  Ho  Ho9  1  0.999206  0.666669  0.333336  1
  Sn  Sn10  1  0.749723  0.607404  0.000274  1
  Sn  Sn11  1  0.749723  0.392886  0.392606  1
  Sn  Sn12  1  0.749723  0.999730  0.607119  1
  Sb  Sb13  1  0.250258  0.391328  0.000227  1
  Sb  Sb14  1  0.250268  0.608884  0.608664  1
  Sb  Sb15  1  0.250267  0.999769  0.391110  1
