# generated using pymatgen
data_Ho2ErTm(ReB6)2
_symmetry_space_group_name_H-M   'P 1'
_cell_length_a   3.65887100
_cell_length_b   9.13049101
_cell_length_c   11.51092802
_cell_angle_alpha   90.00618472
_cell_angle_beta   90.00000000
_cell_angle_gamma   90.00000000
_symmetry_Int_Tables_number   1
_chemical_formula_structural   Ho2ErTm(ReB6)2
_chemical_formula_sum   'Ho4 Er2 Tm2 Re4 B24'
_cell_volume   384.54889419
_cell_formula_units_Z   2
loop_
 _symmetry_equiv_pos_site_id
 _symmetry_equiv_pos_as_xyz
  1  'x, y, z'
loop_
 _atom_site_type_symbol
 _atom_site_label
 _atom_site_symmetry_multiplicity
 _atom_site_fract_x
 _atom_site_fract_y
 _atom_site_fract_z
 _atom_site_occupancy
  Ho  Ho0  1  0.000000  0.323461  0.413902  1
  Ho  Ho1  1  0.000000  0.676539  0.586098  1
  Ho  Ho2  1  0.000000  0.823357  0.086027  1
  Ho  Ho3  1  0.000000  0.176643  0.913973  1
  Er  Er4  1  0.000000  0.943285  0.370176  1
  Er  Er5  1  0.000000  0.056715  0.629824  1
  Tm  Tm6  1  0.000000  0.443321  0.129730  1
  Tm  Tm7  1  0.000000  0.556679  0.870270  1
  Re  Re8  1  0.000000  0.638713  0.320362  1
  Re  Re9  1  0.000000  0.361287  0.679638  1
  Re  Re10  1  0.000000  0.139218  0.179362  1
  Re  Re11  1  0.000000  0.860782  0.820638  1
  B  B12  1  0.500000  0.553344  0.432915  1
  B  B13  1  0.500000  0.446656  0.567085  1
  B  B14  1  0.500000  0.053401  0.067043  1
  B  B15  1  0.500000  0.946599  0.932957  1
  B  B16  1  0.500000  0.749783  0.418722  1
  B  B17  1  0.500000  0.250217  0.581278  1
  B  B18  1  0.500000  0.250141  0.081271  1
  B  B19  1  0.500000  0.749859  0.918729  1
  B  B20  1  0.500000  0.792553  0.265331  1
  B  B21  1  0.500000  0.207447  0.734669  1
  B  B22  1  0.500000  0.292885  0.234565  1
  B  B23  1  0.500000  0.707115  0.765435  1
  B  B24  1  0.500000  0.630551  0.185081  1
  B  B25  1  0.500000  0.369449  0.814919  1
  B  B26  1  0.500000  0.130877  0.314730  1
  B  B27  1  0.500000  0.869123  0.685270  1
  B  B28  1  0.500000  0.982006  0.212123  1
  B  B29  1  0.500000  0.017994  0.787877  1
  B  B30  1  0.500000  0.481826  0.287672  1
  B  B31  1  0.500000  0.518174  0.712328  1
  B  B32  1  0.500000  0.599109  0.027644  1
  B  B33  1  0.500000  0.400891  0.972356  1
  B  B34  1  0.500000  0.099516  0.472255  1
  B  B35  1  0.500000  0.900484  0.527745  1
