# generated using pymatgen
data_Tb10CuSnBi5As
_symmetry_space_group_name_H-M   'P 1'
_cell_length_a   9.36492499
_cell_length_b   9.36492469
_cell_length_c   6.45954501
_cell_angle_alpha   89.99743199
_cell_angle_beta   89.99743648
_cell_angle_gamma   119.92540122
_symmetry_Int_Tables_number   1
_chemical_formula_structural   Tb10CuSnBi5As
_chemical_formula_sum   'Tb10 Cu1 Sn1 Bi5 As1'
_cell_volume   490.98375413
_cell_formula_units_Z   1
loop_
 _symmetry_equiv_pos_site_id
 _symmetry_equiv_pos_as_xyz
  1  'x, y, z'
loop_
 _atom_site_type_symbol
 _atom_site_label
 _atom_site_symmetry_multiplicity
 _atom_site_fract_x
 _atom_site_fract_y
 _atom_site_fract_z
 _atom_site_occupancy
  Tb  Tb0  1  0.663327  0.334174  0.498823  1
  Tb  Tb1  1  0.334174  0.663327  0.498823  1
  Tb  Tb2  1  0.333701  0.663638  0.001207  1
  Tb  Tb3  1  0.663638  0.333701  0.001207  1
  Tb  Tb4  1  0.746481  0.746481  0.247581  1
  Tb  Tb5  1  0.253286  0.005114  0.248062  1
  Tb  Tb6  1  0.005114  0.253286  0.248062  1
  Tb  Tb7  1  0.252045  0.252045  0.751938  1
  Tb  Tb8  1  0.748826  0.999935  0.751983  1
  Tb  Tb9  1  0.999935  0.748826  0.751983  1
  Cu  Cu10  1  0.000018  0.000018  0.000360  1
  Sn  Sn11  1  0.391100  0.391100  0.248390  1
  Bi  Bi12  1  0.611011  0.000737  0.248294  1
  Bi  Bi13  1  0.000737  0.611011  0.248294  1
  Bi  Bi14  1  0.609629  0.609629  0.752397  1
  Bi  Bi15  1  0.389669  0.998375  0.751278  1
  Bi  Bi16  1  0.998375  0.389669  0.751278  1
  As  As17  1  0.998934  0.998934  0.500041  1
