# generated using pymatgen
data_Tm4Al18Ni5Os
_symmetry_space_group_name_H-M   'P 1'
_cell_length_a   7.41746592
_cell_length_b   7.41735383
_cell_length_c   9.27666300
_cell_angle_alpha   89.79746167
_cell_angle_beta   89.78356064
_cell_angle_gamma   119.02624097
_symmetry_Int_Tables_number   1
_chemical_formula_structural   Tm4Al18Ni5Os
_chemical_formula_sum   'Tm4 Al18 Ni5 Os1'
_cell_volume   446.26620460
_cell_formula_units_Z   1
loop_
 _symmetry_equiv_pos_site_id
 _symmetry_equiv_pos_as_xyz
  1  'x, y, z'
loop_
 _atom_site_type_symbol
 _atom_site_label
 _atom_site_symmetry_multiplicity
 _atom_site_fract_x
 _atom_site_fract_y
 _atom_site_fract_z
 _atom_site_occupancy
  Tm  Tm0  1  0.993685  0.675544  0.249519  1
  Tm  Tm1  1  0.006315  0.324456  0.750481  1
  Tm  Tm2  1  0.675542  0.993676  0.249522  1
  Tm  Tm3  1  0.324458  0.006324  0.750478  1
  Al  Al4  1  0.131573  0.131569  0.252304  1
  Al  Al5  1  0.868427  0.868431  0.747696  1
  Al  Al6  1  0.997463  0.337243  0.073809  1
  Al  Al7  1  0.002537  0.662757  0.926191  1
  Al  Al8  1  0.003061  0.663047  0.575049  1
  Al  Al9  1  0.336953  0.996978  0.424949  1
  Al  Al10  1  0.996939  0.336953  0.424951  1
  Al  Al11  1  0.663047  0.003022  0.575051  1
  Al  Al12  1  0.662759  0.002551  0.926190  1
  Al  Al13  1  0.337241  0.997449  0.073810  1
  Al  Al14  1  0.332301  0.332330  0.548904  1
  Al  Al15  1  0.667699  0.667670  0.451096  1
  Al  Al16  1  0.665634  0.665642  0.048745  1
  Al  Al17  1  0.334366  0.334358  0.951255  1
  Al  Al18  1  0.341657  0.557826  0.249966  1
  Al  Al19  1  0.658343  0.442174  0.750034  1
  Al  Al20  1  0.557851  0.341656  0.250030  1
  Al  Al21  1  0.442149  0.658344  0.749970  1
  Ni  Ni22  1  0.670983  0.329070  0.999952  1
  Ni  Ni23  1  0.329017  0.670930  0.000048  1
  Ni  Ni24  1  0.328860  0.671219  0.500024  1
  Ni  Ni25  1  0.671140  0.328781  0.499976  1
  Ni  Ni26  1  0.000000  0.000000  0.500000  1
  Os  Os27  1  0.000000  0.000000  0.000000  1
