# generated using pymatgen
data_SmThSn4
_symmetry_space_group_name_H-M   'P 1'
_cell_length_a   8.75138990
_cell_length_b   8.75138997
_cell_length_c   4.39062000
_cell_angle_alpha   90.00000000
_cell_angle_beta   90.00000000
_cell_angle_gamma   149.87021361
_symmetry_Int_Tables_number   1
_chemical_formula_structural   SmThSn4
_chemical_formula_sum   'Sm1 Th1 Sn4'
_cell_volume   168.79104800
_cell_formula_units_Z   1
loop_
 _symmetry_equiv_pos_site_id
 _symmetry_equiv_pos_as_xyz
  1  'x, y, z'
loop_
 _atom_site_type_symbol
 _atom_site_label
 _atom_site_symmetry_multiplicity
 _atom_site_fract_x
 _atom_site_fract_y
 _atom_site_fract_z
 _atom_site_occupancy
  Sm  Sm0  1  0.898898  0.101102  0.750000  1
  Th  Th1  1  0.102005  0.897995  0.250000  1
  Sn  Sn2  1  0.560853  0.439147  0.750000  1
  Sn  Sn3  1  0.437367  0.562633  0.250000  1
  Sn  Sn4  1  0.251823  0.748177  0.750000  1
  Sn  Sn5  1  0.749054  0.250946  0.250000  1
