# generated using pymatgen
data_TbTm2Si2Ni
_symmetry_space_group_name_H-M   'P 1'
_cell_length_a   4.09058500
_cell_length_b   11.24967200
_cell_length_c   11.17901000
_cell_angle_alpha   90.00000000
_cell_angle_beta   90.00000000
_cell_angle_gamma   90.00000000
_symmetry_Int_Tables_number   1
_chemical_formula_structural   TbTm2Si2Ni
_chemical_formula_sum   'Tb4 Tm8 Si8 Ni4'
_cell_volume   514.43277047
_cell_formula_units_Z   4
loop_
 _symmetry_equiv_pos_site_id
 _symmetry_equiv_pos_as_xyz
  1  'x, y, z'
loop_
 _atom_site_type_symbol
 _atom_site_label
 _atom_site_symmetry_multiplicity
 _atom_site_fract_x
 _atom_site_fract_y
 _atom_site_fract_z
 _atom_site_occupancy
  Tb  Tb0  1  0.250000  0.374569  0.056593  1
  Tb  Tb1  1  0.750000  0.625431  0.943407  1
  Tb  Tb2  1  0.750000  0.874569  0.443407  1
  Tb  Tb3  1  0.250000  0.125431  0.556593  1
  Tm  Tm4  1  0.250000  0.696193  0.216306  1
  Tm  Tm5  1  0.750000  0.303807  0.783694  1
  Tm  Tm6  1  0.750000  0.196193  0.283694  1
  Tm  Tm7  1  0.250000  0.803807  0.716306  1
  Tm  Tm8  1  0.250000  0.441386  0.382996  1
  Tm  Tm9  1  0.750000  0.558614  0.617004  1
  Tm  Tm10  1  0.750000  0.941386  0.117004  1
  Tm  Tm11  1  0.250000  0.058614  0.882996  1
  Si  Si12  1  0.250000  0.684689  0.476811  1
  Si  Si13  1  0.750000  0.315311  0.523189  1
  Si  Si14  1  0.750000  0.184689  0.023189  1
  Si  Si15  1  0.250000  0.815311  0.976811  1
  Si  Si16  1  0.250000  0.004989  0.301873  1
  Si  Si17  1  0.750000  0.995011  0.698127  1
  Si  Si18  1  0.750000  0.504989  0.198127  1
  Si  Si19  1  0.250000  0.495011  0.801873  1
  Ni  Ni20  1  0.250000  0.132539  0.129635  1
  Ni  Ni21  1  0.750000  0.867461  0.870365  1
  Ni  Ni22  1  0.750000  0.632539  0.370365  1
  Ni  Ni23  1  0.250000  0.367461  0.629635  1
