# generated using pymatgen
data_Lu4MgNi2Hg
_symmetry_space_group_name_H-M   'P 1'
_cell_length_a   8.42190902
_cell_length_b   8.42190914
_cell_length_c   8.42190879
_cell_angle_alpha   128.92630103
_cell_angle_beta   128.92630076
_cell_angle_gamma   75.12918978
_symmetry_Int_Tables_number   1
_chemical_formula_structural   Lu4MgNi2Hg
_chemical_formula_sum   'Lu8 Mg2 Ni4 Hg2'
_cell_volume   351.98249217
_cell_formula_units_Z   2
loop_
 _symmetry_equiv_pos_site_id
 _symmetry_equiv_pos_as_xyz
  1  'x, y, z'
loop_
 _atom_site_type_symbol
 _atom_site_label
 _atom_site_symmetry_multiplicity
 _atom_site_fract_x
 _atom_site_fract_y
 _atom_site_fract_z
 _atom_site_occupancy
  Lu  Lu0  1  0.799706  0.299706  0.839367  1
  Lu  Lu1  1  0.200294  0.700294  0.160633  1
  Lu  Lu2  1  0.460340  0.960340  0.160633  1
  Lu  Lu3  1  0.299706  0.460340  0.500000  1
  Lu  Lu4  1  0.039660  0.200294  0.500000  1
  Lu  Lu5  1  0.539660  0.039660  0.839367  1
  Lu  Lu6  1  0.700294  0.539660  0.500000  1
  Lu  Lu7  1  0.960340  0.799706  0.500000  1
  Mg  Mg8  1  0.000000  0.000000  0.000000  1
  Mg  Mg9  1  0.500000  0.500000  0.000000  1
  Ni  Ni10  1  0.127692  0.627692  0.755384  1
  Ni  Ni11  1  0.872308  0.372308  0.244616  1
  Ni  Ni12  1  0.627692  0.872308  0.500000  1
  Ni  Ni13  1  0.372308  0.127692  0.500000  1
  Hg  Hg14  1  0.250000  0.250000  0.000000  1
  Hg  Hg15  1  0.750000  0.750000  0.000000  1
