# generated using pymatgen
data_Dy2NiB8Pt
_symmetry_space_group_name_H-M   'P 1'
_cell_length_a   6.93453487
_cell_length_b   6.93453557
_cell_length_c   6.93453597
_cell_angle_alpha   111.41615039
_cell_angle_beta   113.47585136
_cell_angle_gamma   103.67996281
_symmetry_Int_Tables_number   1
_chemical_formula_structural   Dy2NiB8Pt
_chemical_formula_sum   'Dy4 Ni2 B16 Pt2'
_cell_volume   254.67059265
_cell_formula_units_Z   2
loop_
 _symmetry_equiv_pos_site_id
 _symmetry_equiv_pos_as_xyz
  1  'x, y, z'
loop_
 _atom_site_type_symbol
 _atom_site_label
 _atom_site_symmetry_multiplicity
 _atom_site_fract_x
 _atom_site_fract_y
 _atom_site_fract_z
 _atom_site_occupancy
  Dy  Dy0  1  0.796439  0.796439  0.000000  1
  Dy  Dy1  1  0.203561  0.203561  0.000000  1
  Dy  Dy2  1  0.747305  0.247305  0.500000  1
  Dy  Dy3  1  0.252695  0.752695  0.500000  1
  Ni  Ni4  1  0.500000  0.744107  0.244107  1
  Ni  Ni5  1  0.500000  0.255893  0.755893  1
  B  B6  1  0.272043  0.108068  0.380111  1
  B  B7  1  0.727957  0.891932  0.619889  1
  B  B8  1  0.272043  0.891932  0.163975  1
  B  B9  1  0.727957  0.108068  0.836025  1
  B  B10  1  0.110148  0.734335  0.844484  1
  B  B11  1  0.889852  0.265665  0.155516  1
  B  B12  1  0.110148  0.265665  0.375812  1
  B  B13  1  0.889852  0.734335  0.624188  1
  B  B14  1  0.113823  0.106053  0.526309  1
  B  B15  1  0.579743  0.587512  0.473691  1
  B  B16  1  0.113823  0.587512  0.007770  1
  B  B17  1  0.579743  0.106053  0.992230  1
  B  B18  1  0.886177  0.893947  0.473691  1
  B  B19  1  0.420257  0.412488  0.526309  1
  B  B20  1  0.886177  0.412488  0.992230  1
  B  B21  1  0.420257  0.893947  0.007770  1
  Pt  Pt22  1  0.273886  0.500000  0.773886  1
  Pt  Pt23  1  0.726114  0.500000  0.226114  1
