# generated using pymatgen
data_YHoSn(AsRh2)6
_symmetry_space_group_name_H-M   'P 1'
_cell_length_a   10.08058200
_cell_length_b   10.08058242
_cell_length_c   3.95332700
_cell_angle_alpha   90.00000000
_cell_angle_beta   90.00000000
_cell_angle_gamma   120.00000520
_symmetry_Int_Tables_number   1
_chemical_formula_structural   YHoSn(AsRh2)6
_chemical_formula_sum   'Y1 Ho1 Sn1 As6 Rh12'
_cell_volume   347.90813105
_cell_formula_units_Z   1
loop_
 _symmetry_equiv_pos_site_id
 _symmetry_equiv_pos_as_xyz
  1  'x, y, z'
loop_
 _atom_site_type_symbol
 _atom_site_label
 _atom_site_symmetry_multiplicity
 _atom_site_fract_x
 _atom_site_fract_y
 _atom_site_fract_z
 _atom_site_occupancy
  Y  Y0  1  0.000000  0.000000  0.249116  1
  Ho  Ho1  1  0.333333  0.666667  0.751574  1
  Sn  Sn2  1  0.666667  0.333333  0.591835  1
  As  As3  1  0.955326  0.215585  0.747827  1
  As  As4  1  0.784415  0.739742  0.747827  1
  As  As5  1  0.260258  0.044674  0.747827  1
  As  As6  1  0.377422  0.449444  0.253367  1
  As  As7  1  0.550556  0.927978  0.253367  1
  As  As8  1  0.072022  0.622578  0.253367  1
  Rh  Rh9  1  0.733880  0.951300  0.749846  1
  Rh  Rh10  1  0.048700  0.782580  0.749846  1
  Rh  Rh11  1  0.217420  0.266120  0.749846  1
  Rh  Rh12  1  0.601372  0.718543  0.252183  1
  Rh  Rh13  1  0.281457  0.882830  0.252183  1
  Rh  Rh14  1  0.117170  0.398628  0.252183  1
  Rh  Rh15  1  0.954576  0.459551  0.756413  1
  Rh  Rh16  1  0.540449  0.495025  0.756413  1
  Rh  Rh17  1  0.504975  0.045424  0.756413  1
  Rh  Rh18  1  0.393974  0.212096  0.244251  1
  Rh  Rh19  1  0.787904  0.181878  0.244251  1
  Rh  Rh20  1  0.818122  0.606026  0.244251  1
