# generated using pymatgen
data_Tb2Al20ReRh3
_symmetry_space_group_name_H-M   'P 1'
_cell_length_a   6.87648070
_cell_length_b   6.88522399
_cell_length_c   9.20075385
_cell_angle_alpha   90.32533170
_cell_angle_beta   90.39453898
_cell_angle_gamma   97.17408939
_symmetry_Int_Tables_number   1
_chemical_formula_structural   Tb2Al20ReRh3
_chemical_formula_sum   'Tb2 Al20 Re1 Rh3'
_cell_volume   432.18992489
_cell_formula_units_Z   1
loop_
 _symmetry_equiv_pos_site_id
 _symmetry_equiv_pos_as_xyz
  1  'x, y, z'
loop_
 _atom_site_type_symbol
 _atom_site_label
 _atom_site_symmetry_multiplicity
 _atom_site_fract_x
 _atom_site_fract_y
 _atom_site_fract_z
 _atom_site_occupancy
  Tb  Tb0  1  0.867129  0.125959  0.749111  1
  Tb  Tb1  1  0.132871  0.874041  0.250889  1
  Al  Al2  1  0.620596  0.375942  0.548005  1
  Al  Al3  1  0.379404  0.624058  0.451995  1
  Al  Al4  1  0.378303  0.622448  0.049945  1
  Al  Al5  1  0.621697  0.377552  0.950055  1
  Al  Al6  1  0.221480  0.221323  0.499417  1
  Al  Al7  1  0.778520  0.778677  0.500583  1
  Al  Al8  1  0.776574  0.776797  0.999359  1
  Al  Al9  1  0.223426  0.223203  0.000641  1
  Al  Al10  1  0.844656  0.156912  0.103304  1
  Al  Al11  1  0.155344  0.843088  0.896696  1
  Al  Al12  1  0.155833  0.845025  0.601564  1
  Al  Al13  1  0.844167  0.154975  0.398436  1
  Al  Al14  1  0.856720  0.589009  0.749582  1
  Al  Al15  1  0.143280  0.410991  0.250418  1
  Al  Al16  1  0.410492  0.143109  0.749931  1
  Al  Al17  1  0.589508  0.856891  0.250069  1
  Al  Al18  1  0.223629  0.480702  0.750513  1
  Al  Al19  1  0.776371  0.519298  0.249487  1
  Al  Al20  1  0.518547  0.777632  0.745847  1
  Al  Al21  1  0.481453  0.222368  0.254153  1
  Re  Re22  1  0.500000  0.000000  0.500000  1
  Rh  Rh23  1  0.000000  0.500000  0.500000  1
  Rh  Rh24  1  0.000000  0.500000  0.000000  1
  Rh  Rh25  1  0.500000  0.000000  0.000000  1
