# generated using pymatgen
data_SrPr5YIrBr12
_symmetry_space_group_name_H-M   'P 1'
_cell_length_a   9.68905700
_cell_length_b   9.60581450
_cell_length_c   9.52888578
_cell_angle_alpha   106.38930602
_cell_angle_beta   106.62653598
_cell_angle_gamma   105.99965677
_symmetry_Int_Tables_number   1
_chemical_formula_structural   SrPr5YIrBr12
_chemical_formula_sum   'Sr1 Pr5 Y1 Ir1 Br12'
_cell_volume   751.50198492
_cell_formula_units_Z   1
loop_
 _symmetry_equiv_pos_site_id
 _symmetry_equiv_pos_as_xyz
  1  'x, y, z'
loop_
 _atom_site_type_symbol
 _atom_site_label
 _atom_site_symmetry_multiplicity
 _atom_site_fract_x
 _atom_site_fract_y
 _atom_site_fract_z
 _atom_site_occupancy
  Sr  Sr0  1  0.499418  0.500847  0.498074  1
  Pr  Pr1  1  0.315359  0.016927  0.106413  1
  Pr  Pr2  1  0.021308  0.105022  0.308036  1
  Pr  Pr3  1  0.980304  0.900353  0.694592  1
  Pr  Pr4  1  0.685178  0.981622  0.894095  1
  Pr  Pr5  1  0.894565  0.681519  0.980289  1
  Y  Y6  1  0.103490  0.308548  0.021109  1
  Ir  Ir7  1  0.000784  0.000309  0.001633  1
  Br  Br8  1  0.215019  0.669518  0.070687  1
  Br  Br9  1  0.437956  0.366193  0.143072  1
  Br  Br10  1  0.682276  0.075769  0.220953  1
  Br  Br11  1  0.927567  0.783303  0.322085  1
  Br  Br12  1  0.151446  0.451434  0.358581  1
  Br  Br13  1  0.368486  0.154431  0.453973  1
  Br  Br14  1  0.632096  0.847987  0.546378  1
  Br  Br15  1  0.846516  0.549503  0.629871  1
  Br  Br16  1  0.076073  0.226792  0.691743  1
  Br  Br17  1  0.317656  0.925392  0.779524  1
  Br  Br18  1  0.550503  0.633346  0.849639  1
  Br  Br19  1  0.794004  0.321188  0.929255  1
