# generated using pymatgen
data_La3Eu13(CdNi)4
_symmetry_space_group_name_H-M   'P 1'
_cell_length_a   10.15909740
_cell_length_b   10.15528054
_cell_length_c   10.15528000
_cell_angle_alpha   60.00000177
_cell_angle_beta   60.01242931
_cell_angle_gamma   60.01242848
_symmetry_Int_Tables_number   1
_chemical_formula_structural   La3Eu13(CdNi)4
_chemical_formula_sum   'La3 Eu13 Cd4 Ni4'
_cell_volume   740.97835504
_cell_formula_units_Z   1
loop_
 _symmetry_equiv_pos_site_id
 _symmetry_equiv_pos_as_xyz
  1  'x, y, z'
loop_
 _atom_site_type_symbol
 _atom_site_label
 _atom_site_symmetry_multiplicity
 _atom_site_fract_x
 _atom_site_fract_y
 _atom_site_fract_z
 _atom_site_occupancy
  La  La0  1  0.594321  0.594830  0.594830  1
  La  La1  1  0.594321  0.594830  0.216021  1
  La  La2  1  0.594321  0.216021  0.594830  1
  Eu  Eu3  1  0.206212  0.597930  0.597930  1
  Eu  Eu4  1  0.057962  0.442358  0.442358  1
  Eu  Eu5  1  0.442108  0.058118  0.058118  1
  Eu  Eu6  1  0.442108  0.058118  0.441656  1
  Eu  Eu7  1  0.057962  0.442358  0.057322  1
  Eu  Eu8  1  0.442108  0.441656  0.058118  1
  Eu  Eu9  1  0.057962  0.057322  0.442358  1
  Eu  Eu10  1  0.188253  0.810783  0.810783  1
  Eu  Eu11  1  0.811172  0.188338  0.188338  1
  Eu  Eu12  1  0.811172  0.188338  0.812152  1
  Eu  Eu13  1  0.188253  0.810783  0.190181  1
  Eu  Eu14  1  0.811172  0.812152  0.188338  1
  Eu  Eu15  1  0.188253  0.190181  0.810783  1
  Cd  Cd16  1  0.828079  0.828498  0.828498  1
  Cd  Cd17  1  0.828079  0.828498  0.514925  1
  Cd  Cd18  1  0.828079  0.514925  0.828498  1
  Cd  Cd19  1  0.513652  0.828783  0.828783  1
  Ni  Ni20  1  0.400199  0.390909  0.390909  1
  Ni  Ni21  1  0.400199  0.390909  0.817984  1
  Ni  Ni22  1  0.400199  0.817984  0.390909  1
  Ni  Ni23  1  0.813855  0.395382  0.395382  1
