# generated using pymatgen
data_Ho8TaSi16Tc11
_symmetry_space_group_name_H-M   'P 1'
_cell_length_a   6.78801669
_cell_length_b   6.78801795
_cell_length_c   12.70405700
_cell_angle_alpha   89.77424384
_cell_angle_beta   90.22575620
_cell_angle_gamma   89.98506328
_symmetry_Int_Tables_number   1
_chemical_formula_structural   Ho8TaSi16Tc11
_chemical_formula_sum   'Ho8 Ta1 Si16 Tc11'
_cell_volume   585.35800028
_cell_formula_units_Z   1
loop_
 _symmetry_equiv_pos_site_id
 _symmetry_equiv_pos_as_xyz
  1  'x, y, z'
loop_
 _atom_site_type_symbol
 _atom_site_label
 _atom_site_symmetry_multiplicity
 _atom_site_fract_x
 _atom_site_fract_y
 _atom_site_fract_z
 _atom_site_occupancy
  Ho  Ho0  1  0.337287  0.990399  0.468658  1
  Ho  Ho1  1  0.505180  0.837915  0.718075  1
  Ho  Ho2  1  0.497548  0.159647  0.221543  1
  Ho  Ho3  1  0.837915  0.505180  0.281925  1
  Ho  Ho4  1  0.159647  0.497548  0.778457  1
  Ho  Ho5  1  0.666416  0.005852  0.968494  1
  Ho  Ho6  1  0.990399  0.337287  0.531342  1
  Ho  Ho7  1  0.005852  0.666416  0.031506  1
  Ta  Ta8  1  0.335607  0.335607  0.000000  1
  Si  Si9  1  0.193707  0.114387  0.684767  1
  Si  Si10  1  0.379437  0.703763  0.932766  1
  Si  Si11  1  0.614276  0.303793  0.433653  1
  Si  Si12  1  0.703763  0.379437  0.067234  1
  Si  Si13  1  0.303793  0.614276  0.566347  1
  Si  Si14  1  0.809157  0.886794  0.186172  1
  Si  Si15  1  0.114387  0.193707  0.315233  1
  Si  Si16  1  0.886794  0.809157  0.813828  1
  Si  Si17  1  0.285747  0.969333  0.066006  1
  Si  Si18  1  0.516566  0.762663  0.312224  1
  Si  Si19  1  0.484034  0.229675  0.805428  1
  Si  Si20  1  0.762663  0.516566  0.687776  1
  Si  Si21  1  0.229675  0.484034  0.194572  1
  Si  Si22  1  0.720408  0.020735  0.561249  1
  Si  Si23  1  0.969333  0.285747  0.933994  1
  Si  Si24  1  0.020735  0.720408  0.438751  1
  Tc  Tc25  1  0.167003  0.835891  0.249840  1
  Tc  Tc26  1  0.835891  0.167003  0.750160  1
  Tc  Tc27  1  0.663700  0.663700  0.500000  1
  Tc  Tc28  1  0.187343  0.000548  0.871754  1
  Tc  Tc29  1  0.518134  0.679766  0.119468  1
  Tc  Tc30  1  0.474852  0.308697  0.614609  1
  Tc  Tc31  1  0.679766  0.518134  0.880532  1
  Tc  Tc32  1  0.308697  0.474852  0.385391  1
  Tc  Tc33  1  0.821004  0.012737  0.372593  1
  Tc  Tc34  1  0.000548  0.187343  0.128246  1
  Tc  Tc35  1  0.012737  0.821004  0.627407  1
