# generated using pymatgen
data_Ho2Tm2Pd3PtO14
_symmetry_space_group_name_H-M   'P 1'
_cell_length_a   7.22122723
_cell_length_b   7.21224632
_cell_length_c   7.22322711
_cell_angle_alpha   59.96316674
_cell_angle_beta   60.00915817
_cell_angle_gamma   59.95879243
_symmetry_Int_Tables_number   1
_chemical_formula_structural   Ho2Tm2Pd3PtO14
_chemical_formula_sum   'Ho2 Tm2 Pd3 Pt1 O14'
_cell_volume   265.87129484
_cell_formula_units_Z   1
loop_
 _symmetry_equiv_pos_site_id
 _symmetry_equiv_pos_as_xyz
  1  'x, y, z'
loop_
 _atom_site_type_symbol
 _atom_site_label
 _atom_site_symmetry_multiplicity
 _atom_site_fract_x
 _atom_site_fract_y
 _atom_site_fract_z
 _atom_site_occupancy
  Ho  Ho0  1  0.625000  0.625000  0.125000  1
  Ho  Ho1  1  0.625000  0.125000  0.625000  1
  Tm  Tm2  1  0.625000  0.625000  0.625000  1
  Tm  Tm3  1  0.125000  0.625000  0.625000  1
  Pd  Pd4  1  0.125000  0.125000  0.125000  1
  Pd  Pd5  1  0.625000  0.125000  0.125000  1
  Pd  Pd6  1  0.125000  0.125000  0.625000  1
  Pt  Pt7  1  0.125000  0.625000  0.125000  1
  O  O8  1  0.032215  0.468838  0.466731  1
  O  O9  1  0.783610  0.781481  0.218522  1
  O  O10  1  0.783464  0.216557  0.216515  1
  O  O11  1  0.466860  0.032021  0.466933  1
  O  O12  1  0.034186  0.032021  0.466933  1
  O  O13  1  0.033612  0.468519  0.031478  1
  O  O14  1  0.752036  0.747686  0.748241  1
  O  O15  1  0.497964  0.502314  0.501759  1
  O  O16  1  0.783140  0.217979  0.783067  1
  O  O17  1  0.216388  0.781481  0.218522  1
  O  O18  1  0.215814  0.217979  0.783067  1
  O  O19  1  0.466536  0.033443  0.033485  1
  O  O20  1  0.466390  0.468519  0.031478  1
  O  O21  1  0.217785  0.781162  0.783269  1
