# generated using pymatgen
data_Rb2Te3PdO12
_symmetry_space_group_name_H-M   'P 1'
_cell_length_a   7.18861467
_cell_length_b   7.18861493
_cell_length_c   7.18849590
_cell_angle_alpha   61.14960380
_cell_angle_beta   61.14960177
_cell_angle_gamma   61.14600841
_symmetry_Int_Tables_number   1
_chemical_formula_structural   Rb2Te3PdO12
_chemical_formula_sum   'Rb2 Te3 Pd1 O12'
_cell_volume   269.45965402
_cell_formula_units_Z   1
loop_
 _symmetry_equiv_pos_site_id
 _symmetry_equiv_pos_as_xyz
  1  'x, y, z'
loop_
 _atom_site_type_symbol
 _atom_site_label
 _atom_site_symmetry_multiplicity
 _atom_site_fract_x
 _atom_site_fract_y
 _atom_site_fract_z
 _atom_site_occupancy
  Rb  Rb0  1  0.118932  0.137120  0.624563  1
  Rb  Rb1  1  0.862880  0.881068  0.375437  1
  Te  Te2  1  0.497675  0.002079  0.999751  1
  Te  Te3  1  0.997921  0.502325  0.000249  1
  Te  Te4  1  0.497893  0.502107  0.500000  1
  Pd  Pd5  1  0.497674  0.502326  0.000000  1
  O  O6  1  0.820467  0.824671  0.926505  1
  O  O7  1  0.419979  0.421278  0.334456  1
  O  O8  1  0.419308  0.836769  0.919029  1
  O  O9  1  0.820395  0.428427  0.322555  1
  O  O10  1  0.832290  0.422695  0.921154  1
  O  O11  1  0.424746  0.824318  0.322298  1
  O  O12  1  0.175329  0.179533  0.073495  1
  O  O13  1  0.578722  0.580021  0.665544  1
  O  O14  1  0.577305  0.167710  0.078846  1
  O  O15  1  0.175682  0.575254  0.677702  1
  O  O16  1  0.163231  0.580692  0.080971  1
  O  O17  1  0.571573  0.179605  0.677445  1
