# generated using pymatgen
data_Sc2TaTi4Pt21
_symmetry_space_group_name_H-M   'P 1'
_cell_length_a   5.62411500
_cell_length_b   5.62411435
_cell_length_c   16.06365300
_cell_angle_alpha   90.00000000
_cell_angle_beta   90.00000000
_cell_angle_gamma   119.99999795
_symmetry_Int_Tables_number   1
_chemical_formula_structural   Sc2TaTi4Pt21
_chemical_formula_sum   'Sc2 Ta1 Ti4 Pt21'
_cell_volume   440.03101607
_cell_formula_units_Z   1
loop_
 _symmetry_equiv_pos_site_id
 _symmetry_equiv_pos_as_xyz
  1  'x, y, z'
loop_
 _atom_site_type_symbol
 _atom_site_label
 _atom_site_symmetry_multiplicity
 _atom_site_fract_x
 _atom_site_fract_y
 _atom_site_fract_z
 _atom_site_occupancy
  Sc  Sc0  1  0.666667  0.333333  0.858272  1
  Sc  Sc1  1  0.333333  0.666667  0.143481  1
  Ta  Ta2  1  0.000000  0.000000  0.720409  1
  Ti  Ti3  1  0.000000  0.000000  0.277812  1
  Ti  Ti4  1  0.666667  0.333333  0.426521  1
  Ti  Ti5  1  0.000000  0.000000  0.001385  1
  Ti  Ti6  1  0.333333  0.666667  0.569122  1
  Pt  Pt7  1  0.833395  0.666790  0.570221  1
  Pt  Pt8  1  0.333210  0.166605  0.570221  1
  Pt  Pt9  1  0.167608  0.335217  0.856576  1
  Pt  Pt10  1  0.166950  0.333901  0.429514  1
  Pt  Pt11  1  0.166950  0.833050  0.429514  1
  Pt  Pt12  1  0.498721  0.997442  0.710478  1
  Pt  Pt13  1  0.666099  0.833050  0.429514  1
  Pt  Pt14  1  0.167608  0.832392  0.856576  1
  Pt  Pt15  1  0.664783  0.832392  0.856576  1
  Pt  Pt16  1  0.832857  0.167143  0.144273  1
  Pt  Pt17  1  0.833395  0.166605  0.570221  1
  Pt  Pt18  1  0.498721  0.501279  0.710478  1
  Pt  Pt19  1  0.334286  0.167143  0.144273  1
  Pt  Pt20  1  0.832857  0.665714  0.144273  1
  Pt  Pt21  1  0.501472  0.498528  0.289417  1
  Pt  Pt22  1  0.501472  0.002946  0.289417  1
  Pt  Pt23  1  0.499931  0.999862  0.000520  1
  Pt  Pt24  1  0.997054  0.498528  0.289417  1
  Pt  Pt25  1  0.002558  0.501279  0.710478  1
  Pt  Pt26  1  0.499931  0.500069  0.000520  1
  Pt  Pt27  1  0.000138  0.500069  0.000520  1
