# generated using pymatgen
data_Tb2PrPtO7
_symmetry_space_group_name_H-M   'P 1'
_cell_length_a   6.50676140
_cell_length_b   6.50676052
_cell_length_c   7.55129700
_cell_angle_alpha   90.00000000
_cell_angle_beta   90.00000000
_cell_angle_gamma   109.75447327
_symmetry_Int_Tables_number   1
_chemical_formula_structural   Tb2PrPtO7
_chemical_formula_sum   'Tb4 Pr2 Pt2 O14'
_cell_volume   300.89150864
_cell_formula_units_Z   2
loop_
 _symmetry_equiv_pos_site_id
 _symmetry_equiv_pos_as_xyz
  1  'x, y, z'
loop_
 _atom_site_type_symbol
 _atom_site_label
 _atom_site_symmetry_multiplicity
 _atom_site_fract_x
 _atom_site_fract_y
 _atom_site_fract_z
 _atom_site_occupancy
  Tb  Tb0  1  0.516567  0.068565  0.250000  1
  Tb  Tb1  1  0.931435  0.483433  0.750000  1
  Tb  Tb2  1  0.483433  0.931435  0.750000  1
  Tb  Tb3  1  0.068565  0.516567  0.250000  1
  Pr  Pr4  1  0.000000  0.000000  0.500000  1
  Pr  Pr5  1  0.000000  0.000000  0.000000  1
  Pt  Pt6  1  0.500000  0.500000  0.500000  1
  Pt  Pt7  1  0.500000  0.500000  0.000000  1
  O  O8  1  0.438202  0.178395  0.534774  1
  O  O9  1  0.821605  0.561798  0.465226  1
  O  O10  1  0.438202  0.178395  0.965226  1
  O  O11  1  0.821605  0.561798  0.034774  1
  O  O12  1  0.561798  0.821605  0.465226  1
  O  O13  1  0.178395  0.438202  0.534774  1
  O  O14  1  0.561798  0.821605  0.034774  1
  O  O15  1  0.178395  0.438202  0.965226  1
  O  O16  1  0.161072  0.880416  0.250000  1
  O  O17  1  0.119584  0.838928  0.750000  1
  O  O18  1  0.838928  0.119584  0.750000  1
  O  O19  1  0.880416  0.161072  0.250000  1
  O  O20  1  0.398211  0.398211  0.250000  1
  O  O21  1  0.601789  0.601789  0.750000  1
