# generated using pymatgen
data_Nd2Al4Ga8Pd
_symmetry_space_group_name_H-M   'P 1'
_cell_length_a   6.06225700
_cell_length_b   6.06225700
_cell_length_c   15.75139800
_cell_angle_alpha   90.00000000
_cell_angle_beta   90.00000000
_cell_angle_gamma   90.00000000
_symmetry_Int_Tables_number   1
_chemical_formula_structural   Nd2Al4Ga8Pd
_chemical_formula_sum   'Nd4 Al8 Ga16 Pd2'
_cell_volume   578.87899680
_cell_formula_units_Z   2
loop_
 _symmetry_equiv_pos_site_id
 _symmetry_equiv_pos_as_xyz
  1  'x, y, z'
loop_
 _atom_site_type_symbol
 _atom_site_label
 _atom_site_symmetry_multiplicity
 _atom_site_fract_x
 _atom_site_fract_y
 _atom_site_fract_z
 _atom_site_occupancy
  Nd  Nd0  1  0.750000  0.250000  0.252081  1
  Nd  Nd1  1  0.250000  0.750000  0.252081  1
  Nd  Nd2  1  0.250000  0.750000  0.747919  1
  Nd  Nd3  1  0.750000  0.250000  0.747919  1
  Al  Al4  1  0.500110  0.000110  0.911928  1
  Al  Al5  1  0.000110  0.999890  0.911928  1
  Al  Al6  1  0.499890  0.500110  0.911928  1
  Al  Al7  1  0.999890  0.499890  0.911928  1
  Al  Al8  1  0.499890  0.999890  0.088072  1
  Al  Al9  1  0.999890  0.000110  0.088072  1
  Al  Al10  1  0.500110  0.499890  0.088072  1
  Al  Al11  1  0.000110  0.500110  0.088072  1
  Ga  Ga12  1  0.250000  0.250000  0.186892  1
  Ga  Ga13  1  0.750000  0.750000  0.186892  1
  Ga  Ga14  1  0.750000  0.750000  0.813108  1
  Ga  Ga15  1  0.250000  0.250000  0.813108  1
  Ga  Ga16  1  0.250000  0.250000  0.343795  1
  Ga  Ga17  1  0.750000  0.750000  0.343795  1
  Ga  Ga18  1  0.750000  0.750000  0.656205  1
  Ga  Ga19  1  0.250000  0.250000  0.656205  1
  Ga  Ga20  1  0.578580  0.078580  0.431428  1
  Ga  Ga21  1  0.078580  0.921420  0.431428  1
  Ga  Ga22  1  0.421420  0.578580  0.431428  1
  Ga  Ga23  1  0.921420  0.421420  0.431428  1
  Ga  Ga24  1  0.421420  0.921420  0.568572  1
  Ga  Ga25  1  0.921420  0.078580  0.568572  1
  Ga  Ga26  1  0.578580  0.421420  0.568572  1
  Ga  Ga27  1  0.078580  0.578580  0.568572  1
  Pd  Pd28  1  0.750000  0.250000  0.000000  1
  Pd  Pd29  1  0.250000  0.750000  0.000000  1
