# generated using pymatgen
data_Er10In3BiSb2
_symmetry_space_group_name_H-M   'P 1'
_cell_length_a   8.91753228
_cell_length_b   8.90425245
_cell_length_c   6.51189200
_cell_angle_alpha   90.00000000
_cell_angle_beta   90.00000000
_cell_angle_gamma   119.81384580
_symmetry_Int_Tables_number   1
_chemical_formula_structural   Er10In3BiSb2
_chemical_formula_sum   'Er10 In3 Bi1 Sb2'
_cell_volume   448.63337452
_cell_formula_units_Z   1
loop_
 _symmetry_equiv_pos_site_id
 _symmetry_equiv_pos_as_xyz
  1  'x, y, z'
loop_
 _atom_site_type_symbol
 _atom_site_label
 _atom_site_symmetry_multiplicity
 _atom_site_fract_x
 _atom_site_fract_y
 _atom_site_fract_z
 _atom_site_occupancy
  Er  Er0  1  0.005075  0.767801  0.750000  1
  Er  Er1  1  0.994426  0.232791  0.250000  1
  Er  Er2  1  0.767109  0.761964  0.250000  1
  Er  Er3  1  0.765757  0.006800  0.750000  1
  Er  Er4  1  0.234792  0.237067  0.750000  1
  Er  Er5  1  0.232048  0.988645  0.250000  1
  Er  Er6  1  0.328864  0.671327  0.502439  1
  Er  Er7  1  0.670846  0.331399  0.997793  1
  Er  Er8  1  0.670846  0.331399  0.502207  1
  Er  Er9  1  0.328864  0.671327  0.997561  1
  In  In10  1  0.397901  0.003944  0.750000  1
  In  In11  1  0.997142  0.596666  0.250000  1
  In  In12  1  0.001187  0.399865  0.750000  1
  Bi  Bi13  1  0.392020  0.391654  0.250000  1
  Sb  Sb14  1  0.607926  0.610107  0.750000  1
  Sb  Sb15  1  0.605198  0.997243  0.250000  1
