# generated using pymatgen
data_Th14Tc2Ru3Rh
_symmetry_space_group_name_H-M   'P 1'
_cell_length_a   9.94913220
_cell_length_b   9.99655633
_cell_length_c   6.35101500
_cell_angle_alpha   89.99999467
_cell_angle_beta   89.85466879
_cell_angle_gamma   120.15780497
_symmetry_Int_Tables_number   1
_chemical_formula_structural   Th14Tc2Ru3Rh
_chemical_formula_sum   'Th14 Tc2 Ru3 Rh1'
_cell_volume   546.15351099
_cell_formula_units_Z   1
loop_
 _symmetry_equiv_pos_site_id
 _symmetry_equiv_pos_as_xyz
  1  'x, y, z'
loop_
 _atom_site_type_symbol
 _atom_site_label
 _atom_site_symmetry_multiplicity
 _atom_site_fract_x
 _atom_site_fract_y
 _atom_site_fract_z
 _atom_site_occupancy
  Th  Th0  1  0.459455  0.538410  0.296253  1
  Th  Th1  1  0.079935  0.539968  0.296698  1
  Th  Th2  1  0.918431  0.459215  0.799415  1
  Th  Th3  1  0.251643  0.125822  0.504133  1
  Th  Th4  1  0.540253  0.082072  0.798715  1
  Th  Th5  1  0.752424  0.876211  0.006567  1
  Th  Th6  1  0.665750  0.332875  0.286948  1
  Th  Th7  1  0.124223  0.873780  0.003396  1
  Th  Th8  1  0.459455  0.921045  0.296253  1
  Th  Th9  1  0.540253  0.458181  0.798715  1
  Th  Th10  1  0.876224  0.130095  0.504893  1
  Th  Th11  1  0.124223  0.250442  0.003396  1
  Th  Th12  1  0.876224  0.746131  0.504893  1
  Th  Th13  1  0.332066  0.666034  0.795365  1
  Tc  Tc14  1  0.812272  0.629887  0.047646  1
  Tc  Tc15  1  0.812272  0.182386  0.047646  1
  Ru  Ru16  1  0.369611  0.184806  0.046899  1
  Ru  Ru17  1  0.189881  0.375347  0.547455  1
  Ru  Ru18  1  0.189881  0.814534  0.547455  1
  Rh  Rh19  1  0.625522  0.812760  0.551255  1
