# generated using pymatgen
data_Yb2PrSmCu2Sn5
_symmetry_space_group_name_H-M   'P 1'
_cell_length_a   4.46969900
_cell_length_b   8.77562100
_cell_length_c   14.30240100
_cell_angle_alpha   90.00000000
_cell_angle_beta   90.00000000
_cell_angle_gamma   90.00000000
_symmetry_Int_Tables_number   1
_chemical_formula_structural   Yb2PrSmCu2Sn5
_chemical_formula_sum   'Yb4 Pr2 Sm2 Cu4 Sn10'
_cell_volume   561.00287478
_cell_formula_units_Z   2
loop_
 _symmetry_equiv_pos_site_id
 _symmetry_equiv_pos_as_xyz
  1  'x, y, z'
loop_
 _atom_site_type_symbol
 _atom_site_label
 _atom_site_symmetry_multiplicity
 _atom_site_fract_x
 _atom_site_fract_y
 _atom_site_fract_z
 _atom_site_occupancy
  Yb  Yb0  1  0.500000  0.791846  0.743831  1
  Yb  Yb1  1  0.000000  0.208154  0.756169  1
  Yb  Yb2  1  0.000000  0.208154  0.243831  1
  Yb  Yb3  1  0.500000  0.791846  0.256169  1
  Pr  Pr4  1  0.500000  0.142935  0.000000  1
  Pr  Pr5  1  0.000000  0.857065  0.500000  1
  Sm  Sm6  1  0.500000  0.694521  0.000000  1
  Sm  Sm7  1  0.000000  0.305479  0.500000  1
  Cu  Cu8  1  0.500000  0.379072  0.646829  1
  Cu  Cu9  1  0.000000  0.620928  0.853171  1
  Cu  Cu10  1  0.000000  0.620928  0.146829  1
  Cu  Cu11  1  0.500000  0.379072  0.353171  1
  Sn  Sn12  1  0.500000  0.083656  0.396198  1
  Sn  Sn13  1  0.000000  0.557386  0.665177  1
  Sn  Sn14  1  0.000000  0.414555  0.000000  1
  Sn  Sn15  1  0.500000  0.442614  0.165177  1
  Sn  Sn16  1  0.500000  0.585445  0.500000  1
  Sn  Sn17  1  0.500000  0.442614  0.834823  1
  Sn  Sn18  1  0.000000  0.916344  0.896198  1
  Sn  Sn19  1  0.000000  0.557386  0.334823  1
  Sn  Sn20  1  0.500000  0.083656  0.603802  1
  Sn  Sn21  1  0.000000  0.916344  0.103802  1
