# generated using pymatgen
data_Sr3Zn8
_symmetry_space_group_name_H-M   'P 1'
_cell_length_a   13.85246161
_cell_length_b   13.85246117
_cell_length_c   13.85246176
_cell_angle_alpha   161.63864857
_cell_angle_beta   161.66615172
_cell_angle_gamma   26.06077487
_symmetry_Int_Tables_number   1
_chemical_formula_structural   Sr3Zn8
_chemical_formula_sum   'Sr3 Zn8'
_cell_volume   263.29957893
_cell_formula_units_Z   1
loop_
 _symmetry_equiv_pos_site_id
 _symmetry_equiv_pos_as_xyz
  1  'x, y, z'
loop_
 _atom_site_type_symbol
 _atom_site_label
 _atom_site_symmetry_multiplicity
 _atom_site_fract_x
 _atom_site_fract_y
 _atom_site_fract_z
 _atom_site_occupancy
  Sr  Sr0  1  0.000000  0.000000  0.000000  1
  Sr  Sr1  1  0.851601  0.351601  0.500001  1
  Sr  Sr2  1  0.148400  0.648400  0.500001  1
  Zn  Zn3  1  0.249649  0.249649  0.000000  1
  Zn  Zn4  1  0.451042  0.451042  0.000000  1
  Zn  Zn5  1  0.548958  0.548958  0.000000  1
  Zn  Zn6  1  0.750351  0.750351  0.000000  1
  Zn  Zn7  1  0.597831  0.097830  0.500001  1
  Zn  Zn8  1  0.695867  0.195866  0.500001  1
  Zn  Zn9  1  0.304134  0.804135  0.500001  1
  Zn  Zn10  1  0.402170  0.902171  0.500001  1
