# generated using pymatgen
data_Ta12FeB12Os11
_symmetry_space_group_name_H-M   'P 1'
_cell_length_a   3.11331300
_cell_length_b   9.06030837
_cell_length_c   15.74776647
_cell_angle_alpha   89.89926537
_cell_angle_beta   90.00000000
_cell_angle_gamma   90.00000000
_symmetry_Int_Tables_number   1
_chemical_formula_structural   Ta12FeB12Os11
_chemical_formula_sum   'Ta12 Fe1 B12 Os11'
_cell_volume   444.20563044
_cell_formula_units_Z   1
loop_
 _symmetry_equiv_pos_site_id
 _symmetry_equiv_pos_as_xyz
  1  'x, y, z'
loop_
 _atom_site_type_symbol
 _atom_site_label
 _atom_site_symmetry_multiplicity
 _atom_site_fract_x
 _atom_site_fract_y
 _atom_site_fract_z
 _atom_site_occupancy
  Ta  Ta0  1  0.000000  0.801125  0.493420  1
  Ta  Ta1  1  0.000000  0.200684  0.502929  1
  Ta  Ta2  1  0.000000  0.298626  0.005627  1
  Ta  Ta3  1  0.000000  0.700793  0.996451  1
  Ta  Ta4  1  0.000000  0.516569  0.592968  1
  Ta  Ta5  1  0.000000  0.486305  0.405615  1
  Ta  Ta6  1  0.000000  0.015387  0.908997  1
  Ta  Ta7  1  0.000000  0.982093  0.099240  1
  Ta  Ta8  1  0.000000  0.693421  0.203694  1
  Ta  Ta9  1  0.000000  0.311180  0.797981  1
  Ta  Ta10  1  0.000000  0.180610  0.294509  1
  Ta  Ta11  1  0.000000  0.811749  0.702167  1
  Fe  Fe12  1  0.500000  0.937751  0.235176  1
  B  B13  1  0.500000  0.606600  0.495999  1
  B  B14  1  0.500000  0.395274  0.502331  1
  B  B15  1  0.500000  0.103064  0.006697  1
  B  B16  1  0.500000  0.895504  0.000341  1
  B  B17  1  0.000000  0.609340  0.833082  1
  B  B18  1  0.000000  0.391846  0.168336  1
  B  B19  1  0.000000  0.108575  0.667637  1
  B  B20  1  0.000000  0.896593  0.323008  1
  B  B21  1  0.500000  0.715781  0.597036  1
  B  B22  1  0.500000  0.285161  0.399504  1
  B  B23  1  0.500000  0.214559  0.902745  1
  B  B24  1  0.500000  0.784012  0.099680  1
  Os  Os25  1  0.500000  0.722317  0.352782  1
  Os  Os26  1  0.500000  0.280536  0.644000  1
  Os  Os27  1  0.500000  0.217625  0.145729  1
  Os  Os28  1  0.500000  0.780811  0.855869  1
  Os  Os29  1  0.500000  0.515897  0.094602  1
  Os  Os30  1  0.500000  0.483229  0.906870  1
  Os  Os31  1  0.500000  0.016140  0.404491  1
  Os  Os32  1  0.500000  0.983890  0.593357  1
  Os  Os33  1  0.500000  0.560122  0.734456  1
  Os  Os34  1  0.500000  0.436616  0.266328  1
  Os  Os35  1  0.500000  0.060215  0.766344  1
