# generated using pymatgen
data_Zn5Hg(Mo2O9)2
_symmetry_space_group_name_H-M   'P 1'
_cell_length_a   7.13674537
_cell_length_b   8.22454071
_cell_length_c   8.63687262
_cell_angle_alpha   61.57419993
_cell_angle_beta   88.91838104
_cell_angle_gamma   88.87672765
_symmetry_Int_Tables_number   1
_chemical_formula_structural   Zn5Hg(Mo2O9)2
_chemical_formula_sum   'Zn5 Hg1 Mo4 O18'
_cell_volume   445.72061416
_cell_formula_units_Z   1
loop_
 _symmetry_equiv_pos_site_id
 _symmetry_equiv_pos_as_xyz
  1  'x, y, z'
loop_
 _atom_site_type_symbol
 _atom_site_label
 _atom_site_symmetry_multiplicity
 _atom_site_fract_x
 _atom_site_fract_y
 _atom_site_fract_z
 _atom_site_occupancy
  Zn  Zn0  1  0.500000  0.500000  0.500000  1
  Zn  Zn1  1  0.257166  0.665483  0.704975  1
  Zn  Zn2  1  0.742834  0.334517  0.295025  1
  Zn  Zn3  1  0.264458  0.855502  0.249573  1
  Zn  Zn4  1  0.735542  0.144498  0.750427  1
  Hg  Hg5  1  0.000000  0.500000  0.500000  1
  Mo  Mo6  1  0.264200  0.334174  0.191421  1
  Mo  Mo7  1  0.735800  0.665826  0.808579  1
  Mo  Mo8  1  0.257958  0.042717  0.783625  1
  Mo  Mo9  1  0.742042  0.957283  0.216375  1
  O  O10  1  0.302166  0.108595  0.211448  1
  O  O11  1  0.697834  0.891405  0.788552  1
  O  O12  1  0.266911  0.500638  0.963474  1
  O  O13  1  0.733089  0.499362  0.036526  1
  O  O14  1  0.030589  0.148697  0.758115  1
  O  O15  1  0.566767  0.776390  0.291519  1
  O  O16  1  0.969411  0.851303  0.241885  1
  O  O17  1  0.433233  0.223610  0.708481  1
  O  O18  1  0.270060  0.926304  0.653138  1
  O  O19  1  0.729940  0.073696  0.346862  1
  O  O20  1  0.289859  0.878853  0.009808  1
  O  O21  1  0.710141  0.121147  0.990192  1
  O  O22  1  0.041383  0.345915  0.284917  1
  O  O23  1  0.556004  0.614740  0.691786  1
  O  O24  1  0.958617  0.654085  0.715083  1
  O  O25  1  0.443996  0.385260  0.308214  1
  O  O26  1  0.253461  0.626331  0.488984  1
  O  O27  1  0.746539  0.373669  0.511016  1
