# generated using pymatgen
data_La9Yb10YGe16
_symmetry_space_group_name_H-M   'P 1'
_cell_length_a   7.60186597
_cell_length_b   8.09157347
_cell_length_c   15.26274700
_cell_angle_alpha   90.02283597
_cell_angle_beta   90.09278888
_cell_angle_gamma   90.04790078
_symmetry_Int_Tables_number   1
_chemical_formula_structural   La9Yb10YGe16
_chemical_formula_sum   'La9 Yb10 Y1 Ge16'
_cell_volume   938.82606688
_cell_formula_units_Z   1
loop_
 _symmetry_equiv_pos_site_id
 _symmetry_equiv_pos_as_xyz
  1  'x, y, z'
loop_
 _atom_site_type_symbol
 _atom_site_label
 _atom_site_symmetry_multiplicity
 _atom_site_fract_x
 _atom_site_fract_y
 _atom_site_fract_z
 _atom_site_occupancy
  La  La0  1  0.827111  0.679844  0.876794  1
  La  La1  1  0.481799  0.315904  0.902478  1
  La  La2  1  0.983926  0.184589  0.595835  1
  La  La3  1  0.516560  0.685674  0.401830  1
  La  La4  1  0.019027  0.814362  0.101249  1
  La  La5  1  0.516784  0.684171  0.100948  1
  La  La6  1  0.016710  0.814295  0.402063  1
  La  La7  1  0.482865  0.316580  0.594478  1
  La  La8  1  0.984472  0.185487  0.903860  1
  Yb  Yb9  1  0.823339  0.674767  0.620992  1
  Yb  Yb10  1  0.675295  0.175293  0.377448  1
  Yb  Yb11  1  0.175866  0.322933  0.124026  1
  Yb  Yb12  1  0.675006  0.175441  0.122953  1
  Yb  Yb13  1  0.174557  0.323957  0.377706  1
  Yb  Yb14  1  0.324003  0.824919  0.621835  1
  Yb  Yb15  1  0.155416  0.496056  0.746353  1
  Yb  Yb16  1  0.656636  0.003233  0.745530  1
  Yb  Yb17  1  0.845487  0.494238  0.251358  1
  Yb  Yb18  1  0.345518  0.004982  0.251003  1
  Y  Y19  1  0.325624  0.822992  0.877240  1
  Ge  Ge20  1  0.340749  0.031856  0.037011  1
  Ge  Ge21  1  0.844919  0.467129  0.461057  1
  Ge  Ge22  1  0.653765  0.968216  0.538501  1
  Ge  Ge23  1  0.163354  0.533856  0.962743  1
  Ge  Ge24  1  0.647380  0.968666  0.961040  1
  Ge  Ge25  1  0.152696  0.532018  0.538838  1
  Ge  Ge26  1  0.344934  0.032498  0.461099  1
  Ge  Ge27  1  0.847695  0.465696  0.040414  1
  Ge  Ge28  1  0.526825  0.603896  0.748515  1
  Ge  Ge29  1  0.036343  0.899480  0.752677  1
  Ge  Ge30  1  0.467729  0.398233  0.250708  1
  Ge  Ge31  1  0.967718  0.100825  0.250428  1
  Ge  Ge32  1  0.274500  0.126631  0.751257  1
  Ge  Ge33  1  0.769060  0.371798  0.749727  1
  Ge  Ge34  1  0.727988  0.871783  0.249789  1
  Ge  Ge35  1  0.228346  0.627699  0.250220  1
