# generated using pymatgen
data_ThCd(NiPt)2
_symmetry_space_group_name_H-M   'P 1'
_cell_length_a   5.18044137
_cell_length_b   5.25106388
_cell_length_c   5.25106385
_cell_angle_alpha   62.54462524
_cell_angle_beta   60.44389820
_cell_angle_gamma   60.44390152
_symmetry_Int_Tables_number   1
_chemical_formula_structural   ThCd(NiPt)2
_chemical_formula_sum   'Th1 Cd1 Ni2 Pt2'
_cell_volume   103.51535320
_cell_formula_units_Z   1
loop_
 _symmetry_equiv_pos_site_id
 _symmetry_equiv_pos_as_xyz
  1  'x, y, z'
loop_
 _atom_site_type_symbol
 _atom_site_label
 _atom_site_symmetry_multiplicity
 _atom_site_fract_x
 _atom_site_fract_y
 _atom_site_fract_z
 _atom_site_occupancy
  Th  Th0  1  0.247422  0.252578  0.252578  1
  Cd  Cd1  1  0.007493  0.992507  0.992507  1
  Ni  Ni2  1  0.121393  0.627928  0.627928  1
  Ni  Ni3  1  0.622751  0.627928  0.627928  1
  Pt  Pt4  1  0.625470  0.626328  0.122733  1
  Pt  Pt5  1  0.625470  0.122733  0.626328  1
