# generated using pymatgen
data_SmYNpO6
_symmetry_space_group_name_H-M   'P 1'
_cell_length_a   5.61204200
_cell_length_b   7.91357823
_cell_length_c   11.90806205
_cell_angle_alpha   74.26509867
_cell_angle_beta   90.00000000
_cell_angle_gamma   90.00000000
_symmetry_Int_Tables_number   1
_chemical_formula_structural   SmYNpO6
_chemical_formula_sum   'Sm4 Y4 Np4 O24'
_cell_volume   509.03506746
_cell_formula_units_Z   4
loop_
 _symmetry_equiv_pos_site_id
 _symmetry_equiv_pos_as_xyz
  1  'x, y, z'
loop_
 _atom_site_type_symbol
 _atom_site_label
 _atom_site_symmetry_multiplicity
 _atom_site_fract_x
 _atom_site_fract_y
 _atom_site_fract_z
 _atom_site_occupancy
  Sm  Sm0  1  0.744938  0.000000  0.750000  1
  Sm  Sm1  1  0.255062  0.000000  0.250000  1
  Sm  Sm2  1  0.694689  0.500000  0.750000  1
  Sm  Sm3  1  0.305311  0.500000  0.250000  1
  Y  Y4  1  0.186701  0.793418  0.579681  1
  Y  Y5  1  0.813299  0.793418  0.079681  1
  Y  Y6  1  0.186701  0.206582  0.920319  1
  Y  Y7  1  0.813299  0.206582  0.420319  1
  Np  Np8  1  0.254655  0.721924  0.886920  1
  Np  Np9  1  0.745345  0.721924  0.386920  1
  Np  Np10  1  0.254655  0.278076  0.613080  1
  Np  Np11  1  0.745345  0.278076  0.113080  1
  O  O12  1  0.048810  0.943549  0.897917  1
  O  O13  1  0.550349  0.845669  0.933812  1
  O  O14  1  0.951190  0.943549  0.397917  1
  O  O15  1  0.446218  0.797714  0.727475  1
  O  O16  1  0.449651  0.845669  0.433812  1
  O  O17  1  0.968436  0.714490  0.767310  1
  O  O18  1  0.553782  0.797714  0.227475  1
  O  O19  1  0.874969  0.629691  0.553089  1
  O  O20  1  0.381491  0.483273  0.885334  1
  O  O21  1  0.031564  0.714490  0.267310  1
  O  O22  1  0.381491  0.516727  0.614666  1
  O  O23  1  0.874969  0.370309  0.946911  1
  O  O24  1  0.125031  0.629691  0.053089  1
  O  O25  1  0.618509  0.483273  0.385334  1
  O  O26  1  0.968436  0.285510  0.732690  1
  O  O27  1  0.618509  0.516727  0.114666  1
  O  O28  1  0.125031  0.370309  0.446911  1
  O  O29  1  0.446218  0.202286  0.772525  1
  O  O30  1  0.031564  0.285510  0.232690  1
  O  O31  1  0.550349  0.154331  0.566188  1
  O  O32  1  0.553782  0.202286  0.272525  1
  O  O33  1  0.048810  0.056451  0.602083  1
  O  O34  1  0.449651  0.154331  0.066188  1
  O  O35  1  0.951190  0.056451  0.102083  1
