# generated using pymatgen
data_Tb7Dy(LuPb4)2
_symmetry_space_group_name_H-M   'P 1'
_cell_length_a   8.18396200
_cell_length_b   8.27834226
_cell_length_c   15.67455502
_cell_angle_alpha   89.98306561
_cell_angle_beta   90.00000000
_cell_angle_gamma   90.00000000
_symmetry_Int_Tables_number   1
_chemical_formula_structural   Tb7Dy(LuPb4)2
_chemical_formula_sum   'Tb14 Dy2 Lu4 Pb16'
_cell_volume   1061.94538929
_cell_formula_units_Z   2
loop_
 _symmetry_equiv_pos_site_id
 _symmetry_equiv_pos_as_xyz
  1  'x, y, z'
loop_
 _atom_site_type_symbol
 _atom_site_label
 _atom_site_symmetry_multiplicity
 _atom_site_fract_x
 _atom_site_fract_y
 _atom_site_fract_z
 _atom_site_occupancy
  Tb  Tb0  1  0.626925  0.157238  0.380198  1
  Tb  Tb1  1  0.126925  0.342762  0.119802  1
  Tb  Tb2  1  0.624939  0.158705  0.121356  1
  Tb  Tb3  1  0.124939  0.341295  0.378644  1
  Tb  Tb4  1  0.375137  0.842700  0.621225  1
  Tb  Tb5  1  0.875137  0.657300  0.878775  1
  Tb  Tb6  1  0.533383  0.323515  0.901151  1
  Tb  Tb7  1  0.033383  0.176485  0.598849  1
  Tb  Tb8  1  0.466395  0.676703  0.401787  1
  Tb  Tb9  1  0.966395  0.823297  0.098213  1
  Tb  Tb10  1  0.468989  0.678559  0.096976  1
  Tb  Tb11  1  0.968989  0.821441  0.403024  1
  Tb  Tb12  1  0.532516  0.324848  0.599646  1
  Tb  Tb13  1  0.032516  0.175152  0.900354  1
  Dy  Dy14  1  0.372590  0.843952  0.876492  1
  Dy  Dy15  1  0.872590  0.656048  0.623508  1
  Lu  Lu16  1  0.206513  0.505105  0.749943  1
  Lu  Lu17  1  0.706513  0.994895  0.750057  1
  Lu  Lu18  1  0.793674  0.495236  0.250736  1
  Lu  Lu19  1  0.293674  0.004764  0.249264  1
  Pb  Pb20  1  0.283983  0.033311  0.042034  1
  Pb  Pb21  1  0.783983  0.466689  0.457966  1
  Pb  Pb22  1  0.718682  0.962518  0.544736  1
  Pb  Pb23  1  0.218682  0.537482  0.955264  1
  Pb  Pb24  1  0.712545  0.964249  0.955689  1
  Pb  Pb25  1  0.212545  0.535751  0.544311  1
  Pb  Pb26  1  0.284068  0.034250  0.455843  1
  Pb  Pb27  1  0.784068  0.465750  0.044157  1
  Pb  Pb28  1  0.568359  0.625608  0.750465  1
  Pb  Pb29  1  0.068359  0.874392  0.749535  1
  Pb  Pb30  1  0.430958  0.375896  0.250642  1
  Pb  Pb31  1  0.930958  0.124104  0.249358  1
  Pb  Pb32  1  0.345982  0.156631  0.750179  1
  Pb  Pb33  1  0.845982  0.343369  0.749821  1
  Pb  Pb34  1  0.654360  0.843908  0.250170  1
  Pb  Pb35  1  0.154360  0.656092  0.249830  1
