# generated using pymatgen
data_NbGa2NiPt8
_symmetry_space_group_name_H-M   'P 1'
_cell_length_a   3.97215900
_cell_length_b   3.97215900
_cell_length_c   11.60424200
_cell_angle_alpha   90.00000000
_cell_angle_beta   90.00000000
_cell_angle_gamma   90.00000000
_symmetry_Int_Tables_number   1
_chemical_formula_structural   NbGa2NiPt8
_chemical_formula_sum   'Nb1 Ga2 Ni1 Pt8'
_cell_volume   183.09227708
_cell_formula_units_Z   1
loop_
 _symmetry_equiv_pos_site_id
 _symmetry_equiv_pos_as_xyz
  1  'x, y, z'
loop_
 _atom_site_type_symbol
 _atom_site_label
 _atom_site_symmetry_multiplicity
 _atom_site_fract_x
 _atom_site_fract_y
 _atom_site_fract_z
 _atom_site_occupancy
  Nb  Nb0  1  0.000000  0.000000  0.995919  1
  Ga  Ga1  1  0.000000  0.000000  0.345335  1
  Ga  Ga2  1  0.000000  0.000000  0.662334  1
  Ni  Ni3  1  0.500000  0.500000  0.666146  1
  Pt  Pt4  1  0.500000  0.500000  0.995792  1
  Pt  Pt5  1  0.500000  0.500000  0.336780  1
  Pt  Pt6  1  0.500000  0.000000  0.164173  1
  Pt  Pt7  1  0.500000  0.000000  0.511091  1
  Pt  Pt8  1  0.500000  0.000000  0.823583  1
  Pt  Pt9  1  0.000000  0.500000  0.164173  1
  Pt  Pt10  1  0.000000  0.500000  0.511091  1
  Pt  Pt11  1  0.000000  0.500000  0.823583  1
