# generated using pymatgen
data_TbCe2Dy(ReC2)2
_symmetry_space_group_name_H-M   'P 1'
_cell_length_a   5.23225900
_cell_length_b   6.54036900
_cell_length_c   9.89455000
_cell_angle_alpha   90.00000000
_cell_angle_beta   90.00000000
_cell_angle_gamma   90.00000000
_symmetry_Int_Tables_number   1
_chemical_formula_structural   TbCe2Dy(ReC2)2
_chemical_formula_sum   'Tb2 Ce4 Dy2 Re4 C8'
_cell_volume   338.60045125
_cell_formula_units_Z   2
loop_
 _symmetry_equiv_pos_site_id
 _symmetry_equiv_pos_as_xyz
  1  'x, y, z'
loop_
 _atom_site_type_symbol
 _atom_site_label
 _atom_site_symmetry_multiplicity
 _atom_site_fract_x
 _atom_site_fract_y
 _atom_site_fract_z
 _atom_site_occupancy
  Tb  Tb0  1  0.250000  0.817375  0.051168  1
  Tb  Tb1  1  0.750000  0.682625  0.551168  1
  Ce  Ce2  1  0.250000  0.471449  0.781397  1
  Ce  Ce3  1  0.750000  0.028551  0.281397  1
  Ce  Ce4  1  0.250000  0.971642  0.718484  1
  Ce  Ce5  1  0.750000  0.528358  0.218484  1
  Dy  Dy6  1  0.250000  0.318024  0.448336  1
  Dy  Dy7  1  0.750000  0.181976  0.948336  1
  Re  Re8  1  0.250000  0.276930  0.135017  1
  Re  Re9  1  0.750000  0.223070  0.635017  1
  Re  Re10  1  0.250000  0.777029  0.365082  1
  Re  Re11  1  0.750000  0.722971  0.865082  1
  C  C12  1  0.250000  0.176849  0.947634  1
  C  C13  1  0.750000  0.824273  0.052166  1
  C  C14  1  0.250000  0.675727  0.552166  1
  C  C15  1  0.750000  0.323151  0.447634  1
  C  C16  1  0.250000  0.043538  0.259413  1
  C  C17  1  0.750000  0.456462  0.759413  1
  C  C18  1  0.250000  0.542834  0.241303  1
  C  C19  1  0.750000  0.957166  0.741303  1
