# generated using pymatgen
data_Lu5ThTcOs
_symmetry_space_group_name_H-M   'P 1'
_cell_length_a   7.31832400
_cell_length_b   9.01313200
_cell_length_c   6.22643100
_cell_angle_alpha   90.00000000
_cell_angle_beta   90.00000000
_cell_angle_gamma   90.00000000
_symmetry_Int_Tables_number   1
_chemical_formula_structural   Lu5ThTcOs
_chemical_formula_sum   'Lu10 Th2 Tc2 Os2'
_cell_volume   410.70174116
_cell_formula_units_Z   2
loop_
 _symmetry_equiv_pos_site_id
 _symmetry_equiv_pos_as_xyz
  1  'x, y, z'
loop_
 _atom_site_type_symbol
 _atom_site_label
 _atom_site_symmetry_multiplicity
 _atom_site_fract_x
 _atom_site_fract_y
 _atom_site_fract_z
 _atom_site_occupancy
  Lu  Lu0  1  0.675626  0.058021  0.338773  1
  Lu  Lu1  1  0.175626  0.441979  0.161227  1
  Lu  Lu2  1  0.324450  0.569264  0.666164  1
  Lu  Lu3  1  0.824450  0.930736  0.833836  1
  Lu  Lu4  1  0.324450  0.930736  0.666164  1
  Lu  Lu5  1  0.824450  0.569264  0.833836  1
  Lu  Lu6  1  0.675626  0.441979  0.338773  1
  Lu  Lu7  1  0.175626  0.058021  0.161227  1
  Lu  Lu8  1  0.461156  0.750000  0.129032  1
  Lu  Lu9  1  0.961156  0.750000  0.370968  1
  Th  Th10  1  0.547740  0.250000  0.872263  1
  Th  Th11  1  0.047740  0.250000  0.627737  1
  Tc  Tc12  1  0.871870  0.250000  0.022112  1
  Tc  Tc13  1  0.371870  0.250000  0.477888  1
  Os  Os14  1  0.119080  0.750000  0.965265  1
  Os  Os15  1  0.619080  0.750000  0.534735  1
