# generated using pymatgen
data_HoTm5Bi2Mo
_symmetry_space_group_name_H-M   'P 1'
_cell_length_a   8.19865600
_cell_length_b   8.19256185
_cell_length_c   4.33185800
_cell_angle_alpha   90.00000000
_cell_angle_beta   90.00000000
_cell_angle_gamma   120.02461796
_symmetry_Int_Tables_number   1
_chemical_formula_structural   HoTm5Bi2Mo
_chemical_formula_sum   'Ho1 Tm5 Bi2 Mo1'
_cell_volume   251.91814472
_cell_formula_units_Z   1
loop_
 _symmetry_equiv_pos_site_id
 _symmetry_equiv_pos_as_xyz
  1  'x, y, z'
loop_
 _atom_site_type_symbol
 _atom_site_label
 _atom_site_symmetry_multiplicity
 _atom_site_fract_x
 _atom_site_fract_y
 _atom_site_fract_z
 _atom_site_occupancy
  Ho  Ho0  1  0.611272  0.000000  0.000000  1
  Tm  Tm1  1  0.235034  0.000000  0.500000  1
  Tm  Tm2  1  0.000601  0.235129  0.500000  1
  Tm  Tm3  1  0.765471  0.764871  0.500000  1
  Tm  Tm4  1  0.999857  0.612895  0.000000  1
  Tm  Tm5  1  0.386962  0.387105  0.000000  1
  Bi  Bi6  1  0.332834  0.665953  0.500000  1
  Bi  Bi7  1  0.666882  0.334047  0.500000  1
  Mo  Mo8  1  0.001087  0.000000  0.000000  1
