# generated using pymatgen
data_LaPr3(Sn2Rh)4
_symmetry_space_group_name_H-M   'P 1'
_cell_length_a   8.86328206
_cell_length_b   8.86328196
_cell_length_c   9.73507154
_cell_angle_alpha   89.89319580
_cell_angle_beta   90.10680463
_cell_angle_gamma   149.25586183
_symmetry_Int_Tables_number   1
_chemical_formula_structural   LaPr3(Sn2Rh)4
_chemical_formula_sum   'La1 Pr3 Sn8 Rh4'
_cell_volume   390.95133413
_cell_formula_units_Z   1
loop_
 _symmetry_equiv_pos_site_id
 _symmetry_equiv_pos_as_xyz
  1  'x, y, z'
loop_
 _atom_site_type_symbol
 _atom_site_label
 _atom_site_symmetry_multiplicity
 _atom_site_fract_x
 _atom_site_fract_y
 _atom_site_fract_z
 _atom_site_occupancy
  La  La0  1  0.500000  0.500000  0.000000  1
  Pr  Pr1  1  0.500000  0.500000  0.500000  1
  Pr  Pr2  1  0.296667  0.703333  0.250360  1
  Pr  Pr3  1  0.703333  0.296667  0.749640  1
  Sn  Sn4  1  0.908141  0.091859  0.749564  1
  Sn  Sn5  1  0.924843  0.075157  0.251167  1
  Sn  Sn6  1  0.091859  0.908141  0.250436  1
  Sn  Sn7  1  0.075157  0.924843  0.748833  1
  Sn  Sn8  1  0.696704  0.303296  0.409721  1
  Sn  Sn9  1  0.303296  0.696704  0.590279  1
  Sn  Sn10  1  0.302660  0.697340  0.910010  1
  Sn  Sn11  1  0.697340  0.302660  0.089990  1
  Rh  Rh12  1  0.147810  0.852190  0.504370  1
  Rh  Rh13  1  0.852703  0.147297  0.004737  1
  Rh  Rh14  1  0.147297  0.852703  0.995263  1
  Rh  Rh15  1  0.852190  0.147810  0.495630  1
