# generated using pymatgen
data_Nb8Si2B4MoW
_symmetry_space_group_name_H-M   'P 1'
_cell_length_a   7.30341705
_cell_length_b   7.30341672
_cell_length_c   7.30341721
_cell_angle_alpha   129.64453911
_cell_angle_beta   129.64453763
_cell_angle_gamma   73.97567734
_symmetry_Int_Tables_number   1
_chemical_formula_structural   Nb8Si2B4MoW
_chemical_formula_sum   'Nb8 Si2 B4 Mo1 W1'
_cell_volume   225.27221606
_cell_formula_units_Z   1
loop_
 _symmetry_equiv_pos_site_id
 _symmetry_equiv_pos_as_xyz
  1  'x, y, z'
loop_
 _atom_site_type_symbol
 _atom_site_label
 _atom_site_symmetry_multiplicity
 _atom_site_fract_x
 _atom_site_fract_y
 _atom_site_fract_z
 _atom_site_occupancy
  Nb  Nb0  1  0.806456  0.306969  0.837018  1
  Nb  Nb1  1  0.193544  0.693031  0.162982  1
  Nb  Nb2  1  0.469950  0.969437  0.162982  1
  Nb  Nb3  1  0.306969  0.469950  0.500513  1
  Nb  Nb4  1  0.030563  0.193544  0.500513  1
  Nb  Nb5  1  0.530050  0.030563  0.837018  1
  Nb  Nb6  1  0.693031  0.530050  0.499487  1
  Nb  Nb7  1  0.969437  0.806456  0.499487  1
  Si  Si8  1  0.249887  0.249887  0.000000  1
  Si  Si9  1  0.750113  0.750113  0.000000  1
  B  B10  1  0.117116  0.617807  0.734923  1
  B  B11  1  0.882884  0.382193  0.265077  1
  B  B12  1  0.617807  0.882884  0.500692  1
  B  B13  1  0.382193  0.117116  0.499308  1
  Mo  Mo14  1  0.500000  0.500000  0.000000  1
  W  W15  1  0.000000  0.000000  0.000000  1
