# generated using pymatgen
data_Dy7Lu3(TlBi)3
_symmetry_space_group_name_H-M   'P 1'
_cell_length_a   6.51128300
_cell_length_b   9.02027474
_cell_length_c   9.02011500
_cell_angle_alpha   120.00191896
_cell_angle_beta   89.99944563
_cell_angle_gamma   90.00330705
_symmetry_Int_Tables_number   1
_chemical_formula_structural   Dy7Lu3(TlBi)3
_chemical_formula_sum   'Dy7 Lu3 Tl3 Bi3'
_cell_volume   458.79707899
_cell_formula_units_Z   1
loop_
 _symmetry_equiv_pos_site_id
 _symmetry_equiv_pos_as_xyz
  1  'x, y, z'
loop_
 _atom_site_type_symbol
 _atom_site_label
 _atom_site_symmetry_multiplicity
 _atom_site_fract_x
 _atom_site_fract_y
 _atom_site_fract_z
 _atom_site_occupancy
  Dy  Dy0  1  0.494450  0.333362  0.666721  1
  Dy  Dy1  1  0.750504  0.235915  0.999716  1
  Dy  Dy2  1  0.750569  0.763864  0.764141  1
  Dy  Dy3  1  0.750566  0.000325  0.236184  1
  Dy  Dy4  1  0.249699  0.761704  0.000341  1
  Dy  Dy5  1  0.249678  0.238640  0.238303  1
  Dy  Dy6  1  0.249684  0.999642  0.761365  1
  Lu  Lu7  1  0.492352  0.666613  0.333262  1
  Lu  Lu8  1  0.007000  0.666724  0.333397  1
  Lu  Lu9  1  0.007373  0.333308  0.666619  1
  Tl  Tl10  1  0.248061  0.394664  0.001071  1
  Tl  Tl11  1  0.248195  0.606345  0.605284  1
  Tl  Tl12  1  0.248290  0.998857  0.393581  1
  Bi  Bi13  1  0.751234  0.603318  0.001775  1
  Bi  Bi14  1  0.751179  0.398493  0.396721  1
  Bi  Bi15  1  0.751169  0.998233  0.601518  1
