# generated using pymatgen
data_U5Pa(Fe3Sb4)2
_symmetry_space_group_name_H-M   'P 1'
_cell_length_a   8.03488419
_cell_length_b   8.03467796
_cell_length_c   8.03464106
_cell_angle_alpha   109.42988193
_cell_angle_beta   109.53349851
_cell_angle_gamma   109.44775072
_symmetry_Int_Tables_number   1
_chemical_formula_structural   U5Pa(Fe3Sb4)2
_chemical_formula_sum   'U5 Pa1 Fe6 Sb8'
_cell_volume   399.30609892
_cell_formula_units_Z   1
loop_
 _symmetry_equiv_pos_site_id
 _symmetry_equiv_pos_as_xyz
  1  'x, y, z'
loop_
 _atom_site_type_symbol
 _atom_site_label
 _atom_site_symmetry_multiplicity
 _atom_site_fract_x
 _atom_site_fract_y
 _atom_site_fract_z
 _atom_site_occupancy
  U  U0  1  0.624995  0.750019  0.374973  1
  U  U1  1  0.249970  0.125425  0.875771  1
  U  U2  1  0.750348  0.374578  0.624533  1
  U  U3  1  0.124189  0.874166  0.249650  1
  U  U4  1  0.375494  0.625818  0.750038  1
  Pa  Pa5  1  0.874982  0.249942  0.125001  1
  Fe  Fe6  1  0.375027  0.250019  0.625032  1
  Fe  Fe7  1  0.124992  0.750003  0.874944  1
  Fe  Fe8  1  0.256539  0.630038  0.378303  1
  Fe  Fe9  1  0.748308  0.870002  0.126552  1
  Fe  Fe10  1  0.621662  0.378228  0.251709  1
  Fe  Fe11  1  0.873503  0.121770  0.743475  1
  Sb  Sb12  1  0.663814  0.498983  0.998554  1
  Sb  Sb13  1  0.499629  0.001063  0.664888  1
  Sb  Sb14  1  0.000721  0.666061  0.500491  1
  Sb  Sb15  1  0.834434  0.834007  0.834717  1
  Sb  Sb16  1  0.499555  0.000262  0.165559  1
  Sb  Sb17  1  0.165248  0.499656  0.999185  1
  Sb  Sb18  1  0.001425  0.165238  0.500461  1
  Sb  Sb19  1  0.335165  0.334721  0.336164  1
