# generated using pymatgen
data_Y4Ga24Pd5Pt4
_symmetry_space_group_name_H-M   'P 1'
_cell_length_a   7.51648349
_cell_length_b   7.59664296
_cell_length_c   13.44849848
_cell_angle_alpha   84.85416919
_cell_angle_beta   79.73301575
_cell_angle_gamma   59.97176407
_symmetry_Int_Tables_number   1
_chemical_formula_structural   Y4Ga24Pd5Pt4
_chemical_formula_sum   'Y4 Ga24 Pd5 Pt4'
_cell_volume   654.19452070
_cell_formula_units_Z   1
loop_
 _symmetry_equiv_pos_site_id
 _symmetry_equiv_pos_as_xyz
  1  'x, y, z'
loop_
 _atom_site_type_symbol
 _atom_site_label
 _atom_site_symmetry_multiplicity
 _atom_site_fract_x
 _atom_site_fract_y
 _atom_site_fract_z
 _atom_site_occupancy
  Y  Y0  1  0.393048  0.169665  0.811421  1
  Y  Y1  1  0.606952  0.830335  0.188579  1
  Y  Y2  1  0.732583  0.497554  0.811551  1
  Y  Y3  1  0.267417  0.502446  0.188449  1
  Ga  Ga4  1  0.686389  0.834059  0.939185  1
  Ga  Ga5  1  0.313611  0.165941  0.060815  1
  Ga  Ga6  1  0.145377  0.832616  0.559355  1
  Ga  Ga7  1  0.854623  0.167384  0.440645  1
  Ga  Ga8  1  0.477934  0.167123  0.556413  1
  Ga  Ga9  1  0.522066  0.832877  0.443587  1
  Ga  Ga10  1  0.219591  0.166243  0.324763  1
  Ga  Ga11  1  0.780409  0.833757  0.675237  1
  Ga  Ga12  1  0.436581  0.503963  0.674019  1
  Ga  Ga13  1  0.563419  0.496037  0.325981  1
  Ga  Ga14  1  0.106950  0.164283  0.673852  1
  Ga  Ga15  1  0.893050  0.835717  0.326148  1
  Ga  Ga16  1  0.356506  0.499100  0.939606  1
  Ga  Ga17  1  0.643494  0.500900  0.060394  1
  Ga  Ga18  1  0.019655  0.168547  0.944539  1
  Ga  Ga19  1  0.980345  0.831453  0.055461  1
  Ga  Ga20  1  0.186517  0.499514  0.443443  1
  Ga  Ga21  1  0.813483  0.500486  0.556557  1
  Ga  Ga22  1  0.734482  0.163639  0.181886  1
  Ga  Ga23  1  0.265518  0.836361  0.818114  1
  Ga  Ga24  1  0.061352  0.630123  0.816866  1
  Ga  Ga25  1  0.938648  0.369877  0.183134  1
  Ga  Ga26  1  0.856749  0.039533  0.817100  1
  Ga  Ga27  1  0.143251  0.960467  0.182901  1
  Pd  Pd28  1  0.117567  0.496209  0.638697  1
  Pd  Pd29  1  0.882433  0.503791  0.361303  1
  Pd  Pd30  1  0.660119  0.169738  0.999162  1
  Pd  Pd31  1  0.339881  0.830262  0.000838  1
  Pd  Pd32  1  0.000000  0.500000  0.000000  1
  Pt  Pt33  1  0.541275  0.167273  0.360605  1
  Pt  Pt34  1  0.458725  0.832727  0.639395  1
  Pt  Pt35  1  0.779181  0.171431  0.637188  1
  Pt  Pt36  1  0.220819  0.828569  0.362812  1
