# generated using pymatgen
data_RbSrCoO4
_symmetry_space_group_name_H-M   'P 1'
_cell_length_a   5.85555500
_cell_length_b   7.70447900
_cell_length_c   10.05413100
_cell_angle_alpha   90.00000000
_cell_angle_beta   90.00000000
_cell_angle_gamma   90.00000000
_symmetry_Int_Tables_number   1
_chemical_formula_structural   RbSrCoO4
_chemical_formula_sum   'Rb4 Sr4 Co4 O16'
_cell_volume   453.58207127
_cell_formula_units_Z   4
loop_
 _symmetry_equiv_pos_site_id
 _symmetry_equiv_pos_as_xyz
  1  'x, y, z'
loop_
 _atom_site_type_symbol
 _atom_site_label
 _atom_site_symmetry_multiplicity
 _atom_site_fract_x
 _atom_site_fract_y
 _atom_site_fract_z
 _atom_site_occupancy
  Rb  Rb0  1  0.492228  0.096236  0.582604  1
  Rb  Rb1  1  0.507772  0.596236  0.917396  1
  Rb  Rb2  1  0.007772  0.903764  0.082604  1
  Rb  Rb3  1  0.992228  0.403764  0.417396  1
  Sr  Sr4  1  0.980222  0.251780  0.809861  1
  Sr  Sr5  1  0.480222  0.248220  0.190139  1
  Sr  Sr6  1  0.519778  0.748220  0.309861  1
  Sr  Sr7  1  0.019778  0.751780  0.690139  1
  Co  Co8  1  0.483978  0.524484  0.584136  1
  Co  Co9  1  0.016022  0.475516  0.084136  1
  Co  Co10  1  0.983978  0.975516  0.415864  1
  Co  Co11  1  0.516022  0.024484  0.915864  1
  O  O12  1  0.506406  0.941668  0.072902  1
  O  O13  1  0.245418  0.550136  0.171640  1
  O  O14  1  0.254582  0.449864  0.671640  1
  O  O15  1  0.076066  0.261304  0.065283  1
  O  O16  1  0.745418  0.949864  0.828360  1
  O  O17  1  0.576066  0.238696  0.934717  1
  O  O18  1  0.765945  0.511262  0.165613  1
  O  O19  1  0.265945  0.988738  0.834387  1
  O  O20  1  0.993594  0.058332  0.572902  1
  O  O21  1  0.754582  0.050136  0.328360  1
  O  O22  1  0.006406  0.558332  0.927098  1
  O  O23  1  0.493594  0.441668  0.427098  1
  O  O24  1  0.234055  0.011262  0.334387  1
  O  O25  1  0.423934  0.738696  0.565283  1
  O  O26  1  0.734055  0.488738  0.665613  1
  O  O27  1  0.923934  0.761304  0.434717  1
