# generated using pymatgen
data_Ta2NiF12
_symmetry_space_group_name_H-M   'P 1'
_cell_length_a   5.20474655
_cell_length_b   5.59295085
_cell_length_c   9.15067007
_cell_angle_alpha   104.93194596
_cell_angle_beta   90.29593897
_cell_angle_gamma   119.15567620
_symmetry_Int_Tables_number   1
_chemical_formula_structural   Ta2NiF12
_chemical_formula_sum   'Ta2 Ni1 F12'
_cell_volume   222.05731731
_cell_formula_units_Z   1
loop_
 _symmetry_equiv_pos_site_id
 _symmetry_equiv_pos_as_xyz
  1  'x, y, z'
loop_
 _atom_site_type_symbol
 _atom_site_label
 _atom_site_symmetry_multiplicity
 _atom_site_fract_x
 _atom_site_fract_y
 _atom_site_fract_z
 _atom_site_occupancy
  Ta  Ta0  1  0.776507  0.505388  0.259492  1
  Ta  Ta1  1  0.223493  0.494612  0.740508  1
  Ni  Ni2  1  0.000000  0.000000  0.000000  1
  F  F3  1  0.809423  0.257838  0.709401  1
  F  F4  1  0.190577  0.742162  0.290599  1
  F  F5  1  0.185048  0.754144  0.926344  1
  F  F6  1  0.704456  0.723759  0.427374  1
  F  F7  1  0.295544  0.276241  0.572626  1
  F  F8  1  0.782708  0.264310  0.366327  1
  F  F9  1  0.217292  0.735690  0.633673  1
  F  F10  1  0.343416  0.256364  0.178376  1
  F  F11  1  0.656584  0.743636  0.821624  1
  F  F12  1  0.767902  0.733085  0.124646  1
  F  F13  1  0.232098  0.266915  0.875354  1
  F  F14  1  0.814952  0.245856  0.073656  1
