# generated using pymatgen
data_Pr18Tm2Si15Au
_symmetry_space_group_name_H-M   'P 1'
_cell_length_a   7.89318588
_cell_length_b   7.90299869
_cell_length_c   15.26767512
_cell_angle_alpha   89.97759089
_cell_angle_beta   89.53418710
_cell_angle_gamma   89.92160837
_symmetry_Int_Tables_number   1
_chemical_formula_structural   Pr18Tm2Si15Au
_chemical_formula_sum   'Pr18 Tm2 Si15 Au1'
_cell_volume   952.36266137
_cell_formula_units_Z   1
loop_
 _symmetry_equiv_pos_site_id
 _symmetry_equiv_pos_as_xyz
  1  'x, y, z'
loop_
 _atom_site_type_symbol
 _atom_site_label
 _atom_site_symmetry_multiplicity
 _atom_site_fract_x
 _atom_site_fract_y
 _atom_site_fract_z
 _atom_site_occupancy
  Pr  Pr0  1  0.804734  0.186368  0.751247  1
  Pr  Pr1  1  0.694384  0.688347  0.498156  1
  Pr  Pr2  1  0.373869  0.011195  0.446964  1
  Pr  Pr3  1  0.490534  0.870716  0.700280  1
  Pr  Pr4  1  0.510358  0.124540  0.196661  1
  Pr  Pr5  1  0.878124  0.487953  0.300417  1
  Pr  Pr6  1  0.121789  0.515241  0.803192  1
  Pr  Pr7  1  0.626479  0.987494  0.951226  1
  Pr  Pr8  1  0.002750  0.381006  0.548422  1
  Pr  Pr9  1  0.989450  0.626600  0.053043  1
  Pr  Pr10  1  0.132250  0.981451  0.879369  1
  Pr  Pr11  1  0.518814  0.630669  0.126435  1
  Pr  Pr12  1  0.479038  0.373323  0.627599  1
  Pr  Pr13  1  0.628655  0.519208  0.875642  1
  Pr  Pr14  1  0.372971  0.481237  0.370637  1
  Pr  Pr15  1  0.871539  0.020301  0.374901  1
  Pr  Pr16  1  0.982410  0.128267  0.124198  1
  Pr  Pr17  1  0.016803  0.867098  0.621406  1
  Tm  Tm18  1  0.310093  0.311049  0.999751  1
  Tm  Tm19  1  0.189397  0.811530  0.249963  1
  Si  Si20  1  0.330239  0.690501  0.954389  1
  Si  Si21  1  0.662266  0.302797  0.451473  1
  Si  Si22  1  0.693976  0.331942  0.047694  1
  Si  Si23  1  0.306432  0.669805  0.544843  1
  Si  Si24  1  0.810178  0.829862  0.204056  1
  Si  Si25  1  0.170766  0.192109  0.295874  1
  Si  Si26  1  0.835089  0.803650  0.798576  1
  Si  Si27  1  0.286607  0.923366  0.063779  1
  Si  Si28  1  0.574125  0.788763  0.308632  1
  Si  Si29  1  0.427479  0.212091  0.820221  1
  Si  Si30  1  0.786216  0.577716  0.690919  1
  Si  Si31  1  0.214177  0.423826  0.186862  1
  Si  Si32  1  0.706764  0.076907  0.559004  1
  Si  Si33  1  0.927972  0.289758  0.942301  1
  Si  Si34  1  0.082353  0.715460  0.434919  1
  Au  Au35  1  0.190921  0.167855  0.696947  1
