# generated using pymatgen
data_Tm3Al3ZnNiPt
_symmetry_space_group_name_H-M   'P 1'
_cell_length_a   7.09115700
_cell_length_b   7.09115666
_cell_length_c   3.90110900
_cell_angle_alpha   90.00000000
_cell_angle_beta   90.00000000
_cell_angle_gamma   119.99999692
_symmetry_Int_Tables_number   1
_chemical_formula_structural   Tm3Al3ZnNiPt
_chemical_formula_sum   'Tm3 Al3 Zn1 Ni1 Pt1'
_cell_volume   169.88416936
_cell_formula_units_Z   1
loop_
 _symmetry_equiv_pos_site_id
 _symmetry_equiv_pos_as_xyz
  1  'x, y, z'
loop_
 _atom_site_type_symbol
 _atom_site_label
 _atom_site_symmetry_multiplicity
 _atom_site_fract_x
 _atom_site_fract_y
 _atom_site_fract_z
 _atom_site_occupancy
  Tm  Tm0  1  0.004982  0.410566  0.500000  1
  Tm  Tm1  1  0.589434  0.594417  0.500000  1
  Tm  Tm2  1  0.405583  0.995018  0.500000  1
  Al  Al3  1  0.003369  0.768762  0.000000  1
  Al  Al4  1  0.231238  0.234608  0.000000  1
  Al  Al5  1  0.765392  0.996631  0.000000  1
  Zn  Zn6  1  0.666667  0.333333  0.000000  1
  Ni  Ni7  1  0.000000  0.000000  0.500000  1
  Pt  Pt8  1  0.333333  0.666667  0.000000  1
