# generated using pymatgen
data_TaV2Sb(SeO3)8
_symmetry_space_group_name_H-M   'P 1'
_cell_length_a   8.31766007
_cell_length_b   8.27189054
_cell_length_c   8.36949072
_cell_angle_alpha   89.29893716
_cell_angle_beta   89.63586733
_cell_angle_gamma   89.78230487
_symmetry_Int_Tables_number   1
_chemical_formula_structural   TaV2Sb(SeO3)8
_chemical_formula_sum   'Ta1 V2 Sb1 Se8 O24'
_cell_volume   575.78545272
_cell_formula_units_Z   1
loop_
 _symmetry_equiv_pos_site_id
 _symmetry_equiv_pos_as_xyz
  1  'x, y, z'
loop_
 _atom_site_type_symbol
 _atom_site_label
 _atom_site_symmetry_multiplicity
 _atom_site_fract_x
 _atom_site_fract_y
 _atom_site_fract_z
 _atom_site_occupancy
  Ta  Ta0  1  0.500000  0.000000  0.000000  1
  V  V1  1  0.000000  0.500000  0.000000  1
  V  V2  1  0.500000  0.500000  0.500000  1
  Sb  Sb3  1  0.000000  0.000000  0.500000  1
  Se  Se4  1  0.315484  0.656514  0.183402  1
  Se  Se5  1  0.825528  0.332775  0.324068  1
  Se  Se6  1  0.679944  0.811400  0.661521  1
  Se  Se7  1  0.165223  0.185105  0.820501  1
  Se  Se8  1  0.684516  0.343486  0.816598  1
  Se  Se9  1  0.174472  0.667225  0.675932  1
  Se  Se10  1  0.320056  0.188600  0.338479  1
  Se  Se11  1  0.834777  0.814895  0.179499  1
  O  O12  1  0.236588  0.533220  0.041642  1
  O  O13  1  0.737879  0.456980  0.460826  1
  O  O14  1  0.761957  0.970944  0.540348  1
  O  O15  1  0.273229  0.041629  0.932139  1
  O  O16  1  0.554480  0.933354  0.776908  1
  O  O17  1  0.458664  0.530462  0.262484  1
  O  O18  1  0.958824  0.464117  0.237470  1
  O  O19  1  0.030846  0.043896  0.734882  1
  O  O20  1  0.968923  0.236275  0.457270  1
  O  O21  1  0.546554  0.742597  0.527109  1
  O  O22  1  0.441637  0.776508  0.056913  1
  O  O23  1  0.041436  0.256232  0.964307  1
  O  O24  1  0.763412  0.466780  0.958358  1
  O  O25  1  0.262121  0.543020  0.539174  1
  O  O26  1  0.238043  0.029056  0.459652  1
  O  O27  1  0.726771  0.958371  0.067861  1
  O  O28  1  0.445520  0.066646  0.223092  1
  O  O29  1  0.541336  0.469538  0.737516  1
  O  O30  1  0.041176  0.535883  0.762530  1
  O  O31  1  0.969154  0.956104  0.265118  1
  O  O32  1  0.031077  0.763725  0.542730  1
  O  O33  1  0.453446  0.257403  0.472891  1
  O  O34  1  0.558363  0.223492  0.943087  1
  O  O35  1  0.958564  0.743768  0.035693  1
