# generated using pymatgen
data_K3TlSe3
_symmetry_space_group_name_H-M   'P 1'
_cell_length_a   8.18294400
_cell_length_b   8.40976179
_cell_length_c   17.01970413
_cell_angle_alpha   61.23838632
_cell_angle_beta   90.00000000
_cell_angle_gamma   90.00000000
_symmetry_Int_Tables_number   1
_chemical_formula_structural   K3TlSe3
_chemical_formula_sum   'K12 Tl4 Se12'
_cell_volume   1026.74177747
_cell_formula_units_Z   4
loop_
 _symmetry_equiv_pos_site_id
 _symmetry_equiv_pos_as_xyz
  1  'x, y, z'
loop_
 _atom_site_type_symbol
 _atom_site_label
 _atom_site_symmetry_multiplicity
 _atom_site_fract_x
 _atom_site_fract_y
 _atom_site_fract_z
 _atom_site_occupancy
  K  K0  1  0.029200  0.939598  0.285522  1
  K  K1  1  0.529200  0.060402  0.214478  1
  K  K2  1  0.970800  0.060402  0.714478  1
  K  K3  1  0.470800  0.939598  0.785522  1
  K  K4  1  0.994897  0.724590  0.109144  1
  K  K5  1  0.494897  0.275410  0.390856  1
  K  K6  1  0.005103  0.275410  0.890856  1
  K  K7  1  0.505103  0.724590  0.609144  1
  K  K8  1  0.995073  0.309697  0.399575  1
  K  K9  1  0.495073  0.690303  0.100425  1
  K  K10  1  0.004927  0.690303  0.600425  1
  K  K11  1  0.504927  0.309697  0.899575  1
  Tl  Tl12  1  0.645781  0.665975  0.417757  1
  Tl  Tl13  1  0.145781  0.334025  0.082243  1
  Tl  Tl14  1  0.354219  0.334025  0.582243  1
  Tl  Tl15  1  0.854219  0.665975  0.917757  1
  Se  Se16  1  0.805324  0.348712  0.071158  1
  Se  Se17  1  0.305324  0.651288  0.428842  1
  Se  Se18  1  0.194676  0.651288  0.928842  1
  Se  Se19  1  0.694676  0.348712  0.571158  1
  Se  Se20  1  0.240386  0.345602  0.228154  1
  Se  Se21  1  0.740386  0.654398  0.271846  1
  Se  Se22  1  0.759614  0.654398  0.771846  1
  Se  Se23  1  0.259614  0.345602  0.728154  1
  Se  Se24  1  0.757102  0.951469  0.427259  1
  Se  Se25  1  0.257102  0.048531  0.072741  1
  Se  Se26  1  0.242898  0.048531  0.572741  1
  Se  Se27  1  0.742898  0.951469  0.927259  1
