# generated using pymatgen
data_Ba2ThCu2Se5
_symmetry_space_group_name_H-M   'P 1'
_cell_length_a   4.29962842
_cell_length_b   7.45948786
_cell_length_c   9.56088143
_cell_angle_alpha   102.79116445
_cell_angle_beta   102.99436542
_cell_angle_gamma   106.75012927
_symmetry_Int_Tables_number   1
_chemical_formula_structural   Ba2ThCu2Se5
_chemical_formula_sum   'Ba2 Th1 Cu2 Se5'
_cell_volume   272.32378663
_cell_formula_units_Z   1
loop_
 _symmetry_equiv_pos_site_id
 _symmetry_equiv_pos_as_xyz
  1  'x, y, z'
loop_
 _atom_site_type_symbol
 _atom_site_label
 _atom_site_symmetry_multiplicity
 _atom_site_fract_x
 _atom_site_fract_y
 _atom_site_fract_z
 _atom_site_occupancy
  Ba  Ba0  1  0.480019  0.654659  0.305378  1
  Ba  Ba1  1  0.519981  0.345341  0.694622  1
  Th  Th2  1  0.000000  0.000000  0.000000  1
  Cu  Cu3  1  0.738822  0.185282  0.292361  1
  Cu  Cu4  1  0.261178  0.814718  0.707639  1
  Se  Se5  1  0.681882  0.298651  0.065112  1
  Se  Se6  1  0.164242  0.014665  0.313817  1
  Se  Se7  1  0.000001  0.500001  0.500000  1
  Se  Se8  1  0.835758  0.985335  0.686184  1
  Se  Se9  1  0.318119  0.701351  0.934888  1
