# generated using pymatgen
data_InNiPRu
_symmetry_space_group_name_H-M   'P 1'
_cell_length_a   3.55163900
_cell_length_b   5.46759200
_cell_length_c   13.04803700
_cell_angle_alpha   90.00000000
_cell_angle_beta   90.00000000
_cell_angle_gamma   90.00000000
_symmetry_Int_Tables_number   1
_chemical_formula_structural   InNiPRu
_chemical_formula_sum   'In4 Ni4 P4 Ru4'
_cell_volume   253.37869511
_cell_formula_units_Z   4
loop_
 _symmetry_equiv_pos_site_id
 _symmetry_equiv_pos_as_xyz
  1  'x, y, z'
loop_
 _atom_site_type_symbol
 _atom_site_label
 _atom_site_symmetry_multiplicity
 _atom_site_fract_x
 _atom_site_fract_y
 _atom_site_fract_z
 _atom_site_occupancy
  In  In0  1  0.250000  0.266473  0.283200  1
  In  In1  1  0.750000  0.733527  0.716800  1
  In  In2  1  0.750000  0.766473  0.216800  1
  In  In3  1  0.250000  0.233527  0.783200  1
  Ni  Ni4  1  0.750000  0.501943  0.415556  1
  Ni  Ni5  1  0.250000  0.498057  0.584444  1
  Ni  Ni6  1  0.250000  0.001943  0.084444  1
  Ni  Ni7  1  0.750000  0.998057  0.915556  1
  P  P8  1  0.750000  0.244420  0.052457  1
  P  P9  1  0.250000  0.755580  0.947543  1
  P  P10  1  0.250000  0.744420  0.447543  1
  P  P11  1  0.750000  0.255580  0.552457  1
  Ru  Ru12  1  0.250000  0.492260  0.090177  1
  Ru  Ru13  1  0.750000  0.507740  0.909823  1
  Ru  Ru14  1  0.750000  0.992260  0.409823  1
  Ru  Ru15  1  0.250000  0.007740  0.590177  1
