# generated using pymatgen
data_Pr3ZrZn2Ir3
_symmetry_space_group_name_H-M   'P 1'
_cell_length_a   7.31789400
_cell_length_b   7.42239097
_cell_length_c   4.18427900
_cell_angle_alpha   90.00000000
_cell_angle_beta   90.00000000
_cell_angle_gamma   119.53536584
_symmetry_Int_Tables_number   1
_chemical_formula_structural   Pr3ZrZn2Ir3
_chemical_formula_sum   'Pr3 Zr1 Zn2 Ir3'
_cell_volume   197.74047664
_cell_formula_units_Z   1
loop_
 _symmetry_equiv_pos_site_id
 _symmetry_equiv_pos_as_xyz
  1  'x, y, z'
loop_
 _atom_site_type_symbol
 _atom_site_label
 _atom_site_symmetry_multiplicity
 _atom_site_fract_x
 _atom_site_fract_y
 _atom_site_fract_z
 _atom_site_occupancy
  Pr  Pr0  1  0.385579  0.000000  0.499999  1
  Pr  Pr1  1  0.019879  0.439240  0.499999  1
  Pr  Pr2  1  0.580639  0.560759  0.499999  1
  Zr  Zr3  1  0.763930  0.000000  0.000000  1
  Zn  Zn4  1  0.239139  0.244141  0.000000  1
  Zn  Zn5  1  0.994998  0.755859  0.000000  1
  Ir  Ir6  1  0.674922  0.318934  0.000000  1
  Ir  Ir7  1  0.355989  0.681066  0.000000  1
  Ir  Ir8  1  0.984926  0.000000  0.499999  1
