# generated using pymatgen
data_Ta6V4Zn2Cu
_symmetry_space_group_name_H-M   'P 1'
_cell_length_a   9.67460199
_cell_length_b   9.66498933
_cell_length_c   9.67460275
_cell_angle_alpha   30.30987778
_cell_angle_beta   30.29430953
_cell_angle_gamma   30.30987892
_symmetry_Int_Tables_number   1
_chemical_formula_structural   Ta6V4Zn2Cu
_chemical_formula_sum   'Ta6 V4 Zn2 Cu1'
_cell_volume   204.11879855
_cell_formula_units_Z   1
loop_
 _symmetry_equiv_pos_site_id
 _symmetry_equiv_pos_as_xyz
  1  'x, y, z'
loop_
 _atom_site_type_symbol
 _atom_site_label
 _atom_site_symmetry_multiplicity
 _atom_site_fract_x
 _atom_site_fract_y
 _atom_site_fract_z
 _atom_site_occupancy
  Ta  Ta0  1  0.832237  0.831071  0.832237  1
  Ta  Ta1  1  0.164247  0.162536  0.164247  1
  Ta  Ta2  1  0.652164  0.650472  0.652164  1
  Ta  Ta3  1  0.351882  0.352691  0.351882  1
  Ta  Ta4  1  0.550311  0.549702  0.550311  1
  Ta  Ta5  1  0.457177  0.456741  0.457177  1
  V  V6  1  0.001605  0.995846  0.001605  1
  V  V7  1  0.906539  0.409005  0.906539  1
  V  V8  1  0.906570  0.906246  0.409882  1
  V  V9  1  0.409882  0.906246  0.906570  1
  Zn  Zn10  1  0.092420  0.094233  0.584722  1
  Zn  Zn11  1  0.584722  0.094233  0.092420  1
  Cu  Cu12  1  0.090245  0.590979  0.090245  1
