# generated using pymatgen
data_CeLu2(Ni3As2)3
_symmetry_space_group_name_H-M   'P 1'
_cell_length_a   3.86978700
_cell_length_b   10.80953300
_cell_length_c   12.68715800
_cell_angle_alpha   90.00000000
_cell_angle_beta   90.00000000
_cell_angle_gamma   90.00000000
_symmetry_Int_Tables_number   1
_chemical_formula_structural   CeLu2(Ni3As2)3
_chemical_formula_sum   'Ce2 Lu4 Ni18 As12'
_cell_volume   530.71130811
_cell_formula_units_Z   2
loop_
 _symmetry_equiv_pos_site_id
 _symmetry_equiv_pos_as_xyz
  1  'x, y, z'
loop_
 _atom_site_type_symbol
 _atom_site_label
 _atom_site_symmetry_multiplicity
 _atom_site_fract_x
 _atom_site_fract_y
 _atom_site_fract_z
 _atom_site_occupancy
  Ce  Ce0  1  0.000000  0.500000  0.524230  1
  Ce  Ce1  1  0.500000  0.000000  0.475770  1
  Lu  Lu2  1  0.500000  0.816837  0.206690  1
  Lu  Lu3  1  0.500000  0.183163  0.206690  1
  Lu  Lu4  1  0.000000  0.683163  0.793310  1
  Lu  Lu5  1  0.000000  0.316837  0.793310  1
  Ni  Ni6  1  0.500000  0.500000  0.155350  1
  Ni  Ni7  1  0.000000  0.000000  0.844650  1
  Ni  Ni8  1  0.500000  0.500000  0.700107  1
  Ni  Ni9  1  0.000000  0.000000  0.299893  1
  Ni  Ni10  1  0.000000  0.500000  0.982257  1
  Ni  Ni11  1  0.500000  0.000000  0.017743  1
  Ni  Ni12  1  0.500000  0.332441  0.997300  1
  Ni  Ni13  1  0.500000  0.667559  0.997300  1
  Ni  Ni14  1  0.000000  0.167559  0.002700  1
  Ni  Ni15  1  0.000000  0.832441  0.002700  1
  Ni  Ni16  1  0.500000  0.301743  0.426328  1
  Ni  Ni17  1  0.500000  0.698257  0.426328  1
  Ni  Ni18  1  0.000000  0.198257  0.573672  1
  Ni  Ni19  1  0.000000  0.801743  0.573672  1
  Ni  Ni20  1  0.500000  0.878756  0.709001  1
  Ni  Ni21  1  0.500000  0.121244  0.709001  1
  Ni  Ni22  1  0.000000  0.621244  0.290999  1
  Ni  Ni23  1  0.000000  0.378756  0.290999  1
  As  As24  1  0.500000  0.500000  0.876372  1
  As  As25  1  0.000000  0.000000  0.123628  1
  As  As26  1  0.500000  0.500000  0.342643  1
  As  As27  1  0.000000  0.000000  0.657357  1
  As  As28  1  0.500000  0.311626  0.615062  1
  As  As29  1  0.500000  0.688374  0.615062  1
  As  As30  1  0.000000  0.188374  0.384938  1
  As  As31  1  0.000000  0.811626  0.384938  1
  As  As32  1  0.500000  0.846419  0.889978  1
  As  As33  1  0.500000  0.153581  0.889978  1
  As  As34  1  0.000000  0.653581  0.110022  1
  As  As35  1  0.000000  0.346419  0.110022  1
