# generated using pymatgen
data_Sr2Yb(AgPb)3
_symmetry_space_group_name_H-M   'P 1'
_cell_length_a   4.98888100
_cell_length_b   4.98888189
_cell_length_c   12.03436900
_cell_angle_alpha   90.00000000
_cell_angle_beta   90.00000000
_cell_angle_gamma   119.99998746
_symmetry_Int_Tables_number   1
_chemical_formula_structural   Sr2Yb(AgPb)3
_chemical_formula_sum   'Sr2 Yb1 Ag3 Pb3'
_cell_volume   259.39426954
_cell_formula_units_Z   1
loop_
 _symmetry_equiv_pos_site_id
 _symmetry_equiv_pos_as_xyz
  1  'x, y, z'
loop_
 _atom_site_type_symbol
 _atom_site_label
 _atom_site_symmetry_multiplicity
 _atom_site_fract_x
 _atom_site_fract_y
 _atom_site_fract_z
 _atom_site_occupancy
  Sr  Sr0  1  0.666667  0.333333  0.325016  1
  Sr  Sr1  1  0.666667  0.333333  0.674984  1
  Yb  Yb2  1  0.666667  0.333333  0.000000  1
  Ag  Ag3  1  0.000000  0.000000  0.840378  1
  Ag  Ag4  1  0.333333  0.666667  0.500000  1
  Ag  Ag5  1  0.000000  0.000000  0.159622  1
  Pb  Pb6  1  0.333333  0.666667  0.135127  1
  Pb  Pb7  1  0.333333  0.666667  0.864873  1
  Pb  Pb8  1  0.000000  0.000000  0.500000  1
