# generated using pymatgen
data_Lu6GaTcNi
_symmetry_space_group_name_H-M   'P 1'
_cell_length_a   8.18597617
_cell_length_b   8.18597561
_cell_length_c   8.18597495
_cell_angle_alpha   113.12199218
_cell_angle_beta   111.38841737
_cell_angle_gamma   104.04129468
_symmetry_Int_Tables_number   1
_chemical_formula_structural   Lu6GaTcNi
_chemical_formula_sum   'Lu12 Ga2 Tc2 Ni2'
_cell_volume   419.35460761
_cell_formula_units_Z   2
loop_
 _symmetry_equiv_pos_site_id
 _symmetry_equiv_pos_as_xyz
  1  'x, y, z'
loop_
 _atom_site_type_symbol
 _atom_site_label
 _atom_site_symmetry_multiplicity
 _atom_site_fract_x
 _atom_site_fract_y
 _atom_site_fract_z
 _atom_site_occupancy
  Lu  Lu0  1  0.437590  0.245396  0.192195  1
  Lu  Lu1  1  0.562410  0.754604  0.807805  1
  Lu  Lu2  1  0.053201  0.245396  0.807805  1
  Lu  Lu3  1  0.946799  0.754604  0.192195  1
  Lu  Lu4  1  0.179895  0.281843  0.461738  1
  Lu  Lu5  1  0.820105  0.718157  0.538262  1
  Lu  Lu6  1  0.179895  0.718157  0.898052  1
  Lu  Lu7  1  0.820105  0.281843  0.101948  1
  Lu  Lu8  1  0.332631  0.647164  0.314533  1
  Lu  Lu9  1  0.667369  0.352836  0.685467  1
  Lu  Lu10  1  0.332631  0.018097  0.685467  1
  Lu  Lu11  1  0.667369  0.981903  0.314533  1
  Ga  Ga12  1  0.500000  0.500000  0.000000  1
  Ga  Ga13  1  0.000000  0.000000  0.000000  1
  Tc  Tc14  1  0.320923  0.000000  0.320923  1
  Tc  Tc15  1  0.679077  0.000000  0.679077  1
  Ni  Ni16  1  0.119422  0.619422  0.500000  1
  Ni  Ni17  1  0.880578  0.380578  0.500000  1
