# generated using pymatgen
data_RbPr5Sm(CBr6)2
_symmetry_space_group_name_H-M   'P 1'
_cell_length_a   9.23540758
_cell_length_b   9.22025210
_cell_length_c   9.74648503
_cell_angle_alpha   71.79083868
_cell_angle_beta   70.45404895
_cell_angle_gamma   72.51742196
_symmetry_Int_Tables_number   1
_chemical_formula_structural   RbPr5Sm(CBr6)2
_chemical_formula_sum   'Rb1 Pr5 Sm1 C2 Br12'
_cell_volume   724.94466784
_cell_formula_units_Z   1
loop_
 _symmetry_equiv_pos_site_id
 _symmetry_equiv_pos_as_xyz
  1  'x, y, z'
loop_
 _atom_site_type_symbol
 _atom_site_label
 _atom_site_symmetry_multiplicity
 _atom_site_fract_x
 _atom_site_fract_y
 _atom_site_fract_z
 _atom_site_occupancy
  Rb  Rb0  1  0.001143  0.499622  0.999777  1
  Pr  Pr1  1  0.784695  0.032791  0.404092  1
  Pr  Pr2  1  0.596131  0.718069  0.474589  1
  Pr  Pr3  1  0.404243  0.281944  0.525872  1
  Pr  Pr4  1  0.215358  0.967610  0.594430  1
  Pr  Pr5  1  0.522283  0.882442  0.820696  1
  Sm  Sm6  1  0.476566  0.116519  0.183937  1
  C  C7  1  0.494222  0.026305  0.424628  1
  C  C8  1  0.505796  0.974574  0.573740  1
  Br  Br9  1  0.794211  0.163503  0.080963  1
  Br  Br10  1  0.587323  0.788974  0.142934  1
  Br  Br11  1  0.352557  0.429892  0.221018  1
  Br  Br12  1  0.141886  0.074381  0.289164  1
  Br  Br13  1  0.928328  0.720258  0.351978  1
  Br  Br14  1  0.718856  0.367051  0.427084  1
  Br  Br15  1  0.281631  0.632885  0.572068  1
  Br  Br16  1  0.072300  0.279807  0.647950  1
  Br  Br17  1  0.862716  0.926303  0.707290  1
  Br  Br18  1  0.650142  0.564697  0.777005  1
  Br  Br19  1  0.411627  0.216429  0.861671  1
  Br  Br20  1  0.197989  0.835942  0.919113  1
