# generated using pymatgen
data_Rb2V(IO3)6
_symmetry_space_group_name_H-M   'P 1'
_cell_length_a   7.79186667
_cell_length_b   7.79186669
_cell_length_c   7.79186630
_cell_angle_alpha   97.15845703
_cell_angle_beta   97.15846464
_cell_angle_gamma   97.15846375
_symmetry_Int_Tables_number   1
_chemical_formula_structural   Rb2V(IO3)6
_chemical_formula_sum   'Rb2 V1 I6 O18'
_cell_volume   460.97996375
_cell_formula_units_Z   1
loop_
 _symmetry_equiv_pos_site_id
 _symmetry_equiv_pos_as_xyz
  1  'x, y, z'
loop_
 _atom_site_type_symbol
 _atom_site_label
 _atom_site_symmetry_multiplicity
 _atom_site_fract_x
 _atom_site_fract_y
 _atom_site_fract_z
 _atom_site_occupancy
  Rb  Rb0  1  0.171376  0.171376  0.171376  1
  Rb  Rb1  1  0.828624  0.828624  0.828624  1
  V  V2  1  0.500000  0.500000  0.500000  1
  I  I3  1  0.335484  0.704222  0.137315  1
  I  I4  1  0.137315  0.335484  0.704222  1
  I  I5  1  0.862685  0.664516  0.295778  1
  I  I6  1  0.664516  0.295778  0.862685  1
  I  I7  1  0.704222  0.137315  0.335484  1
  I  I8  1  0.295778  0.862685  0.664516  1
  O  O9  1  0.906891  0.290857  0.390935  1
  O  O10  1  0.098100  0.687705  0.097530  1
  O  O11  1  0.093109  0.709143  0.609065  1
  O  O12  1  0.450370  0.693233  0.663862  1
  O  O13  1  0.549631  0.306767  0.336138  1
  O  O14  1  0.336138  0.549631  0.306767  1
  O  O15  1  0.290857  0.390935  0.906891  1
  O  O16  1  0.663862  0.450369  0.693233  1
  O  O17  1  0.709143  0.609065  0.093109  1
  O  O18  1  0.097530  0.098100  0.687705  1
  O  O19  1  0.390935  0.906891  0.290857  1
  O  O20  1  0.609065  0.093109  0.709143  1
  O  O21  1  0.687705  0.097530  0.098100  1
  O  O22  1  0.693233  0.663862  0.450369  1
  O  O23  1  0.902470  0.901900  0.312295  1
  O  O24  1  0.306767  0.336138  0.549631  1
  O  O25  1  0.901900  0.312295  0.902470  1
  O  O26  1  0.312295  0.902470  0.901900  1
