# generated using pymatgen
data_Sr4In2Pd3Rh
_symmetry_space_group_name_H-M   'P 1'
_cell_length_a   6.11270329
_cell_length_b   6.04634684
_cell_length_c   8.42714350
_cell_angle_alpha   78.18736856
_cell_angle_beta   77.81859712
_cell_angle_gamma   59.99851454
_symmetry_Int_Tables_number   1
_chemical_formula_structural   Sr4In2Pd3Rh
_chemical_formula_sum   'Sr4 In2 Pd3 Rh1'
_cell_volume   261.84112587
_cell_formula_units_Z   1
loop_
 _symmetry_equiv_pos_site_id
 _symmetry_equiv_pos_as_xyz
  1  'x, y, z'
loop_
 _atom_site_type_symbol
 _atom_site_label
 _atom_site_symmetry_multiplicity
 _atom_site_fract_x
 _atom_site_fract_y
 _atom_site_fract_z
 _atom_site_occupancy
  Sr  Sr0  1  0.511786  0.788273  0.348183  1
  Sr  Sr1  1  0.208665  0.494503  0.143900  1
  Sr  Sr2  1  0.494030  0.211266  0.651944  1
  Sr  Sr3  1  0.786276  0.505630  0.856273  1
  In  In4  1  0.866962  0.127596  0.245136  1
  In  In5  1  0.122691  0.874404  0.755477  1
  Pd  Pd6  1  0.997042  0.269304  0.492552  1
  Pd  Pd7  1  0.280458  0.998178  0.996827  1
  Pd  Pd8  1  0.004098  0.728090  0.504909  1
  Rh  Rh9  1  0.727991  0.002756  0.004799  1
