# generated using pymatgen
data_Pr5Ta2BiO14
_symmetry_space_group_name_H-M   'P 1'
_cell_length_a   6.71213297
_cell_length_b   6.78179119
_cell_length_c   7.75184300
_cell_angle_alpha   90.00000000
_cell_angle_beta   90.00000000
_cell_angle_gamma   111.32352529
_symmetry_Int_Tables_number   1
_chemical_formula_structural   Pr5Ta2BiO14
_chemical_formula_sum   'Pr5 Ta2 Bi1 O14'
_cell_volume   328.70958949
_cell_formula_units_Z   1
loop_
 _symmetry_equiv_pos_site_id
 _symmetry_equiv_pos_as_xyz
  1  'x, y, z'
loop_
 _atom_site_type_symbol
 _atom_site_label
 _atom_site_symmetry_multiplicity
 _atom_site_fract_x
 _atom_site_fract_y
 _atom_site_fract_z
 _atom_site_occupancy
  Pr  Pr0  1  0.992231  0.000732  0.001959  1
  Pr  Pr1  1  0.992231  0.000732  0.498041  1
  Pr  Pr2  1  0.517723  0.069932  0.250000  1
  Pr  Pr3  1  0.944679  0.485784  0.750000  1
  Pr  Pr4  1  0.071104  0.522092  0.250000  1
  Ta  Ta5  1  0.506391  0.507423  0.999501  1
  Ta  Ta6  1  0.506391  0.507423  0.500499  1
  Bi  Bi7  1  0.471488  0.970837  0.750000  1
  O  O8  1  0.574346  0.544037  0.750000  1
  O  O9  1  0.440175  0.423030  0.250000  1
  O  O10  1  0.835447  0.115266  0.750000  1
  O  O11  1  0.147206  0.889842  0.250000  1
  O  O12  1  0.097777  0.856147  0.750000  1
  O  O13  1  0.887548  0.157380  0.250000  1
  O  O14  1  0.435943  0.180371  0.964973  1
  O  O15  1  0.565707  0.806172  0.459119  1
  O  O16  1  0.190958  0.432823  0.968653  1
  O  O17  1  0.815023  0.555306  0.465880  1
  O  O18  1  0.435943  0.180371  0.535027  1
  O  O19  1  0.565707  0.806172  0.040881  1
  O  O20  1  0.815023  0.555306  0.034120  1
  O  O21  1  0.190958  0.432823  0.531347  1
