# generated using pymatgen
data_DyHo6Sn23Ru6
_symmetry_space_group_name_H-M   'P 1'
_cell_length_a   9.83935500
_cell_length_b   9.83935305
_cell_length_c   10.07360700
_cell_angle_alpha   90.00000000
_cell_angle_beta   90.00000000
_cell_angle_gamma   119.99999647
_symmetry_Int_Tables_number   1
_chemical_formula_structural   DyHo6Sn23Ru6
_chemical_formula_sum   'Dy1 Ho6 Sn23 Ru6'
_cell_volume   844.59561995
_cell_formula_units_Z   1
loop_
 _symmetry_equiv_pos_site_id
 _symmetry_equiv_pos_as_xyz
  1  'x, y, z'
loop_
 _atom_site_type_symbol
 _atom_site_label
 _atom_site_symmetry_multiplicity
 _atom_site_fract_x
 _atom_site_fract_y
 _atom_site_fract_z
 _atom_site_occupancy
  Dy  Dy0  1  0.000000  0.000000  0.000000  1
  Ho  Ho1  1  0.515639  0.484361  0.696820  1
  Ho  Ho2  1  0.515639  0.031277  0.696820  1
  Ho  Ho3  1  0.968723  0.484361  0.696820  1
  Ho  Ho4  1  0.031277  0.515639  0.303180  1
  Ho  Ho5  1  0.484361  0.968723  0.303180  1
  Ho  Ho6  1  0.484361  0.515639  0.303180  1
  Sn  Sn7  1  0.666667  0.333333  0.178205  1
  Sn  Sn8  1  0.666667  0.333333  0.872157  1
  Sn  Sn9  1  0.333333  0.666667  0.127843  1
  Sn  Sn10  1  0.349106  0.349106  0.000000  1
  Sn  Sn11  1  0.000000  0.650894  0.000000  1
  Sn  Sn12  1  0.650894  0.000000  0.000000  1
  Sn  Sn13  1  0.650894  0.650894  0.000000  1
  Sn  Sn14  1  0.333333  0.666667  0.821795  1
  Sn  Sn15  1  0.439555  0.219779  0.462340  1
  Sn  Sn16  1  0.219779  0.780221  0.537660  1
  Sn  Sn17  1  0.219779  0.439555  0.537660  1
  Sn  Sn18  1  0.560445  0.780221  0.537660  1
  Sn  Sn19  1  0.118487  0.881513  0.273716  1
  Sn  Sn20  1  0.780221  0.560445  0.462340  1
  Sn  Sn21  1  0.780221  0.219779  0.462340  1
  Sn  Sn22  1  0.349106  0.000000  0.000000  1
  Sn  Sn23  1  0.118487  0.236973  0.273716  1
  Sn  Sn24  1  0.763027  0.881513  0.273716  1
  Sn  Sn25  1  0.236973  0.118487  0.726284  1
  Sn  Sn26  1  0.881513  0.763027  0.726284  1
  Sn  Sn27  1  0.881513  0.118487  0.726284  1
  Sn  Sn28  1  0.000000  0.000000  0.500000  1
  Sn  Sn29  1  0.000000  0.349106  0.000000  1
  Ru  Ru30  1  0.170084  0.829916  0.797704  1
  Ru  Ru31  1  0.170084  0.340167  0.797704  1
  Ru  Ru32  1  0.659833  0.829916  0.797704  1
  Ru  Ru33  1  0.340167  0.170084  0.202296  1
  Ru  Ru34  1  0.829916  0.659833  0.202296  1
  Ru  Ru35  1  0.829916  0.170084  0.202296  1
