# generated using pymatgen
data_Tb6Er3Tm7Cd4(OsPt)2
_symmetry_space_group_name_H-M   'P 1'
_cell_length_a   9.61037556
_cell_length_b   9.61013404
_cell_length_c   9.66752000
_cell_angle_alpha   59.80227029
_cell_angle_beta   59.80310824
_cell_angle_gamma   59.59942243
_symmetry_Int_Tables_number   1
_chemical_formula_structural   Tb6Er3Tm7Cd4(OsPt)2
_chemical_formula_sum   'Tb6 Er3 Tm7 Cd4 Os2 Pt2'
_cell_volume   627.54375695
_cell_formula_units_Z   1
loop_
 _symmetry_equiv_pos_site_id
 _symmetry_equiv_pos_as_xyz
  1  'x, y, z'
loop_
 _atom_site_type_symbol
 _atom_site_label
 _atom_site_symmetry_multiplicity
 _atom_site_fract_x
 _atom_site_fract_y
 _atom_site_fract_z
 _atom_site_occupancy
  Tb  Tb0  1  0.939343  0.555087  0.565436  1
  Tb  Tb1  1  0.555262  0.939257  0.939956  1
  Tb  Tb2  1  0.555262  0.939257  0.565525  1
  Tb  Tb3  1  0.939343  0.555087  0.940134  1
  Tb  Tb4  1  0.563264  0.563057  0.936839  1
  Tb  Tb5  1  0.940485  0.940527  0.559494  1
  Er  Er6  1  0.350208  0.350258  0.351138  1
  Er  Er7  1  0.350208  0.350258  0.948397  1
  Er  Er8  1  0.345489  0.956554  0.348979  1
  Tm  Tm9  1  0.957003  0.345446  0.348776  1
  Tm  Tm10  1  0.816442  0.185657  0.189744  1
  Tm  Tm11  1  0.185495  0.816420  0.808341  1
  Tm  Tm12  1  0.185495  0.816420  0.189744  1
  Tm  Tm13  1  0.816442  0.185657  0.808158  1
  Tm  Tm14  1  0.186683  0.186862  0.813228  1
  Tm  Tm15  1  0.809621  0.809697  0.190341  1
  Cd  Cd16  1  0.579515  0.579343  0.581015  1
  Cd  Cd17  1  0.579515  0.579343  0.260126  1
  Cd  Cd18  1  0.580664  0.256493  0.581421  1
  Cd  Cd19  1  0.256492  0.580551  0.581479  1
  Os  Os20  1  0.143997  0.144555  0.137630  1
  Os  Os21  1  0.143997  0.144555  0.573819  1
  Pt  Pt22  1  0.143925  0.575428  0.140324  1
  Pt  Pt23  1  0.575853  0.144232  0.139958  1
