# generated using pymatgen
data_Dy2Sc4Pb5
_symmetry_space_group_name_H-M   'P 1'
_cell_length_a   11.30323002
_cell_length_b   11.30322990
_cell_length_c   11.30322894
_cell_angle_alpha   131.82497237
_cell_angle_beta   59.43602631
_cell_angle_gamma   147.31400162
_symmetry_Int_Tables_number   1
_chemical_formula_structural   Dy2Sc4Pb5
_chemical_formula_sum   'Dy4 Sc8 Pb10'
_cell_volume   576.14181099
_cell_formula_units_Z   2
loop_
 _symmetry_equiv_pos_site_id
 _symmetry_equiv_pos_as_xyz
  1  'x, y, z'
loop_
 _atom_site_type_symbol
 _atom_site_label
 _atom_site_symmetry_multiplicity
 _atom_site_fract_x
 _atom_site_fract_y
 _atom_site_fract_z
 _atom_site_occupancy
  Dy  Dy0  1  0.141656  0.113074  0.254730  1
  Dy  Dy1  1  0.858343  0.886928  0.745271  1
  Dy  Dy2  1  0.358343  0.613074  0.971415  1
  Dy  Dy3  1  0.641657  0.386927  0.028583  1
  Sc  Sc4  1  0.557007  0.250000  0.307006  1
  Sc  Sc5  1  0.942994  0.250000  0.692994  1
  Sc  Sc6  1  0.442994  0.750000  0.692994  1
  Sc  Sc7  1  0.057006  0.750000  0.307006  1
  Sc  Sc8  1  0.438312  0.238229  0.676542  1
  Sc  Sc9  1  0.561689  0.761771  0.323458  1
  Sc  Sc10  1  0.061688  0.738230  0.799918  1
  Sc  Sc11  1  0.938312  0.261772  0.200083  1
  Pb  Pb12  1  0.291075  0.299367  0.590442  1
  Pb  Pb13  1  0.708925  0.700633  0.409557  1
  Pb  Pb14  1  0.208926  0.799368  0.008292  1
  Pb  Pb15  1  0.791076  0.200632  0.991708  1
  Pb  Pb16  1  0.250000  0.250000  0.000000  1
  Pb  Pb17  1  0.749999  0.749999  0.000000  1
  Pb  Pb18  1  0.071442  0.406112  0.477554  1
  Pb  Pb19  1  0.928559  0.593888  0.522446  1
  Pb  Pb20  1  0.428559  0.906113  0.334671  1
  Pb  Pb21  1  0.571441  0.093887  0.665329  1
