# generated using pymatgen
data_Ca2CrGaF10
_symmetry_space_group_name_H-M   'P 1'
_cell_length_a   5.59794234
_cell_length_b   5.58987683
_cell_length_c   7.69190258
_cell_angle_alpha   69.72622787
_cell_angle_beta   69.87069814
_cell_angle_gamma   71.67586753
_symmetry_Int_Tables_number   1
_chemical_formula_structural   Ca2CrGaF10
_chemical_formula_sum   'Ca2 Cr1 Ga1 F10'
_cell_volume   206.72184922
_cell_formula_units_Z   1
loop_
 _symmetry_equiv_pos_site_id
 _symmetry_equiv_pos_as_xyz
  1  'x, y, z'
loop_
 _atom_site_type_symbol
 _atom_site_label
 _atom_site_symmetry_multiplicity
 _atom_site_fract_x
 _atom_site_fract_y
 _atom_site_fract_z
 _atom_site_occupancy
  Ca  Ca0  1  0.456846  0.540947  0.250673  1
  Ca  Ca1  1  0.543154  0.459053  0.749327  1
  Cr  Cr2  1  0.000000  0.000000  0.000000  1
  Ga  Ga3  1  0.000000  0.000000  0.500000  1
  F  F4  1  0.206088  0.246072  0.383405  1
  F  F5  1  0.746988  0.788685  0.119909  1
  F  F6  1  0.793912  0.753928  0.616595  1
  F  F7  1  0.253012  0.211315  0.880091  1
  F  F8  1  0.076327  0.923491  0.249364  1
  F  F9  1  0.923673  0.076509  0.750636  1
  F  F10  1  0.283392  0.693522  0.971461  1
  F  F11  1  0.302847  0.720274  0.528511  1
  F  F12  1  0.716608  0.306478  0.028539  1
  F  F13  1  0.697153  0.279726  0.471489  1
