# generated using pymatgen
data_W2Br7NCl
_symmetry_space_group_name_H-M   'P 1'
_cell_length_a   7.25461881
_cell_length_b   7.29805115
_cell_length_c   7.23391214
_cell_angle_alpha   91.18763660
_cell_angle_beta   96.00362500
_cell_angle_gamma   95.91814882
_symmetry_Int_Tables_number   1
_chemical_formula_structural   W2Br7NCl
_chemical_formula_sum   'W2 Br7 N1 Cl1'
_cell_volume   378.67344265
_cell_formula_units_Z   1
loop_
 _symmetry_equiv_pos_site_id
 _symmetry_equiv_pos_as_xyz
  1  'x, y, z'
loop_
 _atom_site_type_symbol
 _atom_site_label
 _atom_site_symmetry_multiplicity
 _atom_site_fract_x
 _atom_site_fract_y
 _atom_site_fract_z
 _atom_site_occupancy
  W  W0  1  0.047764  0.415327  0.771444  1
  W  W1  1  0.948011  0.582267  0.227685  1
  Br  Br2  1  0.653314  0.383400  0.221582  1
  Br  Br3  1  0.891765  0.681171  0.597003  1
  Br  Br4  1  0.252198  0.766706  0.288448  1
  Br  Br5  1  0.790712  0.850859  0.128546  1
  Br  Br6  1  0.203871  0.146157  0.870800  1
  Br  Br7  1  0.343456  0.615619  0.783875  1
  Br  Br8  1  0.106906  0.318072  0.403290  1
  N  N9  1  0.997748  0.498411  0.999803  1
  Cl  Cl10  1  0.764254  0.242011  0.707523  1
