# generated using pymatgen
data_Dy2Y18Cd6IrRu
_symmetry_space_group_name_H-M   'P 1'
_cell_length_a   9.67557700
_cell_length_b   9.67557634
_cell_length_c   9.86787000
_cell_angle_alpha   90.00000000
_cell_angle_beta   90.00000000
_cell_angle_gamma   119.99999885
_symmetry_Int_Tables_number   1
_chemical_formula_structural   Dy2Y18Cd6IrRu
_chemical_formula_sum   'Dy2 Y18 Cd6 Ir1 Ru1'
_cell_volume   800.03276425
_cell_formula_units_Z   1
loop_
 _symmetry_equiv_pos_site_id
 _symmetry_equiv_pos_as_xyz
  1  'x, y, z'
loop_
 _atom_site_type_symbol
 _atom_site_label
 _atom_site_symmetry_multiplicity
 _atom_site_fract_x
 _atom_site_fract_y
 _atom_site_fract_z
 _atom_site_occupancy
  Dy  Dy0  1  0.000000  0.000000  0.499664  1
  Dy  Dy1  1  0.000000  0.000000  0.000336  1
  Y  Y2  1  0.209195  0.790805  0.440363  1
  Y  Y3  1  0.209195  0.418389  0.440363  1
  Y  Y4  1  0.581611  0.790805  0.440363  1
  Y  Y5  1  0.790502  0.209498  0.560193  1
  Y  Y6  1  0.790502  0.581003  0.560193  1
  Y  Y7  1  0.418997  0.209498  0.560193  1
  Y  Y8  1  0.790502  0.209498  0.939807  1
  Y  Y9  1  0.790502  0.581003  0.939807  1
  Y  Y10  1  0.418997  0.209498  0.939807  1
  Y  Y11  1  0.209195  0.790805  0.059637  1
  Y  Y12  1  0.209195  0.418389  0.059637  1
  Y  Y13  1  0.581611  0.790805  0.059637  1
  Y  Y14  1  0.541357  0.458643  0.250000  1
  Y  Y15  1  0.541357  0.082715  0.250000  1
  Y  Y16  1  0.917285  0.458643  0.250000  1
  Y  Y17  1  0.458678  0.541322  0.750000  1
  Y  Y18  1  0.458678  0.917357  0.750000  1
  Y  Y19  1  0.082643  0.541322  0.750000  1
  Cd  Cd20  1  0.885279  0.114721  0.250000  1
  Cd  Cd21  1  0.885279  0.770558  0.250000  1
  Cd  Cd22  1  0.229442  0.114721  0.250000  1
  Cd  Cd23  1  0.114662  0.885338  0.750000  1
  Cd  Cd24  1  0.114662  0.229323  0.750000  1
  Cd  Cd25  1  0.770677  0.885338  0.750000  1
  Ir  Ir26  1  0.333333  0.666667  0.250000  1
  Ru  Ru27  1  0.666667  0.333333  0.750000  1
