# generated using pymatgen
data_BaPa3F15
_symmetry_space_group_name_H-M   'P 1'
_cell_length_a   8.15240111
_cell_length_b   8.15240044
_cell_length_c   8.15240184
_cell_angle_alpha   112.68963291
_cell_angle_beta   112.68962821
_cell_angle_gamma   112.68963786
_symmetry_Int_Tables_number   1
_chemical_formula_structural   BaPa3F15
_chemical_formula_sum   'Ba1 Pa3 F15'
_cell_volume   358.92349623
_cell_formula_units_Z   1
loop_
 _symmetry_equiv_pos_site_id
 _symmetry_equiv_pos_as_xyz
  1  'x, y, z'
loop_
 _atom_site_type_symbol
 _atom_site_label
 _atom_site_symmetry_multiplicity
 _atom_site_fract_x
 _atom_site_fract_y
 _atom_site_fract_z
 _atom_site_occupancy
  Ba  Ba0  1  0.497018  0.497018  0.497018  1
  Pa  Pa1  1  0.857151  0.289409  0.857151  1
  Pa  Pa2  1  0.289409  0.857151  0.857151  1
  Pa  Pa3  1  0.857151  0.857151  0.289409  1
  F  F4  1  0.601563  0.930033  0.144014  1
  F  F5  1  0.930033  0.144014  0.601563  1
  F  F6  1  0.144014  0.601563  0.930033  1
  F  F7  1  0.930033  0.601563  0.144014  1
  F  F8  1  0.599422  0.599422  0.249278  1
  F  F9  1  0.249278  0.599422  0.599422  1
  F  F10  1  0.599422  0.249278  0.599422  1
  F  F11  1  0.124909  0.124909  0.349928  1
  F  F12  1  0.349928  0.124909  0.124909  1
  F  F13  1  0.124909  0.349928  0.124909  1
  F  F14  1  0.679502  0.679502  0.928348  1
  F  F15  1  0.928348  0.679502  0.679502  1
  F  F16  1  0.679502  0.928348  0.679502  1
  F  F17  1  0.144014  0.930033  0.601563  1
  F  F18  1  0.601563  0.144014  0.930033  1
