# generated using pymatgen
data_CrFe7(ReW)2
_symmetry_space_group_name_H-M   'P 1'
_cell_length_a   4.69130900
_cell_length_b   4.69130895
_cell_length_c   7.65210500
_cell_angle_alpha   90.00000000
_cell_angle_beta   90.00000000
_cell_angle_gamma   119.99999331
_symmetry_Int_Tables_number   1
_chemical_formula_structural   CrFe7(ReW)2
_chemical_formula_sum   'Cr1 Fe7 Re2 W2'
_cell_volume   145.84772377
_cell_formula_units_Z   1
loop_
 _symmetry_equiv_pos_site_id
 _symmetry_equiv_pos_as_xyz
  1  'x, y, z'
loop_
 _atom_site_type_symbol
 _atom_site_label
 _atom_site_symmetry_multiplicity
 _atom_site_fract_x
 _atom_site_fract_y
 _atom_site_fract_z
 _atom_site_occupancy
  Cr  Cr0  1  0.000000  0.000000  0.000401  1
  Fe  Fe1  1  0.000000  0.000000  0.499161  1
  Fe  Fe2  1  0.170573  0.829427  0.250567  1
  Fe  Fe3  1  0.342263  0.171132  0.749986  1
  Fe  Fe4  1  0.828868  0.657737  0.749986  1
  Fe  Fe5  1  0.170573  0.341145  0.250567  1
  Fe  Fe6  1  0.658855  0.829427  0.250567  1
  Fe  Fe7  1  0.828868  0.171132  0.749986  1
  Re  Re8  1  0.333333  0.666667  0.932879  1
  Re  Re9  1  0.666667  0.333333  0.431327  1
  W  W10  1  0.666667  0.333333  0.067548  1
  W  W11  1  0.333333  0.666667  0.567023  1
