# generated using pymatgen
data_Nd6TaCr(Co4P3)4
_symmetry_space_group_name_H-M   'P 1'
_cell_length_a   3.75366400
_cell_length_b   10.70291100
_cell_length_c   12.43484500
_cell_angle_alpha   90.00000000
_cell_angle_beta   90.00000000
_cell_angle_gamma   90.00000000
_symmetry_Int_Tables_number   1
_chemical_formula_structural   Nd6TaCr(Co4P3)4
_chemical_formula_sum   'Nd6 Ta1 Cr1 Co16 P12'
_cell_volume   499.57153574
_cell_formula_units_Z   1
loop_
 _symmetry_equiv_pos_site_id
 _symmetry_equiv_pos_as_xyz
  1  'x, y, z'
loop_
 _atom_site_type_symbol
 _atom_site_label
 _atom_site_symmetry_multiplicity
 _atom_site_fract_x
 _atom_site_fract_y
 _atom_site_fract_z
 _atom_site_occupancy
  Nd  Nd0  1  0.000000  0.500000  0.526101  1
  Nd  Nd1  1  0.500000  0.000000  0.477864  1
  Nd  Nd2  1  0.500000  0.819894  0.205675  1
  Nd  Nd3  1  0.500000  0.180106  0.205675  1
  Nd  Nd4  1  0.000000  0.682423  0.795671  1
  Nd  Nd5  1  0.000000  0.317577  0.795671  1
  Ta  Ta6  1  0.500000  0.500000  0.152233  1
  Cr  Cr7  1  0.000000  0.000000  0.842804  1
  Co  Co8  1  0.500000  0.500000  0.703598  1
  Co  Co9  1  0.000000  0.000000  0.296475  1
  Co  Co10  1  0.000000  0.500000  0.986725  1
  Co  Co11  1  0.500000  0.000000  0.011309  1
  Co  Co12  1  0.500000  0.330623  0.991347  1
  Co  Co13  1  0.500000  0.669377  0.991347  1
  Co  Co14  1  0.000000  0.164689  0.003827  1
  Co  Co15  1  0.000000  0.835311  0.003827  1
  Co  Co16  1  0.500000  0.295374  0.432147  1
  Co  Co17  1  0.500000  0.704626  0.432147  1
  Co  Co18  1  0.000000  0.203583  0.569858  1
  Co  Co19  1  0.000000  0.796417  0.569858  1
  Co  Co20  1  0.500000  0.881737  0.709649  1
  Co  Co21  1  0.500000  0.118263  0.709649  1
  Co  Co22  1  0.000000  0.619973  0.293051  1
  Co  Co23  1  0.000000  0.380027  0.293051  1
  P  P24  1  0.500000  0.500000  0.884944  1
  P  P25  1  0.000000  0.000000  0.112948  1
  P  P26  1  0.500000  0.500000  0.351264  1
  P  P27  1  0.000000  0.000000  0.658960  1
  P  P28  1  0.500000  0.305999  0.615350  1
  P  P29  1  0.500000  0.694001  0.615350  1
  P  P30  1  0.000000  0.192524  0.386910  1
  P  P31  1  0.000000  0.807476  0.386910  1
  P  P32  1  0.500000  0.851083  0.892490  1
  P  P33  1  0.500000  0.148917  0.892490  1
  P  P34  1  0.000000  0.658656  0.101409  1
  P  P35  1  0.000000  0.341344  0.101409  1
