# generated using pymatgen
data_Y4ZnI6
_symmetry_space_group_name_H-M   'P 1'
_cell_length_a   4.19861100
_cell_length_b   14.18636000
_cell_length_c   14.92264600
_cell_angle_alpha   90.00000000
_cell_angle_beta   90.00000000
_cell_angle_gamma   90.00000000
_symmetry_Int_Tables_number   1
_chemical_formula_structural   Y4ZnI6
_chemical_formula_sum   'Y8 Zn2 I12'
_cell_volume   888.83767033
_cell_formula_units_Z   2
loop_
 _symmetry_equiv_pos_site_id
 _symmetry_equiv_pos_as_xyz
  1  'x, y, z'
loop_
 _atom_site_type_symbol
 _atom_site_label
 _atom_site_symmetry_multiplicity
 _atom_site_fract_x
 _atom_site_fract_y
 _atom_site_fract_z
 _atom_site_occupancy
  Y  Y0  1  0.500000  0.114525  0.347100  1
  Y  Y1  1  0.500000  0.885475  0.652900  1
  Y  Y2  1  0.500000  0.614525  0.152900  1
  Y  Y3  1  0.500000  0.385475  0.847100  1
  Y  Y4  1  0.000000  0.114084  0.576933  1
  Y  Y5  1  0.000000  0.885916  0.423067  1
  Y  Y6  1  0.000000  0.614084  0.923067  1
  Y  Y7  1  0.000000  0.385916  0.076933  1
  Zn  Zn8  1  0.500000  0.000000  0.500000  1
  Zn  Zn9  1  0.500000  0.500000  0.000000  1
  I  I10  1  0.500000  0.245622  0.162693  1
  I  I11  1  0.500000  0.754378  0.837307  1
  I  I12  1  0.500000  0.745622  0.337307  1
  I  I13  1  0.500000  0.254378  0.662693  1
  I  I14  1  0.000000  0.259689  0.414050  1
  I  I15  1  0.000000  0.740311  0.585950  1
  I  I16  1  0.000000  0.759689  0.085950  1
  I  I17  1  0.000000  0.240311  0.914050  1
  I  I18  1  0.000000  0.999188  0.239224  1
  I  I19  1  0.000000  0.000812  0.760776  1
  I  I20  1  0.000000  0.499188  0.260776  1
  I  I21  1  0.000000  0.500812  0.739224  1
