# generated using pymatgen
data_Zr6Fe2Ni18P13
_symmetry_space_group_name_H-M   'P 1'
_cell_length_a   12.47484715
_cell_length_b   12.49469891
_cell_length_c   3.65863500
_cell_angle_alpha   90.00000000
_cell_angle_beta   90.00000000
_cell_angle_gamma   120.08615649
_symmetry_Int_Tables_number   1
_chemical_formula_structural   Zr6Fe2Ni18P13
_chemical_formula_sum   'Zr6 Fe2 Ni18 P13'
_cell_volume   493.43851862
_cell_formula_units_Z   1
loop_
 _symmetry_equiv_pos_site_id
 _symmetry_equiv_pos_as_xyz
  1  'x, y, z'
loop_
 _atom_site_type_symbol
 _atom_site_label
 _atom_site_symmetry_multiplicity
 _atom_site_fract_x
 _atom_site_fract_y
 _atom_site_fract_z
 _atom_site_occupancy
  Zr  Zr0  1  0.806904  0.280829  0.500000  1
  Zr  Zr1  1  0.717902  0.526123  0.500000  1
  Zr  Zr2  1  0.474575  0.189168  0.500000  1
  Zr  Zr3  1  0.192947  0.719405  0.000000  1
  Zr  Zr4  1  0.281513  0.473559  0.000000  1
  Zr  Zr5  1  0.526552  0.810163  0.000000  1
  Fe  Fe6  1  0.416520  0.979416  0.000000  1
  Fe  Fe7  1  0.584562  0.020762  0.500000  1
  Ni  Ni8  1  0.021103  0.439013  0.000000  1
  Ni  Ni9  1  0.560637  0.581278  0.000000  1
  Ni  Ni10  1  0.978368  0.563296  0.500000  1
  Ni  Ni11  1  0.920449  0.079857  0.500000  1
  Ni  Ni12  1  0.160110  0.079328  0.500000  1
  Ni  Ni13  1  0.919124  0.840354  0.500000  1
  Ni  Ni14  1  0.095752  0.896636  0.000000  1
  Ni  Ni15  1  0.801303  0.905570  0.000000  1
  Ni  Ni16  1  0.104427  0.198768  0.000000  1
  Ni  Ni17  1  0.333680  0.668819  0.500000  1
  Ni  Ni18  1  0.666400  0.331592  0.000000  1
  Ni  Ni19  1  0.677177  0.749470  0.500000  1
  Ni  Ni20  1  0.252833  0.928169  0.500000  1
  Ni  Ni21  1  0.921829  0.676245  0.000000  1
  Ni  Ni22  1  0.323959  0.244151  0.000000  1
  Ni  Ni23  1  0.753830  0.079243  0.000000  1
  Ni  Ni24  1  0.436710  0.415516  0.500000  1
  Ni  Ni25  1  0.070511  0.322483  0.500000  1
  P  P26  1  0.999969  0.999952  0.000000  1
  P  P27  1  0.232933  0.286157  0.500000  1
  P  P28  1  0.712591  0.948033  0.500000  1
  P  P29  1  0.052455  0.766346  0.500000  1
  P  P30  1  0.765879  0.712480  0.000000  1
  P  P31  1  0.289121  0.053235  0.000000  1
  P  P32  1  0.472709  0.613931  0.500000  1
  P  P33  1  0.391385  0.864533  0.500000  1
  P  P34  1  0.859599  0.473029  0.000000  1
  P  P35  1  0.526457  0.385721  0.000000  1
  P  P36  1  0.609728  0.135160  0.000000  1
  P  P37  1  0.946632  0.234619  0.000000  1
  P  P38  1  0.140870  0.527588  0.500000  1
