# generated using pymatgen
data_YHo2Zr(Co4P3)2
_symmetry_space_group_name_H-M   'P 1'
_cell_length_a   3.72059900
_cell_length_b   10.70011500
_cell_length_c   12.41705900
_cell_angle_alpha   90.00000000
_cell_angle_beta   90.00000000
_cell_angle_gamma   90.00000000
_symmetry_Int_Tables_number   1
_chemical_formula_structural   YHo2Zr(Co4P3)2
_chemical_formula_sum   'Y2 Ho4 Zr2 Co16 P12'
_cell_volume   494.33351397
_cell_formula_units_Z   2
loop_
 _symmetry_equiv_pos_site_id
 _symmetry_equiv_pos_as_xyz
  1  'x, y, z'
loop_
 _atom_site_type_symbol
 _atom_site_label
 _atom_site_symmetry_multiplicity
 _atom_site_fract_x
 _atom_site_fract_y
 _atom_site_fract_z
 _atom_site_occupancy
  Y  Y0  1  0.000000  0.500000  0.529188  1
  Y  Y1  1  0.500000  0.000000  0.470812  1
  Ho  Ho2  1  0.500000  0.821884  0.204814  1
  Ho  Ho3  1  0.500000  0.178116  0.204814  1
  Ho  Ho4  1  0.000000  0.678116  0.795186  1
  Ho  Ho5  1  0.000000  0.321884  0.795186  1
  Zr  Zr6  1  0.500000  0.500000  0.158217  1
  Zr  Zr7  1  0.000000  0.000000  0.841783  1
  Co  Co8  1  0.000000  0.500000  0.985642  1
  Co  Co9  1  0.500000  0.000000  0.014358  1
  Co  Co10  1  0.500000  0.294986  0.433289  1
  Co  Co11  1  0.500000  0.705014  0.433289  1
  Co  Co12  1  0.000000  0.205014  0.566711  1
  Co  Co13  1  0.000000  0.794986  0.566711  1
  Co  Co14  1  0.500000  0.877222  0.701410  1
  Co  Co15  1  0.500000  0.122778  0.701410  1
  Co  Co16  1  0.000000  0.622778  0.298590  1
  Co  Co17  1  0.000000  0.377222  0.298590  1
  Co  Co18  1  0.500000  0.332030  0.992612  1
  Co  Co19  1  0.500000  0.667970  0.992612  1
  Co  Co20  1  0.000000  0.167970  0.007388  1
  Co  Co21  1  0.000000  0.832030  0.007388  1
  Co  Co22  1  0.500000  0.500000  0.703370  1
  Co  Co23  1  0.000000  0.000000  0.296630  1
  P  P24  1  0.500000  0.310172  0.615703  1
  P  P25  1  0.500000  0.689828  0.615703  1
  P  P26  1  0.000000  0.189828  0.384297  1
  P  P27  1  0.000000  0.810172  0.384297  1
  P  P28  1  0.500000  0.500000  0.882983  1
  P  P29  1  0.000000  0.000000  0.117017  1
  P  P30  1  0.500000  0.837922  0.893770  1
  P  P31  1  0.500000  0.162078  0.893770  1
  P  P32  1  0.000000  0.662078  0.106230  1
  P  P33  1  0.000000  0.337922  0.106230  1
  P  P34  1  0.500000  0.500000  0.363221  1
  P  P35  1  0.000000  0.000000  0.636779  1
