# generated using pymatgen
data_Tm3Al8(FeSi)4
_symmetry_space_group_name_H-M   'P 1'
_cell_length_a   8.42980156
_cell_length_b   8.42980059
_cell_length_c   9.16107100
_cell_angle_alpha   90.00000000
_cell_angle_beta   90.00000000
_cell_angle_gamma   119.98976103
_symmetry_Int_Tables_number   1
_chemical_formula_structural   Tm3Al8(FeSi)4
_chemical_formula_sum   'Tm6 Al16 Fe8 Si8'
_cell_volume   563.84058390
_cell_formula_units_Z   2
loop_
 _symmetry_equiv_pos_site_id
 _symmetry_equiv_pos_as_xyz
  1  'x, y, z'
loop_
 _atom_site_type_symbol
 _atom_site_label
 _atom_site_symmetry_multiplicity
 _atom_site_fract_x
 _atom_site_fract_y
 _atom_site_fract_z
 _atom_site_occupancy
  Tm  Tm0  1  0.192678  0.389193  0.250000  1
  Tm  Tm1  1  0.807322  0.610807  0.750000  1
  Tm  Tm2  1  0.610807  0.807322  0.250000  1
  Tm  Tm3  1  0.389193  0.192678  0.750000  1
  Tm  Tm4  1  0.195958  0.804042  0.250000  1
  Tm  Tm5  1  0.804042  0.195958  0.750000  1
  Al  Al6  1  0.163945  0.327124  0.575401  1
  Al  Al7  1  0.836055  0.672876  0.424599  1
  Al  Al8  1  0.672876  0.836055  0.575401  1
  Al  Al9  1  0.836055  0.672876  0.075401  1
  Al  Al10  1  0.327124  0.163945  0.424599  1
  Al  Al11  1  0.163945  0.327124  0.924599  1
  Al  Al12  1  0.164169  0.835831  0.575106  1
  Al  Al13  1  0.327124  0.163945  0.075401  1
  Al  Al14  1  0.835831  0.164169  0.424894  1
  Al  Al15  1  0.672876  0.836055  0.924599  1
  Al  Al16  1  0.835831  0.164169  0.075106  1
  Al  Al17  1  0.164169  0.835831  0.924894  1
  Al  Al18  1  0.562607  0.437393  0.250000  1
  Al  Al19  1  0.437393  0.562607  0.750000  1
  Al  Al20  1  0.000453  0.999547  0.250000  1
  Al  Al21  1  0.999547  0.000453  0.750000  1
  Fe  Fe22  1  0.500000  0.000000  0.000000  1
  Fe  Fe23  1  0.000000  0.500000  0.000000  1
  Fe  Fe24  1  0.500000  0.000000  0.500000  1
  Fe  Fe25  1  0.500000  0.500000  0.000000  1
  Fe  Fe26  1  0.000000  0.500000  0.500000  1
  Fe  Fe27  1  0.500000  0.500000  0.500000  1
  Fe  Fe28  1  0.000000  0.000000  0.000000  1
  Fe  Fe29  1  0.000000  0.000000  0.500000  1
  Si  Si30  1  0.335454  0.664546  0.033729  1
  Si  Si31  1  0.664546  0.335454  0.966271  1
  Si  Si32  1  0.664546  0.335454  0.533729  1
  Si  Si33  1  0.335454  0.664546  0.466271  1
  Si  Si34  1  0.560672  0.118197  0.250000  1
  Si  Si35  1  0.439328  0.881803  0.750000  1
  Si  Si36  1  0.881803  0.439328  0.250000  1
  Si  Si37  1  0.118197  0.560672  0.750000  1
