# generated using pymatgen
data_InH4I4N
_symmetry_space_group_name_H-M   'P 1'
_cell_length_a   10.58622072
_cell_length_b   10.58621994
_cell_length_c   10.58621982
_cell_angle_alpha   134.77390248
_cell_angle_beta   134.77390876
_cell_angle_gamma   65.88170204
_symmetry_Int_Tables_number   1
_chemical_formula_structural   InH4I4N
_chemical_formula_sum   'In2 H8 I8 N2'
_cell_volume   588.80324551
_cell_formula_units_Z   2
loop_
 _symmetry_equiv_pos_site_id
 _symmetry_equiv_pos_as_xyz
  1  'x, y, z'
loop_
 _atom_site_type_symbol
 _atom_site_label
 _atom_site_symmetry_multiplicity
 _atom_site_fract_x
 _atom_site_fract_y
 _atom_site_fract_z
 _atom_site_occupancy
  In  In0  1  0.500000  0.500000  0.000000  1
  In  In1  1  0.250000  0.750000  0.500000  1
  H  H2  1  0.887303  0.281486  0.600847  1
  H  H3  1  0.713544  0.112697  0.394183  1
  H  H4  1  0.718514  0.319361  0.605817  1
  H  H5  1  0.069361  0.963544  0.100847  1
  H  H6  1  0.680639  0.286456  0.399153  1
  H  H7  1  0.031486  0.930639  0.894183  1
  H  H8  1  0.036456  0.137303  0.105817  1
  H  H9  1  0.862697  0.968514  0.899153  1
  I  I10  1  0.734491  0.343156  0.906007  1
  I  I11  1  0.093156  0.687149  0.108664  1
  I  I12  1  0.171515  0.265509  0.608664  1
  I  I13  1  0.437149  0.828485  0.093993  1
  I  I14  1  0.312851  0.421515  0.406007  1
  I  I15  1  0.578485  0.984491  0.891336  1
  I  I16  1  0.656844  0.562851  0.391336  1
  I  I17  1  0.015509  0.906844  0.593993  1
  N  N18  1  0.750000  0.250000  0.500000  1
  N  N19  1  0.000000  0.000000  0.000000  1
