# generated using pymatgen
data_SrTmLuSe4
_symmetry_space_group_name_H-M   'P 1'
_cell_length_a   4.09856300
_cell_length_b   12.54318000
_cell_length_c   14.81194800
_cell_angle_alpha   90.00000000
_cell_angle_beta   90.00000000
_cell_angle_gamma   90.00000000
_symmetry_Int_Tables_number   1
_chemical_formula_structural   SrTmLuSe4
_chemical_formula_sum   'Sr4 Tm4 Lu4 Se16'
_cell_volume   761.46763396
_cell_formula_units_Z   4
loop_
 _symmetry_equiv_pos_site_id
 _symmetry_equiv_pos_as_xyz
  1  'x, y, z'
loop_
 _atom_site_type_symbol
 _atom_site_label
 _atom_site_symmetry_multiplicity
 _atom_site_fract_x
 _atom_site_fract_y
 _atom_site_fract_z
 _atom_site_occupancy
  Sr  Sr0  1  0.250000  0.760004  0.333762  1
  Sr  Sr1  1  0.250000  0.260004  0.166238  1
  Sr  Sr2  1  0.750000  0.239996  0.666238  1
  Sr  Sr3  1  0.750000  0.739996  0.833762  1
  Tm  Tm4  1  0.250000  0.439109  0.389167  1
  Tm  Tm5  1  0.250000  0.939109  0.110833  1
  Tm  Tm6  1  0.750000  0.560891  0.610833  1
  Tm  Tm7  1  0.750000  0.060891  0.889167  1
  Lu  Lu8  1  0.250000  0.417299  0.902594  1
  Lu  Lu9  1  0.250000  0.917299  0.597406  1
  Lu  Lu10  1  0.750000  0.582701  0.097406  1
  Lu  Lu11  1  0.750000  0.082701  0.402594  1
  Se  Se12  1  0.250000  0.205200  0.831489  1
  Se  Se13  1  0.250000  0.705200  0.668511  1
  Se  Se14  1  0.750000  0.794800  0.168511  1
  Se  Se15  1  0.750000  0.294800  0.331489  1
  Se  Se16  1  0.250000  0.127583  0.530204  1
  Se  Se17  1  0.250000  0.627583  0.969796  1
  Se  Se18  1  0.750000  0.872417  0.469796  1
  Se  Se19  1  0.750000  0.372417  0.030204  1
  Se  Se20  1  0.250000  0.028484  0.285134  1
  Se  Se21  1  0.250000  0.528484  0.214866  1
  Se  Se22  1  0.750000  0.971516  0.714866  1
  Se  Se23  1  0.750000  0.471516  0.785134  1
  Se  Se24  1  0.250000  0.409242  0.576691  1
  Se  Se25  1  0.250000  0.909242  0.923309  1
  Se  Se26  1  0.750000  0.590758  0.423309  1
  Se  Se27  1  0.750000  0.090758  0.076691  1
