# generated using pymatgen
data_LiErInPt3
_symmetry_space_group_name_H-M   'P 1'
_cell_length_a   5.47495652
_cell_length_b   5.47495672
_cell_length_c   5.14397274
_cell_angle_alpha   57.84767034
_cell_angle_beta   57.84766870
_cell_angle_gamma   59.99999175
_symmetry_Int_Tables_number   1
_chemical_formula_structural   LiErInPt3
_chemical_formula_sum   'Li1 Er1 In1 Pt3'
_cell_volume   105.34698576
_cell_formula_units_Z   1
loop_
 _symmetry_equiv_pos_site_id
 _symmetry_equiv_pos_as_xyz
  1  'x, y, z'
loop_
 _atom_site_type_symbol
 _atom_site_label
 _atom_site_symmetry_multiplicity
 _atom_site_fract_x
 _atom_site_fract_y
 _atom_site_fract_z
 _atom_site_occupancy
  Li  Li0  1  0.621788  0.621788  0.134636  1
  Er  Er1  1  0.005236  0.005236  0.984292  1
  In  In2  1  0.254636  0.254636  0.236092  1
  Pt  Pt3  1  0.623337  0.121665  0.631660  1
  Pt  Pt4  1  0.121665  0.623337  0.631660  1
  Pt  Pt5  1  0.623337  0.623337  0.631660  1
