# generated using pymatgen
data_YbTm2Sc2(In2Pt)2
_symmetry_space_group_name_H-M   'P 1'
_cell_length_a   3.58420300
_cell_length_b   7.92522700
_cell_length_c   17.88614100
_cell_angle_alpha   90.00000000
_cell_angle_beta   90.00000000
_cell_angle_gamma   90.00000000
_symmetry_Int_Tables_number   1
_chemical_formula_structural   YbTm2Sc2(In2Pt)2
_chemical_formula_sum   'Yb2 Tm4 Sc4 In8 Pt4'
_cell_volume   508.06696724
_cell_formula_units_Z   2
loop_
 _symmetry_equiv_pos_site_id
 _symmetry_equiv_pos_as_xyz
  1  'x, y, z'
loop_
 _atom_site_type_symbol
 _atom_site_label
 _atom_site_symmetry_multiplicity
 _atom_site_fract_x
 _atom_site_fract_y
 _atom_site_fract_z
 _atom_site_occupancy
  Yb  Yb0  1  0.000000  0.000000  0.000000  1
  Yb  Yb1  1  0.000000  0.500000  0.500000  1
  Tm  Tm2  1  0.000000  0.243486  0.218810  1
  Tm  Tm3  1  0.000000  0.756514  0.781190  1
  Tm  Tm4  1  0.000000  0.256514  0.718810  1
  Tm  Tm5  1  0.000000  0.743486  0.281190  1
  Sc  Sc6  1  0.000000  0.117841  0.414063  1
  Sc  Sc7  1  0.000000  0.882159  0.585937  1
  Sc  Sc8  1  0.000000  0.382159  0.914063  1
  Sc  Sc9  1  0.000000  0.617841  0.085937  1
  In  In10  1  0.500000  0.417602  0.351711  1
  In  In11  1  0.500000  0.582398  0.648289  1
  In  In12  1  0.500000  0.082398  0.851711  1
  In  In13  1  0.500000  0.917602  0.148289  1
  In  In14  1  0.500000  0.303100  0.061984  1
  In  In15  1  0.500000  0.696900  0.938016  1
  In  In16  1  0.500000  0.196900  0.561984  1
  In  In17  1  0.500000  0.803100  0.438016  1
  Pt  Pt18  1  0.500000  0.029709  0.307009  1
  Pt  Pt19  1  0.500000  0.970291  0.692991  1
  Pt  Pt20  1  0.500000  0.470291  0.807009  1
  Pt  Pt21  1  0.500000  0.529709  0.192991  1
