# generated using pymatgen
data_Tm4B4Ir9W
_symmetry_space_group_name_H-M   'P 1'
_cell_length_a   10.76018591
_cell_length_b   10.76018507
_cell_length_c   10.76018690
_cell_angle_alpha   29.70917547
_cell_angle_beta   29.70918341
_cell_angle_gamma   29.70917864
_symmetry_Int_Tables_number   1
_chemical_formula_structural   Tm4B4Ir9W
_chemical_formula_sum   'Tm4 B4 Ir9 W1'
_cell_volume   270.93091415
_cell_formula_units_Z   1
loop_
 _symmetry_equiv_pos_site_id
 _symmetry_equiv_pos_as_xyz
  1  'x, y, z'
loop_
 _atom_site_type_symbol
 _atom_site_label
 _atom_site_symmetry_multiplicity
 _atom_site_fract_x
 _atom_site_fract_y
 _atom_site_fract_z
 _atom_site_occupancy
  Tm  Tm0  1  0.151011  0.151011  0.151011  1
  Tm  Tm1  1  0.949715  0.949715  0.949715  1
  Tm  Tm2  1  0.848989  0.848989  0.848989  1
  Tm  Tm3  1  0.050285  0.050285  0.050285  1
  B  B4  1  0.615788  0.615788  0.615788  1
  B  B5  1  0.716327  0.716327  0.716327  1
  B  B6  1  0.384212  0.384212  0.384212  1
  B  B7  1  0.283673  0.283673  0.283673  1
  Ir  Ir8  1  0.400311  0.903161  0.400311  1
  Ir  Ir9  1  0.903161  0.400311  0.400311  1
  Ir  Ir10  1  0.500000  0.500000  0.000000  1
  Ir  Ir11  1  0.500000  0.000000  0.500000  1
  Ir  Ir12  1  0.000000  0.500000  0.500000  1
  Ir  Ir13  1  0.599689  0.096839  0.599689  1
  Ir  Ir14  1  0.599689  0.599689  0.096839  1
  Ir  Ir15  1  0.096839  0.599689  0.599689  1
  Ir  Ir16  1  0.400311  0.400311  0.903161  1
  W  W17  1  0.500000  0.500000  0.500000  1
