# generated using pymatgen
data_Er8Ti8Re4Si15Ge
_symmetry_space_group_name_H-M   'P 1'
_cell_length_a   6.92167142
_cell_length_b   6.91279119
_cell_length_c   12.73916950
_cell_angle_alpha   89.99143424
_cell_angle_beta   89.96902542
_cell_angle_gamma   89.97449531
_symmetry_Int_Tables_number   1
_chemical_formula_structural   Er8Ti8Re4Si15Ge
_chemical_formula_sum   'Er8 Ti8 Re4 Si15 Ge1'
_cell_volume   609.54450815
_cell_formula_units_Z   1
loop_
 _symmetry_equiv_pos_site_id
 _symmetry_equiv_pos_as_xyz
  1  'x, y, z'
loop_
 _atom_site_type_symbol
 _atom_site_label
 _atom_site_symmetry_multiplicity
 _atom_site_fract_x
 _atom_site_fract_y
 _atom_site_fract_z
 _atom_site_occupancy
  Er  Er0  1  0.341352  0.000231  0.468308  1
  Er  Er1  1  0.500485  0.839877  0.719461  1
  Er  Er2  1  0.500617  0.159366  0.219071  1
  Er  Er3  1  0.840679  0.499343  0.280817  1
  Er  Er4  1  0.159318  0.501767  0.781242  1
  Er  Er5  1  0.659473  0.999013  0.969368  1
  Er  Er6  1  0.999452  0.341773  0.530070  1
  Er  Er7  1  0.999311  0.659299  0.030973  1
  Ti  Ti8  1  0.151902  0.004948  0.877378  1
  Ti  Ti9  1  0.494640  0.651849  0.126116  1
  Ti  Ti10  1  0.507522  0.349494  0.625927  1
  Ti  Ti11  1  0.652126  0.495094  0.873919  1
  Ti  Ti12  1  0.348023  0.505350  0.373837  1
  Ti  Ti13  1  0.848006  0.994773  0.376130  1
  Ti  Ti14  1  0.005355  0.151894  0.123927  1
  Ti  Ti15  1  0.992605  0.845367  0.623340  1
  Re  Re16  1  0.328214  0.328364  0.000012  1
  Re  Re17  1  0.171680  0.828416  0.250059  1
  Re  Re18  1  0.824141  0.172024  0.750618  1
  Re  Re19  1  0.671753  0.671613  0.500074  1
  Si  Si20  1  0.369662  0.700754  0.932902  1
  Si  Si21  1  0.630350  0.299330  0.432860  1
  Si  Si22  1  0.700657  0.369646  0.067123  1
  Si  Si23  1  0.299240  0.630361  0.567105  1
  Si  Si24  1  0.799338  0.869599  0.182921  1
  Si  Si25  1  0.130451  0.200744  0.317081  1
  Si  Si26  1  0.869602  0.799495  0.817092  1
  Si  Si27  1  0.292018  0.952836  0.066705  1
  Si  Si28  1  0.547232  0.791790  0.316441  1
  Si  Si29  1  0.455529  0.208629  0.817877  1
  Si  Si30  1  0.792250  0.546796  0.683649  1
  Si  Si31  1  0.208074  0.452953  0.183460  1
  Si  Si32  1  0.708046  0.047098  0.566600  1
  Si  Si33  1  0.952903  0.291907  0.933372  1
  Si  Si34  1  0.047253  0.708175  0.433346  1
  Ge  Ge35  1  0.200744  0.130033  0.680817  1
