# generated using pymatgen
data_Pr15Th(CdCo)4
_symmetry_space_group_name_H-M   'P 1'
_cell_length_a   9.92708188
_cell_length_b   9.89028458
_cell_length_c   9.89028400
_cell_angle_alpha   60.00000194
_cell_angle_beta   60.12254496
_cell_angle_gamma   60.12254647
_symmetry_Int_Tables_number   1
_chemical_formula_structural   Pr15Th(CdCo)4
_chemical_formula_sum   'Pr15 Th1 Cd4 Co4'
_cell_volume   687.90128174
_cell_formula_units_Z   1
loop_
 _symmetry_equiv_pos_site_id
 _symmetry_equiv_pos_as_xyz
  1  'x, y, z'
loop_
 _atom_site_type_symbol
 _atom_site_label
 _atom_site_symmetry_multiplicity
 _atom_site_fract_x
 _atom_site_fract_y
 _atom_site_fract_z
 _atom_site_occupancy
  Pr  Pr0  1  0.939043  0.939300  0.560828  1
  Pr  Pr1  1  0.810760  0.189578  0.189578  1
  Pr  Pr2  1  0.939043  0.560828  0.560828  1
  Pr  Pr3  1  0.939043  0.560828  0.939300  1
  Pr  Pr4  1  0.810760  0.810084  0.189578  1
  Pr  Pr5  1  0.346431  0.345339  0.345339  1
  Pr  Pr6  1  0.563097  0.938073  0.938073  1
  Pr  Pr7  1  0.563097  0.938073  0.560758  1
  Pr  Pr8  1  0.189424  0.810363  0.810363  1
  Pr  Pr9  1  0.189424  0.189851  0.810363  1
  Pr  Pr10  1  0.346431  0.345339  0.962891  1
  Pr  Pr11  1  0.346431  0.962891  0.345339  1
  Pr  Pr12  1  0.810760  0.189578  0.810084  1
  Pr  Pr13  1  0.563097  0.560758  0.938073  1
  Pr  Pr14  1  0.189424  0.810363  0.189851  1
  Th  Th15  1  0.976091  0.341304  0.341304  1
  Cd  Cd16  1  0.580285  0.578605  0.262507  1
  Cd  Cd17  1  0.263527  0.578825  0.578825  1
  Cd  Cd18  1  0.580285  0.578605  0.578605  1
  Cd  Cd19  1  0.580285  0.262507  0.578605  1
  Co  Co20  1  0.578672  0.140443  0.140443  1
  Co  Co21  1  0.131531  0.149276  0.149276  1
  Co  Co22  1  0.131531  0.569918  0.149276  1
  Co  Co23  1  0.131531  0.149276  0.569918  1
