# generated using pymatgen
data_LaZr3(Ga3Ir)6
_symmetry_space_group_name_H-M   'P 1'
_cell_length_a   7.51684500
_cell_length_b   7.50589510
_cell_length_c   9.39935700
_cell_angle_alpha   90.00000000
_cell_angle_beta   90.00000000
_cell_angle_gamma   119.65592265
_symmetry_Int_Tables_number   1
_chemical_formula_structural   LaZr3(Ga3Ir)6
_chemical_formula_sum   'La1 Zr3 Ga18 Ir6'
_cell_volume   460.85277797
_cell_formula_units_Z   1
loop_
 _symmetry_equiv_pos_site_id
 _symmetry_equiv_pos_as_xyz
  1  'x, y, z'
loop_
 _atom_site_type_symbol
 _atom_site_label
 _atom_site_symmetry_multiplicity
 _atom_site_fract_x
 _atom_site_fract_y
 _atom_site_fract_z
 _atom_site_occupancy
  La  La0  1  0.329994  0.003083  0.750000  1
  Zr  Zr1  1  0.996487  0.672335  0.250000  1
  Zr  Zr2  1  0.003563  0.329773  0.750000  1
  Zr  Zr3  1  0.672448  0.997372  0.250000  1
  Ga  Ga4  1  0.124344  0.127405  0.250000  1
  Ga  Ga5  1  0.866722  0.872879  0.750000  1
  Ga  Ga6  1  0.996033  0.334865  0.081865  1
  Ga  Ga7  1  0.997885  0.659481  0.925021  1
  Ga  Ga8  1  0.997885  0.659481  0.574979  1
  Ga  Ga9  1  0.335386  0.996851  0.411321  1
  Ga  Ga10  1  0.996033  0.334865  0.418135  1
  Ga  Ga11  1  0.671257  0.002635  0.575325  1
  Ga  Ga12  1  0.671257  0.002635  0.924675  1
  Ga  Ga13  1  0.335386  0.996851  0.088679  1
  Ga  Ga14  1  0.330020  0.335453  0.562496  1
  Ga  Ga15  1  0.669610  0.669841  0.426321  1
  Ga  Ga16  1  0.669610  0.669841  0.073679  1
  Ga  Ga17  1  0.330020  0.335453  0.937504  1
  Ga  Ga18  1  0.336471  0.550140  0.250000  1
  Ga  Ga19  1  0.669873  0.458952  0.750000  1
  Ga  Ga20  1  0.552085  0.339517  0.250000  1
  Ga  Ga21  1  0.448948  0.653514  0.750000  1
  Ir  Ir22  1  0.671183  0.327972  0.002398  1
  Ir  Ir23  1  0.329356  0.673051  0.002981  1
  Ir  Ir24  1  0.329356  0.673051  0.497019  1
  Ir  Ir25  1  0.671183  0.327972  0.497602  1
  Ir  Ir26  1  0.998805  0.997366  0.003231  1
  Ir  Ir27  1  0.998805  0.997366  0.496769  1
