# generated using pymatgen
data_Ta15Nb(NiTe4)4
_symmetry_space_group_name_H-M   'P 1'
_cell_length_a   4.76125300
_cell_length_b   10.83860154
_cell_length_c   18.76591493
_cell_angle_alpha   90.03616893
_cell_angle_beta   90.00000000
_cell_angle_gamma   90.00000000
_symmetry_Int_Tables_number   1
_chemical_formula_structural   Ta15Nb(NiTe4)4
_chemical_formula_sum   'Ta15 Nb1 Ni4 Te16'
_cell_volume   968.42092924
_cell_formula_units_Z   1
loop_
 _symmetry_equiv_pos_site_id
 _symmetry_equiv_pos_as_xyz
  1  'x, y, z'
loop_
 _atom_site_type_symbol
 _atom_site_label
 _atom_site_symmetry_multiplicity
 _atom_site_fract_x
 _atom_site_fract_y
 _atom_site_fract_z
 _atom_site_occupancy
  Ta  Ta0  1  0.500000  0.565843  0.381723  1
  Ta  Ta1  1  0.500000  0.434713  0.618505  1
  Ta  Ta2  1  0.500000  0.065566  0.118424  1
  Ta  Ta3  1  0.500000  0.934402  0.881594  1
  Ta  Ta4  1  0.500000  0.706853  0.536524  1
  Ta  Ta5  1  0.500000  0.293014  0.463161  1
  Ta  Ta6  1  0.500000  0.206848  0.963349  1
  Ta  Ta7  1  0.500000  0.793156  0.036692  1
  Ta  Ta8  1  0.000000  0.307761  0.557816  1
  Ta  Ta9  1  0.000000  0.192247  0.057762  1
  Ta  Ta10  1  0.000000  0.807793  0.942197  1
  Ta  Ta11  1  0.000000  0.399579  0.390486  1
  Ta  Ta12  1  0.000000  0.600268  0.609560  1
  Ta  Ta13  1  0.000000  0.899368  0.109833  1
  Ta  Ta14  1  0.000000  0.100528  0.890164  1
  Nb  Nb15  1  0.000000  0.694571  0.441501  1
  Ni  Ni16  1  0.250229  0.499493  0.500118  1
  Ni  Ni17  1  0.750026  0.999994  0.000026  1
  Ni  Ni18  1  0.749771  0.499493  0.500118  1
  Ni  Ni19  1  0.249974  0.999994  0.000026  1
  Te  Te20  1  0.000000  0.853509  0.564740  1
  Te  Te21  1  0.000000  0.146084  0.436025  1
  Te  Te22  1  0.000000  0.353687  0.935806  1
  Te  Te23  1  0.000000  0.646276  0.064146  1
  Te  Te24  1  0.500000  0.330066  0.312131  1
  Te  Te25  1  0.500000  0.669928  0.687898  1
  Te  Te26  1  0.500000  0.830131  0.187990  1
  Te  Te27  1  0.500000  0.169762  0.812051  1
  Te  Te28  1  0.500000  0.829495  0.400624  1
  Te  Te29  1  0.500000  0.170919  0.599227  1
  Te  Te30  1  0.500000  0.329327  0.099370  1
  Te  Te31  1  0.500000  0.670682  0.900648  1
  Te  Te32  1  0.000000  0.608378  0.296662  1
  Te  Te33  1  0.000000  0.390331  0.703132  1
  Te  Te34  1  0.000000  0.109377  0.203130  1
  Te  Te35  1  0.000000  0.890566  0.796843  1
