# generated using pymatgen
data_ScTiPPt8
_symmetry_space_group_name_H-M   'P 1'
_cell_length_a   3.98082700
_cell_length_b   3.98082700
_cell_length_c   10.91939400
_cell_angle_alpha   90.00000000
_cell_angle_beta   90.00000000
_cell_angle_gamma   90.00000000
_symmetry_Int_Tables_number   1
_chemical_formula_structural   ScTiPPt8
_chemical_formula_sum   'Sc1 Ti1 P1 Pt8'
_cell_volume   173.03945768
_cell_formula_units_Z   1
loop_
 _symmetry_equiv_pos_site_id
 _symmetry_equiv_pos_as_xyz
  1  'x, y, z'
loop_
 _atom_site_type_symbol
 _atom_site_label
 _atom_site_symmetry_multiplicity
 _atom_site_fract_x
 _atom_site_fract_y
 _atom_site_fract_z
 _atom_site_occupancy
  Sc  Sc0  1  0.500000  0.500000  0.815505  1
  Ti  Ti1  1  0.500000  0.500000  0.181842  1
  P  P2  1  0.000000  0.000000  0.499468  1
  Pt  Pt3  1  0.500000  0.000000  0.006976  1
  Pt  Pt4  1  0.000000  0.500000  0.006976  1
  Pt  Pt5  1  0.500000  0.000000  0.630531  1
  Pt  Pt6  1  0.000000  0.500000  0.630531  1
  Pt  Pt7  1  0.500000  0.000000  0.362741  1
  Pt  Pt8  1  0.000000  0.500000  0.362741  1
  Pt  Pt9  1  0.000000  0.000000  0.820087  1
  Pt  Pt10  1  0.000000  0.000000  0.182600  1
