# generated using pymatgen
data_Tb4Dy8Co5Bi
_symmetry_space_group_name_H-M   'P 1'
_cell_length_a   8.31928292
_cell_length_b   8.31928326
_cell_length_c   8.31928345
_cell_angle_alpha   110.91389682
_cell_angle_beta   110.63343243
_cell_angle_gamma   106.89673535
_symmetry_Int_Tables_number   1
_chemical_formula_structural   Tb4Dy8Co5Bi
_chemical_formula_sum   'Tb4 Dy8 Co5 Bi1'
_cell_volume   442.56665463
_cell_formula_units_Z   1
loop_
 _symmetry_equiv_pos_site_id
 _symmetry_equiv_pos_as_xyz
  1  'x, y, z'
loop_
 _atom_site_type_symbol
 _atom_site_label
 _atom_site_symmetry_multiplicity
 _atom_site_fract_x
 _atom_site_fract_y
 _atom_site_fract_z
 _atom_site_occupancy
  Tb  Tb0  1  0.600295  0.794578  0.805718  1
  Tb  Tb1  1  0.399705  0.205422  0.194282  1
  Tb  Tb2  1  0.988861  0.794578  0.194282  1
  Tb  Tb3  1  0.011139  0.205422  0.805718  1
  Dy  Dy4  1  0.816462  0.709147  0.525609  1
  Dy  Dy5  1  0.183538  0.290853  0.474391  1
  Dy  Dy6  1  0.183538  0.709147  0.892685  1
  Dy  Dy7  1  0.816462  0.290853  0.107315  1
  Dy  Dy8  1  0.688058  0.378756  0.690697  1
  Dy  Dy9  1  0.311942  0.621244  0.309303  1
  Dy  Dy10  1  0.688058  0.997361  0.309303  1
  Dy  Dy11  1  0.311942  0.002639  0.690697  1
  Co  Co12  1  0.623298  0.000000  0.623298  1
  Co  Co13  1  0.376702  0.000000  0.376702  1
  Co  Co14  1  0.111439  0.611439  0.500000  1
  Co  Co15  1  0.888561  0.388561  0.500000  1
  Co  Co16  1  0.000000  0.000000  0.000000  1
  Bi  Bi17  1  0.500000  0.500000  0.000000  1
