# generated using pymatgen
data_Tb4TmReRuC7
_symmetry_space_group_name_H-M   'P 1'
_cell_length_a   8.30366874
_cell_length_b   8.24536603
_cell_length_c   3.47689900
_cell_angle_alpha   90.00000000
_cell_angle_beta   90.00000000
_cell_angle_gamma   122.47625762
_symmetry_Int_Tables_number   1
_chemical_formula_structural   Tb4TmReRuC7
_chemical_formula_sum   'Tb4 Tm1 Re1 Ru1 C7'
_cell_volume   200.82409551
_cell_formula_units_Z   1
loop_
 _symmetry_equiv_pos_site_id
 _symmetry_equiv_pos_as_xyz
  1  'x, y, z'
loop_
 _atom_site_type_symbol
 _atom_site_label
 _atom_site_symmetry_multiplicity
 _atom_site_fract_x
 _atom_site_fract_y
 _atom_site_fract_z
 _atom_site_occupancy
  Tb  Tb0  1  0.500210  0.498992  0.000000  1
  Tb  Tb1  1  0.074008  0.331657  0.500000  1
  Tb  Tb2  1  0.923669  0.664979  0.500000  1
  Tb  Tb3  1  0.662915  0.927561  0.500000  1
  Tm  Tm4  1  0.343141  0.079504  0.500000  1
  Re  Re5  1  0.283623  0.714116  0.000000  1
  Ru  Ru6  1  0.712869  0.288241  0.000000  1
  C  C7  1  0.630454  0.370270  0.500000  1
  C  C8  1  0.370820  0.626743  0.500000  1
  C  C9  1  0.000783  0.999488  0.000000  1
  C  C10  1  0.174730  0.166120  0.000000  1
  C  C11  1  0.828535  0.831587  0.000000  1
  C  C12  1  0.000856  0.501985  0.000000  1
  C  C13  1  0.493388  0.998756  0.000000  1
