# generated using pymatgen
data_Nd4TlPbAu4
_symmetry_space_group_name_H-M   'P 1'
_cell_length_a   3.84684400
_cell_length_b   8.25716900
_cell_length_c   8.25716900
_cell_angle_alpha   90.00000000
_cell_angle_beta   90.00000000
_cell_angle_gamma   90.00000000
_symmetry_Int_Tables_number   1
_chemical_formula_structural   Nd4TlPbAu4
_chemical_formula_sum   'Nd4 Tl1 Pb1 Au4'
_cell_volume   262.28105486
_cell_formula_units_Z   1
loop_
 _symmetry_equiv_pos_site_id
 _symmetry_equiv_pos_as_xyz
  1  'x, y, z'
loop_
 _atom_site_type_symbol
 _atom_site_label
 _atom_site_symmetry_multiplicity
 _atom_site_fract_x
 _atom_site_fract_y
 _atom_site_fract_z
 _atom_site_occupancy
  Nd  Nd0  1  0.500000  0.171494  0.672592  1
  Nd  Nd1  1  0.500000  0.828506  0.327408  1
  Nd  Nd2  1  0.500000  0.327408  0.171494  1
  Nd  Nd3  1  0.500000  0.672592  0.828506  1
  Tl  Tl4  1  0.000000  0.500000  0.500000  1
  Pb  Pb5  1  0.000000  0.000000  0.000000  1
  Au  Au6  1  0.000000  0.623090  0.125896  1
  Au  Au7  1  0.000000  0.376910  0.874104  1
  Au  Au8  1  0.000000  0.874104  0.623090  1
  Au  Au9  1  0.000000  0.125896  0.376910  1
