# generated using pymatgen
data_NaNb3O6
_symmetry_space_group_name_H-M   'P 1'
_cell_length_a   6.62617776
_cell_length_b   7.09829654
_cell_length_c   12.38382400
_cell_angle_alpha   90.75481255
_cell_angle_beta   74.51231076
_cell_angle_gamma   62.17776352
_symmetry_Int_Tables_number   1
_chemical_formula_structural   NaNb3O6
_chemical_formula_sum   'Na4 Nb12 O24'
_cell_volume   489.89678712
_cell_formula_units_Z   4
loop_
 _symmetry_equiv_pos_site_id
 _symmetry_equiv_pos_as_xyz
  1  'x, y, z'
loop_
 _atom_site_type_symbol
 _atom_site_label
 _atom_site_symmetry_multiplicity
 _atom_site_fract_x
 _atom_site_fract_y
 _atom_site_fract_z
 _atom_site_occupancy
  Na  Na0  1  0.266274  0.499926  0.500006  1
  Na  Na1  1  0.733488  0.000066  0.999983  1
  Na  Na2  1  0.266503  0.999957  0.000004  1
  Na  Na3  1  0.734859  0.500051  0.499963  1
  Nb  Nb4  1  0.199455  0.751513  0.250077  1
  Nb  Nb5  1  0.201037  0.248506  0.749948  1
  Nb  Nb6  1  0.798728  0.751763  0.249726  1
  Nb  Nb7  1  0.800241  0.248244  0.750255  1
  Nb  Nb8  1  0.217482  0.308605  0.256045  1
  Nb  Nb9  1  0.220866  0.804740  0.754232  1
  Nb  Nb10  1  0.779754  0.195267  0.245774  1
  Nb  Nb11  1  0.782005  0.691394  0.743950  1
  Nb  Nb12  1  0.780099  0.964448  0.474269  1
  Nb  Nb13  1  0.781551  0.463718  0.974309  1
  Nb  Nb14  1  0.219500  0.536303  0.025690  1
  Nb  Nb15  1  0.218779  0.035522  0.525735  1
  O  O16  1  0.834489  0.248906  0.083256  1
  O  O17  1  0.834859  0.746072  0.581803  1
  O  O18  1  0.162730  0.253867  0.418182  1
  O  O19  1  0.166566  0.751140  0.916757  1
  O  O20  1  0.327062  0.258583  0.086549  1
  O  O21  1  0.330903  0.755845  0.584977  1
  O  O22  1  0.671777  0.244124  0.415026  1
  O  O23  1  0.672198  0.741430  0.913450  1
  O  O24  1  0.409117  0.645740  0.085887  1
  O  O25  1  0.408989  0.144583  0.585544  1
  O  O26  1  0.139130  0.855317  0.414484  1
  O  O27  1  0.140751  0.354198  0.914141  1
  O  O28  1  0.589260  0.051238  0.221042  1
  O  O29  1  0.591944  0.546471  0.719961  1
  O  O30  1  0.858576  0.453452  0.279971  1
  O  O31  1  0.861702  0.948714  0.778894  1
  O  O32  1  0.589252  0.857243  0.413745  1
  O  O33  1  0.591919  0.353325  0.914622  1
  O  O34  1  0.859852  0.646752  0.085358  1
  O  O35  1  0.860235  0.142835  0.586236  1
  O  O36  1  0.407389  0.453069  0.280867  1
  O  O37  1  0.410745  0.949479  0.778771  1
  O  O38  1  0.138830  0.050573  0.221290  1
  O  O39  1  0.141108  0.547020  0.719222  1
