# generated using pymatgen
data_Rb11Bi5Pb2
_symmetry_space_group_name_H-M   'P 1'
_cell_length_a   10.70206533
_cell_length_b   13.05535961
_cell_length_c   13.85297517
_cell_angle_alpha   103.60698232
_cell_angle_beta   96.58865747
_cell_angle_gamma   107.61803570
_symmetry_Int_Tables_number   1
_chemical_formula_structural   Rb11Bi5Pb2
_chemical_formula_sum   'Rb22 Bi10 Pb4'
_cell_volume   1756.47181958
_cell_formula_units_Z   2
loop_
 _symmetry_equiv_pos_site_id
 _symmetry_equiv_pos_as_xyz
  1  'x, y, z'
loop_
 _atom_site_type_symbol
 _atom_site_label
 _atom_site_symmetry_multiplicity
 _atom_site_fract_x
 _atom_site_fract_y
 _atom_site_fract_z
 _atom_site_occupancy
  Rb  Rb0  1  0.854121  0.571824  0.964251  1
  Rb  Rb1  1  0.145879  0.428176  0.035749  1
  Rb  Rb2  1  0.309132  0.895684  0.774502  1
  Rb  Rb3  1  0.690868  0.104316  0.225498  1
  Rb  Rb4  1  0.629270  0.163719  0.529423  1
  Rb  Rb5  1  0.370730  0.836281  0.470577  1
  Rb  Rb6  1  0.629460  0.672718  0.557323  1
  Rb  Rb7  1  0.370540  0.327282  0.442677  1
  Rb  Rb8  1  0.188169  0.554389  0.569637  1
  Rb  Rb9  1  0.811831  0.445611  0.430363  1
  Rb  Rb10  1  0.050623  0.704530  0.268166  1
  Rb  Rb11  1  0.949377  0.295470  0.731834  1
  Rb  Rb12  1  0.191750  0.075205  0.569147  1
  Rb  Rb13  1  0.808250  0.924795  0.430853  1
  Rb  Rb14  1  0.877339  0.097952  0.986104  1
  Rb  Rb15  1  0.122661  0.902048  0.013896  1
  Rb  Rb16  1  0.585686  0.227444  0.864522  1
  Rb  Rb17  1  0.414314  0.772556  0.135478  1
  Rb  Rb18  1  0.384541  0.244366  0.140199  1
  Rb  Rb19  1  0.615459  0.755634  0.859801  1
  Rb  Rb20  1  0.356716  0.415896  0.790052  1
  Rb  Rb21  1  0.643284  0.584104  0.209948  1
  Bi  Bi22  1  0.001962  0.765019  0.549280  1
  Bi  Bi23  1  0.998038  0.234981  0.450720  1
  Bi  Bi24  1  0.668564  0.454401  0.687801  1
  Bi  Bi25  1  0.331436  0.545599  0.312199  1
  Bi  Bi26  1  0.666884  0.977753  0.699181  1
  Bi  Bi27  1  0.333116  0.022247  0.300819  1
  Bi  Bi28  1  0.191403  0.151031  0.862181  1
  Bi  Bi29  1  0.808597  0.848969  0.137819  1
  Bi  Bi30  1  0.189518  0.630648  0.861904  1
  Bi  Bi31  1  0.810482  0.369352  0.138096  1
  Pb  Pb32  1  0.940237  0.930876  0.742182  1
  Pb  Pb33  1  0.059763  0.069124  0.257818  1
  Pb  Pb34  1  0.939068  0.666465  0.739217  1
  Pb  Pb35  1  0.060932  0.333535  0.260783  1
