# generated using pymatgen
data_Zr2(CoP)3
_symmetry_space_group_name_H-M   'P 1'
_cell_length_a   3.65727400
_cell_length_b   9.95337500
_cell_length_c   12.22135000
_cell_angle_alpha   90.00000000
_cell_angle_beta   90.00000000
_cell_angle_gamma   90.00000000
_symmetry_Int_Tables_number   1
_chemical_formula_structural   Zr2(CoP)3
_chemical_formula_sum   'Zr8 Co12 P12'
_cell_volume   444.88426651
_cell_formula_units_Z   4
loop_
 _symmetry_equiv_pos_site_id
 _symmetry_equiv_pos_as_xyz
  1  'x, y, z'
loop_
 _atom_site_type_symbol
 _atom_site_label
 _atom_site_symmetry_multiplicity
 _atom_site_fract_x
 _atom_site_fract_y
 _atom_site_fract_z
 _atom_site_occupancy
  Zr  Zr0  1  0.250000  0.072029  0.208617  1
  Zr  Zr1  1  0.750000  0.927971  0.791383  1
  Zr  Zr2  1  0.750000  0.572029  0.291383  1
  Zr  Zr3  1  0.250000  0.427971  0.708617  1
  Zr  Zr4  1  0.250000  0.161515  0.496022  1
  Zr  Zr5  1  0.750000  0.838485  0.503978  1
  Zr  Zr6  1  0.750000  0.661515  0.003978  1
  Zr  Zr7  1  0.250000  0.338485  0.996022  1
  Co  Co8  1  0.250000  0.728329  0.666283  1
  Co  Co9  1  0.750000  0.271671  0.333717  1
  Co  Co10  1  0.750000  0.228329  0.833717  1
  Co  Co11  1  0.250000  0.771671  0.166283  1
  Co  Co12  1  0.250000  0.365664  0.217629  1
  Co  Co13  1  0.750000  0.634336  0.782371  1
  Co  Co14  1  0.750000  0.865664  0.282371  1
  Co  Co15  1  0.250000  0.134336  0.717629  1
  Co  Co16  1  0.250000  0.596696  0.481834  1
  Co  Co17  1  0.750000  0.403304  0.518166  1
  Co  Co18  1  0.750000  0.096696  0.018166  1
  Co  Co19  1  0.250000  0.903304  0.981834  1
  P  P20  1  0.250000  0.946284  0.627431  1
  P  P21  1  0.750000  0.053716  0.372569  1
  P  P22  1  0.750000  0.446284  0.872569  1
  P  P23  1  0.250000  0.553716  0.127431  1
  P  P24  1  0.250000  0.397314  0.398536  1
  P  P25  1  0.750000  0.602686  0.601464  1
  P  P26  1  0.750000  0.897314  0.101464  1
  P  P27  1  0.250000  0.102686  0.898536  1
  P  P28  1  0.250000  0.765111  0.350288  1
  P  P29  1  0.750000  0.234889  0.649712  1
  P  P30  1  0.750000  0.265111  0.149712  1
  P  P31  1  0.250000  0.734889  0.850288  1
