# generated using pymatgen
data_Nb6SiTc6Ge5
_symmetry_space_group_name_H-M   'P 1'
_cell_length_a   7.63262872
_cell_length_b   7.65436334
_cell_length_c   7.62859203
_cell_angle_alpha   127.36492234
_cell_angle_beta   123.60162405
_cell_angle_gamma   80.75260445
_symmetry_Int_Tables_number   1
_chemical_formula_structural   Nb6SiTc6Ge5
_chemical_formula_sum   'Nb6 Si1 Tc6 Ge5'
_cell_volume   284.51912328
_cell_formula_units_Z   1
loop_
 _symmetry_equiv_pos_site_id
 _symmetry_equiv_pos_as_xyz
  1  'x, y, z'
loop_
 _atom_site_type_symbol
 _atom_site_label
 _atom_site_symmetry_multiplicity
 _atom_site_fract_x
 _atom_site_fract_y
 _atom_site_fract_z
 _atom_site_occupancy
  Nb  Nb0  1  0.549309  0.101137  0.046771  1
  Nb  Nb1  1  0.439842  0.478111  0.538595  1
  Nb  Nb2  1  0.976082  0.491143  0.031204  1
  Nb  Nb3  1  0.041498  0.057405  0.538661  1
  Nb  Nb4  1  0.760468  0.915988  0.667607  1
  Nb  Nb5  1  0.250207  0.912678  0.161001  1
  Si  Si6  1  0.173920  0.161481  0.002938  1
  Tc  Tc7  1  0.512966  0.247202  0.759973  1
  Tc  Tc8  1  0.977939  0.248233  0.221070  1
  Tc  Tc9  1  0.164081  0.756917  0.665263  1
  Tc  Tc10  1  0.834713  0.498835  0.583439  1
  Tc  Tc11  1  0.578831  0.750760  0.080017  1
  Tc  Tc12  1  0.401826  0.486174  0.149294  1
  Ge  Ge13  1  0.779005  0.552684  0.263240  1
  Ge  Ge14  1  0.215406  0.465887  0.740825  1
  Ge  Ge15  1  0.344011  0.826061  0.500680  1
  Ge  Ge16  1  0.669660  0.163621  0.494992  1
  Ge  Ge17  1  0.830234  0.827882  0.996628  1
