# generated using pymatgen
data_La11Pr(ThIr3)2
_symmetry_space_group_name_H-M   'P 1'
_cell_length_a   10.23909300
_cell_length_b   10.22288714
_cell_length_c   6.55623306
_cell_angle_alpha   89.91655347
_cell_angle_beta   90.00000000
_cell_angle_gamma   120.05245686
_symmetry_Int_Tables_number   1
_chemical_formula_structural   La11Pr(ThIr3)2
_chemical_formula_sum   'La11 Pr1 Th2 Ir6'
_cell_volume   594.00438007
_cell_formula_units_Z   1
loop_
 _symmetry_equiv_pos_site_id
 _symmetry_equiv_pos_as_xyz
  1  'x, y, z'
loop_
 _atom_site_type_symbol
 _atom_site_label
 _atom_site_symmetry_multiplicity
 _atom_site_fract_x
 _atom_site_fract_y
 _atom_site_fract_z
 _atom_site_occupancy
  La  La0  1  0.127830  0.872434  0.246362  1
  La  La1  1  0.744606  0.872434  0.246362  1
  La  La2  1  0.127242  0.254484  0.246670  1
  La  La3  1  0.871369  0.126708  0.746497  1
  La  La4  1  0.255337  0.126708  0.746497  1
  La  La5  1  0.872971  0.745945  0.746282  1
  La  La6  1  0.538134  0.462677  0.438469  1
  La  La7  1  0.924543  0.462677  0.438469  1
  La  La8  1  0.537875  0.075751  0.440335  1
  La  La9  1  0.462575  0.539153  0.937979  1
  La  La10  1  0.076578  0.539153  0.937979  1
  Pr  Pr11  1  0.462076  0.924152  0.943321  1
  Th  Th12  1  0.333918  0.667838  0.483127  1
  Th  Th13  1  0.666359  0.332718  0.982933  1
  Ir  Ir14  1  0.808686  0.191482  0.188118  1
  Ir  Ir15  1  0.382796  0.191482  0.188118  1
  Ir  Ir16  1  0.808630  0.617260  0.186078  1
  Ir  Ir17  1  0.189365  0.807240  0.685142  1
  Ir  Ir18  1  0.617875  0.807240  0.685142  1
  Ir  Ir19  1  0.191232  0.382463  0.688207  1
