# generated using pymatgen
data_Cs12CaYSe8
_symmetry_space_group_name_H-M   'P 1'
_cell_length_a   11.60815600
_cell_length_b   11.60815651
_cell_length_c   8.80269200
_cell_angle_alpha   90.00000000
_cell_angle_beta   90.00000000
_cell_angle_gamma   120.00000424
_symmetry_Int_Tables_number   1
_chemical_formula_structural   Cs12CaYSe8
_chemical_formula_sum   'Cs12 Ca1 Y1 Se8'
_cell_volume   1027.24162804
_cell_formula_units_Z   1
loop_
 _symmetry_equiv_pos_site_id
 _symmetry_equiv_pos_as_xyz
  1  'x, y, z'
loop_
 _atom_site_type_symbol
 _atom_site_label
 _atom_site_symmetry_multiplicity
 _atom_site_fract_x
 _atom_site_fract_y
 _atom_site_fract_z
 _atom_site_occupancy
  Cs  Cs0  1  0.137543  0.862457  0.540416  1
  Cs  Cs1  1  0.283643  0.141822  0.049198  1
  Cs  Cs2  1  0.858178  0.716357  0.049198  1
  Cs  Cs3  1  0.137543  0.275086  0.540416  1
  Cs  Cs4  1  0.724914  0.862457  0.540416  1
  Cs  Cs5  1  0.858178  0.141822  0.049198  1
  Cs  Cs6  1  0.534989  0.465011  0.367998  1
  Cs  Cs7  1  0.057470  0.528735  0.856520  1
  Cs  Cs8  1  0.471265  0.942530  0.856520  1
  Cs  Cs9  1  0.534989  0.069978  0.367998  1
  Cs  Cs10  1  0.930022  0.465011  0.367998  1
  Cs  Cs11  1  0.471265  0.528735  0.856520  1
  Ca  Ca12  1  0.666667  0.333333  0.757317  1
  Y  Y13  1  0.333333  0.666667  0.254591  1
  Se  Se14  1  0.333333  0.666667  0.567439  1
  Se  Se15  1  0.666667  0.333333  0.081866  1
  Se  Se16  1  0.204418  0.795582  0.150159  1
  Se  Se17  1  0.394404  0.197202  0.655106  1
  Se  Se18  1  0.802798  0.605596  0.655106  1
  Se  Se19  1  0.204418  0.408835  0.150159  1
  Se  Se20  1  0.591165  0.795582  0.150159  1
  Se  Se21  1  0.802798  0.197202  0.655106  1
