# generated using pymatgen
data_MgTa2MnRu4
_symmetry_space_group_name_H-M   'P 1'
_cell_length_a   6.23877200
_cell_length_b   4.41338200
_cell_length_c   8.81771000
_cell_angle_alpha   89.99994805
_cell_angle_beta   90.00091404
_cell_angle_gamma   89.99911778
_symmetry_Int_Tables_number   1
_chemical_formula_structural   MgTa2MnRu4
_chemical_formula_sum   'Mg2 Ta4 Mn2 Ru8'
_cell_volume   242.78756821
_cell_formula_units_Z   2
loop_
 _symmetry_equiv_pos_site_id
 _symmetry_equiv_pos_as_xyz
  1  'x, y, z'
loop_
 _atom_site_type_symbol
 _atom_site_label
 _atom_site_symmetry_multiplicity
 _atom_site_fract_x
 _atom_site_fract_y
 _atom_site_fract_z
 _atom_site_occupancy
  Mg  Mg0  1  0.249988  0.249999  0.125110  1
  Mg  Mg1  1  0.749990  0.749999  0.374889  1
  Ta  Ta2  1  0.749989  0.249999  0.125394  1
  Ta  Ta3  1  0.249999  0.749999  0.374625  1
  Ta  Ta4  1  0.750022  0.249999  0.624159  1
  Ta  Ta5  1  0.249987  0.749999  0.875773  1
  Mn  Mn6  1  0.250017  0.250003  0.624076  1
  Mn  Mn7  1  0.750000  0.749992  0.876116  1
  Ru  Ru8  1  0.997988  0.749999  0.121285  1
  Ru  Ru9  1  0.502007  0.749999  0.121282  1
  Ru  Ru10  1  0.002010  0.249999  0.378707  1
  Ru  Ru11  1  0.497965  0.249999  0.378714  1
  Ru  Ru12  1  0.497383  0.750025  0.628349  1
  Ru  Ru13  1  0.002636  0.749973  0.628338  1
  Ru  Ru14  1  0.502634  0.249973  0.871583  1
  Ru  Ru15  1  0.997385  0.250026  0.871594  1
