# generated using pymatgen
data_Ti7V3Si8
_symmetry_space_group_name_H-M   'P 1'
_cell_length_a   6.57776420
_cell_length_b   6.58019320
_cell_length_c   12.08502400
_cell_angle_alpha   90.00000000
_cell_angle_beta   90.00000000
_cell_angle_gamma   89.97183536
_symmetry_Int_Tables_number   1
_chemical_formula_structural   Ti7V3Si8
_chemical_formula_sum   'Ti14 V6 Si16'
_cell_volume   523.07553805
_cell_formula_units_Z   2
loop_
 _symmetry_equiv_pos_site_id
 _symmetry_equiv_pos_as_xyz
  1  'x, y, z'
loop_
 _atom_site_type_symbol
 _atom_site_label
 _atom_site_symmetry_multiplicity
 _atom_site_fract_x
 _atom_site_fract_y
 _atom_site_fract_z
 _atom_site_occupancy
  Ti  Ti0  1  0.654147  0.501758  0.370794  1
  Ti  Ti1  1  0.345853  0.498243  0.870794  1
  Ti  Ti2  1  0.002058  0.340410  0.220155  1
  Ti  Ti3  1  0.997942  0.659590  0.720155  1
  Ti  Ti4  1  0.504027  0.158306  0.529513  1
  Ti  Ti5  1  0.495973  0.841694  0.029513  1
  Ti  Ti6  1  0.658253  0.995305  0.280139  1
  Ti  Ti7  1  0.341747  0.004695  0.780139  1
  Ti  Ti8  1  0.841224  0.495927  0.969963  1
  Ti  Ti9  1  0.158776  0.504073  0.469964  1
  Ti  Ti10  1  0.165458  0.168051  0.000733  1
  Ti  Ti11  1  0.834542  0.831949  0.500733  1
  Ti  Ti12  1  0.668425  0.331153  0.749720  1
  Ti  Ti13  1  0.331575  0.668847  0.249720  1
  V  V14  1  0.995260  0.151435  0.621867  1
  V  V15  1  0.004740  0.848565  0.121867  1
  V  V16  1  0.492873  0.345480  0.128768  1
  V  V17  1  0.507128  0.654520  0.628768  1
  V  V18  1  0.845397  0.007091  0.878323  1
  V  V19  1  0.154603  0.992909  0.378323  1
  Si  Si20  1  0.291785  0.365114  0.670336  1
  Si  Si21  1  0.708215  0.634886  0.170336  1
  Si  Si22  1  0.790570  0.134816  0.077931  1
  Si  Si23  1  0.209430  0.865184  0.577931  1
  Si  Si24  1  0.640193  0.710401  0.827104  1
  Si  Si25  1  0.359807  0.289599  0.327104  1
  Si  Si26  1  0.868249  0.203999  0.423777  1
  Si  Si27  1  0.131751  0.796001  0.923776  1
  Si  Si28  1  0.041549  0.296652  0.811701  1
  Si  Si29  1  0.958451  0.703347  0.311701  1
  Si  Si30  1  0.543901  0.200639  0.938091  1
  Si  Si31  1  0.456099  0.799361  0.438091  1
  Si  Si32  1  0.702249  0.957826  0.687175  1
  Si  Si33  1  0.297750  0.042174  0.187176  1
  Si  Si34  1  0.800521  0.455738  0.563913  1
  Si  Si35  1  0.199479  0.544262  0.063914  1
