# generated using pymatgen
data_Ba8Na4In(GaP4)3
_symmetry_space_group_name_H-M   'P 1'
_cell_length_a   8.49380680
_cell_length_b   8.49380819
_cell_length_c   12.18288087
_cell_angle_alpha   76.59494763
_cell_angle_beta   76.59495276
_cell_angle_gamma   67.06475502
_symmetry_Int_Tables_number   1
_chemical_formula_structural   Ba8Na4In(GaP4)3
_chemical_formula_sum   'Ba8 Na4 In1 Ga3 P12'
_cell_volume   777.51223738
_cell_formula_units_Z   1
loop_
 _symmetry_equiv_pos_site_id
 _symmetry_equiv_pos_as_xyz
  1  'x, y, z'
loop_
 _atom_site_type_symbol
 _atom_site_label
 _atom_site_symmetry_multiplicity
 _atom_site_fract_x
 _atom_site_fract_y
 _atom_site_fract_z
 _atom_site_occupancy
  Ba  Ba0  1  0.745644  0.195164  0.686797  1
  Ba  Ba1  1  0.247562  0.805096  0.312740  1
  Ba  Ba2  1  0.195164  0.745644  0.686797  1
  Ba  Ba3  1  0.497873  0.001403  0.500428  1
  Ba  Ba4  1  0.805096  0.247562  0.312740  1
  Ba  Ba5  1  0.999761  0.499881  0.999948  1
  Ba  Ba6  1  0.499881  0.999761  0.999948  1
  Ba  Ba7  1  0.001403  0.497873  0.500428  1
  Na  Na8  1  0.294312  0.703404  0.999490  1
  Na  Na9  1  0.361035  0.361035  0.225960  1
  Na  Na10  1  0.640585  0.640585  0.773635  1
  Na  Na11  1  0.703404  0.294312  0.999490  1
  In  In12  1  0.694272  0.694272  0.267418  1
  Ga  Ga13  1  0.091721  0.091721  0.882143  1
  Ga  Ga14  1  0.911680  0.911680  0.116586  1
  Ga  Ga15  1  0.303519  0.303519  0.737978  1
  P  P16  1  0.029095  0.619827  0.224977  1
  P  P17  1  0.583483  0.583483  0.129076  1
  P  P18  1  0.985991  0.381377  0.771339  1
  P  P19  1  0.081105  0.081105  0.488749  1
  P  P20  1  0.579074  0.579074  0.495871  1
  P  P21  1  0.916434  0.916434  0.911560  1
  P  P22  1  0.086461  0.086461  0.088228  1
  P  P23  1  0.411221  0.411221  0.863850  1
  P  P24  1  0.619827  0.029095  0.224977  1
  P  P25  1  0.916965  0.916965  0.511696  1
  P  P26  1  0.381377  0.985991  0.771339  1
  P  P27  1  0.416054  0.416054  0.515809  1
