# generated using pymatgen
data_Lu4Mg3AlIr4
_symmetry_space_group_name_H-M   'P 1'
_cell_length_a   6.91094821
_cell_length_b   4.10371200
_cell_length_c   8.28582864
_cell_angle_alpha   90.00000000
_cell_angle_beta   89.09715960
_cell_angle_gamma   90.00000000
_symmetry_Int_Tables_number   1
_chemical_formula_structural   Lu4Mg3AlIr4
_chemical_formula_sum   'Lu4 Mg3 Al1 Ir4'
_cell_volume   234.96141016
_cell_formula_units_Z   1
loop_
 _symmetry_equiv_pos_site_id
 _symmetry_equiv_pos_as_xyz
  1  'x, y, z'
loop_
 _atom_site_type_symbol
 _atom_site_label
 _atom_site_symmetry_multiplicity
 _atom_site_fract_x
 _atom_site_fract_y
 _atom_site_fract_z
 _atom_site_occupancy
  Lu  Lu0  1  0.959478  0.250000  0.171932  1
  Lu  Lu1  1  0.465165  0.250000  0.323286  1
  Lu  Lu2  1  0.036973  0.750000  0.830095  1
  Lu  Lu3  1  0.534087  0.750000  0.673650  1
  Mg  Mg4  1  0.860614  0.250000  0.560906  1
  Mg  Mg5  1  0.362867  0.250000  0.941468  1
  Mg  Mg6  1  0.135242  0.750000  0.439759  1
  Al  Al7  1  0.637234  0.750000  0.057421  1
  Ir  Ir8  1  0.745099  0.250000  0.885683  1
  Ir  Ir9  1  0.252170  0.250000  0.630142  1
  Ir  Ir10  1  0.261511  0.750000  0.127138  1
  Ir  Ir11  1  0.749561  0.750000  0.358518  1
