# generated using pymatgen
data_BeFeCo3B2P
_symmetry_space_group_name_H-M   'P 1'
_cell_length_a   6.28702251
_cell_length_b   6.26349635
_cell_length_c   6.26349707
_cell_angle_alpha   129.85945861
_cell_angle_beta   129.83070963
_cell_angle_gamma   73.57428546
_symmetry_Int_Tables_number   1
_chemical_formula_structural   BeFeCo3B2P
_chemical_formula_sum   'Be2 Fe2 Co6 B4 P2'
_cell_volume   141.94087511
_cell_formula_units_Z   2
loop_
 _symmetry_equiv_pos_site_id
 _symmetry_equiv_pos_as_xyz
  1  'x, y, z'
loop_
 _atom_site_type_symbol
 _atom_site_label
 _atom_site_symmetry_multiplicity
 _atom_site_fract_x
 _atom_site_fract_y
 _atom_site_fract_z
 _atom_site_occupancy
  Be  Be0  1  0.499979  0.500053  0.999664  1
  Be  Be1  1  0.999979  0.000315  0.999925  1
  Fe  Fe2  1  0.444408  0.943686  0.126057  1
  Fe  Fe3  1  0.944408  0.818350  0.500722  1
  Co  Co4  1  0.316279  0.448538  0.501299  1
  Co  Co5  1  0.816279  0.314980  0.867740  1
  Co  Co6  1  0.684244  0.551304  0.500872  1
  Co  Co7  1  0.055165  0.185686  0.500932  1
  Co  Co8  1  0.555165  0.054233  0.869478  1
  Co  Co9  1  0.184244  0.683372  0.132940  1
  B  B10  1  0.884442  0.385956  0.269144  1
  B  B11  1  0.384442  0.115297  0.498486  1
  B  B12  1  0.116700  0.617840  0.733105  1
  B  B13  1  0.616700  0.883596  0.498860  1
  P  P14  1  0.248784  0.246873  0.998865  1
  P  P15  1  0.748784  0.749919  0.001911  1
