# generated using pymatgen
data_Nd4Zn(SiIr2)2
_symmetry_space_group_name_H-M   'P 1'
_cell_length_a   11.04549030
_cell_length_b   11.04549001
_cell_length_c   7.92572578
_cell_angle_alpha   71.51463848
_cell_angle_beta   71.51463742
_cell_angle_gamma   29.86887478
_symmetry_Int_Tables_number   1
_chemical_formula_structural   Nd4Zn(SiIr2)2
_chemical_formula_sum   'Nd8 Zn2 Si4 Ir8'
_cell_volume   454.89714713
_cell_formula_units_Z   2
loop_
 _symmetry_equiv_pos_site_id
 _symmetry_equiv_pos_as_xyz
  1  'x, y, z'
loop_
 _atom_site_type_symbol
 _atom_site_label
 _atom_site_symmetry_multiplicity
 _atom_site_fract_x
 _atom_site_fract_y
 _atom_site_fract_z
 _atom_site_occupancy
  Nd  Nd0  1  0.210871  0.446993  0.398306  1
  Nd  Nd1  1  0.553007  0.789129  0.101694  1
  Nd  Nd2  1  0.446993  0.210871  0.898306  1
  Nd  Nd3  1  0.916291  0.221124  0.335629  1
  Nd  Nd4  1  0.778876  0.083709  0.164371  1
  Nd  Nd5  1  0.083709  0.778876  0.664371  1
  Nd  Nd6  1  0.221124  0.916291  0.835629  1
  Nd  Nd7  1  0.789129  0.553007  0.601694  1
  Zn  Zn8  1  0.626108  0.373892  0.750000  1
  Zn  Zn9  1  0.373892  0.626108  0.250000  1
  Si  Si10  1  0.303402  0.050243  0.436022  1
  Si  Si11  1  0.949757  0.696598  0.063978  1
  Si  Si12  1  0.696598  0.949757  0.563978  1
  Si  Si13  1  0.050243  0.303402  0.936022  1
  Ir  Ir14  1  0.274496  0.589922  0.029744  1
  Ir  Ir15  1  0.589922  0.274496  0.529744  1
  Ir  Ir16  1  0.725504  0.410078  0.970256  1
  Ir  Ir17  1  0.075693  0.363209  0.186835  1
  Ir  Ir18  1  0.636791  0.924307  0.313165  1
  Ir  Ir19  1  0.410078  0.725504  0.470256  1
  Ir  Ir20  1  0.924307  0.636791  0.813165  1
  Ir  Ir21  1  0.363209  0.075693  0.686835  1
