# generated using pymatgen
data_Tm6LuVO12
_symmetry_space_group_name_H-M   'P 1'
_cell_length_a   6.47766136
_cell_length_b   6.47766061
_cell_length_c   6.47766200
_cell_angle_alpha   92.51659533
_cell_angle_beta   92.51658619
_cell_angle_gamma   92.51660965
_symmetry_Int_Tables_number   1
_chemical_formula_structural   Tm6LuVO12
_chemical_formula_sum   'Tm6 Lu1 V1 O12'
_cell_volume   270.99302781
_cell_formula_units_Z   1
loop_
 _symmetry_equiv_pos_site_id
 _symmetry_equiv_pos_as_xyz
  1  'x, y, z'
loop_
 _atom_site_type_symbol
 _atom_site_label
 _atom_site_symmetry_multiplicity
 _atom_site_fract_x
 _atom_site_fract_y
 _atom_site_fract_z
 _atom_site_occupancy
  Tm  Tm0  1  0.741787  0.926488  0.436628  1
  Tm  Tm1  1  0.926488  0.436628  0.741787  1
  Tm  Tm2  1  0.436628  0.741787  0.926488  1
  Tm  Tm3  1  0.258213  0.073512  0.563372  1
  Tm  Tm4  1  0.073512  0.563372  0.258213  1
  Tm  Tm5  1  0.563372  0.258213  0.073512  1
  Lu  Lu6  1  0.000000  0.000000  0.000000  1
  V  V7  1  0.500000  0.500000  0.500000  1
  O  O8  1  0.590738  0.462300  0.803453  1
  O  O9  1  0.462300  0.803453  0.590738  1
  O  O10  1  0.803453  0.590738  0.462300  1
  O  O11  1  0.409262  0.537700  0.196547  1
  O  O12  1  0.537700  0.196547  0.409262  1
  O  O13  1  0.196547  0.409262  0.537700  1
  O  O14  1  0.071063  0.908978  0.316681  1
  O  O15  1  0.908978  0.316681  0.071063  1
  O  O16  1  0.683319  0.928937  0.091022  1
  O  O17  1  0.091022  0.683319  0.928937  1
  O  O18  1  0.928937  0.091022  0.683319  1
  O  O19  1  0.316681  0.071063  0.908978  1
