# generated using pymatgen
data_CeDyLuNi9
_symmetry_space_group_name_H-M   'P 1'
_cell_length_a   8.62157948
_cell_length_b   8.62157973
_cell_length_c   8.62157997
_cell_angle_alpha   33.29015293
_cell_angle_beta   33.29016357
_cell_angle_gamma   33.29015105
_symmetry_Int_Tables_number   1
_chemical_formula_structural   CeDyLuNi9
_chemical_formula_sum   'Ce1 Dy1 Lu1 Ni9'
_cell_volume   171.89645920
_cell_formula_units_Z   1
loop_
 _symmetry_equiv_pos_site_id
 _symmetry_equiv_pos_as_xyz
  1  'x, y, z'
loop_
 _atom_site_type_symbol
 _atom_site_label
 _atom_site_symmetry_multiplicity
 _atom_site_fract_x
 _atom_site_fract_y
 _atom_site_fract_z
 _atom_site_occupancy
  Ce  Ce0  1  0.000749  0.000749  0.000749  1
  Dy  Dy1  1  0.859944  0.859944  0.859944  1
  Lu  Lu2  1  0.139354  0.139354  0.139354  1
  Ni  Ni3  1  0.584241  0.082137  0.584241  1
  Ni  Ni4  1  0.082137  0.584241  0.584241  1
  Ni  Ni5  1  0.584241  0.584241  0.082137  1
  Ni  Ni6  1  0.415224  0.919272  0.415224  1
  Ni  Ni7  1  0.919272  0.415224  0.415224  1
  Ni  Ni8  1  0.333270  0.333270  0.333270  1
  Ni  Ni9  1  0.415224  0.415224  0.919272  1
  Ni  Ni10  1  0.499744  0.499744  0.499744  1
  Ni  Ni11  1  0.666600  0.666600  0.666600  1
