# generated using pymatgen
data_Ca4Ac16Si15Pd
_symmetry_space_group_name_H-M   'P 1'
_cell_length_a   8.37174178
_cell_length_b   8.30199135
_cell_length_c   15.87323400
_cell_angle_alpha   89.84404084
_cell_angle_beta   89.75783296
_cell_angle_gamma   90.24706003
_symmetry_Int_Tables_number   1
_chemical_formula_structural   Ca4Ac16Si15Pd
_chemical_formula_sum   'Ca4 Ac16 Si15 Pd1'
_cell_volume   1103.19928613
_cell_formula_units_Z   1
loop_
 _symmetry_equiv_pos_site_id
 _symmetry_equiv_pos_as_xyz
  1  'x, y, z'
loop_
 _atom_site_type_symbol
 _atom_site_label
 _atom_site_symmetry_multiplicity
 _atom_site_fract_x
 _atom_site_fract_y
 _atom_site_fract_z
 _atom_site_occupancy
  Ca  Ca0  1  0.311551  0.310081  0.999678  1
  Ca  Ca1  1  0.188795  0.809010  0.250647  1
  Ca  Ca2  1  0.804180  0.191825  0.749305  1
  Ca  Ca3  1  0.688468  0.688624  0.501433  1
  Ac  Ac4  1  0.378653  0.007053  0.447458  1
  Ac  Ac5  1  0.490080  0.877853  0.699590  1
  Ac  Ac6  1  0.510125  0.120917  0.198381  1
  Ac  Ac7  1  0.878538  0.488601  0.301303  1
  Ac  Ac8  1  0.120162  0.507835  0.798948  1
  Ac  Ac9  1  0.624451  0.990942  0.948759  1
  Ac  Ac10  1  0.000296  0.377780  0.552645  1
  Ac  Ac11  1  0.991778  0.621945  0.052013  1
  Ac  Ac12  1  0.129646  0.989473  0.873280  1
  Ac  Ac13  1  0.519087  0.626025  0.127050  1
  Ac  Ac14  1  0.473376  0.369614  0.630248  1
  Ac  Ac15  1  0.624812  0.519375  0.873774  1
  Ac  Ac16  1  0.375765  0.479732  0.372828  1
  Ac  Ac17  1  0.877993  0.018891  0.378551  1
  Ac  Ac18  1  0.982217  0.120803  0.122356  1
  Ac  Ac19  1  0.022436  0.883296  0.622143  1
  Si  Si20  1  0.329491  0.700860  0.953110  1
  Si  Si21  1  0.664019  0.297475  0.456380  1
  Si  Si22  1  0.705148  0.333799  0.047285  1
  Si  Si23  1  0.298679  0.667359  0.543982  1
  Si  Si24  1  0.801726  0.829939  0.207771  1
  Si  Si25  1  0.169427  0.198690  0.292959  1
  Si  Si26  1  0.832731  0.800616  0.792465  1
  Si  Si27  1  0.288040  0.916208  0.059304  1
  Si  Si28  1  0.586519  0.786178  0.312282  1
  Si  Si29  1  0.430933  0.205393  0.815666  1
  Si  Si30  1  0.786291  0.586819  0.687543  1
  Si  Si31  1  0.210375  0.417182  0.188107  1
  Si  Si32  1  0.705642  0.081478  0.561099  1
  Si  Si33  1  0.916953  0.290260  0.939758  1
  Si  Si34  1  0.085828  0.712008  0.438609  1
  Pd  Pd35  1  0.195789  0.176060  0.703285  1
