# generated using pymatgen
data_HoEr15Cd2(HgPt2)2
_symmetry_space_group_name_H-M   'P 1'
_cell_length_a   9.58493631
_cell_length_b   9.58493502
_cell_length_c   9.58383301
_cell_angle_alpha   60.00880687
_cell_angle_beta   60.00881444
_cell_angle_gamma   60.05582050
_symmetry_Int_Tables_number   1
_chemical_formula_structural   HoEr15Cd2(HgPt2)2
_chemical_formula_sum   'Ho1 Er15 Cd2 Hg2 Pt4'
_cell_volume   622.93594948
_cell_formula_units_Z   1
loop_
 _symmetry_equiv_pos_site_id
 _symmetry_equiv_pos_as_xyz
  1  'x, y, z'
loop_
 _atom_site_type_symbol
 _atom_site_label
 _atom_site_symmetry_multiplicity
 _atom_site_fract_x
 _atom_site_fract_y
 _atom_site_fract_z
 _atom_site_occupancy
  Ho  Ho0  1  0.353606  0.353606  0.350969  1
  Er  Er1  1  0.353502  0.353502  0.942100  1
  Er  Er2  1  0.356948  0.934844  0.354115  1
  Er  Er3  1  0.934844  0.356948  0.354115  1
  Er  Er4  1  0.811142  0.188785  0.189817  1
  Er  Er5  1  0.188824  0.811068  0.810220  1
  Er  Er6  1  0.188785  0.811142  0.189817  1
  Er  Er7  1  0.811068  0.188824  0.810220  1
  Er  Er8  1  0.189511  0.189511  0.810523  1
  Er  Er9  1  0.810372  0.810372  0.189603  1
  Er  Er10  1  0.934446  0.564448  0.565042  1
  Er  Er11  1  0.564362  0.934513  0.936111  1
  Er  Er12  1  0.564448  0.934446  0.565042  1
  Er  Er13  1  0.934513  0.564362  0.936111  1
  Er  Er14  1  0.565130  0.565130  0.934894  1
  Er  Er15  1  0.935951  0.935951  0.564061  1
  Cd  Cd16  1  0.580608  0.253821  0.582884  1
  Cd  Cd17  1  0.253821  0.580608  0.582884  1
  Hg  Hg18  1  0.584999  0.584999  0.588025  1
  Hg  Hg19  1  0.585069  0.585069  0.241925  1
  Pt  Pt20  1  0.143357  0.143357  0.146174  1
  Pt  Pt21  1  0.143121  0.143121  0.567372  1
  Pt  Pt22  1  0.141514  0.570056  0.143989  1
  Pt  Pt23  1  0.570056  0.141514  0.143989  1
