# generated using pymatgen
data_Cs2AlGaSb8
_symmetry_space_group_name_H-M   'P 1'
_cell_length_a   4.32815400
_cell_length_b   10.99571724
_cell_length_c   18.88176840
_cell_angle_alpha   90.02372954
_cell_angle_beta   90.00000000
_cell_angle_gamma   90.00000000
_symmetry_Int_Tables_number   1
_chemical_formula_structural   Cs2AlGaSb8
_chemical_formula_sum   'Cs4 Al2 Ga2 Sb16'
_cell_volume   898.60513766
_cell_formula_units_Z   2
loop_
 _symmetry_equiv_pos_site_id
 _symmetry_equiv_pos_as_xyz
  1  'x, y, z'
loop_
 _atom_site_type_symbol
 _atom_site_label
 _atom_site_symmetry_multiplicity
 _atom_site_fract_x
 _atom_site_fract_y
 _atom_site_fract_z
 _atom_site_occupancy
  Cs  Cs0  1  0.750000  0.182666  0.431196  1
  Cs  Cs1  1  0.250000  0.817334  0.568804  1
  Cs  Cs2  1  0.750000  0.682718  0.068776  1
  Cs  Cs3  1  0.250000  0.317282  0.931224  1
  Al  Al4  1  0.750000  0.320003  0.632114  1
  Al  Al5  1  0.250000  0.679997  0.367886  1
  Ga  Ga6  1  0.750000  0.820077  0.867918  1
  Ga  Ga7  1  0.250000  0.179923  0.132082  1
  Sb  Sb8  1  0.750000  0.824184  0.389250  1
  Sb  Sb9  1  0.250000  0.175816  0.610750  1
  Sb  Sb10  1  0.750000  0.324088  0.110906  1
  Sb  Sb11  1  0.250000  0.675912  0.889094  1
  Sb  Sb12  1  0.750000  0.406797  0.766418  1
  Sb  Sb13  1  0.250000  0.593203  0.233582  1
  Sb  Sb14  1  0.750000  0.906739  0.733832  1
  Sb  Sb15  1  0.250000  0.093261  0.266168  1
  Sb  Sb16  1  0.750000  0.524211  0.549621  1
  Sb  Sb17  1  0.250000  0.475789  0.450379  1
  Sb  Sb18  1  0.750000  0.023940  0.950306  1
  Sb  Sb19  1  0.250000  0.976060  0.049694  1
  Sb  Sb20  1  0.750000  0.919093  0.246619  1
  Sb  Sb21  1  0.250000  0.080907  0.753381  1
  Sb  Sb22  1  0.750000  0.419020  0.253331  1
  Sb  Sb23  1  0.250000  0.580980  0.746669  1
