# generated using pymatgen
data_Tb2Ce2Ga12Ag
_symmetry_space_group_name_H-M   'P 1'
_cell_length_a   7.56735242
_cell_length_b   7.57459916
_cell_length_c   7.61411615
_cell_angle_alpha   109.43472991
_cell_angle_beta   109.40031297
_cell_angle_gamma   109.34472856
_symmetry_Int_Tables_number   1
_chemical_formula_structural   Tb2Ce2Ga12Ag
_chemical_formula_sum   'Tb2 Ce2 Ga12 Ag1'
_cell_volume   336.93669720
_cell_formula_units_Z   1
loop_
 _symmetry_equiv_pos_site_id
 _symmetry_equiv_pos_as_xyz
  1  'x, y, z'
loop_
 _atom_site_type_symbol
 _atom_site_label
 _atom_site_symmetry_multiplicity
 _atom_site_fract_x
 _atom_site_fract_y
 _atom_site_fract_z
 _atom_site_occupancy
  Tb  Tb0  1  0.500000  0.500000  0.500000  1
  Tb  Tb1  1  0.000000  0.000000  0.500000  1
  Ce  Ce2  1  0.000000  0.500000  0.000000  1
  Ce  Ce3  1  0.500000  0.000000  0.000000  1
  Ga  Ga4  1  0.501044  0.749912  0.251536  1
  Ga  Ga5  1  0.498956  0.250088  0.748464  1
  Ga  Ga6  1  0.249461  0.498261  0.748412  1
  Ga  Ga7  1  0.750539  0.501739  0.251588  1
  Ga  Ga8  1  0.750347  0.250283  0.500710  1
  Ga  Ga9  1  0.249653  0.749717  0.499290  1
  Ga  Ga10  1  0.000322  0.306236  0.306052  1
  Ga  Ga11  1  0.999678  0.693764  0.693948  1
  Ga  Ga12  1  0.305757  0.999705  0.305945  1
  Ga  Ga13  1  0.694243  0.000295  0.694055  1
  Ga  Ga14  1  0.305395  0.305953  0.999983  1
  Ga  Ga15  1  0.694605  0.694047  0.000017  1
  Ag  Ag16  1  0.000000  0.000000  0.000000  1
