# generated using pymatgen
data_TbYb6YSb6
_symmetry_space_group_name_H-M   'P 1'
_cell_length_a   8.11772526
_cell_length_b   8.11741538
_cell_length_c   9.40505444
_cell_angle_alpha   55.06452314
_cell_angle_beta   55.06514552
_cell_angle_gamma   70.83150745
_symmetry_Int_Tables_number   1
_chemical_formula_structural   TbYb6YSb6
_chemical_formula_sum   'Tb1 Yb6 Y1 Sb6'
_cell_volume   416.51416188
_cell_formula_units_Z   1
loop_
 _symmetry_equiv_pos_site_id
 _symmetry_equiv_pos_as_xyz
  1  'x, y, z'
loop_
 _atom_site_type_symbol
 _atom_site_label
 _atom_site_symmetry_multiplicity
 _atom_site_fract_x
 _atom_site_fract_y
 _atom_site_fract_z
 _atom_site_occupancy
  Tb  Tb0  1  0.642404  0.499452  0.246964  1
  Yb  Yb1  1  0.999833  0.137606  0.109005  1
  Yb  Yb2  1  0.862387  0.000182  0.890994  1
  Yb  Yb3  1  0.499209  0.853214  0.751031  1
  Yb  Yb4  1  0.146766  0.500801  0.248940  1
  Yb  Yb5  1  0.998907  0.648782  0.601431  1
  Yb  Yb6  1  0.351230  0.001042  0.398598  1
  Y  Y7  1  0.500560  0.357592  0.753021  1
  Sb  Sb8  1  0.866108  0.133883  0.500068  1
  Sb  Sb9  1  0.626009  0.373972  0.999898  1
  Sb  Sb10  1  0.258942  0.256360  0.622130  1
  Sb  Sb11  1  0.743582  0.741015  0.378008  1
  Sb  Sb12  1  0.122663  0.618514  0.878429  1
  Sb  Sb13  1  0.381401  0.877583  0.121484  1
