# generated using pymatgen
data_HfZr2(ZnNi)3
_symmetry_space_group_name_H-M   'P 1'
_cell_length_a   6.91203900
_cell_length_b   6.89398759
_cell_length_c   3.42645500
_cell_angle_alpha   90.00000000
_cell_angle_beta   90.00000000
_cell_angle_gamma   120.08665957
_symmetry_Int_Tables_number   1
_chemical_formula_structural   HfZr2(ZnNi)3
_chemical_formula_sum   'Hf1 Zr2 Zn3 Ni3'
_cell_volume   141.27731608
_cell_formula_units_Z   1
loop_
 _symmetry_equiv_pos_site_id
 _symmetry_equiv_pos_as_xyz
  1  'x, y, z'
loop_
 _atom_site_type_symbol
 _atom_site_label
 _atom_site_symmetry_multiplicity
 _atom_site_fract_x
 _atom_site_fract_y
 _atom_site_fract_z
 _atom_site_occupancy
  Hf  Hf0  1  0.404502  0.000000  0.500000  1
  Zr  Zr1  1  0.999923  0.405071  0.500000  1
  Zr  Zr2  1  0.594852  0.594929  0.500000  1
  Zn  Zn3  1  0.740658  0.000000  0.000000  1
  Zn  Zn4  1  0.000475  0.741081  0.000000  1
  Zn  Zn5  1  0.259394  0.258919  0.000000  1
  Ni  Ni6  1  0.334019  0.670028  0.000000  1
  Ni  Ni7  1  0.663992  0.329972  0.000000  1
  Ni  Ni8  1  0.002186  0.000000  0.500000  1
