# generated using pymatgen
data_La2DyY(Zn5Sn)2
_symmetry_space_group_name_H-M   'P 1'
_cell_length_a   8.52824924
_cell_length_b   8.52824849
_cell_length_c   9.08205600
_cell_angle_alpha   90.00000000
_cell_angle_beta   90.00000000
_cell_angle_gamma   149.67143463
_symmetry_Int_Tables_number   1
_chemical_formula_structural   La2DyY(Zn5Sn)2
_chemical_formula_sum   'La2 Dy1 Y1 Zn10 Sn2'
_cell_volume   333.54864141
_cell_formula_units_Z   1
loop_
 _symmetry_equiv_pos_site_id
 _symmetry_equiv_pos_as_xyz
  1  'x, y, z'
loop_
 _atom_site_type_symbol
 _atom_site_label
 _atom_site_symmetry_multiplicity
 _atom_site_fract_x
 _atom_site_fract_y
 _atom_site_fract_z
 _atom_site_occupancy
  La  La0  1  0.000012  0.999988  0.500226  1
  La  La1  1  0.000012  0.999988  0.999774  1
  Dy  Dy2  1  0.793887  0.206113  0.750000  1
  Y  Y3  1  0.205937  0.794063  0.250000  1
  Zn  Zn4  1  0.812272  0.187728  0.389594  1
  Zn  Zn5  1  0.187847  0.812153  0.610718  1
  Zn  Zn6  1  0.812272  0.187728  0.110406  1
  Zn  Zn7  1  0.187847  0.812153  0.889282  1
  Zn  Zn8  1  0.659305  0.340695  0.484064  1
  Zn  Zn9  1  0.340642  0.659358  0.516292  1
  Zn  Zn10  1  0.659305  0.340695  0.015936  1
  Zn  Zn11  1  0.340642  0.659358  0.983708  1
  Zn  Zn12  1  0.395051  0.604949  0.250000  1
  Zn  Zn13  1  0.605032  0.394968  0.750000  1
  Sn  Sn14  1  0.559616  0.440384  0.250000  1
  Sn  Sn15  1  0.440323  0.559677  0.750000  1
