# generated using pymatgen
data_Dy3Lu2Mg2P12Ir17
_symmetry_space_group_name_H-M   'P 1'
_cell_length_a   12.64577400
_cell_length_b   12.82129602
_cell_length_c   3.96366300
_cell_angle_alpha   90.00000000
_cell_angle_beta   90.00000000
_cell_angle_gamma   119.54817141
_symmetry_Int_Tables_number   1
_chemical_formula_structural   Dy3Lu2Mg2P12Ir17
_chemical_formula_sum   'Dy3 Lu2 Mg2 P12 Ir17'
_cell_volume   559.06725625
_cell_formula_units_Z   1
loop_
 _symmetry_equiv_pos_site_id
 _symmetry_equiv_pos_as_xyz
  1  'x, y, z'
loop_
 _atom_site_type_symbol
 _atom_site_label
 _atom_site_symmetry_multiplicity
 _atom_site_fract_x
 _atom_site_fract_y
 _atom_site_fract_z
 _atom_site_occupancy
  Dy  Dy0  1  0.002327  0.813192  0.000000  1
  Dy  Dy1  1  0.189136  0.186808  0.000000  1
  Dy  Dy2  1  0.810179  0.000000  0.000000  1
  Lu  Lu3  1  0.333142  0.664057  0.500000  1
  Lu  Lu4  1  0.669085  0.335943  0.500000  1
  Mg  Mg5  1  0.997571  0.444133  0.500000  1
  Mg  Mg6  1  0.553438  0.555867  0.500000  1
  P  P7  1  0.003214  0.643688  0.500000  1
  P  P8  1  0.359525  0.356312  0.500000  1
  P  P9  1  0.642789  0.000000  0.500000  1
  P  P10  1  0.513091  0.686052  0.000000  1
  P  P11  1  0.308275  0.823326  0.000000  1
  P  P12  1  0.169456  0.482299  0.000000  1
  P  P13  1  0.484949  0.176674  0.000000  1
  P  P14  1  0.687157  0.517701  0.000000  1
  P  P15  1  0.827038  0.313948  0.000000  1
  P  P16  1  0.998793  0.176036  0.500000  1
  P  P17  1  0.822757  0.823964  0.500000  1
  P  P18  1  0.179134  0.000000  0.500000  1
  Ir  Ir19  1  0.503731  0.864726  0.000000  1
  Ir  Ir20  1  0.129071  0.639538  0.000000  1
  Ir  Ir21  1  0.357740  0.493822  0.000000  1
  Ir  Ir22  1  0.489534  0.360462  0.000000  1
  Ir  Ir23  1  0.863920  0.506178  0.000000  1
  Ir  Ir24  1  0.639006  0.135274  0.000000  1
  Ir  Ir25  1  0.462299  0.000000  0.500000  1
  Ir  Ir26  1  0.996339  0.279452  0.000000  1
  Ir  Ir27  1  0.716887  0.720548  0.000000  1
  Ir  Ir28  1  0.287321  0.000000  0.000000  1
  Ir  Ir29  1  0.622423  0.806832  0.500000  1
  Ir  Ir30  1  0.201395  0.824526  0.500000  1
  Ir  Ir31  1  0.177060  0.367785  0.500000  1
  Ir  Ir32  1  0.376869  0.175474  0.500000  1
  Ir  Ir33  1  0.809274  0.632215  0.500000  1
  Ir  Ir34  1  0.815591  0.193168  0.500000  1
  Ir  Ir35  1  0.000487  0.000000  0.500000  1
