# generated using pymatgen
data_TbY6Tm13Pt16
_symmetry_space_group_name_H-M   'P 1'
_cell_length_a   7.44116905
_cell_length_b   7.51375648
_cell_length_c   14.62203410
_cell_angle_alpha   90.00055457
_cell_angle_beta   89.98935129
_cell_angle_gamma   89.96905070
_symmetry_Int_Tables_number   1
_chemical_formula_structural   TbY6Tm13Pt16
_chemical_formula_sum   'Tb1 Y6 Tm13 Pt16'
_cell_volume   817.53434720
_cell_formula_units_Z   1
loop_
 _symmetry_equiv_pos_site_id
 _symmetry_equiv_pos_as_xyz
  1  'x, y, z'
loop_
 _atom_site_type_symbol
 _atom_site_label
 _atom_site_symmetry_multiplicity
 _atom_site_fract_x
 _atom_site_fract_y
 _atom_site_fract_z
 _atom_site_occupancy
  Tb  Tb0  1  0.498776  0.679404  0.093090  1
  Y  Y1  1  0.501392  0.320518  0.592862  1
  Y  Y2  1  0.001184  0.179412  0.907087  1
  Y  Y3  1  0.000888  0.178621  0.592613  1
  Y  Y4  1  0.501243  0.320635  0.907025  1
  Y  Y5  1  0.498721  0.679638  0.407137  1
  Y  Y6  1  0.998932  0.820560  0.092853  1
  Tm  Tm7  1  0.681253  0.989865  0.250358  1
  Tm  Tm8  1  0.180928  0.510342  0.250392  1
  Tm  Tm9  1  0.818966  0.489775  0.749852  1
  Tm  Tm10  1  0.318988  0.010115  0.749973  1
  Tm  Tm11  1  0.656154  0.832731  0.622405  1
  Tm  Tm12  1  0.156026  0.667458  0.877413  1
  Tm  Tm13  1  0.843964  0.332418  0.377582  1
  Tm  Tm14  1  0.343734  0.167456  0.122652  1
  Tm  Tm15  1  0.343234  0.167127  0.377720  1
  Tm  Tm16  1  0.844055  0.332306  0.122703  1
  Tm  Tm17  1  0.155527  0.667918  0.622172  1
  Tm  Tm18  1  0.656164  0.832523  0.877480  1
  Tm  Tm19  1  0.997644  0.819584  0.406775  1
  Pt  Pt20  1  0.817727  0.642496  0.251261  1
  Pt  Pt21  1  0.315738  0.858450  0.250431  1
  Pt  Pt22  1  0.683685  0.141464  0.749878  1
  Pt  Pt23  1  0.183699  0.358627  0.749855  1
  Pt  Pt24  1  0.546619  0.384480  0.250087  1
  Pt  Pt25  1  0.045953  0.114945  0.250617  1
  Pt  Pt26  1  0.953697  0.884154  0.749970  1
  Pt  Pt27  1  0.453625  0.615850  0.749903  1
  Pt  Pt28  1  0.818305  0.535290  0.541483  1
  Pt  Pt29  1  0.318023  0.965803  0.958057  1
  Pt  Pt30  1  0.684638  0.032358  0.457453  1
  Pt  Pt31  1  0.181995  0.466098  0.042119  1
  Pt  Pt32  1  0.181227  0.468000  0.457263  1
  Pt  Pt33  1  0.681973  0.034199  0.042042  1
  Pt  Pt34  1  0.317505  0.965268  0.541460  1
  Pt  Pt35  1  0.817823  0.534110  0.957978  1
