# generated using pymatgen
data_Y6Er4(InTe)3
_symmetry_space_group_name_H-M   'P 1'
_cell_length_a   8.95221700
_cell_length_b   8.93570038
_cell_length_c   6.52622700
_cell_angle_alpha   90.00000000
_cell_angle_beta   90.00000000
_cell_angle_gamma   120.06115927
_symmetry_Int_Tables_number   1
_chemical_formula_structural   Y6Er4(InTe)3
_chemical_formula_sum   'Y6 Er4 In3 Te3'
_cell_volume   451.83932752
_cell_formula_units_Z   1
loop_
 _symmetry_equiv_pos_site_id
 _symmetry_equiv_pos_as_xyz
  1  'x, y, z'
loop_
 _atom_site_type_symbol
 _atom_site_label
 _atom_site_symmetry_multiplicity
 _atom_site_fract_x
 _atom_site_fract_y
 _atom_site_fract_z
 _atom_site_occupancy
  Y  Y0  1  0.002997  0.761199  0.750000  1
  Y  Y1  1  0.002819  0.242069  0.250000  1
  Y  Y2  1  0.760750  0.757931  0.250000  1
  Y  Y3  1  0.756893  0.000000  0.750000  1
  Y  Y4  1  0.241798  0.238801  0.750000  1
  Y  Y5  1  0.239066  0.000000  0.250000  1
  Er  Er6  1  0.330940  0.665524  0.499342  1
  Er  Er7  1  0.665418  0.334476  0.000658  1
  Er  Er8  1  0.665418  0.334476  0.499342  1
  Er  Er9  1  0.330940  0.665524  0.000658  1
  In  In10  1  0.397059  0.000000  0.750000  1
  In  In11  1  0.395584  0.396850  0.250000  1
  In  In12  1  0.998734  0.603150  0.250000  1
  Te  Te13  1  0.998346  0.392171  0.750000  1
  Te  Te14  1  0.606175  0.607829  0.750000  1
  Te  Te15  1  0.607063  0.000000  0.250000  1
