# generated using pymatgen
data_Dy3Lu13(ZrIr3)4
_symmetry_space_group_name_H-M   'P 1'
_cell_length_a   10.76227453
_cell_length_b   10.75353599
_cell_length_c   6.20770200
_cell_angle_alpha   90.00901512
_cell_angle_beta   90.19995023
_cell_angle_gamma   90.10142541
_symmetry_Int_Tables_number   1
_chemical_formula_structural   Dy3Lu13(ZrIr3)4
_chemical_formula_sum   'Dy3 Lu13 Zr4 Ir12'
_cell_volume   718.42740250
_cell_formula_units_Z   1
loop_
 _symmetry_equiv_pos_site_id
 _symmetry_equiv_pos_as_xyz
  1  'x, y, z'
loop_
 _atom_site_type_symbol
 _atom_site_label
 _atom_site_symmetry_multiplicity
 _atom_site_fract_x
 _atom_site_fract_y
 _atom_site_fract_z
 _atom_site_occupancy
  Dy  Dy0  1  0.909317  0.287538  0.633874  1
  Dy  Dy1  1  0.212546  0.410553  0.633970  1
  Dy  Dy2  1  0.787515  0.592232  0.635123  1
  Lu  Lu3  1  0.086961  0.292178  0.130813  1
  Lu  Lu4  1  0.790162  0.414517  0.129700  1
  Lu  Lu5  1  0.209529  0.589246  0.131127  1
  Lu  Lu6  1  0.914663  0.711430  0.132557  1
  Lu  Lu7  1  0.414862  0.791159  0.371521  1
  Lu  Lu8  1  0.585669  0.209022  0.370304  1
  Lu  Lu9  1  0.291035  0.085546  0.368348  1
  Lu  Lu10  1  0.708987  0.914792  0.373980  1
  Lu  Lu11  1  0.417189  0.206162  0.873619  1
  Lu  Lu12  1  0.707528  0.082006  0.874906  1
  Lu  Lu13  1  0.290705  0.914174  0.869849  1
  Lu  Lu14  1  0.581252  0.793174  0.872489  1
  Lu  Lu15  1  0.088630  0.708339  0.631110  1
  Zr  Zr16  1  0.001693  0.000304  0.998262  1
  Zr  Zr17  1  0.498231  0.501127  0.993383  1
  Zr  Zr18  1  0.500168  0.500642  0.491391  1
  Zr  Zr19  1  0.002534  0.996741  0.496264  1
  Ir  Ir20  1  0.150067  0.850752  0.249927  1
  Ir  Ir21  1  0.352584  0.351325  0.242824  1
  Ir  Ir22  1  0.646701  0.649790  0.242822  1
  Ir  Ir23  1  0.852179  0.146449  0.245731  1
  Ir  Ir24  1  0.353208  0.650282  0.746866  1
  Ir  Ir25  1  0.151640  0.142476  0.752251  1
  Ir  Ir26  1  0.853320  0.855126  0.750352  1
  Ir  Ir27  1  0.641783  0.349526  0.750203  1
  Ir  Ir28  1  0.000223  0.501859  0.384479  1
  Ir  Ir29  1  0.499490  0.999352  0.118923  1
  Ir  Ir30  1  0.499266  0.000070  0.614191  1
  Ir  Ir31  1  0.000361  0.502110  0.888840  1
