# generated using pymatgen
data_Sb14H
_symmetry_space_group_name_H-M   'P 1'
_cell_length_a   4.45273892
_cell_length_b   4.45274071
_cell_length_c   26.68607000
_cell_angle_alpha   86.31724786
_cell_angle_beta   86.31724637
_cell_angle_gamma   56.74036696
_symmetry_Int_Tables_number   1
_chemical_formula_structural   Sb14H
_chemical_formula_sum   'Sb14 H1'
_cell_volume   441.25133329
_cell_formula_units_Z   1
loop_
 _symmetry_equiv_pos_site_id
 _symmetry_equiv_pos_as_xyz
  1  'x, y, z'
loop_
 _atom_site_type_symbol
 _atom_site_label
 _atom_site_symmetry_multiplicity
 _atom_site_fract_x
 _atom_site_fract_y
 _atom_site_fract_z
 _atom_site_occupancy
  Sb  Sb0  1  0.717957  0.717957  0.058362  1
  Sb  Sb1  1  0.675878  0.675878  0.257545  1
  Sb  Sb2  1  0.627752  0.627752  0.484503  1
  Sb  Sb3  1  0.572223  0.572223  0.683951  1
  Sb  Sb4  1  0.774487  0.774487  0.835584  1
  Sb  Sb5  1  0.372248  0.372248  0.115497  1
  Sb  Sb6  1  0.324122  0.324122  0.342455  1
  Sb  Sb7  1  0.282043  0.282043  0.541638  1
  Sb  Sb8  1  0.225513  0.225513  0.764416  1
  Sb  Sb9  1  0.427777  0.427777  0.916049  1
  Sb  Sb10  1  0.077183  0.077183  0.973901  1
  Sb  Sb11  1  0.019519  0.019519  0.200571  1
  Sb  Sb12  1  0.980481  0.980481  0.399429  1
  Sb  Sb13  1  0.922817  0.922817  0.626099  1
  H  H14  1  0.000000  0.000000  0.800000  1
