# generated using pymatgen
data_TbTmZr2(Ga3Rh)6
_symmetry_space_group_name_H-M   'P 1'
_cell_length_a   7.52993802
_cell_length_b   7.52090533
_cell_length_c   9.42483200
_cell_angle_alpha   90.00000000
_cell_angle_beta   90.00000000
_cell_angle_gamma   119.93974472
_symmetry_Int_Tables_number   1
_chemical_formula_structural   TbTmZr2(Ga3Rh)6
_chemical_formula_sum   'Tb1 Tm1 Zr2 Ga18 Rh6'
_cell_volume   462.51853820
_cell_formula_units_Z   1
loop_
 _symmetry_equiv_pos_site_id
 _symmetry_equiv_pos_as_xyz
  1  'x, y, z'
loop_
 _atom_site_type_symbol
 _atom_site_label
 _atom_site_symmetry_multiplicity
 _atom_site_fract_x
 _atom_site_fract_y
 _atom_site_fract_z
 _atom_site_occupancy
  Tb  Tb0  1  0.668437  0.995732  0.250000  1
  Tm  Tm1  1  0.331460  0.004242  0.750000  1
  Zr  Zr2  1  0.995829  0.669296  0.250000  1
  Zr  Zr3  1  0.004327  0.330799  0.750000  1
  Ga  Ga4  1  0.125350  0.124408  0.250000  1
  Ga  Ga5  1  0.875575  0.876047  0.750000  1
  Ga  Ga6  1  0.999234  0.337519  0.078650  1
  Ga  Ga7  1  0.001704  0.663384  0.920570  1
  Ga  Ga8  1  0.001704  0.663384  0.579430  1
  Ga  Ga9  1  0.330771  0.996672  0.418497  1
  Ga  Ga10  1  0.999234  0.337519  0.421350  1
  Ga  Ga11  1  0.668320  0.003339  0.582797  1
  Ga  Ga12  1  0.668320  0.003339  0.917203  1
  Ga  Ga13  1  0.330771  0.996672  0.081503  1
  Ga  Ga14  1  0.330238  0.332434  0.568899  1
  Ga  Ga15  1  0.669767  0.666725  0.431889  1
  Ga  Ga16  1  0.669767  0.666725  0.068111  1
  Ga  Ga17  1  0.330238  0.332434  0.931101  1
  Ga  Ga18  1  0.335191  0.546338  0.250000  1
  Ga  Ga19  1  0.664131  0.452611  0.750000  1
  Ga  Ga20  1  0.551281  0.340407  0.250000  1
  Ga  Ga21  1  0.448283  0.659908  0.750000  1
  Rh  Rh22  1  0.671494  0.328095  0.999350  1
  Rh  Rh23  1  0.328231  0.671868  0.000179  1
  Rh  Rh24  1  0.328231  0.671868  0.499821  1
  Rh  Rh25  1  0.671494  0.328095  0.500650  1
  Rh  Rh26  1  0.000310  0.000070  0.999720  1
  Rh  Rh27  1  0.000310  0.000070  0.500280  1
