# generated using pymatgen
data_Ca3In3Ag2Rh
_symmetry_space_group_name_H-M   'P 1'
_cell_length_a   7.96797400
_cell_length_b   7.96797322
_cell_length_c   3.93787600
_cell_angle_alpha   90.00000000
_cell_angle_beta   90.00000000
_cell_angle_gamma   120.00000324
_symmetry_Int_Tables_number   1
_chemical_formula_structural   Ca3In3Ag2Rh
_chemical_formula_sum   'Ca3 In3 Ag2 Rh1'
_cell_volume   216.51521873
_cell_formula_units_Z   1
loop_
 _symmetry_equiv_pos_site_id
 _symmetry_equiv_pos_as_xyz
  1  'x, y, z'
loop_
 _atom_site_type_symbol
 _atom_site_label
 _atom_site_symmetry_multiplicity
 _atom_site_fract_x
 _atom_site_fract_y
 _atom_site_fract_z
 _atom_site_occupancy
  Ca  Ca0  1  0.396160  0.000000  0.500001  1
  Ca  Ca1  1  0.000000  0.396160  0.500001  1
  Ca  Ca2  1  0.603840  0.603840  0.500001  1
  In  In3  1  0.748617  0.000000  0.000000  1
  In  In4  1  0.251382  0.251382  0.000000  1
  In  In5  1  0.000000  0.748617  0.000000  1
  Ag  Ag6  1  0.666667  0.333334  0.000000  1
  Ag  Ag7  1  0.333334  0.666667  0.000000  1
  Rh  Rh8  1  0.000000  0.000000  0.500001  1
