# generated using pymatgen
data_TbDy3Ga18NiIr5
_symmetry_space_group_name_H-M   'P 1'
_cell_length_a   7.57354975
_cell_length_b   7.57560609
_cell_length_c   9.45790381
_cell_angle_alpha   90.18052571
_cell_angle_beta   90.18311265
_cell_angle_gamma   119.97623107
_symmetry_Int_Tables_number   1
_chemical_formula_structural   TbDy3Ga18NiIr5
_chemical_formula_sum   'Tb1 Dy3 Ga18 Ni1 Ir5'
_cell_volume   470.04303215
_cell_formula_units_Z   1
loop_
 _symmetry_equiv_pos_site_id
 _symmetry_equiv_pos_as_xyz
  1  'x, y, z'
loop_
 _atom_site_type_symbol
 _atom_site_label
 _atom_site_symmetry_multiplicity
 _atom_site_fract_x
 _atom_site_fract_y
 _atom_site_fract_z
 _atom_site_occupancy
  Tb  Tb0  1  0.996856  0.666468  0.250284  1
  Dy  Dy1  1  0.003253  0.333639  0.749721  1
  Dy  Dy2  1  0.666400  0.996856  0.250202  1
  Dy  Dy3  1  0.333486  0.003114  0.749958  1
  Ga  Ga4  1  0.121047  0.121136  0.245397  1
  Ga  Ga5  1  0.879099  0.879149  0.754638  1
  Ga  Ga6  1  0.999219  0.329922  0.079608  1
  Ga  Ga7  1  0.000873  0.669983  0.920170  1
  Ga  Ga8  1  0.000666  0.666808  0.580378  1
  Ga  Ga9  1  0.333396  0.999517  0.419844  1
  Ga  Ga10  1  0.999354  0.333050  0.419874  1
  Ga  Ga11  1  0.666751  0.000688  0.580252  1
  Ga  Ga12  1  0.669835  0.000821  0.920257  1
  Ga  Ga13  1  0.330293  0.999362  0.079602  1
  Ga  Ga14  1  0.332577  0.332477  0.564227  1
  Ga  Ga15  1  0.667341  0.667435  0.435904  1
  Ga  Ga16  1  0.672051  0.672189  0.064028  1
  Ga  Ga17  1  0.327751  0.327744  0.935826  1
  Ga  Ga18  1  0.338811  0.545149  0.249365  1
  Ga  Ga19  1  0.661182  0.454681  0.750599  1
  Ga  Ga20  1  0.545060  0.338657  0.249364  1
  Ga  Ga21  1  0.454707  0.661205  0.750594  1
  Ni  Ni22  1  0.000032  0.000054  0.999948  1
  Ir  Ir23  1  0.671844  0.328009  0.999918  1
  Ir  Ir24  1  0.328108  0.671867  0.999913  1
  Ir  Ir25  1  0.328254  0.671652  0.500035  1
  Ir  Ir26  1  0.671655  0.328260  0.500016  1
  Ir  Ir27  1  0.000099  0.000106  0.500076  1
