# generated using pymatgen
data_Lu6Ta4Al12Os7
_symmetry_space_group_name_H-M   'P 1'
_cell_length_a   8.97473158
_cell_length_b   8.97473152
_cell_length_c   8.97473200
_cell_angle_alpha   60.00000558
_cell_angle_beta   60.00000583
_cell_angle_gamma   60.00000364
_symmetry_Int_Tables_number   1
_chemical_formula_structural   Lu6Ta4Al12Os7
_chemical_formula_sum   'Lu6 Ta4 Al12 Os7'
_cell_volume   511.15130520
_cell_formula_units_Z   1
loop_
 _symmetry_equiv_pos_site_id
 _symmetry_equiv_pos_as_xyz
  1  'x, y, z'
loop_
 _atom_site_type_symbol
 _atom_site_label
 _atom_site_symmetry_multiplicity
 _atom_site_fract_x
 _atom_site_fract_y
 _atom_site_fract_z
 _atom_site_occupancy
  Lu  Lu0  1  0.707420  0.707420  0.292580  1
  Lu  Lu1  1  0.292580  0.707420  0.292580  1
  Lu  Lu2  1  0.707420  0.292580  0.292580  1
  Lu  Lu3  1  0.292580  0.292580  0.707420  1
  Lu  Lu4  1  0.707420  0.292580  0.707420  1
  Lu  Lu5  1  0.292580  0.707420  0.707420  1
  Ta  Ta6  1  0.879414  0.879414  0.361757  1
  Ta  Ta7  1  0.879414  0.361757  0.879414  1
  Ta  Ta8  1  0.361757  0.879414  0.879414  1
  Ta  Ta9  1  0.879414  0.879414  0.879414  1
  Al  Al10  1  0.120814  0.120814  0.637558  1
  Al  Al11  1  0.120814  0.637558  0.120814  1
  Al  Al12  1  0.637558  0.120814  0.120814  1
  Al  Al13  1  0.120814  0.120814  0.120814  1
  Al  Al14  1  0.664904  0.664904  0.005290  1
  Al  Al15  1  0.664904  0.005290  0.664904  1
  Al  Al16  1  0.005290  0.664904  0.664904  1
  Al  Al17  1  0.664904  0.664904  0.664904  1
  Al  Al18  1  0.331890  0.331890  0.004329  1
  Al  Al19  1  0.331890  0.004329  0.331890  1
  Al  Al20  1  0.004329  0.331890  0.331890  1
  Al  Al21  1  0.331890  0.331890  0.331890  1
  Os  Os22  1  0.000000  0.000000  0.000000  1
  Os  Os23  1  0.995934  0.995934  0.504066  1
  Os  Os24  1  0.504066  0.995934  0.504066  1
  Os  Os25  1  0.995934  0.504066  0.504066  1
  Os  Os26  1  0.504066  0.504066  0.995934  1
  Os  Os27  1  0.995934  0.504066  0.995934  1
  Os  Os28  1  0.504066  0.995934  0.995934  1
