# generated using pymatgen
data_LuSb3F18
_symmetry_space_group_name_H-M   'P 1'
_cell_length_a   9.48716700
_cell_length_b   9.48716757
_cell_length_c   8.65390000
_cell_angle_alpha   90.00000000
_cell_angle_beta   90.00000000
_cell_angle_gamma   120.00000150
_symmetry_Int_Tables_number   1
_chemical_formula_structural   LuSb3F18
_chemical_formula_sum   'Lu2 Sb6 F36'
_cell_volume   674.55227975
_cell_formula_units_Z   2
loop_
 _symmetry_equiv_pos_site_id
 _symmetry_equiv_pos_as_xyz
  1  'x, y, z'
loop_
 _atom_site_type_symbol
 _atom_site_label
 _atom_site_symmetry_multiplicity
 _atom_site_fract_x
 _atom_site_fract_y
 _atom_site_fract_z
 _atom_site_occupancy
  Lu  Lu0  1  0.333333  0.666667  0.571562  1
  Lu  Lu1  1  0.666667  0.333333  0.428438  1
  Sb  Sb2  1  0.982755  0.346627  0.761236  1
  Sb  Sb3  1  0.363872  0.017245  0.761236  1
  Sb  Sb4  1  0.653373  0.636128  0.761236  1
  Sb  Sb5  1  0.017245  0.653373  0.238764  1
  Sb  Sb6  1  0.636128  0.982755  0.238764  1
  Sb  Sb7  1  0.346627  0.363872  0.238764  1
  F  F8  1  0.470896  0.859457  0.403698  1
  F  F9  1  0.388561  0.529104  0.403698  1
  F  F10  1  0.140543  0.611439  0.403698  1
  F  F11  1  0.529104  0.140543  0.596302  1
  F  F12  1  0.611439  0.470896  0.596302  1
  F  F13  1  0.859457  0.388561  0.596302  1
  F  F14  1  0.111296  0.317220  0.908440  1
  F  F15  1  0.205924  0.888704  0.908440  1
  F  F16  1  0.682780  0.794076  0.908440  1
  F  F17  1  0.888704  0.682780  0.091560  1
  F  F18  1  0.794076  0.111296  0.091560  1
  F  F19  1  0.317220  0.205924  0.091560  1
  F  F20  1  0.860183  0.391903  0.902021  1
  F  F21  1  0.531721  0.139817  0.902021  1
  F  F22  1  0.608097  0.468279  0.902021  1
  F  F23  1  0.139817  0.608097  0.097979  1
  F  F24  1  0.468279  0.860183  0.097979  1
  F  F25  1  0.391903  0.531721  0.097979  1
  F  F26  1  0.238459  0.872421  0.592969  1
  F  F27  1  0.633961  0.761541  0.592969  1
  F  F28  1  0.127579  0.366039  0.592969  1
  F  F29  1  0.761541  0.127579  0.407031  1
  F  F30  1  0.366039  0.238459  0.407031  1
  F  F31  1  0.872421  0.633961  0.407031  1
  F  F32  1  0.837263  0.123078  0.731648  1
  F  F33  1  0.285815  0.162737  0.731648  1
  F  F34  1  0.876922  0.714185  0.731648  1
  F  F35  1  0.162737  0.876922  0.268352  1
  F  F36  1  0.714185  0.837263  0.268352  1
  F  F37  1  0.123078  0.285815  0.268352  1
  F  F38  1  0.136614  0.585715  0.746766  1
  F  F39  1  0.449101  0.863386  0.746766  1
  F  F40  1  0.414285  0.550899  0.746766  1
  F  F41  1  0.863386  0.414285  0.253234  1
  F  F42  1  0.550899  0.136614  0.253234  1
  F  F43  1  0.585715  0.449101  0.253234  1
