# generated using pymatgen
data_Tb7Pr(HoBi)12
_symmetry_space_group_name_H-M   'P 1'
_cell_length_a   8.28555802
_cell_length_b   9.53189700
_cell_length_c   12.12108900
_cell_angle_alpha   90.00000000
_cell_angle_beta   89.93094541
_cell_angle_gamma   90.00000000
_symmetry_Int_Tables_number   1
_chemical_formula_structural   Tb7Pr(HoBi)12
_chemical_formula_sum   'Tb7 Pr1 Ho12 Bi12'
_cell_volume   957.28758840
_cell_formula_units_Z   1
loop_
 _symmetry_equiv_pos_site_id
 _symmetry_equiv_pos_as_xyz
  1  'x, y, z'
loop_
 _atom_site_type_symbol
 _atom_site_label
 _atom_site_symmetry_multiplicity
 _atom_site_fract_x
 _atom_site_fract_y
 _atom_site_fract_z
 _atom_site_occupancy
  Tb  Tb0  1  0.685960  0.750000  0.780936  1
  Tb  Tb1  1  0.813887  0.250000  0.281289  1
  Tb  Tb2  1  0.313702  0.250000  0.218845  1
  Tb  Tb3  1  0.354003  0.750000  0.216149  1
  Tb  Tb4  1  0.853631  0.750000  0.283379  1
  Tb  Tb5  1  0.646888  0.250000  0.784826  1
  Tb  Tb6  1  0.146124  0.250000  0.715791  1
  Pr  Pr7  1  0.184547  0.750000  0.720402  1
  Ho  Ho8  1  0.025506  0.750000  0.988617  1
  Ho  Ho9  1  0.525104  0.750000  0.510723  1
  Ho  Ho10  1  0.974097  0.250000  0.011781  1
  Ho  Ho11  1  0.474916  0.250000  0.487959  1
  Ho  Ho12  1  0.306610  0.436010  0.940566  1
  Ho  Ho13  1  0.807402  0.064079  0.559725  1
  Ho  Ho14  1  0.693665  0.936272  0.060024  1
  Ho  Ho15  1  0.192970  0.564119  0.439940  1
  Ho  Ho16  1  0.693665  0.563728  0.060024  1
  Ho  Ho17  1  0.192970  0.935881  0.439940  1
  Ho  Ho18  1  0.306610  0.063990  0.940566  1
  Ho  Ho19  1  0.807402  0.435921  0.559725  1
  Bi  Bi20  1  0.437277  0.006849  0.672250  1
  Bi  Bi21  1  0.930583  0.493729  0.828117  1
  Bi  Bi22  1  0.566388  0.503790  0.326606  1
  Bi  Bi23  1  0.066771  0.996027  0.172859  1
  Bi  Bi24  1  0.566388  0.996210  0.326606  1
  Bi  Bi25  1  0.066771  0.503973  0.172859  1
  Bi  Bi26  1  0.437277  0.493151  0.672250  1
  Bi  Bi27  1  0.930583  0.006271  0.828117  1
  Bi  Bi28  1  0.410555  0.750000  0.959766  1
  Bi  Bi29  1  0.904260  0.750000  0.539161  1
  Bi  Bi30  1  0.591480  0.250000  0.042257  1
  Bi  Bi31  1  0.092008  0.250000  0.457942  1
