# generated using pymatgen
data_Tb3Dy2Co16(MoP4)3
_symmetry_space_group_name_H-M   'P 1'
_cell_length_a   12.07774313
_cell_length_b   12.07774365
_cell_length_c   3.71536200
_cell_angle_alpha   90.00000000
_cell_angle_beta   90.00000000
_cell_angle_gamma   119.98309468
_symmetry_Int_Tables_number   1
_chemical_formula_structural   Tb3Dy2Co16(MoP4)3
_chemical_formula_sum   'Tb3 Dy2 Co16 Mo3 P12'
_cell_volume   469.43700299
_cell_formula_units_Z   1
loop_
 _symmetry_equiv_pos_site_id
 _symmetry_equiv_pos_as_xyz
  1  'x, y, z'
loop_
 _atom_site_type_symbol
 _atom_site_label
 _atom_site_symmetry_multiplicity
 _atom_site_fract_x
 _atom_site_fract_y
 _atom_site_fract_z
 _atom_site_occupancy
  Tb  Tb0  1  0.666699  0.333440  0.000000  1
  Tb  Tb1  1  0.333440  0.666699  0.000000  1
  Tb  Tb2  1  0.184955  0.184955  0.500000  1
  Dy  Dy3  1  0.814927  0.999957  0.500000  1
  Dy  Dy4  1  0.999957  0.814927  0.500000  1
  Co  Co5  1  0.822963  0.198046  0.000000  1
  Co  Co6  1  0.801981  0.624892  0.000000  1
  Co  Co7  1  0.375275  0.177027  0.000000  1
  Co  Co8  1  0.198046  0.822963  0.000000  1
  Co  Co9  1  0.624892  0.801981  0.000000  1
  Co  Co10  1  0.177027  0.375275  0.000000  1
  Co  Co11  1  0.644798  0.126746  0.500000  1
  Co  Co12  1  0.873228  0.518083  0.500000  1
  Co  Co13  1  0.482053  0.355283  0.500000  1
  Co  Co14  1  0.126746  0.644798  0.500000  1
  Co  Co15  1  0.518083  0.873228  0.500000  1
  Co  Co16  1  0.355283  0.482053  0.500000  1
  Co  Co17  1  0.719396  0.719396  0.500000  1
  Co  Co18  1  0.280600  0.999880  0.500000  1
  Co  Co19  1  0.999880  0.280600  0.500000  1
  Co  Co20  1  0.999774  0.999774  0.000000  1
  Mo  Mo21  1  0.553852  0.553852  0.000000  1
  Mo  Mo22  1  0.446178  0.999956  0.000000  1
  Mo  Mo23  1  0.999956  0.446178  0.000000  1
  P  P24  1  0.361263  0.361263  0.000000  1
  P  P25  1  0.639044  0.999986  0.000000  1
  P  P26  1  0.999986  0.639044  0.000000  1
  P  P27  1  0.834757  0.313816  0.500000  1
  P  P28  1  0.686187  0.520965  0.500000  1
  P  P29  1  0.479015  0.165234  0.500000  1
  P  P30  1  0.313816  0.834757  0.500000  1
  P  P31  1  0.520965  0.686187  0.500000  1
  P  P32  1  0.165234  0.479015  0.500000  1
  P  P33  1  0.821626  0.821626  0.000000  1
  P  P34  1  0.178380  0.999735  0.000000  1
  P  P35  1  0.999735  0.178380  0.000000  1
