# generated using pymatgen
data_Pr11Lu(Si7Cl3)2
_symmetry_space_group_name_H-M   'P 1'
_cell_length_a   3.98980700
_cell_length_b   11.52917400
_cell_length_c   16.20206800
_cell_angle_alpha   90.00000000
_cell_angle_beta   90.00000000
_cell_angle_gamma   90.00000000
_symmetry_Int_Tables_number   1
_chemical_formula_structural   Pr11Lu(Si7Cl3)2
_chemical_formula_sum   'Pr11 Lu1 Si14 Cl6'
_cell_volume   745.28182820
_cell_formula_units_Z   1
loop_
 _symmetry_equiv_pos_site_id
 _symmetry_equiv_pos_as_xyz
  1  'x, y, z'
loop_
 _atom_site_type_symbol
 _atom_site_label
 _atom_site_symmetry_multiplicity
 _atom_site_fract_x
 _atom_site_fract_y
 _atom_site_fract_z
 _atom_site_occupancy
  Pr  Pr0  1  0.500000  0.332142  0.500000  1
  Pr  Pr1  1  0.000000  0.665958  0.000000  1
  Pr  Pr2  1  0.500000  0.355292  0.752665  1
  Pr  Pr3  1  0.000000  0.645560  0.742319  1
  Pr  Pr4  1  0.500000  0.355292  0.247335  1
  Pr  Pr5  1  0.000000  0.645560  0.257681  1
  Pr  Pr6  1  0.500000  0.054009  0.876715  1
  Pr  Pr7  1  0.000000  0.943379  0.622244  1
  Pr  Pr8  1  0.500000  0.054009  0.123285  1
  Pr  Pr9  1  0.000000  0.943379  0.377756  1
  Pr  Pr10  1  0.500000  0.352320  0.000000  1
  Lu  Lu11  1  0.000000  0.651837  0.500000  1
  Si  Si12  1  0.000000  0.143359  0.000000  1
  Si  Si13  1  0.500000  0.855648  0.500000  1
  Si  Si14  1  0.500000  0.570379  0.875629  1
  Si  Si15  1  0.000000  0.433631  0.619879  1
  Si  Si16  1  0.500000  0.570379  0.124371  1
  Si  Si17  1  0.000000  0.433631  0.380121  1
  Si  Si18  1  0.000000  0.248305  0.872728  1
  Si  Si19  1  0.500000  0.749142  0.623394  1
  Si  Si20  1  0.000000  0.248305  0.127272  1
  Si  Si21  1  0.500000  0.749142  0.376606  1
  Si  Si22  1  0.000000  0.457186  0.876157  1
  Si  Si23  1  0.500000  0.544694  0.616576  1
  Si  Si24  1  0.500000  0.544694  0.383424  1
  Si  Si25  1  0.000000  0.457186  0.123843  1
  Cl  Cl26  1  0.500000  0.107804  0.694300  1
  Cl  Cl27  1  0.000000  0.890564  0.805015  1
  Cl  Cl28  1  0.000000  0.136662  0.500000  1
  Cl  Cl29  1  0.500000  0.862181  0.000000  1
  Cl  Cl30  1  0.500000  0.107804  0.305700  1
  Cl  Cl31  1  0.000000  0.890564  0.194985  1
