# generated using pymatgen
data_CaU5(Sb4Pt3)2
_symmetry_space_group_name_H-M   'P 1'
_cell_length_a   8.47141894
_cell_length_b   8.48833969
_cell_length_c   8.46957989
_cell_angle_alpha   109.63959149
_cell_angle_beta   109.34086789
_cell_angle_gamma   109.49157457
_symmetry_Int_Tables_number   1
_chemical_formula_structural   CaU5(Sb4Pt3)2
_chemical_formula_sum   'Ca1 U5 Sb8 Pt6'
_cell_volume   468.49333821
_cell_formula_units_Z   1
loop_
 _symmetry_equiv_pos_site_id
 _symmetry_equiv_pos_as_xyz
  1  'x, y, z'
loop_
 _atom_site_type_symbol
 _atom_site_label
 _atom_site_symmetry_multiplicity
 _atom_site_fract_x
 _atom_site_fract_y
 _atom_site_fract_z
 _atom_site_occupancy
  Ca  Ca0  1  0.874166  0.249467  0.124384  1
  U  U1  1  0.623982  0.749401  0.375371  1
  U  U2  1  0.247080  0.124145  0.876782  1
  U  U3  1  0.754083  0.376941  0.626809  1
  U  U4  1  0.122476  0.873141  0.247656  1
  U  U5  1  0.374791  0.628061  0.750179  1
  Sb  Sb6  1  0.674032  0.496465  0.996387  1
  Sb  Sb7  1  0.498183  0.001337  0.677868  1
  Sb  Sb8  1  0.001433  0.673990  0.496460  1
  Sb  Sb9  1  0.826246  0.828444  0.831467  1
  Sb  Sb10  1  0.503131  0.004107  0.175554  1
  Sb  Sb11  1  0.170421  0.495794  0.996818  1
  Sb  Sb12  1  0.005431  0.180345  0.502581  1
  Sb  Sb13  1  0.321866  0.320658  0.323403  1
  Pt  Pt14  1  0.376428  0.248114  0.620743  1
  Pt  Pt15  1  0.126610  0.752237  0.874448  1
  Pt  Pt16  1  0.265303  0.633014  0.379439  1
  Pt  Pt17  1  0.747216  0.865125  0.134964  1
  Pt  Pt18  1  0.620840  0.386772  0.257329  1
  Pt  Pt19  1  0.866281  0.112445  0.731357  1
