# generated using pymatgen
data_Dy3YP3S
_symmetry_space_group_name_H-M   'P 1'
_cell_length_a   6.90916787
_cell_length_b   6.90916662
_cell_length_c   6.90309199
_cell_angle_alpha   80.27405364
_cell_angle_beta   80.27405442
_cell_angle_gamma   33.58350270
_symmetry_Int_Tables_number   1
_chemical_formula_structural   Dy3YP3S
_chemical_formula_sum   'Dy3 Y1 P3 S1'
_cell_volume   179.41976079
_cell_formula_units_Z   1
loop_
 _symmetry_equiv_pos_site_id
 _symmetry_equiv_pos_as_xyz
  1  'x, y, z'
loop_
 _atom_site_type_symbol
 _atom_site_label
 _atom_site_symmetry_multiplicity
 _atom_site_fract_x
 _atom_site_fract_y
 _atom_site_fract_z
 _atom_site_occupancy
  Dy  Dy0  1  0.249391  0.249391  0.254219  1
  Dy  Dy1  1  0.500602  0.500602  0.495687  1
  Dy  Dy2  1  0.746943  0.746943  0.746260  1
  Y  Y3  1  0.003105  0.003105  0.003787  1
  P  P4  1  0.626277  0.626277  0.122992  1
  P  P5  1  0.874822  0.874822  0.375455  1
  P  P6  1  0.124207  0.124207  0.626956  1
  S  S7  1  0.374654  0.374654  0.874644  1
