# generated using pymatgen
data_CeTmTh2(Al3Rh)6
_symmetry_space_group_name_H-M   'P 1'
_cell_length_a   7.62671700
_cell_length_b   7.63136315
_cell_length_c   9.48517500
_cell_angle_alpha   90.00000000
_cell_angle_beta   90.00000000
_cell_angle_gamma   119.45662803
_symmetry_Int_Tables_number   1
_chemical_formula_structural   CeTmTh2(Al3Rh)6
_chemical_formula_sum   'Ce1 Tm1 Th2 Al18 Rh6'
_cell_volume   480.69290503
_cell_formula_units_Z   1
loop_
 _symmetry_equiv_pos_site_id
 _symmetry_equiv_pos_as_xyz
  1  'x, y, z'
loop_
 _atom_site_type_symbol
 _atom_site_label
 _atom_site_symmetry_multiplicity
 _atom_site_fract_x
 _atom_site_fract_y
 _atom_site_fract_z
 _atom_site_occupancy
  Ce  Ce0  1  0.002937  0.328471  0.750000  1
  Tm  Tm1  1  0.327817  0.005522  0.750000  1
  Th  Th2  1  0.994724  0.671240  0.250000  1
  Th  Th3  1  0.670815  0.994243  0.250000  1
  Al  Al4  1  0.135222  0.132950  0.250000  1
  Al  Al5  1  0.872216  0.872403  0.750000  1
  Al  Al6  1  0.005980  0.335657  0.071531  1
  Al  Al7  1  0.001420  0.667327  0.919270  1
  Al  Al8  1  0.001420  0.667327  0.580730  1
  Al  Al9  1  0.335291  0.004603  0.431675  1
  Al  Al10  1  0.005980  0.335657  0.428469  1
  Al  Al11  1  0.661354  0.998326  0.580595  1
  Al  Al12  1  0.661354  0.998326  0.919405  1
  Al  Al13  1  0.335291  0.004603  0.068325  1
  Al  Al14  1  0.333838  0.331906  0.555299  1
  Al  Al15  1  0.663276  0.663221  0.457898  1
  Al  Al16  1  0.663276  0.663221  0.042102  1
  Al  Al17  1  0.333838  0.331906  0.944701  1
  Al  Al18  1  0.341760  0.544755  0.250000  1
  Al  Al19  1  0.657415  0.448537  0.750000  1
  Al  Al20  1  0.544309  0.338914  0.250000  1
  Al  Al21  1  0.448855  0.659952  0.750000  1
  Rh  Rh22  1  0.672976  0.328289  0.999983  1
  Rh  Rh23  1  0.328518  0.673100  0.000273  1
  Rh  Rh24  1  0.328518  0.673100  0.499727  1
  Rh  Rh25  1  0.672976  0.328289  0.500017  1
  Rh  Rh26  1  0.999314  0.999078  0.000160  1
  Rh  Rh27  1  0.999314  0.999078  0.499840  1
