# generated using pymatgen
data_Yb2YTm5(B6Ru)4
_symmetry_space_group_name_H-M   'P 1'
_cell_length_a   3.62586800
_cell_length_b   9.09660334
_cell_length_c   11.48779400
_cell_angle_alpha   89.84546534
_cell_angle_beta   90.00000000
_cell_angle_gamma   90.00000000
_symmetry_Int_Tables_number   1
_chemical_formula_structural   Yb2YTm5(B6Ru)4
_chemical_formula_sum   'Yb2 Y1 Tm5 B24 Ru4'
_cell_volume   378.90148443
_cell_formula_units_Z   1
loop_
 _symmetry_equiv_pos_site_id
 _symmetry_equiv_pos_as_xyz
  1  'x, y, z'
loop_
 _atom_site_type_symbol
 _atom_site_label
 _atom_site_symmetry_multiplicity
 _atom_site_fract_x
 _atom_site_fract_y
 _atom_site_fract_z
 _atom_site_occupancy
  Yb  Yb0  1  0.000000  0.324634  0.414938  1
  Yb  Yb1  1  0.000000  0.675332  0.585165  1
  Y  Y2  1  0.000000  0.821953  0.085907  1
  Tm  Tm3  1  0.000000  0.178062  0.913978  1
  Tm  Tm4  1  0.000000  0.941971  0.369880  1
  Tm  Tm5  1  0.000000  0.058216  0.630202  1
  Tm  Tm6  1  0.000000  0.442455  0.130660  1
  Tm  Tm7  1  0.000000  0.557117  0.869153  1
  B  B8  1  0.500000  0.554213  0.432392  1
  B  B9  1  0.500000  0.445564  0.567836  1
  B  B10  1  0.500000  0.054424  0.066345  1
  B  B11  1  0.500000  0.946801  0.932969  1
  B  B12  1  0.500000  0.748561  0.417884  1
  B  B13  1  0.500000  0.251430  0.582418  1
  B  B14  1  0.500000  0.248939  0.080777  1
  B  B15  1  0.500000  0.751141  0.918234  1
  B  B16  1  0.500000  0.791264  0.264694  1
  B  B17  1  0.500000  0.208379  0.736041  1
  B  B18  1  0.500000  0.290417  0.234462  1
  B  B19  1  0.500000  0.709650  0.765299  1
  B  B20  1  0.500000  0.630533  0.184957  1
  B  B21  1  0.500000  0.368693  0.815575  1
  B  B22  1  0.500000  0.130535  0.314333  1
  B  B23  1  0.500000  0.869790  0.685685  1
  B  B24  1  0.500000  0.983254  0.211821  1
  B  B25  1  0.500000  0.017782  0.788408  1
  B  B26  1  0.500000  0.483314  0.287941  1
  B  B27  1  0.500000  0.516321  0.712175  1
  B  B28  1  0.500000  0.601902  0.027918  1
  B  B29  1  0.500000  0.396946  0.971730  1
  B  B30  1  0.500000  0.098770  0.472840  1
  B  B31  1  0.500000  0.901376  0.527269  1
  Ru  Ru32  1  0.000000  0.639931  0.318629  1
  Ru  Ru33  1  0.000000  0.359634  0.681833  1
  Ru  Ru34  1  0.000000  0.137542  0.178186  1
  Ru  Ru35  1  0.000000  0.863157  0.821467  1
