# generated using pymatgen
data_Er7Tm(C2Br3)2
_symmetry_space_group_name_H-M   'P 1'
_cell_length_a   3.65552000
_cell_length_b   10.61301607
_cell_length_c   20.31279314
_cell_angle_alpha   89.98654624
_cell_angle_beta   90.00000000
_cell_angle_gamma   90.00000000
_symmetry_Int_Tables_number   1
_chemical_formula_structural   Er7Tm(C2Br3)2
_chemical_formula_sum   'Er14 Tm2 C8 Br12'
_cell_volume   788.05698019
_cell_formula_units_Z   2
loop_
 _symmetry_equiv_pos_site_id
 _symmetry_equiv_pos_as_xyz
  1  'x, y, z'
loop_
 _atom_site_type_symbol
 _atom_site_label
 _atom_site_symmetry_multiplicity
 _atom_site_fract_x
 _atom_site_fract_y
 _atom_site_fract_z
 _atom_site_occupancy
  Er  Er0  1  0.250000  0.866323  0.581526  1
  Er  Er1  1  0.750000  0.133677  0.418474  1
  Er  Er2  1  0.750000  0.633481  0.081482  1
  Er  Er3  1  0.250000  0.366519  0.918518  1
  Er  Er4  1  0.250000  0.865958  0.744166  1
  Er  Er5  1  0.750000  0.134042  0.255834  1
  Er  Er6  1  0.750000  0.634000  0.244056  1
  Er  Er7  1  0.250000  0.366000  0.755944  1
  Er  Er8  1  0.250000  0.867498  0.169584  1
  Er  Er9  1  0.750000  0.132502  0.830416  1
  Er  Er10  1  0.750000  0.632679  0.669720  1
  Er  Er11  1  0.250000  0.367321  0.330280  1
  Er  Er12  1  0.250000  0.900354  0.327863  1
  Er  Er13  1  0.750000  0.099646  0.672137  1
  Tm  Tm14  1  0.750000  0.599117  0.827430  1
  Tm  Tm15  1  0.250000  0.400883  0.172570  1
  C  C16  1  0.250000  0.615078  0.750767  1
  C  C17  1  0.750000  0.384922  0.249233  1
  C  C18  1  0.750000  0.884496  0.250302  1
  C  C19  1  0.250000  0.115504  0.749698  1
  C  C20  1  0.250000  0.631840  0.156642  1
  C  C21  1  0.750000  0.368160  0.843358  1
  C  C22  1  0.750000  0.867195  0.656742  1
  C  C23  1  0.250000  0.132805  0.343258  1
  Br  Br24  1  0.250000  0.612589  0.556005  1
  Br  Br25  1  0.750000  0.387411  0.443995  1
  Br  Br26  1  0.750000  0.887311  0.055954  1
  Br  Br27  1  0.250000  0.112689  0.944046  1
  Br  Br28  1  0.250000  0.627619  0.952875  1
  Br  Br29  1  0.750000  0.372381  0.047125  1
  Br  Br30  1  0.750000  0.872364  0.453211  1
  Br  Br31  1  0.250000  0.127636  0.546789  1
  Br  Br32  1  0.250000  0.635812  0.356579  1
  Br  Br33  1  0.750000  0.364188  0.643421  1
  Br  Br34  1  0.750000  0.863161  0.856576  1
  Br  Br35  1  0.250000  0.136839  0.143424  1
