# generated using pymatgen
data_Dy4Tm5Lu3Co5Sn
_symmetry_space_group_name_H-M   'P 1'
_cell_length_a   8.17318833
_cell_length_b   8.17483362
_cell_length_c   8.17318738
_cell_angle_alpha   106.78186914
_cell_angle_beta   110.56072903
_cell_angle_gamma   111.09655262
_symmetry_Int_Tables_number   1
_chemical_formula_structural   Dy4Tm5Lu3Co5Sn
_chemical_formula_sum   'Dy4 Tm5 Lu3 Co5 Sn1'
_cell_volume   419.72033945
_cell_formula_units_Z   1
loop_
 _symmetry_equiv_pos_site_id
 _symmetry_equiv_pos_as_xyz
  1  'x, y, z'
loop_
 _atom_site_type_symbol
 _atom_site_label
 _atom_site_symmetry_multiplicity
 _atom_site_fract_x
 _atom_site_fract_y
 _atom_site_fract_z
 _atom_site_occupancy
  Dy  Dy0  1  0.194583  0.211687  0.406764  1
  Dy  Dy1  1  0.805893  0.788243  0.593723  1
  Dy  Dy2  1  0.194521  0.788243  0.982349  1
  Dy  Dy3  1  0.804923  0.211687  0.017104  1
  Tm  Tm4  1  0.474208  0.289255  0.184325  1
  Tm  Tm5  1  0.104930  0.289255  0.815047  1
  Tm  Tm6  1  0.894514  0.710582  0.184395  1
  Tm  Tm7  1  0.526187  0.710582  0.816068  1
  Tm  Tm8  1  0.306038  0.620658  0.314619  1
  Lu  Lu9  1  0.306660  0.991844  0.685183  1
  Lu  Lu10  1  0.693408  0.378421  0.685013  1
  Lu  Lu11  1  0.693439  0.008485  0.315047  1
  Co  Co12  1  0.500252  0.612979  0.112727  1
  Co  Co13  1  0.499883  0.386576  0.886693  1
  Co  Co14  1  0.377404  0.000672  0.377374  1
  Co  Co15  1  0.623297  0.000672  0.623268  1
  Co  Co16  1  0.000118  0.000146  0.000028  1
  Sn  Sn17  1  0.999741  0.500014  0.500273  1
