# generated using pymatgen
data_Er2Tm3(In2Ni)2
_symmetry_space_group_name_H-M   'P 1'
_cell_length_a   3.56461100
_cell_length_b   7.95111661
_cell_length_c   17.80540536
_cell_angle_alpha   89.95508705
_cell_angle_beta   90.00000000
_cell_angle_gamma   90.00000000
_symmetry_Int_Tables_number   1
_chemical_formula_structural   Er2Tm3(In2Ni)2
_chemical_formula_sum   'Er4 Tm6 In8 Ni4'
_cell_volume   504.65199897
_cell_formula_units_Z   2
loop_
 _symmetry_equiv_pos_site_id
 _symmetry_equiv_pos_as_xyz
  1  'x, y, z'
loop_
 _atom_site_type_symbol
 _atom_site_label
 _atom_site_symmetry_multiplicity
 _atom_site_fract_x
 _atom_site_fract_y
 _atom_site_fract_z
 _atom_site_occupancy
  Er  Er0  1  0.000000  0.500000  0.500000  1
  Er  Er1  1  0.000000  0.000000  0.000000  1
  Er  Er2  1  0.000000  0.745935  0.277854  1
  Er  Er3  1  0.000000  0.254065  0.722146  1
  Tm  Tm4  1  0.000000  0.753905  0.777898  1
  Tm  Tm5  1  0.000000  0.246095  0.222102  1
  Tm  Tm6  1  0.000000  0.616645  0.088599  1
  Tm  Tm7  1  0.000000  0.383355  0.911401  1
  Tm  Tm8  1  0.000000  0.883091  0.588606  1
  Tm  Tm9  1  0.000000  0.116909  0.411394  1
  In  In10  1  0.500000  0.704917  0.930912  1
  In  In11  1  0.500000  0.295083  0.069088  1
  In  In12  1  0.500000  0.795382  0.431114  1
  In  In13  1  0.500000  0.204618  0.568886  1
  In  In14  1  0.500000  0.574166  0.652012  1
  In  In15  1  0.500000  0.425834  0.347988  1
  In  In16  1  0.500000  0.926821  0.151807  1
  In  In17  1  0.500000  0.073179  0.848193  1
  Ni  Ni18  1  0.500000  0.523753  0.195143  1
  Ni  Ni19  1  0.500000  0.476247  0.804857  1
  Ni  Ni20  1  0.500000  0.974121  0.695420  1
  Ni  Ni21  1  0.500000  0.025879  0.304580  1
