# generated using pymatgen
data_Tb8Cd2IrPt
_symmetry_space_group_name_H-M   'P 1'
_cell_length_a   9.69857143
_cell_length_b   9.69857210
_cell_length_c   9.67690800
_cell_angle_alpha   60.07386410
_cell_angle_beta   60.07386183
_cell_angle_gamma   60.22976944
_symmetry_Int_Tables_number   1
_chemical_formula_structural   Tb8Cd2IrPt
_chemical_formula_sum   'Tb16 Cd4 Ir2 Pt2'
_cell_volume   645.46292886
_cell_formula_units_Z   2
loop_
 _symmetry_equiv_pos_site_id
 _symmetry_equiv_pos_as_xyz
  1  'x, y, z'
loop_
 _atom_site_type_symbol
 _atom_site_label
 _atom_site_symmetry_multiplicity
 _atom_site_fract_x
 _atom_site_fract_y
 _atom_site_fract_z
 _atom_site_occupancy
  Tb  Tb0  1  0.601057  0.601057  0.596115  1
  Tb  Tb1  1  0.601057  0.601057  0.201772  1
  Tb  Tb2  1  0.605634  0.195307  0.599530  1
  Tb  Tb3  1  0.195307  0.605634  0.599530  1
  Tb  Tb4  1  0.056350  0.439816  0.441126  1
  Tb  Tb5  1  0.439816  0.056350  0.062709  1
  Tb  Tb6  1  0.439816  0.056350  0.441126  1
  Tb  Tb7  1  0.056350  0.439816  0.062709  1
  Tb  Tb8  1  0.441532  0.441532  0.058468  1
  Tb  Tb9  1  0.060792  0.060792  0.439208  1
  Tb  Tb10  1  0.187732  0.814221  0.811862  1
  Tb  Tb11  1  0.814221  0.187732  0.186186  1
  Tb  Tb12  1  0.814221  0.187732  0.811862  1
  Tb  Tb13  1  0.187732  0.814221  0.186186  1
  Tb  Tb14  1  0.813113  0.813113  0.186887  1
  Tb  Tb15  1  0.186795  0.186795  0.813205  1
  Cd  Cd16  1  0.831265  0.831265  0.831457  1
  Cd  Cd17  1  0.831265  0.831265  0.506013  1
  Cd  Cd18  1  0.831073  0.505560  0.831684  1
  Cd  Cd19  1  0.505560  0.831073  0.831684  1
  Ir  Ir20  1  0.391823  0.822692  0.392743  1
  Ir  Ir21  1  0.822692  0.391823  0.392743  1
  Pt  Pt22  1  0.392399  0.392399  0.394071  1
  Pt  Pt23  1  0.392399  0.392399  0.821130  1
