# generated using pymatgen
data_TbY3MnRu7
_symmetry_space_group_name_H-M   'P 1'
_cell_length_a   5.34577700
_cell_length_b   5.24309340
_cell_length_c   8.94889401
_cell_angle_alpha   90.00449836
_cell_angle_beta   90.00000000
_cell_angle_gamma   120.65000045
_symmetry_Int_Tables_number   1
_chemical_formula_structural   TbY3MnRu7
_chemical_formula_sum   'Tb1 Y3 Mn1 Ru7'
_cell_volume   215.78261026
_cell_formula_units_Z   1
loop_
 _symmetry_equiv_pos_site_id
 _symmetry_equiv_pos_as_xyz
  1  'x, y, z'
loop_
 _atom_site_type_symbol
 _atom_site_label
 _atom_site_symmetry_multiplicity
 _atom_site_fract_x
 _atom_site_fract_y
 _atom_site_fract_z
 _atom_site_occupancy
  Tb  Tb0  1  0.329929  0.659859  0.433218  1
  Y  Y1  1  0.666952  0.333903  0.565653  1
  Y  Y2  1  0.667020  0.334039  0.934255  1
  Y  Y3  1  0.329794  0.659590  0.066924  1
  Mn  Mn4  1  0.166158  0.332317  0.750172  1
  Ru  Ru5  1  0.173145  0.826383  0.750175  1
  Ru  Ru6  1  0.351604  0.174867  0.249801  1
  Ru  Ru7  1  0.840876  0.681753  0.249919  1
  Ru  Ru8  1  0.653239  0.826383  0.750175  1
  Ru  Ru9  1  0.998994  0.997989  0.997919  1
  Ru  Ru10  1  0.823263  0.174867  0.249801  1
  Ru  Ru11  1  0.999026  0.998052  0.501990  1
