# generated using pymatgen
data_Er3TmZn4Si3Ge
_symmetry_space_group_name_H-M   'P 1'
_cell_length_a   4.17090600
_cell_length_b   4.17090552
_cell_length_c   15.33426100
_cell_angle_alpha   90.00000000
_cell_angle_beta   90.00000000
_cell_angle_gamma   120.00000380
_symmetry_Int_Tables_number   1
_chemical_formula_structural   Er3TmZn4Si3Ge
_chemical_formula_sum   'Er3 Tm1 Zn4 Si3 Ge1'
_cell_volume   231.02246885
_cell_formula_units_Z   1
loop_
 _symmetry_equiv_pos_site_id
 _symmetry_equiv_pos_as_xyz
  1  'x, y, z'
loop_
 _atom_site_type_symbol
 _atom_site_label
 _atom_site_symmetry_multiplicity
 _atom_site_fract_x
 _atom_site_fract_y
 _atom_site_fract_z
 _atom_site_occupancy
  Er  Er0  1  0.000000  0.000000  0.251620  1
  Er  Er1  1  0.000000  0.000000  0.746837  1
  Er  Er2  1  0.000000  0.000000  0.002084  1
  Tm  Tm3  1  0.000000  0.000000  0.499635  1
  Zn  Zn4  1  0.333333  0.666667  0.142564  1
  Zn  Zn5  1  0.666667  0.333333  0.853337  1
  Zn  Zn6  1  0.666667  0.333333  0.638197  1
  Zn  Zn7  1  0.333333  0.666667  0.360743  1
  Si  Si8  1  0.333333  0.666667  0.616045  1
  Si  Si9  1  0.666667  0.333333  0.384016  1
  Si  Si10  1  0.666667  0.333333  0.118860  1
  Ge  Ge11  1  0.333333  0.666667  0.886061  1
