# generated using pymatgen
data_Ce5TlTc2
_symmetry_space_group_name_H-M   'P 1'
_cell_length_a   7.81049428
_cell_length_b   7.81305603
_cell_length_c   8.69239748
_cell_angle_alpha   116.82176581
_cell_angle_beta   116.69695287
_cell_angle_gamma   90.00001878
_symmetry_Int_Tables_number   1
_chemical_formula_structural   Ce5TlTc2
_chemical_formula_sum   'Ce10 Tl2 Tc4'
_cell_volume   409.01229490
_cell_formula_units_Z   2
loop_
 _symmetry_equiv_pos_site_id
 _symmetry_equiv_pos_as_xyz
  1  'x, y, z'
loop_
 _atom_site_type_symbol
 _atom_site_label
 _atom_site_symmetry_multiplicity
 _atom_site_fract_x
 _atom_site_fract_y
 _atom_site_fract_z
 _atom_site_occupancy
  Ce  Ce0  1  0.500000  0.500000  0.000000  1
  Ce  Ce1  1  0.000000  0.000000  0.000000  1
  Ce  Ce2  1  0.976925  0.792533  0.269805  1
  Ce  Ce3  1  0.292347  0.476598  0.269389  1
  Ce  Ce4  1  0.792880  0.292533  0.269805  1
  Ce  Ce5  1  0.477042  0.976598  0.269389  1
  Ce  Ce6  1  0.023075  0.207467  0.730195  1
  Ce  Ce7  1  0.707653  0.523402  0.730611  1
  Ce  Ce8  1  0.207120  0.707467  0.730195  1
  Ce  Ce9  1  0.522958  0.023402  0.730611  1
  Tl  Tl10  1  0.749956  0.750000  0.500000  1
  Tl  Tl11  1  0.250044  0.250000  0.500000  1
  Tc  Tc12  1  0.639897  0.860285  0.000172  1
  Tc  Tc13  1  0.360103  0.139715  0.999828  1
  Tc  Tc14  1  0.860277  0.360285  0.000172  1
  Tc  Tc15  1  0.139723  0.639715  0.999828  1
