# generated using pymatgen
data_Ho7Th13(Ir2Os)4
_symmetry_space_group_name_H-M   'P 1'
_cell_length_a   11.26122788
_cell_length_b   11.16090031
_cell_length_c   6.37620446
_cell_angle_alpha   89.60500167
_cell_angle_beta   89.95617502
_cell_angle_gamma   89.84570963
_symmetry_Int_Tables_number   1
_chemical_formula_structural   Ho7Th13(Ir2Os)4
_chemical_formula_sum   'Ho7 Th13 Ir8 Os4'
_cell_volume   801.37390177
_cell_formula_units_Z   1
loop_
 _symmetry_equiv_pos_site_id
 _symmetry_equiv_pos_as_xyz
  1  'x, y, z'
loop_
 _atom_site_type_symbol
 _atom_site_label
 _atom_site_symmetry_multiplicity
 _atom_site_fract_x
 _atom_site_fract_y
 _atom_site_fract_z
 _atom_site_occupancy
  Ho  Ho0  1  0.914548  0.287567  0.613250  1
  Ho  Ho1  1  0.087483  0.710337  0.614979  1
  Ho  Ho2  1  0.086284  0.290303  0.114798  1
  Ho  Ho3  1  0.999175  0.999172  0.498210  1
  Ho  Ho4  1  0.002228  0.005203  0.996994  1
  Ho  Ho5  1  0.502997  0.498842  0.015492  1
  Ho  Ho6  1  0.497807  0.500287  0.514870  1
  Th  Th7  1  0.287636  0.091471  0.378623  1
  Th  Th8  1  0.289374  0.908884  0.878472  1
  Th  Th9  1  0.710458  0.091022  0.880048  1
  Th  Th10  1  0.711643  0.911351  0.381445  1
  Th  Th11  1  0.590565  0.788685  0.883152  1
  Th  Th12  1  0.588255  0.212372  0.382111  1
  Th  Th13  1  0.410653  0.789607  0.381864  1
  Th  Th14  1  0.407952  0.212360  0.882138  1
  Th  Th15  1  0.199933  0.410931  0.615909  1
  Th  Th16  1  0.207871  0.587245  0.115486  1
  Th  Th17  1  0.797985  0.404757  0.115829  1
  Th  Th18  1  0.795527  0.584420  0.617351  1
  Th  Th19  1  0.915607  0.711317  0.115692  1
  Ir  Ir20  1  0.844845  0.149777  0.245645  1
  Ir  Ir21  1  0.845917  0.848946  0.753662  1
  Ir  Ir22  1  0.153678  0.151943  0.742019  1
  Ir  Ir23  1  0.153858  0.847172  0.242060  1
  Ir  Ir24  1  0.651992  0.343844  0.759293  1
  Ir  Ir25  1  0.653605  0.655739  0.259164  1
  Ir  Ir26  1  0.346127  0.345172  0.260435  1
  Ir  Ir27  1  0.349199  0.656019  0.760081  1
  Os  Os28  1  0.498543  0.000347  0.117678  1
  Os  Os29  1  0.499717  0.000428  0.617150  1
  Os  Os30  1  0.000134  0.501618  0.874426  1
  Os  Os31  1  0.998405  0.502861  0.371674  1
