# generated using pymatgen
data_HfZr3(SeO5)4
_symmetry_space_group_name_H-M   'P 1'
_cell_length_a   5.29367921
_cell_length_b   9.48876733
_cell_length_c   9.86088271
_cell_angle_alpha   89.88600162
_cell_angle_beta   90.27055517
_cell_angle_gamma   90.24795569
_symmetry_Int_Tables_number   1
_chemical_formula_structural   HfZr3(SeO5)4
_chemical_formula_sum   'Hf1 Zr3 Se4 O20'
_cell_volume   495.30585273
_cell_formula_units_Z   1
loop_
 _symmetry_equiv_pos_site_id
 _symmetry_equiv_pos_as_xyz
  1  'x, y, z'
loop_
 _atom_site_type_symbol
 _atom_site_label
 _atom_site_symmetry_multiplicity
 _atom_site_fract_x
 _atom_site_fract_y
 _atom_site_fract_z
 _atom_site_occupancy
  Hf  Hf0  1  0.381841  0.842359  0.901885  1
  Zr  Zr1  1  0.619588  0.341718  0.598390  1
  Zr  Zr2  1  0.116897  0.156859  0.402383  1
  Zr  Zr3  1  0.881481  0.659386  0.096387  1
  Se  Se4  1  0.890357  0.027242  0.710931  1
  Se  Se5  1  0.391399  0.471257  0.290710  1
  Se  Se6  1  0.605127  0.971347  0.207319  1
  Se  Se7  1  0.112724  0.530364  0.791130  1
  O  O8  1  0.327320  0.412635  0.746571  1
  O  O9  1  0.217746  0.695063  0.760004  1
  O  O10  1  0.846551  0.509053  0.703544  1
  O  O11  1  0.942632  0.005378  0.544363  1
  O  O12  1  0.392777  0.190361  0.532489  1
  O  O13  1  0.893316  0.307086  0.469327  1
  O  O14  1  0.447807  0.492173  0.457565  1
  O  O15  1  0.337425  0.992387  0.292147  1
  O  O16  1  0.712711  0.808574  0.240576  1
  O  O17  1  0.818137  0.091204  0.252416  1
  O  O18  1  0.178081  0.590064  0.246133  1
  O  O19  1  0.284374  0.307326  0.259132  1
  O  O20  1  0.659014  0.492051  0.205605  1
  O  O21  1  0.549763  0.991779  0.040063  1
  O  O22  1  0.110287  0.807723  0.029657  1
  O  O23  1  0.604956  0.693705  0.968236  1
  O  O24  1  0.054742  0.507345  0.956980  1
  O  O25  1  0.159251  0.003793  0.795871  1
  O  O26  1  0.790697  0.191610  0.743180  1
  O  O27  1  0.673001  0.910157  0.757007  1
