# generated using pymatgen
data_VAgF5
_symmetry_space_group_name_H-M   'P 1'
_cell_length_a   5.57460511
_cell_length_b   11.17988121
_cell_length_c   7.90187200
_cell_angle_alpha   90.18977029
_cell_angle_beta   106.56784023
_cell_angle_gamma   89.80291912
_symmetry_Int_Tables_number   1
_chemical_formula_structural   VAgF5
_chemical_formula_sum   'V4 Ag4 F20'
_cell_volume   472.02146515
_cell_formula_units_Z   4
loop_
 _symmetry_equiv_pos_site_id
 _symmetry_equiv_pos_as_xyz
  1  'x, y, z'
loop_
 _atom_site_type_symbol
 _atom_site_label
 _atom_site_symmetry_multiplicity
 _atom_site_fract_x
 _atom_site_fract_y
 _atom_site_fract_z
 _atom_site_occupancy
  V  V0  1  0.089407  0.250743  0.164130  1
  V  V1  1  0.912537  0.749219  0.336632  1
  V  V2  1  0.087451  0.250755  0.663374  1
  V  V3  1  0.910690  0.749273  0.835900  1
  Ag  Ag4  1  0.500185  0.000046  0.999835  1
  Ag  Ag5  1  0.499749  0.500029  0.000116  1
  Ag  Ag6  1  0.499811  0.999961  0.500162  1
  Ag  Ag7  1  0.500252  0.500050  0.499800  1
  F  F8  1  0.912352  0.753100  0.086035  1
  F  F9  1  0.854006  0.370160  0.116315  1
  F  F10  1  0.659210  0.637754  0.275964  1
  F  F11  1  0.332323  0.131068  0.215067  1
  F  F12  1  0.669611  0.873468  0.286664  1
  F  F13  1  0.335048  0.371567  0.208957  1
  F  F14  1  0.152342  0.627378  0.386944  1
  F  F15  1  0.851366  0.130674  0.120434  1
  F  F16  1  0.105375  0.254577  0.417552  1
  F  F17  1  0.162400  0.859278  0.395587  1
  F  F18  1  0.838225  0.140554  0.604404  1
  F  F19  1  0.894595  0.745528  0.582439  1
  F  F20  1  0.148472  0.869239  0.879723  1
  F  F21  1  0.847570  0.372741  0.613165  1
  F  F22  1  0.665072  0.628527  0.791034  1
  F  F23  1  0.330505  0.126376  0.713293  1
  F  F24  1  0.667593  0.869110  0.784951  1
  F  F25  1  0.340356  0.362240  0.723962  1
  F  F26  1  0.145946  0.629774  0.883605  1
  F  F27  1  0.087559  0.246811  0.913958  1
