# generated using pymatgen
data_BaCa(OsO4)2
_symmetry_space_group_name_H-M   'P 1'
_cell_length_a   7.67096201
_cell_length_b   7.67096119
_cell_length_c   7.49058803
_cell_angle_alpha   61.71015944
_cell_angle_beta   61.71016074
_cell_angle_gamma   88.31333986
_symmetry_Int_Tables_number   1
_chemical_formula_structural   BaCa(OsO4)2
_chemical_formula_sum   'Ba2 Ca2 Os4 O16'
_cell_volume   330.76602522
_cell_formula_units_Z   2
loop_
 _symmetry_equiv_pos_site_id
 _symmetry_equiv_pos_as_xyz
  1  'x, y, z'
loop_
 _atom_site_type_symbol
 _atom_site_label
 _atom_site_symmetry_multiplicity
 _atom_site_fract_x
 _atom_site_fract_y
 _atom_site_fract_z
 _atom_site_occupancy
  Ba  Ba0  1  0.218997  0.781003  0.750000  1
  Ba  Ba1  1  0.781003  0.218997  0.250000  1
  Ca  Ca2  1  0.769884  0.230116  0.750000  1
  Ca  Ca3  1  0.230116  0.769884  0.250000  1
  Os  Os4  1  0.704089  0.695525  0.795154  1
  Os  Os5  1  0.295911  0.304475  0.204846  1
  Os  Os6  1  0.304475  0.295911  0.704846  1
  Os  Os7  1  0.695525  0.704089  0.295154  1
  O  O8  1  0.637069  0.770677  0.542907  1
  O  O9  1  0.362931  0.229323  0.457093  1
  O  O10  1  0.229323  0.362931  0.957093  1
  O  O11  1  0.770677  0.637069  0.042907  1
  O  O12  1  0.369856  0.060569  0.854955  1
  O  O13  1  0.630144  0.939431  0.145045  1
  O  O14  1  0.939431  0.630144  0.645045  1
  O  O15  1  0.060569  0.369856  0.354955  1
  O  O16  1  0.587440  0.374056  0.976041  1
  O  O17  1  0.412560  0.625944  0.023959  1
  O  O18  1  0.625944  0.412560  0.523959  1
  O  O19  1  0.374056  0.587440  0.476041  1
  O  O20  1  0.768960  0.967429  0.677263  1
  O  O21  1  0.231040  0.032571  0.322737  1
  O  O22  1  0.032571  0.231040  0.822737  1
  O  O23  1  0.967429  0.768960  0.177263  1
