# generated using pymatgen
data_YHo2Fe8CoP6
_symmetry_space_group_name_H-M   'P 1'
_cell_length_a   3.71060300
_cell_length_b   10.48302000
_cell_length_c   12.19214400
_cell_angle_alpha   90.00000000
_cell_angle_beta   90.00000000
_cell_angle_gamma   90.00000000
_symmetry_Int_Tables_number   1
_chemical_formula_structural   YHo2Fe8CoP6
_chemical_formula_sum   'Y2 Ho4 Fe16 Co2 P12'
_cell_volume   474.25398538
_cell_formula_units_Z   2
loop_
 _symmetry_equiv_pos_site_id
 _symmetry_equiv_pos_as_xyz
  1  'x, y, z'
loop_
 _atom_site_type_symbol
 _atom_site_label
 _atom_site_symmetry_multiplicity
 _atom_site_fract_x
 _atom_site_fract_y
 _atom_site_fract_z
 _atom_site_occupancy
  Y  Y0  1  0.000000  0.500000  0.525467  1
  Y  Y1  1  0.500000  0.000000  0.474533  1
  Ho  Ho2  1  0.500000  0.819426  0.206970  1
  Ho  Ho3  1  0.500000  0.180574  0.206970  1
  Ho  Ho4  1  0.000000  0.680574  0.793030  1
  Ho  Ho5  1  0.000000  0.319426  0.793030  1
  Fe  Fe6  1  0.500000  0.500000  0.152305  1
  Fe  Fe7  1  0.000000  0.000000  0.847695  1
  Fe  Fe8  1  0.000000  0.500000  0.988619  1
  Fe  Fe9  1  0.500000  0.000000  0.011381  1
  Fe  Fe10  1  0.500000  0.327514  0.996437  1
  Fe  Fe11  1  0.500000  0.672486  0.996437  1
  Fe  Fe12  1  0.000000  0.172486  0.003563  1
  Fe  Fe13  1  0.000000  0.827514  0.003563  1
  Fe  Fe14  1  0.500000  0.299233  0.429570  1
  Fe  Fe15  1  0.500000  0.700767  0.429570  1
  Fe  Fe16  1  0.000000  0.200767  0.570430  1
  Fe  Fe17  1  0.000000  0.799233  0.570430  1
  Fe  Fe18  1  0.500000  0.882530  0.709408  1
  Fe  Fe19  1  0.500000  0.117470  0.709408  1
  Fe  Fe20  1  0.000000  0.617470  0.290592  1
  Fe  Fe21  1  0.000000  0.382530  0.290592  1
  Co  Co22  1  0.500000  0.500000  0.700374  1
  Co  Co23  1  0.000000  0.000000  0.299626  1
  P  P24  1  0.500000  0.500000  0.883961  1
  P  P25  1  0.000000  0.000000  0.116039  1
  P  P26  1  0.500000  0.500000  0.340058  1
  P  P27  1  0.000000  0.000000  0.659942  1
  P  P28  1  0.500000  0.305526  0.614346  1
  P  P29  1  0.500000  0.694474  0.614346  1
  P  P30  1  0.000000  0.194474  0.385654  1
  P  P31  1  0.000000  0.805526  0.385654  1
  P  P32  1  0.500000  0.851212  0.888663  1
  P  P33  1  0.500000  0.148788  0.888663  1
  P  P34  1  0.000000  0.648788  0.111337  1
  P  P35  1  0.000000  0.351212  0.111337  1
