# generated using pymatgen
data_Nd2MnGeF14
_symmetry_space_group_name_H-M   'P 1'
_cell_length_a   5.58172700
_cell_length_b   9.00478441
_cell_length_c   11.99074500
_cell_angle_alpha   62.41359718
_cell_angle_beta   90.00000000
_cell_angle_gamma   90.00000000
_symmetry_Int_Tables_number   1
_chemical_formula_structural   Nd2MnGeF14
_chemical_formula_sum   'Nd4 Mn2 Ge2 F28'
_cell_volume   534.16501830
_cell_formula_units_Z   2
loop_
 _symmetry_equiv_pos_site_id
 _symmetry_equiv_pos_as_xyz
  1  'x, y, z'
loop_
 _atom_site_type_symbol
 _atom_site_label
 _atom_site_symmetry_multiplicity
 _atom_site_fract_x
 _atom_site_fract_y
 _atom_site_fract_z
 _atom_site_occupancy
  Nd  Nd0  1  0.760483  0.808702  0.263632  1
  Nd  Nd1  1  0.260483  0.191298  0.236368  1
  Nd  Nd2  1  0.240560  0.192027  0.734961  1
  Nd  Nd3  1  0.740560  0.807973  0.765039  1
  Mn  Mn4  1  0.756351  0.274965  0.457628  1
  Mn  Mn5  1  0.256351  0.725035  0.042372  1
  Ge  Ge6  1  0.244131  0.725103  0.542506  1
  Ge  Ge7  1  0.744131  0.274897  0.957494  1
  F  F8  1  0.974263  0.711991  0.459430  1
  F  F9  1  0.474263  0.288009  0.040570  1
  F  F10  1  0.033190  0.286524  0.538183  1
  F  F11  1  0.533190  0.713476  0.961817  1
  F  F12  1  0.070381  0.705689  0.923228  1
  F  F13  1  0.570381  0.294311  0.576772  1
  F  F14  1  0.938254  0.291613  0.073800  1
  F  F15  1  0.438254  0.708387  0.426200  1
  F  F16  1  0.737051  0.502993  0.864572  1
  F  F17  1  0.237051  0.497007  0.635428  1
  F  F18  1  0.263908  0.494148  0.137194  1
  F  F19  1  0.763908  0.505852  0.362806  1
  F  F20  1  0.737089  0.046698  0.046218  1
  F  F21  1  0.237089  0.953302  0.453782  1
  F  F22  1  0.259953  0.954544  0.952869  1
  F  F23  1  0.759953  0.045456  0.547131  1
  F  F24  1  0.051819  0.739871  0.661801  1
  F  F25  1  0.551819  0.260129  0.838199  1
  F  F26  1  0.940137  0.259127  0.334776  1
  F  F27  1  0.440137  0.740873  0.165224  1
  F  F28  1  0.007676  0.268898  0.868756  1
  F  F29  1  0.507676  0.731102  0.631244  1
  F  F30  1  0.983378  0.730472  0.127167  1
  F  F31  1  0.483378  0.269528  0.372833  1
  F  F32  1  0.099664  0.967141  0.226139  1
  F  F33  1  0.599664  0.032859  0.273861  1
  F  F34  1  0.901713  0.033288  0.772727  1
  F  F35  1  0.401713  0.966712  0.727273  1
