# generated using pymatgen
data_Ce2LuZn2InRu2
_symmetry_space_group_name_H-M   'P 1'
_cell_length_a   7.97591060
_cell_length_b   7.97590979
_cell_length_c   4.91002718
_cell_angle_alpha   82.71448670
_cell_angle_beta   82.71448818
_cell_angle_gamma   33.72557595
_symmetry_Int_Tables_number   1
_chemical_formula_structural   Ce2LuZn2InRu2
_chemical_formula_sum   'Ce2 Lu1 Zn2 In1 Ru2'
_cell_volume   171.89345957
_cell_formula_units_Z   1
loop_
 _symmetry_equiv_pos_site_id
 _symmetry_equiv_pos_as_xyz
  1  'x, y, z'
loop_
 _atom_site_type_symbol
 _atom_site_label
 _atom_site_symmetry_multiplicity
 _atom_site_fract_x
 _atom_site_fract_y
 _atom_site_fract_z
 _atom_site_occupancy
  Ce  Ce0  1  0.831318  0.831318  0.574183  1
  Ce  Ce1  1  0.168682  0.168682  0.425817  1
  Lu  Lu2  1  0.000000  0.000000  0.000000  1
  Zn  Zn3  1  0.373013  0.373013  0.048398  1
  Zn  Zn4  1  0.626987  0.626987  0.951602  1
  In  In5  1  0.500000  0.500000  0.500000  1
  Ru  Ru6  1  0.793184  0.793184  0.102649  1
  Ru  Ru7  1  0.206816  0.206816  0.897351  1
