# generated using pymatgen
data_K5SrVP4
_symmetry_space_group_name_H-M   'P 1'
_cell_length_a   10.07593165
_cell_length_b   10.07593041
_cell_length_c   7.75087502
_cell_angle_alpha   88.66062601
_cell_angle_beta   88.66062154
_cell_angle_gamma   120.90159145
_symmetry_Int_Tables_number   1
_chemical_formula_structural   K5SrVP4
_chemical_formula_sum   'K10 Sr2 V2 P8'
_cell_volume   674.44366487
_cell_formula_units_Z   2
loop_
 _symmetry_equiv_pos_site_id
 _symmetry_equiv_pos_as_xyz
  1  'x, y, z'
loop_
 _atom_site_type_symbol
 _atom_site_label
 _atom_site_symmetry_multiplicity
 _atom_site_fract_x
 _atom_site_fract_y
 _atom_site_fract_z
 _atom_site_occupancy
  K  K0  1  0.467047  0.525225  0.498793  1
  K  K1  1  0.058158  0.527679  0.500738  1
  K  K2  1  0.525225  0.467047  0.998793  1
  K  K3  1  0.527679  0.058158  0.000738  1
  K  K4  1  0.865718  0.143632  0.679464  1
  K  K5  1  0.290129  0.151842  0.712355  1
  K  K6  1  0.854865  0.713582  0.661229  1
  K  K7  1  0.143632  0.865718  0.179464  1
  K  K8  1  0.713582  0.854865  0.161229  1
  K  K9  1  0.151842  0.290129  0.212355  1
  Sr  Sr10  1  0.467468  0.941643  0.498444  1
  Sr  Sr11  1  0.941643  0.467468  0.998444  1
  V  V12  1  0.670440  0.331178  0.391736  1
  V  V13  1  0.331178  0.670440  0.891736  1
  P  P14  1  0.682329  0.334577  0.689186  1
  P  P15  1  0.334577  0.682329  0.189186  1
  P  P16  1  0.790182  0.201128  0.289981  1
  P  P17  1  0.412655  0.194406  0.319986  1
  P  P18  1  0.796690  0.579426  0.272376  1
  P  P19  1  0.201128  0.790182  0.789981  1
  P  P20  1  0.579426  0.796690  0.772376  1
  P  P21  1  0.194406  0.412655  0.819986  1
