# generated using pymatgen
data_Tb2Nd(TmRh6)3
_symmetry_space_group_name_H-M   'P 1'
_cell_length_a   5.26963000
_cell_length_b   5.26963011
_cell_length_c   17.53015500
_cell_angle_alpha   90.00000000
_cell_angle_beta   90.00000000
_cell_angle_gamma   120.00001185
_symmetry_Int_Tables_number   1
_chemical_formula_structural   Tb2Nd(TmRh6)3
_chemical_formula_sum   'Tb2 Nd1 Tm3 Rh18'
_cell_volume   421.57669116
_cell_formula_units_Z   1
loop_
 _symmetry_equiv_pos_site_id
 _symmetry_equiv_pos_as_xyz
  1  'x, y, z'
loop_
 _atom_site_type_symbol
 _atom_site_label
 _atom_site_symmetry_multiplicity
 _atom_site_fract_x
 _atom_site_fract_y
 _atom_site_fract_z
 _atom_site_occupancy
  Tb  Tb0  1  0.333333  0.666667  0.541671  1
  Tb  Tb1  1  0.333333  0.666667  0.750157  1
  Nd  Nd2  1  0.666667  0.333333  0.250004  1
  Tm  Tm3  1  0.666667  0.333333  0.040816  1
  Tm  Tm4  1  0.666667  0.333333  0.458920  1
  Tm  Tm5  1  0.333333  0.666667  0.958133  1
  Rh  Rh6  1  0.167439  0.334876  0.124221  1
  Rh  Rh7  1  0.832611  0.665223  0.625477  1
  Rh  Rh8  1  0.665124  0.832561  0.124221  1
  Rh  Rh9  1  0.167439  0.832561  0.124221  1
  Rh  Rh10  1  0.832611  0.167389  0.625477  1
  Rh  Rh11  1  0.334777  0.167389  0.625477  1
  Rh  Rh12  1  0.832545  0.665090  0.874877  1
  Rh  Rh13  1  0.832545  0.167455  0.874877  1
  Rh  Rh14  1  0.334910  0.167455  0.874877  1
  Rh  Rh15  1  0.665381  0.832689  0.375610  1
  Rh  Rh16  1  0.167311  0.832689  0.375610  1
  Rh  Rh17  1  0.167311  0.334619  0.375610  1
  Rh  Rh18  1  0.000000  0.000000  0.249891  1
  Rh  Rh19  1  0.000000  0.000000  0.750023  1
  Rh  Rh20  1  0.333333  0.666667  0.250002  1
  Rh  Rh21  1  0.666667  0.333333  0.750028  1
  Rh  Rh22  1  0.000000  0.000000  0.999644  1
  Rh  Rh23  1  0.000000  0.000000  0.500155  1
