# generated using pymatgen
data_Ca3Pr8Y9Si16
_symmetry_space_group_name_H-M   'P 1'
_cell_length_a   7.81290466
_cell_length_b   7.81290522
_cell_length_c   14.35541200
_cell_angle_alpha   90.09899469
_cell_angle_beta   89.90100531
_cell_angle_gamma   89.92047088
_symmetry_Int_Tables_number   1
_chemical_formula_structural   Ca3Pr8Y9Si16
_chemical_formula_sum   'Ca3 Pr8 Y9 Si16'
_cell_volume   876.27218277
_cell_formula_units_Z   1
loop_
 _symmetry_equiv_pos_site_id
 _symmetry_equiv_pos_as_xyz
  1  'x, y, z'
loop_
 _atom_site_type_symbol
 _atom_site_label
 _atom_site_symmetry_multiplicity
 _atom_site_fract_x
 _atom_site_fract_y
 _atom_site_fract_z
 _atom_site_occupancy
  Ca  Ca0  1  0.313525  0.313525  0.500000  1
  Ca  Ca1  1  0.185978  0.813459  0.750524  1
  Ca  Ca2  1  0.813459  0.185978  0.249476  1
  Pr  Pr3  1  0.638161  0.990378  0.458577  1
  Pr  Pr4  1  0.361570  0.010512  0.958081  1
  Pr  Pr5  1  0.990378  0.638161  0.541423  1
  Pr  Pr6  1  0.491420  0.861805  0.208552  1
  Pr  Pr7  1  0.508214  0.136575  0.707426  1
  Pr  Pr8  1  0.861805  0.491420  0.791448  1
  Pr  Pr9  1  0.136575  0.508214  0.292574  1
  Pr  Pr10  1  0.010512  0.361570  0.041919  1
  Y  Y11  1  0.493079  0.366680  0.124018  1
  Y  Y12  1  0.993674  0.132655  0.626311  1
  Y  Y13  1  0.866118  0.008221  0.873156  1
  Y  Y14  1  0.132655  0.993674  0.373689  1
  Y  Y15  1  0.505977  0.634526  0.623654  1
  Y  Y16  1  0.366680  0.493079  0.875982  1
  Y  Y17  1  0.634526  0.505977  0.376346  1
  Y  Y18  1  0.008221  0.866118  0.126844  1
  Y  Y19  1  0.686943  0.686943  0.000000  1
  Si  Si20  1  0.287966  0.924167  0.558227  1
  Si  Si21  1  0.710326  0.067861  0.057729  1
  Si  Si22  1  0.924167  0.287966  0.441773  1
  Si  Si23  1  0.424542  0.212501  0.308668  1
  Si  Si24  1  0.575947  0.787880  0.811018  1
  Si  Si25  1  0.212501  0.424542  0.691332  1
  Si  Si26  1  0.787880  0.575947  0.188982  1
  Si  Si27  1  0.067861  0.710326  0.942271  1
  Si  Si28  1  0.788818  0.847141  0.687141  1
  Si  Si29  1  0.210952  0.152899  0.187317  1
  Si  Si30  1  0.847141  0.788818  0.312859  1
  Si  Si31  1  0.346128  0.709870  0.437467  1
  Si  Si32  1  0.656829  0.296700  0.939991  1
  Si  Si33  1  0.709870  0.346128  0.562533  1
  Si  Si34  1  0.296700  0.656829  0.060009  1
  Si  Si35  1  0.152899  0.210952  0.812683  1
