# generated using pymatgen
data_AcCe(SiRh2)2
_symmetry_space_group_name_H-M   'P 1'
_cell_length_a   9.38387849
_cell_length_b   9.38387946
_cell_length_c   4.14201700
_cell_angle_alpha   90.00000000
_cell_angle_beta   90.00000000
_cell_angle_gamma   154.91110676
_symmetry_Int_Tables_number   1
_chemical_formula_structural   AcCe(SiRh2)2
_chemical_formula_sum   'Ac1 Ce1 Si2 Rh4'
_cell_volume   154.65607340
_cell_formula_units_Z   1
loop_
 _symmetry_equiv_pos_site_id
 _symmetry_equiv_pos_as_xyz
  1  'x, y, z'
loop_
 _atom_site_type_symbol
 _atom_site_label
 _atom_site_symmetry_multiplicity
 _atom_site_fract_x
 _atom_site_fract_y
 _atom_site_fract_z
 _atom_site_occupancy
  Ac  Ac0  1  0.096600  0.903400  0.750000  1
  Ce  Ce1  1  0.900192  0.099808  0.250000  1
  Si  Si2  1  0.320670  0.679330  0.750000  1
  Si  Si3  1  0.682351  0.317649  0.250000  1
  Rh  Rh4  1  0.547223  0.452777  0.250000  1
  Rh  Rh5  1  0.448507  0.551493  0.750000  1
  Rh  Rh6  1  0.251943  0.748057  0.250000  1
  Rh  Rh7  1  0.752514  0.247486  0.750000  1
