# generated using pymatgen
data_TbPa3(B4Os)4
_symmetry_space_group_name_H-M   'P 1'
_cell_length_a   5.99946315
_cell_length_b   11.62370130
_cell_length_c   3.60186700
_cell_angle_alpha   90.00000000
_cell_angle_beta   90.00000000
_cell_angle_gamma   89.97415916
_symmetry_Int_Tables_number   1
_chemical_formula_structural   TbPa3(B4Os)4
_chemical_formula_sum   'Tb1 Pa3 B16 Os4'
_cell_volume   251.17965493
_cell_formula_units_Z   1
loop_
 _symmetry_equiv_pos_site_id
 _symmetry_equiv_pos_as_xyz
  1  'x, y, z'
loop_
 _atom_site_type_symbol
 _atom_site_label
 _atom_site_symmetry_multiplicity
 _atom_site_fract_x
 _atom_site_fract_y
 _atom_site_fract_z
 _atom_site_occupancy
  Tb  Tb0  1  0.870723  0.851078  0.000000  1
  Pa  Pa1  1  0.628008  0.350551  0.000000  1
  Pa  Pa2  1  0.371619  0.650627  0.000000  1
  Pa  Pa3  1  0.128779  0.149003  0.000000  1
  B  B4  1  0.790075  0.188133  0.500000  1
  B  B5  1  0.212197  0.812268  0.500000  1
  B  B6  1  0.291228  0.311364  0.500000  1
  B  B7  1  0.710561  0.687440  0.500000  1
  B  B8  1  0.864872  0.031192  0.500000  1
  B  B9  1  0.136539  0.967558  0.500000  1
  B  B10  1  0.364883  0.467815  0.500000  1
  B  B11  1  0.633186  0.533103  0.500000  1
  B  B12  1  0.885516  0.455023  0.500000  1
  B  B13  1  0.112085  0.546334  0.500000  1
  B  B14  1  0.386892  0.044595  0.500000  1
  B  B15  1  0.613332  0.953860  0.500000  1
  B  B16  1  0.970911  0.309081  0.500000  1
  B  B17  1  0.026250  0.691183  0.500000  1
  B  B18  1  0.471127  0.190534  0.500000  1
  B  B19  1  0.527839  0.809446  0.500000  1
  Os  Os20  1  0.643043  0.098056  0.000000  1
  Os  Os21  1  0.359176  0.906082  0.000000  1
  Os  Os22  1  0.142376  0.401959  0.000000  1
  Os  Os23  1  0.858783  0.593715  0.000000  1
