# generated using pymatgen
data_Tm2LuSn3Pt2Rh
_symmetry_space_group_name_H-M   'P 1'
_cell_length_a   7.61157181
_cell_length_b   7.63045040
_cell_length_c   3.75895900
_cell_angle_alpha   90.00000000
_cell_angle_beta   90.00000000
_cell_angle_gamma   120.08207017
_symmetry_Int_Tables_number   1
_chemical_formula_structural   Tm2LuSn3Pt2Rh
_chemical_formula_sum   'Tm2 Lu1 Sn3 Pt2 Rh1'
_cell_volume   188.91349805
_cell_formula_units_Z   1
loop_
 _symmetry_equiv_pos_site_id
 _symmetry_equiv_pos_as_xyz
  1  'x, y, z'
loop_
 _atom_site_type_symbol
 _atom_site_label
 _atom_site_symmetry_multiplicity
 _atom_site_fract_x
 _atom_site_fract_y
 _atom_site_fract_z
 _atom_site_occupancy
  Tm  Tm0  1  0.402244  0.401807  0.500000  1
  Tm  Tm1  1  0.597756  0.999563  0.500000  1
  Lu  Lu2  1  0.000000  0.598296  0.500000  1
  Sn  Sn3  1  0.739023  0.738270  0.000000  1
  Sn  Sn4  1  0.260977  0.999247  0.000000  1
  Sn  Sn5  1  0.000000  0.261396  0.000000  1
  Pt  Pt6  1  0.668561  0.335084  0.000000  1
  Pt  Pt7  1  0.331439  0.666523  0.000000  1
  Rh  Rh8  1  0.000000  0.999815  0.500000  1
