# generated using pymatgen
data_Lu12InCu2Si2Ag
_symmetry_space_group_name_H-M   'P 1'
_cell_length_a   8.32473858
_cell_length_b   8.32473818
_cell_length_c   8.32473749
_cell_angle_alpha   114.91202418
_cell_angle_beta   111.09931302
_cell_angle_gamma   102.63786986
_symmetry_Int_Tables_number   1
_chemical_formula_structural   Lu12InCu2Si2Ag
_chemical_formula_sum   'Lu12 In1 Cu2 Si2 Ag1'
_cell_volume   438.89479909
_cell_formula_units_Z   1
loop_
 _symmetry_equiv_pos_site_id
 _symmetry_equiv_pos_as_xyz
  1  'x, y, z'
loop_
 _atom_site_type_symbol
 _atom_site_label
 _atom_site_symmetry_multiplicity
 _atom_site_fract_x
 _atom_site_fract_y
 _atom_site_fract_z
 _atom_site_occupancy
  Lu  Lu0  1  0.429682  0.233718  0.195964  1
  Lu  Lu1  1  0.570318  0.766282  0.804036  1
  Lu  Lu2  1  0.037753  0.233718  0.804036  1
  Lu  Lu3  1  0.962247  0.766282  0.195964  1
  Lu  Lu4  1  0.186126  0.289010  0.475135  1
  Lu  Lu5  1  0.813874  0.710990  0.524865  1
  Lu  Lu6  1  0.186126  0.710990  0.897118  1
  Lu  Lu7  1  0.813874  0.289010  0.102882  1
  Lu  Lu8  1  0.317170  0.624421  0.307250  1
  Lu  Lu9  1  0.682830  0.375579  0.692750  1
  Lu  Lu10  1  0.317170  0.009920  0.692750  1
  Lu  Lu11  1  0.682830  0.990080  0.307250  1
  In  In12  1  0.500000  0.500000  0.000000  1
  Cu  Cu13  1  0.119505  0.619505  0.500000  1
  Cu  Cu14  1  0.880495  0.380495  0.500000  1
  Si  Si15  1  0.352352  0.000000  0.352352  1
  Si  Si16  1  0.647648  0.000000  0.647648  1
  Ag  Ag17  1  0.000000  0.000000  0.000000  1
