# generated using pymatgen
data_Yb4ThSc(Si3Ru)8
_symmetry_space_group_name_H-M   'P 1'
_cell_length_a   10.13140640
_cell_length_b   10.13018954
_cell_length_c   8.14639376
_cell_angle_alpha   89.82287003
_cell_angle_beta   90.20291553
_cell_angle_gamma   132.58263516
_symmetry_Int_Tables_number   1
_chemical_formula_structural   Yb4ThSc(Si3Ru)8
_chemical_formula_sum   'Yb4 Th1 Sc1 Si24 Ru8'
_cell_volume   615.61031053
_cell_formula_units_Z   1
loop_
 _symmetry_equiv_pos_site_id
 _symmetry_equiv_pos_as_xyz
  1  'x, y, z'
loop_
 _atom_site_type_symbol
 _atom_site_label
 _atom_site_symmetry_multiplicity
 _atom_site_fract_x
 _atom_site_fract_y
 _atom_site_fract_z
 _atom_site_occupancy
  Yb  Yb0  1  0.499675  0.499678  0.499844  1
  Yb  Yb1  1  0.001868  0.501869  0.250122  1
  Yb  Yb2  1  0.998178  0.498179  0.749966  1
  Yb  Yb3  1  0.498887  0.998930  0.749925  1
  Th  Th4  1  0.502306  0.002321  0.250227  1
  Sc  Sc5  1  0.999726  0.999796  0.999824  1
  Si  Si6  1  0.709973  0.300290  0.994971  1
  Si  Si7  1  0.290914  0.699859  0.994930  1
  Si  Si8  1  0.800771  0.209821  0.505267  1
  Si  Si9  1  0.199371  0.791068  0.505295  1
  Si  Si10  1  0.333787  0.331380  0.167489  1
  Si  Si11  1  0.669205  0.663067  0.832156  1
  Si  Si12  1  0.163098  0.168960  0.667746  1
  Si  Si13  1  0.831764  0.834100  0.332444  1
  Si  Si14  1  0.847470  0.615228  0.004980  1
  Si  Si15  1  0.153706  0.384821  0.994216  1
  Si  Si16  1  0.655201  0.888052  0.507844  1
  Si  Si17  1  0.114974  0.348088  0.494252  1
  Si  Si18  1  0.343817  0.112332  0.496441  1
  Si  Si19  1  0.885203  0.653180  0.506188  1
  Si  Si20  1  0.387603  0.155648  0.993063  1
  Si  Si21  1  0.613025  0.843512  0.003239  1
  Si  Si22  1  0.892733  0.124424  0.271170  1
  Si  Si23  1  0.108870  0.878142  0.730977  1
  Si  Si24  1  0.609154  0.376258  0.768708  1
  Si  Si25  1  0.624721  0.392103  0.228508  1
  Si  Si26  1  0.389188  0.620879  0.227654  1
  Si  Si27  1  0.377888  0.609820  0.769455  1
  Si  Si28  1  0.876373  0.108124  0.731712  1
  Si  Si29  1  0.121157  0.890533  0.271621  1
  Ru  Ru30  1  0.830348  0.166940  0.001476  1
  Ru  Ru31  1  0.170797  0.833185  0.001882  1
  Ru  Ru32  1  0.668673  0.328418  0.498496  1
  Ru  Ru33  1  0.331535  0.672733  0.497889  1
  Ru  Ru34  1  0.124626  0.124664  0.372199  1
  Ru  Ru35  1  0.874390  0.874418  0.627929  1
  Ru  Ru36  1  0.370570  0.370730  0.875466  1
  Ru  Ru37  1  0.628458  0.628452  0.124430  1
