# generated using pymatgen
data_Er3TmSiBr6
_symmetry_space_group_name_H-M   'P 1'
_cell_length_a   4.01526000
_cell_length_b   13.10224117
_cell_length_c   13.88562030
_cell_angle_alpha   90.06598386
_cell_angle_beta   90.00000000
_cell_angle_gamma   90.00000000
_symmetry_Int_Tables_number   1
_chemical_formula_structural   Er3TmSiBr6
_chemical_formula_sum   'Er6 Tm2 Si2 Br12'
_cell_volume   730.50679337
_cell_formula_units_Z   2
loop_
 _symmetry_equiv_pos_site_id
 _symmetry_equiv_pos_as_xyz
  1  'x, y, z'
loop_
 _atom_site_type_symbol
 _atom_site_label
 _atom_site_symmetry_multiplicity
 _atom_site_fract_x
 _atom_site_fract_y
 _atom_site_fract_z
 _atom_site_occupancy
  Er  Er0  1  0.500000  0.117962  0.341380  1
  Er  Er1  1  0.500000  0.882038  0.658620  1
  Er  Er2  1  0.000000  0.117525  0.578040  1
  Er  Er3  1  0.000000  0.882475  0.421960  1
  Er  Er4  1  0.000000  0.617447  0.922020  1
  Er  Er5  1  0.000000  0.382553  0.077980  1
  Tm  Tm6  1  0.500000  0.617765  0.158373  1
  Tm  Tm7  1  0.500000  0.382235  0.841627  1
  Si  Si8  1  0.500000  0.000000  0.500000  1
  Si  Si9  1  0.500000  0.500000  0.000000  1
  Br  Br10  1  0.500000  0.244117  0.162803  1
  Br  Br11  1  0.500000  0.755883  0.837197  1
  Br  Br12  1  0.500000  0.743641  0.336579  1
  Br  Br13  1  0.500000  0.256359  0.663421  1
  Br  Br14  1  0.000000  0.256274  0.411229  1
  Br  Br15  1  0.000000  0.743726  0.588771  1
  Br  Br16  1  0.000000  0.755394  0.089501  1
  Br  Br17  1  0.000000  0.244606  0.910499  1
  Br  Br18  1  0.000000  0.001599  0.242383  1
  Br  Br19  1  0.000000  0.998401  0.757617  1
  Br  Br20  1  0.000000  0.502553  0.257130  1
  Br  Br21  1  0.000000  0.497447  0.742870  1
