# generated using pymatgen
data_Ti12Mn5MoIr6
_symmetry_space_group_name_H-M   'P 1'
_cell_length_a   4.32522200
_cell_length_b   6.12662800
_cell_length_c   12.99538800
_cell_angle_alpha   89.99945544
_cell_angle_beta   90.00000000
_cell_angle_gamma   89.99992675
_symmetry_Int_Tables_number   1
_chemical_formula_structural   Ti12Mn5MoIr6
_chemical_formula_sum   'Ti12 Mn5 Mo1 Ir6'
_cell_volume   344.36512723
_cell_formula_units_Z   1
loop_
 _symmetry_equiv_pos_site_id
 _symmetry_equiv_pos_as_xyz
  1  'x, y, z'
loop_
 _atom_site_type_symbol
 _atom_site_label
 _atom_site_symmetry_multiplicity
 _atom_site_fract_x
 _atom_site_fract_y
 _atom_site_fract_z
 _atom_site_occupancy
  Ti  Ti0  1  0.499995  0.248533  0.002003  1
  Ti  Ti1  1  0.500004  0.751472  0.002002  1
  Ti  Ti2  1  0.000037  0.249884  0.167205  1
  Ti  Ti3  1  0.000086  0.750118  0.167206  1
  Ti  Ti4  1  0.500075  0.250941  0.333358  1
  Ti  Ti5  1  0.500062  0.749059  0.333359  1
  Ti  Ti6  1  0.999980  0.249971  0.499435  1
  Ti  Ti7  1  0.000029  0.750032  0.499437  1
  Ti  Ti8  1  0.499935  0.248600  0.664640  1
  Ti  Ti9  1  0.499943  0.751403  0.664640  1
  Ti  Ti10  1  0.999909  0.246598  0.833357  1
  Ti  Ti11  1  0.999962  0.753407  0.833355  1
  Mn  Mn12  1  0.999996  0.999997  0.002101  1
  Mn  Mn13  1  0.500049  0.500002  0.168863  1
  Mn  Mn14  1  0.000056  0.999977  0.333338  1
  Mn  Mn15  1  0.500007  0.500018  0.497770  1
  Mn  Mn16  1  0.999951  0.999982  0.664564  1
  Mo  Mo17  1  0.499934  0.499996  0.833366  1
  Ir  Ir18  1  0.999991  0.499993  0.003362  1
  Ir  Ir19  1  0.500063  0.000010  0.168179  1
  Ir  Ir20  1  0.000068  0.499985  0.333322  1
  Ir  Ir21  1  0.500004  0.000006  0.498476  1
  Ir  Ir22  1  0.999934  0.499997  0.663313  1
  Ir  Ir23  1  0.499931  0.000009  0.833346  1
