# generated using pymatgen
data_Rb8Ho6ZnBr20
_symmetry_space_group_name_H-M   'P 1'
_cell_length_a   12.40160973
_cell_length_b   12.40161085
_cell_length_c   12.40160900
_cell_angle_alpha   60.00000226
_cell_angle_beta   59.99999929
_cell_angle_gamma   59.99999941
_symmetry_Int_Tables_number   1
_chemical_formula_structural   Rb8Ho6ZnBr20
_chemical_formula_sum   'Rb8 Ho6 Zn1 Br20'
_cell_volume   1348.71193232
_cell_formula_units_Z   1
loop_
 _symmetry_equiv_pos_site_id
 _symmetry_equiv_pos_as_xyz
  1  'x, y, z'
loop_
 _atom_site_type_symbol
 _atom_site_label
 _atom_site_symmetry_multiplicity
 _atom_site_fract_x
 _atom_site_fract_y
 _atom_site_fract_z
 _atom_site_occupancy
  Rb  Rb0  1  0.358936  0.358936  0.358936  1
  Rb  Rb1  1  0.641064  0.641064  0.641064  1
  Rb  Rb2  1  0.358936  0.358936  0.923193  1
  Rb  Rb3  1  0.358936  0.923193  0.358936  1
  Rb  Rb4  1  0.641064  0.641064  0.076807  1
  Rb  Rb5  1  0.641064  0.076807  0.641064  1
  Rb  Rb6  1  0.923193  0.358936  0.358936  1
  Rb  Rb7  1  0.076807  0.641064  0.641064  1
  Ho  Ho8  1  0.843108  0.156892  0.156892  1
  Ho  Ho9  1  0.156892  0.843108  0.843108  1
  Ho  Ho10  1  0.156892  0.843108  0.156892  1
  Ho  Ho11  1  0.843108  0.156892  0.843108  1
  Ho  Ho12  1  0.156892  0.156892  0.843108  1
  Ho  Ho13  1  0.843108  0.843108  0.156892  1
  Zn  Zn14  1  0.000000  0.000000  0.000000  1
  Br  Br15  1  0.328519  0.000000  0.000000  1
  Br  Br16  1  0.671481  0.000000  0.000000  1
  Br  Br17  1  0.000000  0.328519  0.671481  1
  Br  Br18  1  0.000000  0.671481  0.328519  1
  Br  Br19  1  0.000000  0.328519  0.000000  1
  Br  Br20  1  0.671481  0.000000  0.328519  1
  Br  Br21  1  0.000000  0.671481  0.000000  1
  Br  Br22  1  0.328519  0.000000  0.671481  1
  Br  Br23  1  0.000000  0.000000  0.328519  1
  Br  Br24  1  0.000000  0.000000  0.671481  1
  Br  Br25  1  0.671481  0.328519  0.000000  1
  Br  Br26  1  0.328519  0.671481  0.000000  1
  Br  Br27  1  0.679968  0.320032  0.320032  1
  Br  Br28  1  0.320032  0.679968  0.679968  1
  Br  Br29  1  0.320032  0.679968  0.320032  1
  Br  Br30  1  0.679968  0.320032  0.679968  1
  Br  Br31  1  0.320032  0.320032  0.679968  1
  Br  Br32  1  0.679968  0.679968  0.320032  1
  Br  Br33  1  0.250000  0.250000  0.250000  1
  Br  Br34  1  0.750000  0.750000  0.750000  1
