# generated using pymatgen
data_Ho20IrOs4Pd7
_symmetry_space_group_name_H-M   'P 1'
_cell_length_a   11.00760715
_cell_length_b   11.00760715
_cell_length_c   6.38375157
_cell_angle_alpha   89.94336778
_cell_angle_beta   89.94336778
_cell_angle_gamma   90.35493327
_symmetry_Int_Tables_number   1
_chemical_formula_structural   Ho20IrOs4Pd7
_chemical_formula_sum   'Ho20 Ir1 Os4 Pd7'
_cell_volume   773.48707484
_cell_formula_units_Z   1
loop_
 _symmetry_equiv_pos_site_id
 _symmetry_equiv_pos_as_xyz
  1  'x, y, z'
loop_
 _atom_site_type_symbol
 _atom_site_label
 _atom_site_symmetry_multiplicity
 _atom_site_fract_x
 _atom_site_fract_y
 _atom_site_fract_z
 _atom_site_occupancy
  Ho  Ho0  1  0.298567  0.083419  0.368448  1
  Ho  Ho1  1  0.298342  0.909618  0.868504  1
  Ho  Ho2  1  0.701280  0.084058  0.868544  1
  Ho  Ho3  1  0.701301  0.915130  0.367371  1
  Ho  Ho4  1  0.579940  0.795282  0.866551  1
  Ho  Ho5  1  0.584662  0.202836  0.369651  1
  Ho  Ho6  1  0.412951  0.794561  0.375206  1
  Ho  Ho7  1  0.415113  0.200250  0.869077  1
  Ho  Ho8  1  0.204718  0.420060  0.633449  1
  Ho  Ho9  1  0.205439  0.587049  0.124794  1
  Ho  Ho10  1  0.797164  0.415338  0.130349  1
  Ho  Ho11  1  0.799750  0.584887  0.630923  1
  Ho  Ho12  1  0.916581  0.701433  0.131552  1
  Ho  Ho13  1  0.915942  0.298720  0.631456  1
  Ho  Ho14  1  0.090382  0.701658  0.631496  1
  Ho  Ho15  1  0.084870  0.298699  0.132629  1
  Ho  Ho16  1  0.999703  0.000286  0.500521  1
  Ho  Ho17  1  0.999714  0.000297  0.999479  1
  Ho  Ho18  1  0.496358  0.501969  0.999192  1
  Ho  Ho19  1  0.498031  0.503642  0.500808  1
  Ir  Ir20  1  0.348509  0.651491  0.750000  1
  Os  Os21  1  0.500159  0.000004  0.123239  1
  Os  Os22  1  0.500210  0.000322  0.621543  1
  Os  Os23  1  0.999678  0.499790  0.878457  1
  Os  Os24  1  0.999996  0.499841  0.376761  1
  Pd  Pd25  1  0.846778  0.153222  0.250000  1
  Pd  Pd26  1  0.845925  0.846894  0.750782  1
  Pd  Pd27  1  0.153106  0.154075  0.749218  1
  Pd  Pd28  1  0.152386  0.847614  0.250000  1
  Pd  Pd29  1  0.652217  0.347783  0.750000  1
  Pd  Pd30  1  0.654414  0.654183  0.249591  1
  Pd  Pd31  1  0.345817  0.345586  0.250409  1
