# generated using pymatgen
data_Mn5Cu(B2Rh5)2
_symmetry_space_group_name_H-M   'P 1'
_cell_length_a   9.33406400
_cell_length_b   9.33406400
_cell_length_c   2.93046500
_cell_angle_alpha   90.00000000
_cell_angle_beta   90.00000000
_cell_angle_gamma   90.00000000
_symmetry_Int_Tables_number   1
_chemical_formula_structural   Mn5Cu(B2Rh5)2
_chemical_formula_sum   'Mn5 Cu1 B4 Rh10'
_cell_volume   255.31603272
_cell_formula_units_Z   1
loop_
 _symmetry_equiv_pos_site_id
 _symmetry_equiv_pos_as_xyz
  1  'x, y, z'
loop_
 _atom_site_type_symbol
 _atom_site_label
 _atom_site_symmetry_multiplicity
 _atom_site_fract_x
 _atom_site_fract_y
 _atom_site_fract_z
 _atom_site_occupancy
  Mn  Mn0  1  0.821907  0.322891  0.000000  1
  Mn  Mn1  1  0.322891  0.178093  0.000000  1
  Mn  Mn2  1  0.677109  0.821907  0.000000  1
  Mn  Mn3  1  0.178093  0.677109  0.000000  1
  Mn  Mn4  1  0.500000  0.500000  0.000000  1
  Cu  Cu5  1  0.000000  0.000000  0.000000  1
  B  B6  1  0.630496  0.125026  0.000000  1
  B  B7  1  0.125026  0.369504  0.000000  1
  B  B8  1  0.874974  0.630496  0.000000  1
  B  B9  1  0.369504  0.874974  0.000000  1
  Rh  Rh10  1  0.069874  0.215010  0.500000  1
  Rh  Rh11  1  0.215010  0.930126  0.500000  1
  Rh  Rh12  1  0.784990  0.069874  0.500000  1
  Rh  Rh13  1  0.930126  0.784990  0.500000  1
  Rh  Rh14  1  0.430315  0.717626  0.500000  1
  Rh  Rh15  1  0.569685  0.282374  0.500000  1
  Rh  Rh16  1  0.717626  0.569685  0.500000  1
  Rh  Rh17  1  0.282374  0.430315  0.500000  1
  Rh  Rh18  1  0.500000  0.000000  0.500000  1
  Rh  Rh19  1  0.000000  0.500000  0.500000  1
