# generated using pymatgen
data_Nd12Os2PdRu
_symmetry_space_group_name_H-M   'P 1'
_cell_length_a   6.51602303
_cell_length_b   7.47287229
_cell_length_c   9.78921900
_cell_angle_alpha   90.00000000
_cell_angle_beta   90.00000000
_cell_angle_gamma   90.44245267
_symmetry_Int_Tables_number   1
_chemical_formula_structural   Nd12Os2PdRu
_chemical_formula_sum   'Nd12 Os2 Pd1 Ru1'
_cell_volume   476.65622121
_cell_formula_units_Z   1
loop_
 _symmetry_equiv_pos_site_id
 _symmetry_equiv_pos_as_xyz
  1  'x, y, z'
loop_
 _atom_site_type_symbol
 _atom_site_label
 _atom_site_symmetry_multiplicity
 _atom_site_fract_x
 _atom_site_fract_y
 _atom_site_fract_z
 _atom_site_occupancy
  Nd  Nd0  1  0.338458  0.670493  0.061735  1
  Nd  Nd1  1  0.169013  0.184327  0.437703  1
  Nd  Nd2  1  0.671765  0.322448  0.566523  1
  Nd  Nd3  1  0.826948  0.824696  0.929854  1
  Nd  Nd4  1  0.671765  0.322448  0.933477  1
  Nd  Nd5  1  0.826948  0.824696  0.570146  1
  Nd  Nd6  1  0.338458  0.670493  0.438265  1
  Nd  Nd7  1  0.169013  0.184327  0.062297  1
  Nd  Nd8  1  0.854505  0.529554  0.250000  1
  Nd  Nd9  1  0.632744  0.044237  0.250000  1
  Nd  Nd10  1  0.139799  0.463880  0.750000  1
  Nd  Nd11  1  0.354806  0.960685  0.750000  1
  Os  Os12  1  0.440808  0.383026  0.250000  1
  Os  Os13  1  0.553106  0.615504  0.750000  1
  Pd  Pd14  1  0.064410  0.884492  0.250000  1
  Ru  Ru15  1  0.947454  0.114695  0.750000  1
