# generated using pymatgen
data_Dy4CoB14
_symmetry_space_group_name_H-M   'P 1'
_cell_length_a   7.21292000
_cell_length_b   7.21292000
_cell_length_c   7.50590500
_cell_angle_alpha   90.00000000
_cell_angle_beta   90.00000000
_cell_angle_gamma   90.00000000
_symmetry_Int_Tables_number   1
_chemical_formula_structural   Dy4CoB14
_chemical_formula_sum   'Dy8 Co2 B28'
_cell_volume   390.50382675
_cell_formula_units_Z   2
loop_
 _symmetry_equiv_pos_site_id
 _symmetry_equiv_pos_as_xyz
  1  'x, y, z'
loop_
 _atom_site_type_symbol
 _atom_site_label
 _atom_site_symmetry_multiplicity
 _atom_site_fract_x
 _atom_site_fract_y
 _atom_site_fract_z
 _atom_site_occupancy
  Dy  Dy0  1  0.192744  0.329788  0.000000  1
  Dy  Dy1  1  0.670212  0.192744  0.000000  1
  Dy  Dy2  1  0.329788  0.807256  0.000000  1
  Dy  Dy3  1  0.692744  0.170212  0.500000  1
  Dy  Dy4  1  0.307256  0.829788  0.500000  1
  Dy  Dy5  1  0.807256  0.670212  0.000000  1
  Dy  Dy6  1  0.829788  0.692744  0.500000  1
  Dy  Dy7  1  0.170212  0.307256  0.500000  1
  Co  Co8  1  0.000000  0.000000  0.000000  1
  Co  Co9  1  0.500000  0.500000  0.500000  1
  B  B10  1  0.173963  0.039071  0.230911  1
  B  B11  1  0.960929  0.173963  0.230911  1
  B  B12  1  0.039071  0.826037  0.230911  1
  B  B13  1  0.673963  0.460929  0.269089  1
  B  B14  1  0.326037  0.539071  0.269089  1
  B  B15  1  0.826037  0.960929  0.230911  1
  B  B16  1  0.539071  0.673963  0.269089  1
  B  B17  1  0.460929  0.326037  0.269089  1
  B  B18  1  0.826037  0.960929  0.769089  1
  B  B19  1  0.039071  0.826037  0.769089  1
  B  B20  1  0.960929  0.173963  0.769089  1
  B  B21  1  0.326037  0.539071  0.730911  1
  B  B22  1  0.673963  0.460929  0.730911  1
  B  B23  1  0.173963  0.039071  0.769089  1
  B  B24  1  0.460929  0.326037  0.730911  1
  B  B25  1  0.539071  0.673963  0.730911  1
  B  B26  1  0.088356  0.588356  0.250000  1
  B  B27  1  0.411644  0.088356  0.250000  1
  B  B28  1  0.588356  0.911644  0.250000  1
  B  B29  1  0.911644  0.411644  0.250000  1
  B  B30  1  0.911644  0.411644  0.750000  1
  B  B31  1  0.588356  0.911644  0.750000  1
  B  B32  1  0.411644  0.088356  0.750000  1
  B  B33  1  0.088356  0.588356  0.750000  1
  B  B34  1  0.000000  0.000000  0.388499  1
  B  B35  1  0.500000  0.500000  0.111501  1
  B  B36  1  0.000000  0.000000  0.611501  1
  B  B37  1  0.500000  0.500000  0.888499  1
