# generated using pymatgen
data_Ac4Cd3Ag5
_symmetry_space_group_name_H-M   'P 1'
_cell_length_a   4.98907300
_cell_length_b   7.88735254
_cell_length_c   8.62561765
_cell_angle_alpha   90.43939008
_cell_angle_beta   90.00000000
_cell_angle_gamma   90.00000000
_symmetry_Int_Tables_number   1
_chemical_formula_structural   Ac4Cd3Ag5
_chemical_formula_sum   'Ac4 Cd3 Ag5'
_cell_volume   339.41305581
_cell_formula_units_Z   1
loop_
 _symmetry_equiv_pos_site_id
 _symmetry_equiv_pos_as_xyz
  1  'x, y, z'
loop_
 _atom_site_type_symbol
 _atom_site_label
 _atom_site_symmetry_multiplicity
 _atom_site_fract_x
 _atom_site_fract_y
 _atom_site_fract_z
 _atom_site_occupancy
  Ac  Ac0  1  0.500000  0.508897  0.769168  1
  Ac  Ac1  1  0.500000  0.006197  0.717440  1
  Ac  Ac2  1  0.000000  0.497660  0.228675  1
  Ac  Ac3  1  0.000000  0.988226  0.283020  1
  Cd  Cd4  1  0.500000  0.211901  0.080995  1
  Cd  Cd5  1  0.000000  0.288246  0.583018  1
  Cd  Cd6  1  0.000000  0.791312  0.918389  1
  Ag  Ag7  1  0.500000  0.776181  0.086378  1
  Ag  Ag8  1  0.500000  0.272804  0.413925  1
  Ag  Ag9  1  0.000000  0.220857  0.914586  1
  Ag  Ag10  1  0.000000  0.720436  0.586424  1
  Ag  Ag11  1  0.500000  0.717283  0.417984  1
