# generated using pymatgen
data_Lu4Tl2Cu4S9
_symmetry_space_group_name_H-M   'P 1'
_cell_length_a   3.91715067
_cell_length_b   7.15011601
_cell_length_c   15.07010500
_cell_angle_alpha   94.09484213
_cell_angle_beta   97.46753313
_cell_angle_gamma   105.89779599
_symmetry_Int_Tables_number   1
_chemical_formula_structural   Lu4Tl2Cu4S9
_chemical_formula_sum   'Lu4 Tl2 Cu4 S9'
_cell_volume   399.95564891
_cell_formula_units_Z   1
loop_
 _symmetry_equiv_pos_site_id
 _symmetry_equiv_pos_as_xyz
  1  'x, y, z'
loop_
 _atom_site_type_symbol
 _atom_site_label
 _atom_site_symmetry_multiplicity
 _atom_site_fract_x
 _atom_site_fract_y
 _atom_site_fract_z
 _atom_site_occupancy
  Lu  Lu0  1  0.401371  0.747968  0.054776  1
  Lu  Lu1  1  0.628166  0.860411  0.395921  1
  Lu  Lu2  1  0.371834  0.139588  0.604080  1
  Lu  Lu3  1  0.598629  0.252032  0.945225  1
  Tl  Tl4  1  0.257589  0.286578  0.228600  1
  Tl  Tl5  1  0.742411  0.713421  0.771400  1
  Cu  Cu6  1  0.979375  0.729535  0.229218  1
  Cu  Cu7  1  0.891232  0.322281  0.460182  1
  Cu  Cu8  1  0.108769  0.677720  0.539818  1
  Cu  Cu9  1  0.020624  0.270464  0.770782  1
  S  S10  1  0.000000  0.000000  0.000000  1
  S  S11  1  0.804241  0.510871  0.097609  1
  S  S12  1  0.568043  0.913170  0.222915  1
  S  S13  1  0.985883  0.595955  0.375811  1
  S  S14  1  0.283350  0.141630  0.425071  1
  S  S15  1  0.716651  0.858371  0.574929  1
  S  S16  1  0.014118  0.404045  0.624189  1
  S  S17  1  0.431958  0.086831  0.777085  1
  S  S18  1  0.195759  0.489128  0.902392  1
