# generated using pymatgen
data_Tm2Al8GaRh3
_symmetry_space_group_name_H-M   'P 1'
_cell_length_a   7.51119374
_cell_length_b   7.51119342
_cell_length_c   9.48995800
_cell_angle_alpha   90.00000000
_cell_angle_beta   90.00000000
_cell_angle_gamma   119.23383079
_symmetry_Int_Tables_number   1
_chemical_formula_structural   Tm2Al8GaRh3
_chemical_formula_sum   'Tm4 Al16 Ga2 Rh6'
_cell_volume   467.21229448
_cell_formula_units_Z   2
loop_
 _symmetry_equiv_pos_site_id
 _symmetry_equiv_pos_as_xyz
  1  'x, y, z'
loop_
 _atom_site_type_symbol
 _atom_site_label
 _atom_site_symmetry_multiplicity
 _atom_site_fract_x
 _atom_site_fract_y
 _atom_site_fract_z
 _atom_site_occupancy
  Tm  Tm0  1  0.994118  0.675219  0.250000  1
  Tm  Tm1  1  0.005882  0.324781  0.750000  1
  Tm  Tm2  1  0.675219  0.994118  0.250000  1
  Tm  Tm3  1  0.324781  0.005882  0.750000  1
  Al  Al4  1  0.001266  0.336096  0.073883  1
  Al  Al5  1  0.998734  0.663904  0.926117  1
  Al  Al6  1  0.998734  0.663904  0.573883  1
  Al  Al7  1  0.336096  0.001266  0.426117  1
  Al  Al8  1  0.001266  0.336096  0.426117  1
  Al  Al9  1  0.663904  0.998734  0.573883  1
  Al  Al10  1  0.663904  0.998734  0.926117  1
  Al  Al11  1  0.336096  0.001266  0.073883  1
  Al  Al12  1  0.334203  0.334203  0.553742  1
  Al  Al13  1  0.665797  0.665797  0.446258  1
  Al  Al14  1  0.665797  0.665797  0.053742  1
  Al  Al15  1  0.334203  0.334203  0.946258  1
  Al  Al16  1  0.337236  0.550713  0.250000  1
  Al  Al17  1  0.662764  0.449287  0.750000  1
  Al  Al18  1  0.550713  0.337236  0.250000  1
  Al  Al19  1  0.449287  0.662764  0.750000  1
  Ga  Ga20  1  0.132011  0.132011  0.250000  1
  Ga  Ga21  1  0.867989  0.867989  0.750000  1
  Rh  Rh22  1  0.672250  0.327750  0.000000  1
  Rh  Rh23  1  0.327750  0.672250  0.000000  1
  Rh  Rh24  1  0.327750  0.672250  0.500000  1
  Rh  Rh25  1  0.672250  0.327750  0.500000  1
  Rh  Rh26  1  0.000000  0.000000  0.000000  1
  Rh  Rh27  1  0.000000  0.000000  0.500000  1
