# generated using pymatgen
data_SmTm5(SbO7)2
_symmetry_space_group_name_H-M   'P 1'
_cell_length_a   6.34160298
_cell_length_b   6.34160297
_cell_length_c   7.38432000
_cell_angle_alpha   90.03179383
_cell_angle_beta   89.96820617
_cell_angle_gamma   109.46607438
_symmetry_Int_Tables_number   1
_chemical_formula_structural   SmTm5(SbO7)2
_chemical_formula_sum   'Sm1 Tm5 Sb2 O14'
_cell_volume   279.99226522
_cell_formula_units_Z   1
loop_
 _symmetry_equiv_pos_site_id
 _symmetry_equiv_pos_as_xyz
  1  'x, y, z'
loop_
 _atom_site_type_symbol
 _atom_site_label
 _atom_site_symmetry_multiplicity
 _atom_site_fract_x
 _atom_site_fract_y
 _atom_site_fract_z
 _atom_site_occupancy
  Sm  Sm0  1  0.500000  0.500000  0.000000  1
  Tm  Tm1  1  0.500000  0.500000  0.500000  1
  Tm  Tm2  1  0.999629  0.467882  0.747663  1
  Tm  Tm3  1  0.000371  0.532118  0.252337  1
  Tm  Tm4  1  0.532118  0.000371  0.747663  1
  Tm  Tm5  1  0.467882  0.999629  0.252337  1
  Sb  Sb6  1  0.000000  0.000000  0.000000  1
  Sb  Sb7  1  0.000000  0.000000  0.500000  1
  O  O8  1  0.639421  0.360579  0.742590  1
  O  O9  1  0.360579  0.639421  0.257410  1
  O  O10  1  0.366309  0.633691  0.741603  1
  O  O11  1  0.633691  0.366309  0.258397  1
  O  O12  1  0.926877  0.073123  0.750224  1
  O  O13  1  0.073123  0.926877  0.249776  1
  O  O14  1  0.071254  0.326141  0.030862  1
  O  O15  1  0.925520  0.674195  0.530570  1
  O  O16  1  0.674195  0.925520  0.469430  1
  O  O17  1  0.326141  0.071254  0.969138  1
  O  O18  1  0.928746  0.673859  0.969138  1
  O  O19  1  0.074480  0.325805  0.469430  1
  O  O20  1  0.325805  0.074480  0.530570  1
  O  O21  1  0.673859  0.928746  0.030862  1
