# generated using pymatgen
data_Pu2ReWC4
_symmetry_space_group_name_H-M   'P 1'
_cell_length_a   3.30028700
_cell_length_b   5.65603000
_cell_length_c   10.85413200
_cell_angle_alpha   90.00000000
_cell_angle_beta   90.00000000
_cell_angle_gamma   90.00000000
_symmetry_Int_Tables_number   1
_chemical_formula_structural   Pu2ReWC4
_chemical_formula_sum   'Pu4 Re2 W2 C8'
_cell_volume   202.60889681
_cell_formula_units_Z   2
loop_
 _symmetry_equiv_pos_site_id
 _symmetry_equiv_pos_as_xyz
  1  'x, y, z'
loop_
 _atom_site_type_symbol
 _atom_site_label
 _atom_site_symmetry_multiplicity
 _atom_site_fract_x
 _atom_site_fract_y
 _atom_site_fract_z
 _atom_site_occupancy
  Pu  Pu0  1  0.250000  0.085999  0.861597  1
  Pu  Pu1  1  0.250000  0.585999  0.638403  1
  Pu  Pu2  1  0.750000  0.916767  0.141502  1
  Pu  Pu3  1  0.750000  0.416767  0.358498  1
  Re  Re4  1  0.250000  0.414187  0.106975  1
  Re  Re5  1  0.250000  0.914187  0.393025  1
  W  W6  1  0.750000  0.586324  0.895545  1
  W  W7  1  0.750000  0.086324  0.604455  1
  C  C8  1  0.250000  0.160908  0.246979  1
  C  C9  1  0.250000  0.660908  0.253021  1
  C  C10  1  0.750000  0.836730  0.754306  1
  C  C11  1  0.750000  0.336730  0.745694  1
  C  C12  1  0.250000  0.734730  0.989758  1
  C  C13  1  0.250000  0.234730  0.510242  1
  C  C14  1  0.750000  0.264356  0.013614  1
  C  C15  1  0.750000  0.764356  0.486386  1
