# generated using pymatgen
data_Tm6Zn23N
_symmetry_space_group_name_H-M   'P 1'
_cell_length_a   8.85700893
_cell_length_b   8.85700850
_cell_length_c   8.85700900
_cell_angle_alpha   60.00000187
_cell_angle_beta   60.00000346
_cell_angle_gamma   59.99999640
_symmetry_Int_Tables_number   1
_chemical_formula_structural   Tm6Zn23N
_chemical_formula_sum   'Tm6 Zn23 N1'
_cell_volume   491.29940449
_cell_formula_units_Z   1
loop_
 _symmetry_equiv_pos_site_id
 _symmetry_equiv_pos_as_xyz
  1  'x, y, z'
loop_
 _atom_site_type_symbol
 _atom_site_label
 _atom_site_symmetry_multiplicity
 _atom_site_fract_x
 _atom_site_fract_y
 _atom_site_fract_z
 _atom_site_occupancy
  Tm  Tm0  1  0.694151  0.305849  0.305849  1
  Tm  Tm1  1  0.694151  0.305849  0.694151  1
  Tm  Tm2  1  0.694151  0.694151  0.305849  1
  Tm  Tm3  1  0.305849  0.694151  0.694151  1
  Tm  Tm4  1  0.305849  0.694151  0.305849  1
  Tm  Tm5  1  0.305849  0.305849  0.694151  1
  Zn  Zn6  1  0.634485  0.121839  0.121839  1
  Zn  Zn7  1  0.121839  0.634485  0.121839  1
  Zn  Zn8  1  0.121839  0.121839  0.634485  1
  Zn  Zn9  1  0.121839  0.121839  0.121839  1
  Zn  Zn10  1  0.365515  0.878161  0.878161  1
  Zn  Zn11  1  0.878161  0.365515  0.878161  1
  Zn  Zn12  1  0.878161  0.878161  0.365515  1
  Zn  Zn13  1  0.878161  0.878161  0.878161  1
  Zn  Zn14  1  0.500000  0.000000  0.000000  1
  Zn  Zn15  1  0.500000  0.000000  0.500000  1
  Zn  Zn16  1  0.500000  0.500000  0.000000  1
  Zn  Zn17  1  0.000000  0.500000  0.500000  1
  Zn  Zn18  1  0.000000  0.500000  0.000000  1
  Zn  Zn19  1  0.000000  0.000000  0.500000  1
  Zn  Zn20  1  0.000000  0.000000  0.000000  1
  Zn  Zn21  1  0.014967  0.328345  0.328345  1
  Zn  Zn22  1  0.328345  0.014967  0.328345  1
  Zn  Zn23  1  0.328345  0.328345  0.014967  1
  Zn  Zn24  1  0.328345  0.328345  0.328345  1
  Zn  Zn25  1  0.985033  0.671655  0.671655  1
  Zn  Zn26  1  0.671655  0.985033  0.671655  1
  Zn  Zn27  1  0.671655  0.671655  0.985033  1
  Zn  Zn28  1  0.671655  0.671655  0.671655  1
  N  N29  1  0.500000  0.500000  0.500000  1
