# generated using pymatgen
data_Tb2Er6Hf11Si16Ir
_symmetry_space_group_name_H-M   'P 1'
_cell_length_a   7.24751913
_cell_length_b   7.24865047
_cell_length_c   13.19353877
_cell_angle_alpha   89.77210094
_cell_angle_beta   90.23648687
_cell_angle_gamma   89.96411281
_symmetry_Int_Tables_number   1
_chemical_formula_structural   Tb2Er6Hf11Si16Ir
_chemical_formula_sum   'Tb2 Er6 Hf11 Si16 Ir1'
_cell_volume   693.10750619
_cell_formula_units_Z   1
loop_
 _symmetry_equiv_pos_site_id
 _symmetry_equiv_pos_as_xyz
  1  'x, y, z'
loop_
 _atom_site_type_symbol
 _atom_site_label
 _atom_site_symmetry_multiplicity
 _atom_site_fract_x
 _atom_site_fract_y
 _atom_site_fract_z
 _atom_site_occupancy
  Tb  Tb0  1  0.345648  0.996858  0.789072  1
  Tb  Tb1  1  0.652756  0.006903  0.282587  1
  Er  Er2  1  0.997942  0.346421  0.210851  1
  Er  Er3  1  0.006016  0.651901  0.717343  1
  Er  Er4  1  0.154825  0.494499  0.465065  1
  Er  Er5  1  0.501918  0.848915  0.032704  1
  Er  Er6  1  0.849297  0.501681  0.967334  1
  Er  Er7  1  0.494312  0.154983  0.534980  1
  Hf  Hf8  1  0.824710  0.824159  0.499992  1
  Hf  Hf9  1  0.322285  0.676723  0.247559  1
  Hf  Hf10  1  0.677294  0.322729  0.752262  1
  Hf  Hf11  1  0.145260  0.998451  0.371776  1
  Hf  Hf12  1  0.854828  0.002596  0.878705  1
  Hf  Hf13  1  0.502589  0.645900  0.626112  1
  Hf  Hf14  1  0.355307  0.496728  0.877185  1
  Hf  Hf15  1  0.496712  0.355295  0.122623  1
  Hf  Hf16  1  0.645959  0.502326  0.373909  1
  Hf  Hf17  1  0.998591  0.145391  0.628284  1
  Hf  Hf18  1  0.002577  0.854205  0.121112  1
  Si  Si19  1  0.355715  0.297211  0.315172  1
  Si  Si20  1  0.643182  0.703557  0.819174  1
  Si  Si21  1  0.205950  0.859391  0.567701  1
  Si  Si22  1  0.136922  0.787600  0.930695  1
  Si  Si23  1  0.790571  0.138404  0.069350  1
  Si  Si24  1  0.860493  0.207206  0.432997  1
  Si  Si25  1  0.295672  0.358118  0.684281  1
  Si  Si26  1  0.704959  0.641075  0.180348  1
  Si  Si27  1  0.290986  0.057801  0.179280  1
  Si  Si28  1  0.704262  0.949481  0.685666  1
  Si  Si29  1  0.448587  0.796718  0.434999  1
  Si  Si30  1  0.206840  0.553066  0.063130  1
  Si  Si31  1  0.555008  0.207755  0.936996  1
  Si  Si32  1  0.797513  0.449616  0.565430  1
  Si  Si33  1  0.056464  0.293068  0.820189  1
  Si  Si34  1  0.950573  0.702659  0.313967  1
  Ir  Ir35  1  0.167475  0.170610  0.001170  1
