# generated using pymatgen
data_SrSbF7
_symmetry_space_group_name_H-M   'P 1'
_cell_length_a   4.81214545
_cell_length_b   7.42039200
_cell_length_c   8.03157092
_cell_angle_alpha   105.20233027
_cell_angle_beta   95.02972694
_cell_angle_gamma   94.11311236
_symmetry_Int_Tables_number   1
_chemical_formula_structural   SrSbF7
_chemical_formula_sum   'Sr2 Sb2 F14'
_cell_volume   274.34817827
_cell_formula_units_Z   2
loop_
 _symmetry_equiv_pos_site_id
 _symmetry_equiv_pos_as_xyz
  1  'x, y, z'
loop_
 _atom_site_type_symbol
 _atom_site_label
 _atom_site_symmetry_multiplicity
 _atom_site_fract_x
 _atom_site_fract_y
 _atom_site_fract_z
 _atom_site_occupancy
  Sr  Sr0  1  0.787277  0.657777  0.174298  1
  Sr  Sr1  1  0.212723  0.342223  0.825702  1
  Sb  Sb2  1  0.342177  0.183978  0.293079  1
  Sb  Sb3  1  0.657823  0.816022  0.706921  1
  F  F4  1  0.731289  0.417790  0.900543  1
  F  F5  1  0.268711  0.582210  0.099457  1
  F  F6  1  0.049148  0.010483  0.326819  1
  F  F7  1  0.950852  0.989517  0.673181  1
  F  F8  1  0.522322  0.969474  0.184165  1
  F  F9  1  0.477678  0.030526  0.815835  1
  F  F10  1  0.521458  0.200860  0.521155  1
  F  F11  1  0.478542  0.799140  0.478845  1
  F  F12  1  0.640471  0.343744  0.245828  1
  F  F13  1  0.359529  0.656256  0.754172  1
  F  F14  1  0.163839  0.396423  0.405032  1
  F  F15  1  0.836161  0.603577  0.594968  1
  F  F16  1  0.145208  0.182265  0.073325  1
  F  F17  1  0.854792  0.817735  0.926675  1
