# generated using pymatgen
data_Nd2B6(Ir2Rh)3
_symmetry_space_group_name_H-M   'P 1'
_cell_length_a   5.67781616
_cell_length_b   5.67855536
_cell_length_c   8.62842900
_cell_angle_alpha   90.00000000
_cell_angle_beta   90.00000000
_cell_angle_gamma   119.96854922
_symmetry_Int_Tables_number   1
_chemical_formula_structural   Nd2B6(Ir2Rh)3
_chemical_formula_sum   'Nd2 B6 Ir6 Rh3'
_cell_volume   241.00114234
_cell_formula_units_Z   1
loop_
 _symmetry_equiv_pos_site_id
 _symmetry_equiv_pos_as_xyz
  1  'x, y, z'
loop_
 _atom_site_type_symbol
 _atom_site_label
 _atom_site_symmetry_multiplicity
 _atom_site_fract_x
 _atom_site_fract_y
 _atom_site_fract_z
 _atom_site_occupancy
  Nd  Nd0  1  0.000000  0.000000  0.704008  1
  Nd  Nd1  1  0.000000  0.000000  0.296253  1
  B  B2  1  0.667349  0.331937  0.999813  1
  B  B3  1  0.332651  0.668063  0.999813  1
  B  B4  1  0.666918  0.333231  0.667773  1
  B  B5  1  0.333082  0.666769  0.667773  1
  B  B6  1  0.333868  0.667317  0.332192  1
  B  B7  1  0.666132  0.332683  0.332192  1
  Ir  Ir8  1  0.500000  0.000000  0.836849  1
  Ir  Ir9  1  0.000000  0.500000  0.837282  1
  Ir  Ir10  1  0.500000  0.000000  0.163390  1
  Ir  Ir11  1  0.500000  0.500000  0.499716  1
  Ir  Ir12  1  0.500000  0.000000  0.499970  1
  Ir  Ir13  1  0.000000  0.500000  0.499190  1
  Rh  Rh14  1  0.500000  0.500000  0.836996  1
  Rh  Rh15  1  0.500000  0.500000  0.163213  1
  Rh  Rh16  1  0.000000  0.500000  0.163576  1
