# generated using pymatgen
data_Gd3AlZn2C
_symmetry_space_group_name_H-M   'P 1'
_cell_length_a   9.24837278
_cell_length_b   9.24837353
_cell_length_c   9.24837100
_cell_angle_alpha   60.00000547
_cell_angle_beta   60.00000280
_cell_angle_gamma   60.00000660
_symmetry_Int_Tables_number   1
_chemical_formula_structural   Gd3AlZn2C
_chemical_formula_sum   'Gd12 Al4 Zn8 C4'
_cell_volume   559.34657492
_cell_formula_units_Z   4
loop_
 _symmetry_equiv_pos_site_id
 _symmetry_equiv_pos_as_xyz
  1  'x, y, z'
loop_
 _atom_site_type_symbol
 _atom_site_label
 _atom_site_symmetry_multiplicity
 _atom_site_fract_x
 _atom_site_fract_y
 _atom_site_fract_z
 _atom_site_occupancy
  Gd  Gd0  1  0.447032  0.447032  0.052968  1
  Gd  Gd1  1  0.052968  0.447032  0.052968  1
  Gd  Gd2  1  0.447032  0.052968  0.052968  1
  Gd  Gd3  1  0.052968  0.052968  0.447032  1
  Gd  Gd4  1  0.447032  0.052968  0.447032  1
  Gd  Gd5  1  0.052968  0.447032  0.447032  1
  Gd  Gd6  1  0.802968  0.802968  0.197032  1
  Gd  Gd7  1  0.197032  0.802968  0.197032  1
  Gd  Gd8  1  0.802968  0.197032  0.197032  1
  Gd  Gd9  1  0.197032  0.197032  0.802968  1
  Gd  Gd10  1  0.802968  0.197032  0.802968  1
  Gd  Gd11  1  0.197032  0.802968  0.802968  1
  Al  Al12  1  0.625000  0.625000  0.125000  1
  Al  Al13  1  0.625000  0.125000  0.625000  1
  Al  Al14  1  0.125000  0.625000  0.625000  1
  Al  Al15  1  0.625000  0.625000  0.625000  1
  Zn  Zn16  1  0.826412  0.826412  0.520763  1
  Zn  Zn17  1  0.826412  0.520763  0.826412  1
  Zn  Zn18  1  0.520763  0.826412  0.826412  1
  Zn  Zn19  1  0.826412  0.826412  0.826412  1
  Zn  Zn20  1  0.423588  0.423588  0.729237  1
  Zn  Zn21  1  0.423588  0.729237  0.423588  1
  Zn  Zn22  1  0.729237  0.423588  0.423588  1
  Zn  Zn23  1  0.423588  0.423588  0.423588  1
  C  C24  1  0.125000  0.125000  0.625000  1
  C  C25  1  0.125000  0.625000  0.125000  1
  C  C26  1  0.625000  0.125000  0.125000  1
  C  C27  1  0.125000  0.125000  0.125000  1
