# generated using pymatgen
data_Cs8Y6SiBr20
_symmetry_space_group_name_H-M   'P 1'
_cell_length_a   12.75834435
_cell_length_b   12.75834392
_cell_length_c   12.75834400
_cell_angle_alpha   60.00000497
_cell_angle_beta   60.00000610
_cell_angle_gamma   60.00000742
_symmetry_Int_Tables_number   1
_chemical_formula_structural   Cs8Y6SiBr20
_chemical_formula_sum   'Cs8 Y6 Si1 Br20'
_cell_volume   1468.47986212
_cell_formula_units_Z   1
loop_
 _symmetry_equiv_pos_site_id
 _symmetry_equiv_pos_as_xyz
  1  'x, y, z'
loop_
 _atom_site_type_symbol
 _atom_site_label
 _atom_site_symmetry_multiplicity
 _atom_site_fract_x
 _atom_site_fract_y
 _atom_site_fract_z
 _atom_site_occupancy
  Cs  Cs0  1  0.359259  0.359259  0.359259  1
  Cs  Cs1  1  0.640741  0.640741  0.640741  1
  Cs  Cs2  1  0.359259  0.359259  0.922224  1
  Cs  Cs3  1  0.359259  0.922224  0.359259  1
  Cs  Cs4  1  0.640741  0.640741  0.077776  1
  Cs  Cs5  1  0.640741  0.077776  0.640741  1
  Cs  Cs6  1  0.922224  0.359259  0.359259  1
  Cs  Cs7  1  0.077776  0.640741  0.640741  1
  Y  Y8  1  0.845808  0.154192  0.154192  1
  Y  Y9  1  0.154192  0.845808  0.845808  1
  Y  Y10  1  0.154192  0.845808  0.154192  1
  Y  Y11  1  0.845808  0.154192  0.845808  1
  Y  Y12  1  0.154192  0.154192  0.845808  1
  Y  Y13  1  0.845808  0.845808  0.154192  1
  Si  Si14  1  0.000000  0.000000  0.000000  1
  Br  Br15  1  0.320630  0.000000  0.000000  1
  Br  Br16  1  0.679370  0.000000  0.000000  1
  Br  Br17  1  0.000000  0.320630  0.679370  1
  Br  Br18  1  0.000000  0.679370  0.320630  1
  Br  Br19  1  0.000000  0.320630  0.000000  1
  Br  Br20  1  0.679370  0.000000  0.320630  1
  Br  Br21  1  0.000000  0.679370  0.000000  1
  Br  Br22  1  0.320630  0.000000  0.679370  1
  Br  Br23  1  0.000000  0.000000  0.320630  1
  Br  Br24  1  0.000000  0.000000  0.679370  1
  Br  Br25  1  0.679370  0.320630  0.000000  1
  Br  Br26  1  0.320630  0.679370  0.000000  1
  Br  Br27  1  0.685244  0.314756  0.314756  1
  Br  Br28  1  0.314756  0.685244  0.685244  1
  Br  Br29  1  0.314756  0.685244  0.314756  1
  Br  Br30  1  0.685244  0.314756  0.685244  1
  Br  Br31  1  0.314756  0.314756  0.685244  1
  Br  Br32  1  0.685244  0.685244  0.314756  1
  Br  Br33  1  0.250000  0.250000  0.250000  1
  Br  Br34  1  0.750000  0.750000  0.750000  1
