# generated using pymatgen
data_Hf5Tc2
_symmetry_space_group_name_H-M   'P 1'
_cell_length_a   3.33036985
_cell_length_b   5.73372910
_cell_length_c   7.59937620
_cell_angle_alpha   98.92366871
_cell_angle_beta   89.98643618
_cell_angle_gamma   107.05860120
_symmetry_Int_Tables_number   1
_chemical_formula_structural   Hf5Tc2
_chemical_formula_sum   'Hf5 Tc2'
_cell_volume   136.89247688
_cell_formula_units_Z   1
loop_
 _symmetry_equiv_pos_site_id
 _symmetry_equiv_pos_as_xyz
  1  'x, y, z'
loop_
 _atom_site_type_symbol
 _atom_site_label
 _atom_site_symmetry_multiplicity
 _atom_site_fract_x
 _atom_site_fract_y
 _atom_site_fract_z
 _atom_site_occupancy
  Hf  Hf0  1  0.136525  0.154791  0.844345  1
  Hf  Hf1  1  0.391914  0.663076  0.714176  1
  Hf  Hf2  1  0.519772  0.921974  0.116084  1
  Hf  Hf3  1  0.007389  0.896434  0.442418  1
  Hf  Hf4  1  0.261874  0.409190  0.279131  1
  Tc  Tc5  1  0.827236  0.536592  0.996923  1
  Tc  Tc6  1  0.700130  0.281570  0.561471  1
