# generated using pymatgen
data_YLu19(Cd3Co)2
_symmetry_space_group_name_H-M   'P 1'
_cell_length_a   9.42645421
_cell_length_b   9.43764037
_cell_length_c   9.49629000
_cell_angle_alpha   90.00000000
_cell_angle_beta   90.00000000
_cell_angle_gamma   120.03925679
_symmetry_Int_Tables_number   1
_chemical_formula_structural   YLu19(Cd3Co)2
_chemical_formula_sum   'Y1 Lu19 Cd6 Co2'
_cell_volume   731.34863313
_cell_formula_units_Z   1
loop_
 _symmetry_equiv_pos_site_id
 _symmetry_equiv_pos_as_xyz
  1  'x, y, z'
loop_
 _atom_site_type_symbol
 _atom_site_label
 _atom_site_symmetry_multiplicity
 _atom_site_fract_x
 _atom_site_fract_y
 _atom_site_fract_z
 _atom_site_occupancy
  Y  Y0  1  0.084524  0.542263  0.750000  1
  Lu  Lu1  1  0.999794  0.999897  0.499990  1
  Lu  Lu2  1  0.999794  0.999897  0.000010  1
  Lu  Lu3  1  0.542341  0.458221  0.250000  1
  Lu  Lu4  1  0.542341  0.084119  0.250000  1
  Lu  Lu5  1  0.916714  0.458357  0.250000  1
  Lu  Lu6  1  0.459517  0.541836  0.750000  1
  Lu  Lu7  1  0.459517  0.917682  0.750000  1
  Lu  Lu8  1  0.212791  0.789050  0.435604  1
  Lu  Lu9  1  0.212791  0.423742  0.435604  1
  Lu  Lu10  1  0.575867  0.787934  0.436441  1
  Lu  Lu11  1  0.786113  0.210439  0.562690  1
  Lu  Lu12  1  0.786113  0.575672  0.562690  1
  Lu  Lu13  1  0.424141  0.212070  0.563068  1
  Lu  Lu14  1  0.786113  0.210439  0.937310  1
  Lu  Lu15  1  0.786113  0.575672  0.937310  1
  Lu  Lu16  1  0.424141  0.212070  0.936932  1
  Lu  Lu17  1  0.212791  0.789050  0.064396  1
  Lu  Lu18  1  0.212791  0.423742  0.064396  1
  Lu  Lu19  1  0.575867  0.787934  0.063559  1
  Cd  Cd20  1  0.884737  0.115332  0.250000  1
  Cd  Cd21  1  0.884737  0.769405  0.250000  1
  Cd  Cd22  1  0.230721  0.115361  0.250000  1
  Cd  Cd23  1  0.115786  0.887204  0.750000  1
  Cd  Cd24  1  0.115786  0.228582  0.750000  1
  Cd  Cd25  1  0.769391  0.884696  0.750000  1
  Co  Co26  1  0.332538  0.666269  0.250000  1
  Co  Co27  1  0.666131  0.333065  0.750000  1
