# generated using pymatgen
data_RbMg2Ag(H6Ir)2
_symmetry_space_group_name_H-M   'P 1'
_cell_length_a   7.26075700
_cell_length_b   7.26075700
_cell_length_c   6.94956500
_cell_angle_alpha   90.00000000
_cell_angle_beta   90.00000000
_cell_angle_gamma   90.00000000
_symmetry_Int_Tables_number   1
_chemical_formula_structural   RbMg2Ag(H6Ir)2
_chemical_formula_sum   'Rb2 Mg4 Ag2 H24 Ir4'
_cell_volume   366.37128329
_cell_formula_units_Z   2
loop_
 _symmetry_equiv_pos_site_id
 _symmetry_equiv_pos_as_xyz
  1  'x, y, z'
loop_
 _atom_site_type_symbol
 _atom_site_label
 _atom_site_symmetry_multiplicity
 _atom_site_fract_x
 _atom_site_fract_y
 _atom_site_fract_z
 _atom_site_occupancy
  Rb  Rb0  1  0.000000  0.000000  0.500000  1
  Rb  Rb1  1  0.000000  0.000000  0.000000  1
  Mg  Mg2  1  0.500000  0.500000  0.500000  1
  Mg  Mg3  1  0.000000  0.500000  0.500000  1
  Mg  Mg4  1  0.500000  0.000000  0.500000  1
  Mg  Mg5  1  0.500000  0.500000  0.000000  1
  Ag  Ag6  1  0.000000  0.500000  0.000000  1
  Ag  Ag7  1  0.500000  0.000000  0.000000  1
  H  H8  1  0.724656  0.724656  0.504513  1
  H  H9  1  0.275344  0.275344  0.504513  1
  H  H10  1  0.048833  0.707564  0.739939  1
  H  H11  1  0.292436  0.951167  0.739939  1
  H  H12  1  0.707564  0.048833  0.739939  1
  H  H13  1  0.951167  0.292436  0.739939  1
  H  H14  1  0.724240  0.511461  0.738623  1
  H  H15  1  0.511461  0.724240  0.738623  1
  H  H16  1  0.488539  0.275760  0.738623  1
  H  H17  1  0.275760  0.488539  0.738623  1
  H  H18  1  0.283026  0.716974  0.977194  1
  H  H19  1  0.716974  0.283026  0.977194  1
  H  H20  1  0.716974  0.716974  0.022806  1
  H  H21  1  0.283026  0.283026  0.022806  1
  H  H22  1  0.275760  0.511461  0.261377  1
  H  H23  1  0.488539  0.724240  0.261377  1
  H  H24  1  0.511461  0.275760  0.261377  1
  H  H25  1  0.724240  0.488539  0.261377  1
  H  H26  1  0.951167  0.707564  0.260061  1
  H  H27  1  0.707564  0.951167  0.260061  1
  H  H28  1  0.292436  0.048833  0.260061  1
  H  H29  1  0.048833  0.292436  0.260061  1
  H  H30  1  0.275344  0.724656  0.495487  1
  H  H31  1  0.724656  0.275344  0.495487  1
  Ir  Ir32  1  0.284767  0.715233  0.735686  1
  Ir  Ir33  1  0.715233  0.284767  0.735686  1
  Ir  Ir34  1  0.715233  0.715233  0.264314  1
  Ir  Ir35  1  0.284767  0.284767  0.264314  1
