# generated using pymatgen
data_La16Cd4CoTcNi2
_symmetry_space_group_name_H-M   'P 1'
_cell_length_a   10.12988080
_cell_length_b   9.98597900
_cell_length_c   9.98598024
_cell_angle_alpha   59.76897037
_cell_angle_beta   59.93169105
_cell_angle_gamma   59.93168684
_symmetry_Int_Tables_number   1
_chemical_formula_structural   La16Cd4CoTcNi2
_chemical_formula_sum   'La16 Cd4 Co1 Tc1 Ni2'
_cell_volume   712.29359291
_cell_formula_units_Z   1
loop_
 _symmetry_equiv_pos_site_id
 _symmetry_equiv_pos_as_xyz
  1  'x, y, z'
loop_
 _atom_site_type_symbol
 _atom_site_label
 _atom_site_symmetry_multiplicity
 _atom_site_fract_x
 _atom_site_fract_y
 _atom_site_fract_z
 _atom_site_occupancy
  La  La0  1  0.934433  0.945778  0.558752  1
  La  La1  1  0.559492  0.941913  0.561409  1
  La  La2  1  0.560747  0.937843  0.937843  1
  La  La3  1  0.689418  0.686923  0.313223  1
  La  La4  1  0.158957  0.154957  0.536271  1
  La  La5  1  0.302064  0.695312  0.695312  1
  La  La6  1  0.154008  0.154566  0.154566  1
  La  La7  1  0.544126  0.152800  0.152800  1
  La  La8  1  0.306775  0.686922  0.310748  1
  La  La9  1  0.306775  0.310748  0.686922  1
  La  La10  1  0.689418  0.313223  0.686923  1
  La  La11  1  0.936323  0.559238  0.559238  1
  La  La12  1  0.559492  0.561409  0.941913  1
  La  La13  1  0.158957  0.536271  0.154957  1
  La  La14  1  0.682802  0.311395  0.311395  1
  La  La15  1  0.934433  0.558752  0.945778  1
  Cd  Cd16  1  0.237685  0.920701  0.920701  1
  Cd  Cd17  1  0.921260  0.921583  0.921583  1
  Cd  Cd18  1  0.922050  0.920132  0.236565  1
  Cd  Cd19  1  0.922050  0.236565  0.920132  1
  Co  Co20  1  0.372596  0.353711  0.353711  1
  Tc  Tc21  1  0.915080  0.363533  0.363533  1
  Ni  Ni22  1  0.365527  0.353939  0.921785  1
  Ni  Ni23  1  0.365527  0.921785  0.353939  1
