# generated using pymatgen
data_Rb4Na2TbErAs4
_symmetry_space_group_name_H-M   'P 1'
_cell_length_a   9.46844894
_cell_length_b   9.46844717
_cell_length_c   9.46844752
_cell_angle_alpha   135.50121172
_cell_angle_beta   135.11309517
_cell_angle_gamma   65.05383949
_symmetry_Int_Tables_number   1
_chemical_formula_structural   Rb4Na2TbErAs4
_chemical_formula_sum   'Rb4 Na2 Tb1 Er1 As4'
_cell_volume   413.83200699
_cell_formula_units_Z   1
loop_
 _symmetry_equiv_pos_site_id
 _symmetry_equiv_pos_as_xyz
  1  'x, y, z'
loop_
 _atom_site_type_symbol
 _atom_site_label
 _atom_site_symmetry_multiplicity
 _atom_site_fract_x
 _atom_site_fract_y
 _atom_site_fract_z
 _atom_site_occupancy
  Rb  Rb0  1  0.681663  0.401418  0.720233  1
  Rb  Rb1  1  0.818337  0.038570  0.219755  1
  Rb  Rb2  1  0.181185  0.961430  0.779767  1
  Rb  Rb3  1  0.318815  0.598582  0.280245  1
  Na  Na4  1  0.750000  0.000000  0.750000  1
  Na  Na5  1  0.250000  0.000000  0.250000  1
  Tb  Tb6  1  0.250000  0.500000  0.750000  1
  Er  Er7  1  0.750000  0.500000  0.250000  1
  As  As8  1  0.408405  0.183893  0.781547  1
  As  As9  1  0.597654  0.816107  0.224512  1
  As  As10  1  0.091595  0.373142  0.275488  1
  As  As11  1  0.902346  0.626858  0.718453  1
