# generated using pymatgen
data_Tm8Sc3Si16W9
_symmetry_space_group_name_H-M   'P 1'
_cell_length_a   6.74271245
_cell_length_b   6.96948679
_cell_length_c   13.20005236
_cell_angle_alpha   89.87398168
_cell_angle_beta   89.78598486
_cell_angle_gamma   89.70139706
_symmetry_Int_Tables_number   1
_chemical_formula_structural   Tm8Sc3Si16W9
_chemical_formula_sum   'Tm8 Sc3 Si16 W9'
_cell_volume   620.29907354
_cell_formula_units_Z   1
loop_
 _symmetry_equiv_pos_site_id
 _symmetry_equiv_pos_as_xyz
  1  'x, y, z'
loop_
 _atom_site_type_symbol
 _atom_site_label
 _atom_site_symmetry_multiplicity
 _atom_site_fract_x
 _atom_site_fract_y
 _atom_site_fract_z
 _atom_site_occupancy
  Tm  Tm0  1  0.001926  0.168785  0.099107  1
  Tm  Tm1  1  0.994215  0.828305  0.898879  1
  Tm  Tm2  1  0.496650  0.673521  0.902842  1
  Tm  Tm3  1  0.000978  0.825452  0.591234  1
  Tm  Tm4  1  0.505106  0.328283  0.100737  1
  Tm  Tm5  1  0.998823  0.171502  0.407927  1
  Tm  Tm6  1  0.498940  0.327844  0.407193  1
  Tm  Tm7  1  0.499558  0.672578  0.591072  1
  Sc  Sc8  1  0.329166  0.166559  0.873274  1
  Sc  Sc9  1  0.827204  0.327230  0.872151  1
  Sc  Sc10  1  0.169316  0.671661  0.126533  1
  Si  Si11  1  0.031801  0.121998  0.741947  1
  Si  Si12  1  0.967768  0.879310  0.255908  1
  Si  Si13  1  0.469507  0.625529  0.255813  1
  Si  Si14  1  0.530494  0.377209  0.742476  1
  Si  Si15  1  0.294967  0.863593  0.745774  1
  Si  Si16  1  0.703120  0.133696  0.253707  1
  Si  Si17  1  0.203940  0.366337  0.251729  1
  Si  Si18  1  0.792926  0.633622  0.746213  1
  Si  Si19  1  0.165217  0.456821  0.542088  1
  Si  Si20  1  0.834906  0.542901  0.455796  1
  Si  Si21  1  0.336950  0.956814  0.455509  1
  Si  Si22  1  0.828151  0.543219  0.045694  1
  Si  Si23  1  0.665666  0.041850  0.542460  1
  Si  Si24  1  0.159402  0.467025  0.954573  1
  Si  Si25  1  0.667181  0.035474  0.965869  1
  Si  Si26  1  0.352357  0.965963  0.050354  1
  W  W27  1  0.156119  0.491649  0.742571  1
  W  W28  1  0.840302  0.507822  0.255122  1
  W  W29  1  0.341017  0.993134  0.255178  1
  W  W30  1  0.657915  0.004519  0.742801  1
  W  W31  1  0.334469  0.163528  0.619710  1
  W  W32  1  0.669968  0.837517  0.377484  1
  W  W33  1  0.164614  0.663978  0.376726  1
  W  W34  1  0.676214  0.830435  0.134456  1
  W  W35  1  0.833145  0.334337  0.619096  1
