# generated using pymatgen
data_Ho4ZrIr3
_symmetry_space_group_name_H-M   'P 1'
_cell_length_a   10.80555100
_cell_length_b   10.80555100
_cell_length_c   6.26476300
_cell_angle_alpha   90.00000000
_cell_angle_beta   90.00000000
_cell_angle_gamma   90.00000000
_symmetry_Int_Tables_number   1
_chemical_formula_structural   Ho4ZrIr3
_chemical_formula_sum   'Ho16 Zr4 Ir12'
_cell_volume   731.47330447
_cell_formula_units_Z   4
loop_
 _symmetry_equiv_pos_site_id
 _symmetry_equiv_pos_as_xyz
  1  'x, y, z'
loop_
 _atom_site_type_symbol
 _atom_site_label
 _atom_site_symmetry_multiplicity
 _atom_site_fract_x
 _atom_site_fract_y
 _atom_site_fract_z
 _atom_site_occupancy
  Ho  Ho0  1  0.290123  0.087040  0.374445  1
  Ho  Ho1  1  0.290123  0.912960  0.874445  1
  Ho  Ho2  1  0.709877  0.087040  0.874445  1
  Ho  Ho3  1  0.709877  0.912960  0.374445  1
  Ho  Ho4  1  0.587040  0.790123  0.874445  1
  Ho  Ho5  1  0.587040  0.209877  0.374445  1
  Ho  Ho6  1  0.412960  0.790123  0.374445  1
  Ho  Ho7  1  0.412960  0.209877  0.874445  1
  Ho  Ho8  1  0.209877  0.412960  0.625555  1
  Ho  Ho9  1  0.209877  0.587040  0.125555  1
  Ho  Ho10  1  0.790123  0.412960  0.125555  1
  Ho  Ho11  1  0.790123  0.587040  0.625555  1
  Ho  Ho12  1  0.912960  0.709877  0.125555  1
  Ho  Ho13  1  0.912960  0.290123  0.625555  1
  Ho  Ho14  1  0.087040  0.709877  0.625555  1
  Ho  Ho15  1  0.087040  0.290123  0.125555  1
  Zr  Zr16  1  0.000000  0.000000  0.500000  1
  Zr  Zr17  1  0.000000  0.000000  0.000000  1
  Zr  Zr18  1  0.500000  0.500000  0.000000  1
  Zr  Zr19  1  0.500000  0.500000  0.500000  1
  Ir  Ir20  1  0.853932  0.146068  0.250000  1
  Ir  Ir21  1  0.853932  0.853932  0.750000  1
  Ir  Ir22  1  0.146068  0.146068  0.750000  1
  Ir  Ir23  1  0.146068  0.853932  0.250000  1
  Ir  Ir24  1  0.646068  0.353932  0.750000  1
  Ir  Ir25  1  0.646068  0.646068  0.250000  1
  Ir  Ir26  1  0.353932  0.353932  0.250000  1
  Ir  Ir27  1  0.353932  0.646068  0.750000  1
  Ir  Ir28  1  0.500000  0.000000  0.121587  1
  Ir  Ir29  1  0.500000  0.000000  0.621587  1
  Ir  Ir30  1  0.000000  0.500000  0.878413  1
  Ir  Ir31  1  0.000000  0.500000  0.378413  1
