# generated using pymatgen
data_Ce2AlNiRu2
_symmetry_space_group_name_H-M   'P 1'
_cell_length_a   5.53313264
_cell_length_b   5.53313204
_cell_length_c   4.72895895
_cell_angle_alpha   60.78291138
_cell_angle_beta   60.78291589
_cell_angle_gamma   62.21288646
_symmetry_Int_Tables_number   1
_chemical_formula_structural   Ce2AlNiRu2
_chemical_formula_sum   'Ce2 Al1 Ni1 Ru2'
_cell_volume   105.23159958
_cell_formula_units_Z   1
loop_
 _symmetry_equiv_pos_site_id
 _symmetry_equiv_pos_as_xyz
  1  'x, y, z'
loop_
 _atom_site_type_symbol
 _atom_site_label
 _atom_site_symmetry_multiplicity
 _atom_site_fract_x
 _atom_site_fract_y
 _atom_site_fract_z
 _atom_site_occupancy
  Ce  Ce0  1  0.627784  0.627784  0.611764  1
  Ce  Ce1  1  0.372216  0.372216  0.388236  1
  Al  Al2  1  0.000000  0.000000  0.500000  1
  Ni  Ni3  1  0.000000  0.000000  0.000000  1
  Ru  Ru4  1  0.000000  0.500000  0.000000  1
  Ru  Ru5  1  0.500000  0.000000  0.000000  1
