# generated using pymatgen
data_YbTa8CdSe16
_symmetry_space_group_name_H-M   'P 1'
_cell_length_a   7.04101900
_cell_length_b   7.04101810
_cell_length_c   14.49315200
_cell_angle_alpha   90.00000000
_cell_angle_beta   90.00000000
_cell_angle_gamma   120.00000890
_symmetry_Int_Tables_number   1
_chemical_formula_structural   YbTa8CdSe16
_chemical_formula_sum   'Yb1 Ta8 Cd1 Se16'
_cell_volume   622.24930039
_cell_formula_units_Z   1
loop_
 _symmetry_equiv_pos_site_id
 _symmetry_equiv_pos_as_xyz
  1  'x, y, z'
loop_
 _atom_site_type_symbol
 _atom_site_label
 _atom_site_symmetry_multiplicity
 _atom_site_fract_x
 _atom_site_fract_y
 _atom_site_fract_z
 _atom_site_occupancy
  Yb  Yb0  1  0.000000  0.000000  0.500000  1
  Ta  Ta1  1  0.510089  0.489911  0.752494  1
  Ta  Ta2  1  0.020177  0.510089  0.247506  1
  Ta  Ta3  1  0.489911  0.979823  0.247506  1
  Ta  Ta4  1  0.510089  0.020177  0.752494  1
  Ta  Ta5  1  0.979823  0.489911  0.752494  1
  Ta  Ta6  1  0.489911  0.510089  0.247506  1
  Ta  Ta7  1  0.000000  0.000000  0.749900  1
  Ta  Ta8  1  0.000000  0.000000  0.250100  1
  Cd  Cd9  1  0.000000  0.000000  0.000000  1
  Se  Se10  1  0.829554  0.170446  0.360824  1
  Se  Se11  1  0.829554  0.659108  0.360824  1
  Se  Se12  1  0.340892  0.170446  0.360824  1
  Se  Se13  1  0.663481  0.831741  0.864146  1
  Se  Se14  1  0.170446  0.340892  0.639176  1
  Se  Se15  1  0.168259  0.831741  0.864146  1
  Se  Se16  1  0.168259  0.336519  0.864146  1
  Se  Se17  1  0.831741  0.168259  0.135854  1
  Se  Se18  1  0.336519  0.168259  0.135854  1
  Se  Se19  1  0.659108  0.829554  0.639176  1
  Se  Se20  1  0.333333  0.666667  0.127141  1
  Se  Se21  1  0.666667  0.333333  0.630858  1
  Se  Se22  1  0.666667  0.333333  0.872859  1
  Se  Se23  1  0.333333  0.666667  0.369142  1
  Se  Se24  1  0.831741  0.663481  0.135854  1
  Se  Se25  1  0.170446  0.829554  0.639176  1
