# generated using pymatgen
data_Tb5Y3Sc12Si15Tc
_symmetry_space_group_name_H-M   'P 1'
_cell_length_a   7.10700170
_cell_length_b   7.46500709
_cell_length_c   13.98201827
_cell_angle_alpha   90.01621838
_cell_angle_beta   89.98405793
_cell_angle_gamma   90.16876607
_symmetry_Int_Tables_number   1
_chemical_formula_structural   Tb5Y3Sc12Si15Tc
_chemical_formula_sum   'Tb5 Y3 Sc12 Si15 Tc1'
_cell_volume   741.79617820
_cell_formula_units_Z   1
loop_
 _symmetry_equiv_pos_site_id
 _symmetry_equiv_pos_as_xyz
  1  'x, y, z'
loop_
 _atom_site_type_symbol
 _atom_site_label
 _atom_site_symmetry_multiplicity
 _atom_site_fract_x
 _atom_site_fract_y
 _atom_site_fract_z
 _atom_site_occupancy
  Tb  Tb0  1  0.990788  0.827605  0.596555  1
  Tb  Tb1  1  0.511002  0.323441  0.096124  1
  Tb  Tb2  1  0.011479  0.178118  0.404041  1
  Tb  Tb3  1  0.510852  0.323469  0.403840  1
  Tb  Tb4  1  0.488822  0.675202  0.596191  1
  Y  Y5  1  0.011388  0.178063  0.096035  1
  Y  Y6  1  0.990905  0.826830  0.903562  1
  Y  Y7  1  0.489087  0.675517  0.903799  1
  Sc  Sc8  1  0.156044  0.498073  0.749967  1
  Sc  Sc9  1  0.838574  0.495326  0.250050  1
  Sc  Sc10  1  0.338727  0.005113  0.249965  1
  Sc  Sc11  1  0.667247  0.999476  0.750025  1
  Sc  Sc12  1  0.316785  0.171677  0.627852  1
  Sc  Sc13  1  0.672112  0.826147  0.374005  1
  Sc  Sc14  1  0.171655  0.678025  0.373900  1
  Sc  Sc15  1  0.672012  0.826064  0.125932  1
  Sc  Sc16  1  0.837166  0.319711  0.627258  1
  Sc  Sc17  1  0.316448  0.171624  0.872244  1
  Sc  Sc18  1  0.837532  0.319360  0.872667  1
  Sc  Sc19  1  0.171810  0.677946  0.126071  1
  Si  Si20  1  0.968185  0.883375  0.249967  1
  Si  Si21  1  0.469944  0.615257  0.249972  1
  Si  Si22  1  0.529714  0.387335  0.750088  1
  Si  Si23  1  0.286997  0.868535  0.750186  1
  Si  Si24  1  0.713096  0.128141  0.249867  1
  Si  Si25  1  0.214023  0.371227  0.249933  1
  Si  Si26  1  0.779915  0.627293  0.750103  1
  Si  Si27  1  0.159357  0.468589  0.536862  1
  Si  Si28  1  0.845432  0.536637  0.461502  1
  Si  Si29  1  0.345035  0.965238  0.459920  1
  Si  Si30  1  0.845344  0.536580  0.038544  1
  Si  Si31  1  0.654454  0.034137  0.538893  1
  Si  Si32  1  0.159429  0.468656  0.963018  1
  Si  Si33  1  0.654766  0.034026  0.960986  1
  Si  Si34  1  0.344771  0.965100  0.040131  1
  Tc  Tc35  1  0.029102  0.113085  0.749945  1
