# generated using pymatgen
data_NdSm2GeSe2
_symmetry_space_group_name_H-M   'P 1'
_cell_length_a   7.34577572
_cell_length_b   7.34577565
_cell_length_c   7.34577661
_cell_angle_alpha   146.55232042
_cell_angle_beta   132.30253023
_cell_angle_gamma   59.50689952
_symmetry_Int_Tables_number   1
_chemical_formula_structural   NdSm2GeSe2
_chemical_formula_sum   'Nd1 Sm2 Ge1 Se2'
_cell_volume   160.15301228
_cell_formula_units_Z   1
loop_
 _symmetry_equiv_pos_site_id
 _symmetry_equiv_pos_as_xyz
  1  'x, y, z'
loop_
 _atom_site_type_symbol
 _atom_site_label
 _atom_site_symmetry_multiplicity
 _atom_site_fract_x
 _atom_site_fract_y
 _atom_site_fract_z
 _atom_site_occupancy
  Nd  Nd0  1  0.000000  0.000000  0.000000  1
  Sm  Sm1  1  0.340836  0.340836  0.000000  1
  Sm  Sm2  1  0.659164  0.659164  0.000000  1
  Ge  Ge3  1  0.500000  0.000000  0.500000  1
  Se  Se4  1  0.169753  0.669753  0.500000  1
  Se  Se5  1  0.830247  0.330247  0.500000  1
