# generated using pymatgen
data_Lu12Fe2Bi2Ru
_symmetry_space_group_name_H-M   'P 1'
_cell_length_a   8.26574254
_cell_length_b   8.26508010
_cell_length_c   8.26574302
_cell_angle_alpha   108.15939742
_cell_angle_beta   108.16503957
_cell_angle_gamma   112.12560788
_symmetry_Int_Tables_number   1
_chemical_formula_structural   Lu12Fe2Bi2Ru
_chemical_formula_sum   'Lu12 Fe2 Bi2 Ru1'
_cell_volume   433.97862028
_cell_formula_units_Z   1
loop_
 _symmetry_equiv_pos_site_id
 _symmetry_equiv_pos_as_xyz
  1  'x, y, z'
loop_
 _atom_site_type_symbol
 _atom_site_label
 _atom_site_symmetry_multiplicity
 _atom_site_fract_x
 _atom_site_fract_y
 _atom_site_fract_z
 _atom_site_occupancy
  Lu  Lu0  1  0.307909  0.307899  0.615913  1
  Lu  Lu1  1  0.692091  0.692101  0.384087  1
  Lu  Lu2  1  0.691986  0.307899  0.999990  1
  Lu  Lu3  1  0.308014  0.692101  0.000010  1
  Lu  Lu4  1  0.196303  0.428546  0.232242  1
  Lu  Lu5  1  0.803697  0.571454  0.767758  1
  Lu  Lu6  1  0.196320  0.963978  0.767659  1
  Lu  Lu7  1  0.964024  0.196272  0.767675  1
  Lu  Lu8  1  0.803680  0.036022  0.232341  1
  Lu  Lu9  1  0.035976  0.803728  0.232325  1
  Lu  Lu10  1  0.428598  0.196272  0.232247  1
  Lu  Lu11  1  0.571402  0.803728  0.767753  1
  Fe  Fe12  1  0.382912  0.382662  0.999750  1
  Fe  Fe13  1  0.617088  0.617338  0.000250  1
  Bi  Bi14  1  0.000000  0.500000  0.500000  1
  Bi  Bi15  1  0.500000  0.000000  0.500000  1
  Ru  Ru16  1  0.000000  0.000000  0.000000  1
