# generated using pymatgen
data_Hf3SiTc2Ge2Os
_symmetry_space_group_name_H-M   'P 1'
_cell_length_a   6.99420846
_cell_length_b   6.99420931
_cell_length_c   3.45716200
_cell_angle_alpha   90.00000000
_cell_angle_beta   90.00000000
_cell_angle_gamma   120.23911962
_symmetry_Int_Tables_number   1
_chemical_formula_structural   Hf3SiTc2Ge2Os
_chemical_formula_sum   'Hf3 Si1 Tc2 Ge2 Os1'
_cell_volume   146.10869572
_cell_formula_units_Z   1
loop_
 _symmetry_equiv_pos_site_id
 _symmetry_equiv_pos_as_xyz
  1  'x, y, z'
loop_
 _atom_site_type_symbol
 _atom_site_label
 _atom_site_symmetry_multiplicity
 _atom_site_fract_x
 _atom_site_fract_y
 _atom_site_fract_z
 _atom_site_occupancy
  Hf  Hf0  1  0.400608  0.998701  0.500000  1
  Hf  Hf1  1  0.998701  0.400608  0.500000  1
  Hf  Hf2  1  0.599773  0.599773  0.500000  1
  Si  Si3  1  0.001211  0.001211  0.500000  1
  Tc  Tc4  1  0.751651  0.000550  0.000000  1
  Tc  Tc5  1  0.000550  0.751651  0.000000  1
  Ge  Ge6  1  0.333311  0.666423  0.000000  1
  Ge  Ge7  1  0.666423  0.333311  0.000000  1
  Os  Os8  1  0.247775  0.247775  0.000000  1
