# generated using pymatgen
data_Sc5ZnB4Ir9Ru
_symmetry_space_group_name_H-M   'P 1'
_cell_length_a   3.05436500
_cell_length_b   9.52762588
_cell_length_c   9.52695281
_cell_angle_alpha   90.51131206
_cell_angle_beta   90.00000000
_cell_angle_gamma   90.00000000
_symmetry_Int_Tables_number   1
_chemical_formula_structural   Sc5ZnB4Ir9Ru
_chemical_formula_sum   'Sc5 Zn1 B4 Ir9 Ru1'
_cell_volume   277.23135658
_cell_formula_units_Z   1
loop_
 _symmetry_equiv_pos_site_id
 _symmetry_equiv_pos_as_xyz
  1  'x, y, z'
loop_
 _atom_site_type_symbol
 _atom_site_label
 _atom_site_symmetry_multiplicity
 _atom_site_fract_x
 _atom_site_fract_y
 _atom_site_fract_z
 _atom_site_occupancy
  Sc  Sc0  1  0.000000  0.172426  0.674240  1
  Sc  Sc1  1  0.000000  0.827574  0.325760  1
  Sc  Sc2  1  0.000000  0.319894  0.176659  1
  Sc  Sc3  1  0.000000  0.680106  0.823341  1
  Sc  Sc4  1  0.000000  0.500000  0.500000  1
  Zn  Zn5  1  0.000000  0.000000  0.000000  1
  B  B6  1  0.000000  0.630712  0.120614  1
  B  B7  1  0.000000  0.369288  0.879386  1
  B  B8  1  0.000000  0.883649  0.626340  1
  B  B9  1  0.000000  0.116351  0.373660  1
  Ir  Ir10  1  0.500000  0.067154  0.216210  1
  Ir  Ir11  1  0.500000  0.932846  0.783790  1
  Ir  Ir12  1  0.500000  0.783235  0.068124  1
  Ir  Ir13  1  0.500000  0.426375  0.722791  1
  Ir  Ir14  1  0.500000  0.216765  0.931876  1
  Ir  Ir15  1  0.500000  0.573625  0.277209  1
  Ir  Ir16  1  0.500000  0.722794  0.573601  1
  Ir  Ir17  1  0.500000  0.277206  0.426399  1
  Ir  Ir18  1  0.500000  0.500000  0.000000  1
  Ru  Ru19  1  0.500000  0.000000  0.500000  1
