# generated using pymatgen
data_La16Er4Ir11Ru
_symmetry_space_group_name_H-M   'P 1'
_cell_length_a   11.37829600
_cell_length_b   11.37829600
_cell_length_c   6.54026400
_cell_angle_alpha   90.00000000
_cell_angle_beta   90.00000000
_cell_angle_gamma   90.00000000
_symmetry_Int_Tables_number   1
_chemical_formula_structural   La16Er4Ir11Ru
_chemical_formula_sum   'La16 Er4 Ir11 Ru1'
_cell_volume   846.73933283
_cell_formula_units_Z   1
loop_
 _symmetry_equiv_pos_site_id
 _symmetry_equiv_pos_as_xyz
  1  'x, y, z'
loop_
 _atom_site_type_symbol
 _atom_site_label
 _atom_site_symmetry_multiplicity
 _atom_site_fract_x
 _atom_site_fract_y
 _atom_site_fract_z
 _atom_site_occupancy
  La  La0  1  0.288828  0.086919  0.387559  1
  La  La1  1  0.289460  0.913356  0.891818  1
  La  La2  1  0.710540  0.086644  0.891818  1
  La  La3  1  0.711172  0.913081  0.387559  1
  La  La4  1  0.586644  0.789460  0.891818  1
  La  La5  1  0.586919  0.211172  0.387559  1
  La  La6  1  0.413081  0.788828  0.387559  1
  La  La7  1  0.413356  0.210540  0.891818  1
  La  La8  1  0.213281  0.412102  0.612661  1
  La  La9  1  0.212813  0.587365  0.111923  1
  La  La10  1  0.787187  0.412635  0.111923  1
  La  La11  1  0.786719  0.587898  0.612661  1
  La  La12  1  0.912635  0.712813  0.111923  1
  La  La13  1  0.912102  0.286719  0.612661  1
  La  La14  1  0.087898  0.713281  0.612661  1
  La  La15  1  0.087365  0.287187  0.111923  1
  Er  Er16  1  0.000000  0.000000  0.498329  1
  Er  Er17  1  0.000000  0.000000  0.998034  1
  Er  Er18  1  0.500000  0.500000  0.998034  1
  Er  Er19  1  0.500000  0.500000  0.498329  1
  Ir  Ir20  1  0.852874  0.148568  0.249628  1
  Ir  Ir21  1  0.853007  0.851893  0.749555  1
  Ir  Ir22  1  0.146993  0.148107  0.749555  1
  Ir  Ir23  1  0.147126  0.851432  0.249628  1
  Ir  Ir24  1  0.648107  0.353007  0.749555  1
  Ir  Ir25  1  0.648568  0.647126  0.249628  1
  Ir  Ir26  1  0.351432  0.352874  0.249628  1
  Ir  Ir27  1  0.351893  0.646993  0.749555  1
  Ir  Ir28  1  0.500000  0.000000  0.618558  1
  Ir  Ir29  1  0.000000  0.500000  0.880638  1
  Ir  Ir30  1  0.000000  0.500000  0.380826  1
  Ru  Ru31  1  0.500000  0.000000  0.114681  1
