# generated using pymatgen
data_TbCeDy3(FeB3)2
_symmetry_space_group_name_H-M   'P 1'
_cell_length_a   5.42905760
_cell_length_b   5.42905752
_cell_length_c   8.03182339
_cell_angle_alpha   70.24664555
_cell_angle_beta   70.24665918
_cell_angle_gamma   59.99998319
_symmetry_Int_Tables_number   1
_chemical_formula_structural   TbCeDy3(FeB3)2
_chemical_formula_sum   'Tb1 Ce1 Dy3 Fe2 B6'
_cell_volume   188.76207459
_cell_formula_units_Z   1
loop_
 _symmetry_equiv_pos_site_id
 _symmetry_equiv_pos_as_xyz
  1  'x, y, z'
loop_
 _atom_site_type_symbol
 _atom_site_label
 _atom_site_symmetry_multiplicity
 _atom_site_fract_x
 _atom_site_fract_y
 _atom_site_fract_z
 _atom_site_occupancy
  Tb  Tb0  1  0.253165  0.253165  0.240504  1
  Ce  Ce1  1  0.000294  0.000294  0.999119  1
  Dy  Dy2  1  0.747205  0.747205  0.758384  1
  Dy  Dy3  1  0.414503  0.414503  0.756493  1
  Dy  Dy4  1  0.585498  0.585498  0.243505  1
  Fe  Fe5  1  0.110471  0.110471  0.668587  1
  Fe  Fe6  1  0.889386  0.889386  0.331842  1
  B  B7  1  0.166704  0.832963  0.500261  1
  B  B8  1  0.832963  0.500072  0.500261  1
  B  B9  1  0.500072  0.166704  0.500261  1
  B  B10  1  0.166704  0.500072  0.500261  1
  B  B11  1  0.500072  0.832963  0.500261  1
  B  B12  1  0.832963  0.166704  0.500261  1
