# generated using pymatgen
data_ErNb(SnPt)2
_symmetry_space_group_name_H-M   'P 1'
_cell_length_a   6.43642800
_cell_length_b   4.53925400
_cell_length_c   9.08725700
_cell_angle_alpha   90.00000000
_cell_angle_beta   90.00000000
_cell_angle_gamma   90.00000000
_symmetry_Int_Tables_number   1
_chemical_formula_structural   ErNb(SnPt)2
_chemical_formula_sum   'Er2 Nb2 Sn4 Pt4'
_cell_volume   265.49858516
_cell_formula_units_Z   2
loop_
 _symmetry_equiv_pos_site_id
 _symmetry_equiv_pos_as_xyz
  1  'x, y, z'
loop_
 _atom_site_type_symbol
 _atom_site_label
 _atom_site_symmetry_multiplicity
 _atom_site_fract_x
 _atom_site_fract_y
 _atom_site_fract_z
 _atom_site_occupancy
  Er  Er0  1  0.003103  0.000000  0.376025  1
  Er  Er1  1  0.503104  0.500001  0.623976  1
  Nb  Nb2  1  0.497364  0.500001  0.124191  1
  Nb  Nb3  1  0.997365  0.000000  0.875808  1
  Sn  Sn4  1  0.987612  0.500001  0.124864  1
  Sn  Sn5  1  0.509737  0.000000  0.373147  1
  Sn  Sn6  1  0.009737  0.500001  0.626855  1
  Sn  Sn7  1  0.487613  0.000000  0.875138  1
  Pt  Pt8  1  0.737515  0.000000  0.112801  1
  Pt  Pt9  1  0.264665  0.500001  0.359454  1
  Pt  Pt10  1  0.764666  0.000000  0.640547  1
  Pt  Pt11  1  0.237515  0.500001  0.887200  1
