# generated using pymatgen
data_Er4TmFe18CoP12
_symmetry_space_group_name_H-M   'P 1'
_cell_length_a   11.92742800
_cell_length_b   11.92742830
_cell_length_c   3.68787300
_cell_angle_alpha   90.00000000
_cell_angle_beta   90.00000000
_cell_angle_gamma   119.99999916
_symmetry_Int_Tables_number   1
_chemical_formula_structural   Er4TmFe18CoP12
_chemical_formula_sum   'Er4 Tm1 Fe18 Co1 P12'
_cell_volume   454.36012506
_cell_formula_units_Z   1
loop_
 _symmetry_equiv_pos_site_id
 _symmetry_equiv_pos_as_xyz
  1  'x, y, z'
loop_
 _atom_site_type_symbol
 _atom_site_label
 _atom_site_symmetry_multiplicity
 _atom_site_fract_x
 _atom_site_fract_y
 _atom_site_fract_z
 _atom_site_occupancy
  Er  Er0  1  0.666667  0.333333  0.000000  1
  Er  Er1  1  0.184419  0.184397  0.500000  1
  Er  Er2  1  0.815603  0.000023  0.500000  1
  Er  Er3  1  0.999977  0.815581  0.500000  1
  Tm  Tm4  1  0.333333  0.666667  0.000000  1
  Fe  Fe5  1  0.818337  0.197784  0.000000  1
  Fe  Fe6  1  0.802216  0.620552  0.000000  1
  Fe  Fe7  1  0.379448  0.181663  0.000000  1
  Fe  Fe8  1  0.197867  0.818236  0.000000  1
  Fe  Fe9  1  0.620368  0.802133  0.000000  1
  Fe  Fe10  1  0.181764  0.379632  0.000000  1
  Fe  Fe11  1  0.557223  0.557221  0.000000  1
  Fe  Fe12  1  0.442779  0.000003  0.000000  1
  Fe  Fe13  1  0.999997  0.442777  0.000000  1
  Fe  Fe14  1  0.639582  0.122138  0.500000  1
  Fe  Fe15  1  0.877862  0.517444  0.500000  1
  Fe  Fe16  1  0.482556  0.360418  0.500000  1
  Fe  Fe17  1  0.122344  0.639575  0.500000  1
  Fe  Fe18  1  0.517231  0.877656  0.500000  1
  Fe  Fe19  1  0.360425  0.482769  0.500000  1
  Fe  Fe20  1  0.715125  0.715160  0.500000  1
  Fe  Fe21  1  0.284840  0.999965  0.500000  1
  Fe  Fe22  1  0.000035  0.284875  0.500000  1
  Co  Co23  1  0.000000  0.000000  0.000000  1
  P  P24  1  0.370182  0.370162  0.000000  1
  P  P25  1  0.629838  0.000020  0.000000  1
  P  P26  1  0.999980  0.629818  0.000000  1
  P  P27  1  0.833617  0.312348  0.500000  1
  P  P28  1  0.687652  0.521269  0.500000  1
  P  P29  1  0.478731  0.166383  0.500000  1
  P  P30  1  0.312417  0.833396  0.500000  1
  P  P31  1  0.520979  0.687583  0.500000  1
  P  P32  1  0.166604  0.479021  0.500000  1
  P  P33  1  0.815535  0.815540  0.000000  1
  P  P34  1  0.184460  0.999995  0.000000  1
  P  P35  1  0.000005  0.184465  0.000000  1
