# generated using pymatgen
data_Tm3LuSc6Ga7Si
_symmetry_space_group_name_H-M   'P 1'
_cell_length_a   7.20482816
_cell_length_b   7.43950875
_cell_length_c   14.40691057
_cell_angle_alpha   89.97096594
_cell_angle_beta   89.98600096
_cell_angle_gamma   90.23126605
_symmetry_Int_Tables_number   1
_chemical_formula_structural   Tm3LuSc6Ga7Si
_chemical_formula_sum   'Tm6 Lu2 Sc12 Ga14 Si2'
_cell_volume   772.20949944
_cell_formula_units_Z   2
loop_
 _symmetry_equiv_pos_site_id
 _symmetry_equiv_pos_as_xyz
  1  'x, y, z'
loop_
 _atom_site_type_symbol
 _atom_site_label
 _atom_site_symmetry_multiplicity
 _atom_site_fract_x
 _atom_site_fract_y
 _atom_site_fract_z
 _atom_site_occupancy
  Tm  Tm0  1  0.489282  0.678033  0.904432  1
  Tm  Tm1  1  0.987042  0.820928  0.596285  1
  Tm  Tm2  1  0.510718  0.321967  0.095568  1
  Tm  Tm3  1  0.012958  0.179072  0.403715  1
  Tm  Tm4  1  0.510702  0.322001  0.404417  1
  Tm  Tm5  1  0.489298  0.677999  0.595583  1
  Lu  Lu6  1  0.012957  0.179186  0.096343  1
  Lu  Lu7  1  0.987043  0.820814  0.903657  1
  Sc  Sc8  1  0.160781  0.504405  0.750042  1
  Sc  Sc9  1  0.839219  0.495595  0.249958  1
  Sc  Sc10  1  0.336757  0.006451  0.249927  1
  Sc  Sc11  1  0.663243  0.993549  0.750073  1
  Sc  Sc12  1  0.331189  0.174466  0.622957  1
  Sc  Sc13  1  0.668811  0.825534  0.377043  1
  Sc  Sc14  1  0.170609  0.671649  0.376159  1
  Sc  Sc15  1  0.668934  0.825594  0.122963  1
  Sc  Sc16  1  0.829391  0.328351  0.623841  1
  Sc  Sc17  1  0.331066  0.174406  0.877037  1
  Sc  Sc18  1  0.829487  0.328338  0.876224  1
  Sc  Sc19  1  0.170513  0.671662  0.123776  1
  Ga  Ga20  1  0.032452  0.117107  0.750045  1
  Ga  Ga21  1  0.967548  0.882893  0.249955  1
  Ga  Ga22  1  0.467348  0.611938  0.249983  1
  Ga  Ga23  1  0.532652  0.388062  0.750017  1
  Ga  Ga24  1  0.285418  0.870498  0.750085  1
  Ga  Ga25  1  0.714582  0.129502  0.249915  1
  Ga  Ga26  1  0.159963  0.465764  0.540491  1
  Ga  Ga27  1  0.840037  0.534236  0.459509  1
  Ga  Ga28  1  0.338413  0.965139  0.459228  1
  Ga  Ga29  1  0.840158  0.534120  0.040459  1
  Ga  Ga30  1  0.661587  0.034861  0.540772  1
  Ga  Ga31  1  0.159842  0.465880  0.959541  1
  Ga  Ga32  1  0.661885  0.034680  0.959164  1
  Ga  Ga33  1  0.338115  0.965320  0.040836  1
  Si  Si34  1  0.214976  0.372766  0.249906  1
  Si  Si35  1  0.785024  0.627234  0.750094  1
