# generated using pymatgen
data_Li5Zr6Zn18C
_symmetry_space_group_name_H-M   'P 1'
_cell_length_a   8.73206920
_cell_length_b   8.72198789
_cell_length_c   8.70881200
_cell_angle_alpha   60.04995182
_cell_angle_beta   60.08805875
_cell_angle_gamma   60.08946668
_symmetry_Int_Tables_number   1
_chemical_formula_structural   Li5Zr6Zn18C
_chemical_formula_sum   'Li5 Zr6 Zn18 C1'
_cell_volume   469.80978351
_cell_formula_units_Z   1
loop_
 _symmetry_equiv_pos_site_id
 _symmetry_equiv_pos_as_xyz
  1  'x, y, z'
loop_
 _atom_site_type_symbol
 _atom_site_label
 _atom_site_symmetry_multiplicity
 _atom_site_fract_x
 _atom_site_fract_y
 _atom_site_fract_z
 _atom_site_occupancy
  Li  Li0  1  0.121549  0.121066  0.118014  1
  Li  Li1  1  0.876961  0.879694  0.880531  1
  Li  Li2  1  0.121549  0.121066  0.639373  1
  Li  Li3  1  0.122449  0.638454  0.119549  1
  Li  Li4  1  0.876961  0.879694  0.362813  1
  Zr  Zr5  1  0.686035  0.314179  0.308847  1
  Zr  Zr6  1  0.316367  0.686555  0.685856  1
  Zr  Zr7  1  0.316367  0.686555  0.311222  1
  Zr  Zr8  1  0.686035  0.314179  0.690939  1
  Zr  Zr9  1  0.310944  0.311912  0.688572  1
  Zr  Zr10  1  0.682962  0.689158  0.313940  1
  Zn  Zn11  1  0.883707  0.356095  0.880098  1
  Zn  Zn12  1  0.646783  0.115073  0.119073  1
  Zn  Zn13  1  0.354013  0.881804  0.882090  1
  Zn  Zn14  1  0.499296  0.001576  0.998918  1
  Zn  Zn15  1  0.999953  0.499395  0.500409  1
  Zn  Zn16  1  0.999953  0.499395  0.000243  1
  Zn  Zn17  1  0.499296  0.001576  0.500211  1
  Zn  Zn18  1  0.998737  0.001888  0.499688  1
  Zn  Zn19  1  0.499732  0.499755  0.000257  1
  Zn  Zn20  1  0.327377  0.331033  0.331390  1
  Zn  Zn21  1  0.671587  0.670723  0.667247  1
  Zn  Zn22  1  0.327377  0.331033  0.010201  1
  Zn  Zn23  1  0.326223  0.010464  0.331657  1
  Zn  Zn24  1  0.671587  0.670723  0.990442  1
  Zn  Zn25  1  0.673082  0.989327  0.668795  1
  Zn  Zn26  1  0.011141  0.329346  0.329757  1
  Zn  Zn27  1  0.989907  0.673396  0.668348  1
  Zn  Zn28  1  0.001025  0.998353  0.000311  1
  C  C29  1  0.501044  0.496535  0.501210  1
