# generated using pymatgen
data_Pa3Ta3(Ni10B3)4
_symmetry_space_group_name_H-M   'P 1'
_cell_length_a   13.17367955
_cell_length_b   13.17367962
_cell_length_c   13.17368000
_cell_angle_alpha   33.68626462
_cell_angle_beta   33.68626416
_cell_angle_gamma   33.68626503
_symmetry_Int_Tables_number   1
_chemical_formula_structural   Pa3Ta3(Ni10B3)4
_chemical_formula_sum   'Pa3 Ta3 Ni40 B12'
_cell_volume   626.59460271
_cell_formula_units_Z   1
loop_
 _symmetry_equiv_pos_site_id
 _symmetry_equiv_pos_as_xyz
  1  'x, y, z'
loop_
 _atom_site_type_symbol
 _atom_site_label
 _atom_site_symmetry_multiplicity
 _atom_site_fract_x
 _atom_site_fract_y
 _atom_site_fract_z
 _atom_site_occupancy
  Pa  Pa0  1  0.874732  0.874732  0.874732  1
  Pa  Pa1  1  0.124730  0.124730  0.124730  1
  Pa  Pa2  1  0.625454  0.625454  0.625454  1
  Ta  Ta3  1  0.000292  0.000292  0.000292  1
  Ta  Ta4  1  0.499643  0.499643  0.499643  1
  Ta  Ta5  1  0.374934  0.374934  0.374934  1
  Ni  Ni6  1  0.655471  0.341204  0.005334  1
  Ni  Ni7  1  0.158063  0.842337  0.498944  1
  Ni  Ni8  1  0.825095  0.172473  0.172473  1
  Ni  Ni9  1  0.328807  0.671143  0.671143  1
  Ni  Ni10  1  0.655471  0.005334  0.341204  1
  Ni  Ni11  1  0.158063  0.498944  0.842337  1
  Ni  Ni12  1  0.172473  0.172473  0.825095  1
  Ni  Ni13  1  0.671143  0.671143  0.328807  1
  Ni  Ni14  1  0.005334  0.341204  0.655471  1
  Ni  Ni15  1  0.498944  0.842337  0.158063  1
  Ni  Ni16  1  0.842337  0.498944  0.158063  1
  Ni  Ni17  1  0.341204  0.005334  0.655471  1
  Ni  Ni18  1  0.330370  0.330370  0.665441  1
  Ni  Ni19  1  0.828689  0.828689  0.172971  1
  Ni  Ni20  1  0.665441  0.330370  0.330370  1
  Ni  Ni21  1  0.172971  0.828689  0.828689  1
  Ni  Ni22  1  0.330370  0.665441  0.330370  1
  Ni  Ni23  1  0.828689  0.172971  0.828689  1
  Ni  Ni24  1  0.341204  0.655471  0.005334  1
  Ni  Ni25  1  0.842337  0.158063  0.498944  1
  Ni  Ni26  1  0.005334  0.655471  0.341204  1
  Ni  Ni27  1  0.498944  0.158063  0.842337  1
  Ni  Ni28  1  0.172473  0.825095  0.172473  1
  Ni  Ni29  1  0.671143  0.328807  0.671143  1
  Ni  Ni30  1  0.041779  0.574863  0.574863  1
  Ni  Ni31  1  0.534135  0.079580  0.079580  1
  Ni  Ni32  1  0.574863  0.574863  0.041779  1
  Ni  Ni33  1  0.079580  0.079580  0.534135  1
  Ni  Ni34  1  0.806766  0.806766  0.806766  1
  Ni  Ni35  1  0.308379  0.308379  0.308379  1
  Ni  Ni36  1  0.574863  0.041779  0.574863  1
  Ni  Ni37  1  0.079580  0.534135  0.079580  1
  Ni  Ni38  1  0.468885  0.918610  0.918610  1
  Ni  Ni39  1  0.966933  0.419895  0.419895  1
  Ni  Ni40  1  0.918610  0.918610  0.468885  1
  Ni  Ni41  1  0.419895  0.419895  0.966933  1
  Ni  Ni42  1  0.693970  0.693970  0.693970  1
  Ni  Ni43  1  0.193235  0.193235  0.193235  1
  Ni  Ni44  1  0.918610  0.468885  0.918610  1
  Ni  Ni45  1  0.419895  0.966933  0.419895  1
  B  B46  1  0.867260  0.867260  0.398652  1
  B  B47  1  0.368136  0.368136  0.895658  1
  B  B48  1  0.103076  0.632176  0.632176  1
  B  B49  1  0.601155  0.133091  0.133091  1
  B  B50  1  0.867260  0.398652  0.867260  1
  B  B51  1  0.368136  0.895658  0.368136  1
  B  B52  1  0.632176  0.632176  0.103076  1
  B  B53  1  0.133091  0.133091  0.601155  1
  B  B54  1  0.398652  0.867260  0.867260  1
  B  B55  1  0.895658  0.368136  0.368136  1
  B  B56  1  0.632176  0.103076  0.632176  1
  B  B57  1  0.133091  0.601155  0.133091  1
