# generated using pymatgen
data_Tb8YbYIr6
_symmetry_space_group_name_H-M   'P 1'
_cell_length_a   6.38461502
_cell_length_b   10.93334600
_cell_length_c   10.93471704
_cell_angle_alpha   90.00000000
_cell_angle_beta   89.99012838
_cell_angle_gamma   90.00000000
_symmetry_Int_Tables_number   1
_chemical_formula_structural   Tb8YbYIr6
_chemical_formula_sum   'Tb16 Yb2 Y2 Ir12'
_cell_volume   763.30015474
_cell_formula_units_Z   2
loop_
 _symmetry_equiv_pos_site_id
 _symmetry_equiv_pos_as_xyz
  1  'x, y, z'
loop_
 _atom_site_type_symbol
 _atom_site_label
 _atom_site_symmetry_multiplicity
 _atom_site_fract_x
 _atom_site_fract_y
 _atom_site_fract_z
 _atom_site_occupancy
  Tb  Tb0  1  0.382218  0.839403  0.541330  1
  Tb  Tb1  1  0.882218  0.660597  0.541330  1
  Tb  Tb2  1  0.882294  0.839385  0.958732  1
  Tb  Tb3  1  0.382294  0.660615  0.958732  1
  Tb  Tb4  1  0.883689  0.540181  0.838001  1
  Tb  Tb5  1  0.383689  0.959819  0.838001  1
  Tb  Tb6  1  0.383723  0.540173  0.662004  1
  Tb  Tb7  1  0.883723  0.959827  0.662004  1
  Tb  Tb8  1  0.616319  0.162075  0.459684  1
  Tb  Tb9  1  0.116319  0.337925  0.459684  1
  Tb  Tb10  1  0.116424  0.162009  0.040254  1
  Tb  Tb11  1  0.616424  0.337991  0.040254  1
  Tb  Tb12  1  0.117695  0.458628  0.160684  1
  Tb  Tb13  1  0.617695  0.041373  0.160684  1
  Tb  Tb14  1  0.499979  0.749957  0.250007  1
  Tb  Tb15  1  0.999979  0.750043  0.250007  1
  Yb  Yb16  1  0.000007  0.249974  0.749998  1
  Yb  Yb17  1  0.500007  0.250026  0.749998  1
  Y  Y18  1  0.617923  0.458705  0.339375  1
  Y  Y19  1  0.117923  0.041296  0.339375  1
  Ir  Ir20  1  0.249993  0.903261  0.096665  1
  Ir  Ir21  1  0.749993  0.596739  0.096665  1
  Ir  Ir22  1  0.749779  0.903187  0.403311  1
  Ir  Ir23  1  0.249779  0.596813  0.403311  1
  Ir  Ir24  1  0.749949  0.092348  0.907623  1
  Ir  Ir25  1  0.249949  0.407652  0.907623  1
  Ir  Ir26  1  0.250091  0.092352  0.592482  1
  Ir  Ir27  1  0.750091  0.407648  0.592482  1
  Ir  Ir28  1  0.125669  0.750001  0.749983  1
  Ir  Ir29  1  0.625669  0.749999  0.749983  1
  Ir  Ir30  1  0.874249  0.249990  0.249867  1
  Ir  Ir31  1  0.374249  0.250010  0.249867  1
