# generated using pymatgen
data_Ce8Dy12Co4BiSb7
_symmetry_space_group_name_H-M   'P 1'
_cell_length_a   7.88452971
_cell_length_b   8.91620074
_cell_length_c   12.09942254
_cell_angle_alpha   89.96954596
_cell_angle_beta   90.10538117
_cell_angle_gamma   89.96480668
_symmetry_Int_Tables_number   1
_chemical_formula_structural   Ce8Dy12Co4BiSb7
_chemical_formula_sum   'Ce8 Dy12 Co4 Bi1 Sb7'
_cell_volume   850.58828484
_cell_formula_units_Z   1
loop_
 _symmetry_equiv_pos_site_id
 _symmetry_equiv_pos_as_xyz
  1  'x, y, z'
loop_
 _atom_site_type_symbol
 _atom_site_label
 _atom_site_symmetry_multiplicity
 _atom_site_fract_x
 _atom_site_fract_y
 _atom_site_fract_z
 _atom_site_occupancy
  Ce  Ce0  1  0.656626  0.016126  0.552025  1
  Ce  Ce1  1  0.342927  0.983612  0.445295  1
  Ce  Ce2  1  0.158036  0.984392  0.949759  1
  Ce  Ce3  1  0.343217  0.515514  0.446806  1
  Ce  Ce4  1  0.841501  0.016520  0.054076  1
  Ce  Ce5  1  0.657410  0.483765  0.552761  1
  Ce  Ce6  1  0.842143  0.484324  0.052980  1
  Ce  Ce7  1  0.157167  0.515956  0.947510  1
  Dy  Dy8  1  0.831241  0.746479  0.788355  1
  Dy  Dy9  1  0.166860  0.249836  0.212710  1
  Dy  Dy10  1  0.336328  0.253405  0.712353  1
  Dy  Dy11  1  0.666690  0.750373  0.286362  1
  Dy  Dy12  1  0.365554  0.747010  0.705226  1
  Dy  Dy13  1  0.637808  0.249781  0.294302  1
  Dy  Dy14  1  0.860934  0.253565  0.795754  1
  Dy  Dy15  1  0.137905  0.750328  0.205526  1
  Dy  Dy16  1  0.979294  0.747305  0.498079  1
  Dy  Dy17  1  0.019713  0.252698  0.499148  1
  Dy  Dy18  1  0.480462  0.249610  0.000663  1
  Dy  Dy19  1  0.519166  0.750613  0.999681  1
  Co  Co20  1  0.627944  0.750284  0.539330  1
  Co  Co21  1  0.371720  0.248231  0.459497  1
  Co  Co22  1  0.128104  0.248756  0.960918  1
  Co  Co23  1  0.871125  0.751339  0.040116  1
  Bi  Bi24  1  0.066673  0.993594  0.674763  1
  Sb  Sb25  1  0.566033  0.493783  0.827630  1
  Sb  Sb26  1  0.433623  0.506024  0.173460  1
  Sb  Sb27  1  0.066765  0.506254  0.673565  1
  Sb  Sb28  1  0.433636  0.994180  0.173561  1
  Sb  Sb29  1  0.933195  0.493946  0.325099  1
  Sb  Sb30  1  0.566573  0.006237  0.825913  1
  Sb  Sb31  1  0.933626  0.006158  0.326776  1
