# generated using pymatgen
data_NaTmNi9P7Ir3
_symmetry_space_group_name_H-M   'P 1'
_cell_length_a   9.19594700
_cell_length_b   9.19594750
_cell_length_c   3.74016500
_cell_angle_alpha   90.00000000
_cell_angle_beta   90.00000000
_cell_angle_gamma   120.00000181
_symmetry_Int_Tables_number   1
_chemical_formula_structural   NaTmNi9P7Ir3
_chemical_formula_sum   'Na1 Tm1 Ni9 P7 Ir3'
_cell_volume   273.91406199
_cell_formula_units_Z   1
loop_
 _symmetry_equiv_pos_site_id
 _symmetry_equiv_pos_as_xyz
  1  'x, y, z'
loop_
 _atom_site_type_symbol
 _atom_site_label
 _atom_site_symmetry_multiplicity
 _atom_site_fract_x
 _atom_site_fract_y
 _atom_site_fract_z
 _atom_site_occupancy
  Na  Na0  1  0.333333  0.666667  0.000000  1
  Tm  Tm1  1  0.666667  0.333333  0.500000  1
  Ni  Ni2  1  0.430518  0.065101  0.000000  1
  Ni  Ni3  1  0.634583  0.569482  0.000000  1
  Ni  Ni4  1  0.934899  0.365417  0.000000  1
  Ni  Ni5  1  0.154254  0.273251  0.000000  1
  Ni  Ni6  1  0.118997  0.845746  0.000000  1
  Ni  Ni7  1  0.726749  0.881003  0.000000  1
  Ni  Ni8  1  0.195241  0.073036  0.500000  1
  Ni  Ni9  1  0.877795  0.804759  0.500000  1
  Ni  Ni10  1  0.926964  0.122205  0.500000  1
  P  P11  1  0.000000  0.000000  0.000000  1
  P  P12  1  0.413874  0.293787  0.000000  1
  P  P13  1  0.879915  0.586126  0.000000  1
  P  P14  1  0.706213  0.120085  0.000000  1
  P  P15  1  0.111098  0.401991  0.500000  1
  P  P16  1  0.290893  0.888902  0.500000  1
  P  P17  1  0.598009  0.709107  0.500000  1
  Ir  Ir18  1  0.386634  0.426796  0.500000  1
  Ir  Ir19  1  0.040162  0.613366  0.500000  1
  Ir  Ir20  1  0.573204  0.959838  0.500000  1
