# generated using pymatgen
data_Ho3Ga3Ge2Ir
_symmetry_space_group_name_H-M   'P 1'
_cell_length_a   7.00372000
_cell_length_b   7.00371962
_cell_length_c   4.18143400
_cell_angle_alpha   90.00000000
_cell_angle_beta   90.00000000
_cell_angle_gamma   120.00000180
_symmetry_Int_Tables_number   1
_chemical_formula_structural   Ho3Ga3Ge2Ir
_chemical_formula_sum   'Ho3 Ga3 Ge2 Ir1'
_cell_volume   177.62880610
_cell_formula_units_Z   1
loop_
 _symmetry_equiv_pos_site_id
 _symmetry_equiv_pos_as_xyz
  1  'x, y, z'
loop_
 _atom_site_type_symbol
 _atom_site_label
 _atom_site_symmetry_multiplicity
 _atom_site_fract_x
 _atom_site_fract_y
 _atom_site_fract_z
 _atom_site_occupancy
  Ho  Ho0  1  0.411220  0.000000  0.000000  1
  Ho  Ho1  1  0.000000  0.411219  0.000000  1
  Ho  Ho2  1  0.588781  0.588781  0.000000  1
  Ga  Ga3  1  0.767538  0.000000  0.500001  1
  Ga  Ga4  1  0.232461  0.232461  0.500001  1
  Ga  Ga5  1  0.000000  0.767539  0.500001  1
  Ge  Ge6  1  0.666667  0.333333  0.500001  1
  Ge  Ge7  1  0.333333  0.666667  0.500001  1
  Ir  Ir8  1  0.000000  0.000000  0.000000  1
