# generated using pymatgen
data_Ho4Ga18Ir5Au
_symmetry_space_group_name_H-M   'P 1'
_cell_length_a   7.62237190
_cell_length_b   7.62237153
_cell_length_c   9.50015844
_cell_angle_alpha   89.98261703
_cell_angle_beta   89.98261663
_cell_angle_gamma   119.87225462
_symmetry_Int_Tables_number   1
_chemical_formula_structural   Ho4Ga18Ir5Au
_chemical_formula_sum   'Ho4 Ga18 Ir5 Au1'
_cell_volume   478.62927063
_cell_formula_units_Z   1
loop_
 _symmetry_equiv_pos_site_id
 _symmetry_equiv_pos_as_xyz
  1  'x, y, z'
loop_
 _atom_site_type_symbol
 _atom_site_label
 _atom_site_symmetry_multiplicity
 _atom_site_fract_x
 _atom_site_fract_y
 _atom_site_fract_z
 _atom_site_occupancy
  Ho  Ho0  1  0.994597  0.666766  0.251112  1
  Ho  Ho1  1  0.000770  0.329777  0.748925  1
  Ho  Ho2  1  0.670223  0.999230  0.251075  1
  Ho  Ho3  1  0.333234  0.005403  0.748888  1
  Ga  Ga4  1  0.126844  0.124466  0.250847  1
  Ga  Ga5  1  0.875534  0.873156  0.749153  1
  Ga  Ga6  1  0.008417  0.334429  0.084520  1
  Ga  Ga7  1  0.010206  0.674035  0.916211  1
  Ga  Ga8  1  0.002750  0.665883  0.579254  1
  Ga  Ga9  1  0.334117  0.997250  0.420746  1
  Ga  Ga10  1  0.998480  0.334462  0.419926  1
  Ga  Ga11  1  0.665538  0.001520  0.580074  1
  Ga  Ga12  1  0.665571  0.991583  0.915480  1
  Ga  Ga13  1  0.325965  0.989794  0.083789  1
  Ga  Ga14  1  0.329884  0.330645  0.564777  1
  Ga  Ga15  1  0.669355  0.670116  0.435223  1
  Ga  Ga16  1  0.668306  0.675936  0.071275  1
  Ga  Ga17  1  0.324064  0.331694  0.928725  1
  Ga  Ga18  1  0.340652  0.549244  0.251282  1
  Ga  Ga19  1  0.660273  0.459282  0.743413  1
  Ga  Ga20  1  0.540718  0.339727  0.256587  1
  Ga  Ga21  1  0.450756  0.659348  0.748718  1
  Ir  Ir22  1  0.330243  0.669757  0.000000  1
  Ir  Ir23  1  0.328743  0.671257  0.500000  1
  Ir  Ir24  1  0.671976  0.328024  0.500000  1
  Ir  Ir25  1  0.000608  0.999392  0.000000  1
  Ir  Ir26  1  0.999695  0.000305  0.500000  1
  Au  Au27  1  0.672482  0.327518  0.000000  1
