# generated using pymatgen
data_Ce3Sc(ZnRh2)4
_symmetry_space_group_name_H-M   'P 1'
_cell_length_a   6.08033800
_cell_length_b   6.08043700
_cell_length_c   7.20523000
_cell_angle_alpha   90.00000000
_cell_angle_beta   90.00000000
_cell_angle_gamma   90.00000000
_symmetry_Int_Tables_number   1
_chemical_formula_structural   Ce3Sc(ZnRh2)4
_chemical_formula_sum   'Ce3 Sc1 Zn4 Rh8'
_cell_volume   266.38536638
_cell_formula_units_Z   1
loop_
 _symmetry_equiv_pos_site_id
 _symmetry_equiv_pos_as_xyz
  1  'x, y, z'
loop_
 _atom_site_type_symbol
 _atom_site_label
 _atom_site_symmetry_multiplicity
 _atom_site_fract_x
 _atom_site_fract_y
 _atom_site_fract_z
 _atom_site_occupancy
  Ce  Ce0  1  0.750067  0.250000  0.000000  1
  Ce  Ce1  1  0.249921  0.750000  0.000000  1
  Ce  Ce2  1  0.749945  0.250000  0.499998  1
  Sc  Sc3  1  0.250094  0.750000  0.500001  1
  Zn  Zn4  1  0.250006  0.250000  0.000000  1
  Zn  Zn5  1  0.749987  0.750000  0.000000  1
  Zn  Zn6  1  0.250004  0.250000  0.499996  1
  Zn  Zn7  1  0.749964  0.750000  0.500004  1
  Rh  Rh8  1  0.498403  0.998399  0.254191  1
  Rh  Rh9  1  0.498403  0.501597  0.254191  1
  Rh  Rh10  1  0.001598  0.998383  0.254298  1
  Rh  Rh11  1  0.001598  0.501621  0.254298  1
  Rh  Rh12  1  0.001598  0.998383  0.745702  1
  Rh  Rh13  1  0.001598  0.501613  0.745702  1
  Rh  Rh14  1  0.498405  0.998399  0.745809  1
  Rh  Rh15  1  0.498405  0.501605  0.745809  1
