# generated using pymatgen
data_PrGa4Ru
_symmetry_space_group_name_H-M   'P 1'
_cell_length_a   7.70023000
_cell_length_b   8.84987700
_cell_length_c   9.78919400
_cell_angle_alpha   90.00000000
_cell_angle_beta   90.00000000
_cell_angle_gamma   90.00000000
_symmetry_Int_Tables_number   1
_chemical_formula_structural   PrGa4Ru
_chemical_formula_sum   'Pr6 Ga24 Ru6'
_cell_volume   667.09527941
_cell_formula_units_Z   6
loop_
 _symmetry_equiv_pos_site_id
 _symmetry_equiv_pos_as_xyz
  1  'x, y, z'
loop_
 _atom_site_type_symbol
 _atom_site_label
 _atom_site_symmetry_multiplicity
 _atom_site_fract_x
 _atom_site_fract_y
 _atom_site_fract_z
 _atom_site_occupancy
  Pr  Pr0  1  0.315161  0.500000  0.750000  1
  Pr  Pr1  1  0.684839  0.500000  0.250000  1
  Pr  Pr2  1  0.841722  0.252122  0.750000  1
  Pr  Pr3  1  0.158278  0.747878  0.250000  1
  Pr  Pr4  1  0.841722  0.747878  0.750000  1
  Pr  Pr5  1  0.158278  0.252122  0.250000  1
  Ga  Ga6  1  0.180132  0.234162  0.574347  1
  Ga  Ga7  1  0.819868  0.765838  0.425653  1
  Ga  Ga8  1  0.180132  0.765838  0.925653  1
  Ga  Ga9  1  0.819868  0.234162  0.425653  1
  Ga  Ga10  1  0.819868  0.234162  0.074347  1
  Ga  Ga11  1  0.180132  0.765838  0.574347  1
  Ga  Ga12  1  0.819868  0.765838  0.074347  1
  Ga  Ga13  1  0.180132  0.234162  0.925653  1
  Ga  Ga14  1  0.127942  0.000000  0.750000  1
  Ga  Ga15  1  0.872058  0.000000  0.250000  1
  Ga  Ga16  1  0.339731  0.000000  0.062925  1
  Ga  Ga17  1  0.660269  0.000000  0.937075  1
  Ga  Ga18  1  0.339731  0.000000  0.437075  1
  Ga  Ga19  1  0.660269  0.000000  0.562925  1
  Ga  Ga20  1  0.453981  0.158056  0.750000  1
  Ga  Ga21  1  0.546019  0.841944  0.250000  1
  Ga  Ga22  1  0.453981  0.841944  0.750000  1
  Ga  Ga23  1  0.546019  0.158056  0.250000  1
  Ga  Ga24  1  0.654759  0.500000  0.585107  1
  Ga  Ga25  1  0.345241  0.500000  0.414893  1
  Ga  Ga26  1  0.654759  0.500000  0.914893  1
  Ga  Ga27  1  0.345241  0.500000  0.085107  1
  Ga  Ga28  1  0.000000  0.500000  0.500000  1
  Ga  Ga29  1  0.000000  0.500000  0.000000  1
  Ru  Ru30  1  0.500000  0.259419  0.500000  1
  Ru  Ru31  1  0.500000  0.740581  0.500000  1
  Ru  Ru32  1  0.500000  0.740581  0.000000  1
  Ru  Ru33  1  0.500000  0.259419  0.000000  1
  Ru  Ru34  1  0.000000  0.000000  0.500000  1
  Ru  Ru35  1  0.000000  0.000000  0.000000  1
