# generated using pymatgen
data_Sr4Pa5InO18
_symmetry_space_group_name_H-M   'P 1'
_cell_length_a   6.93165877
_cell_length_b   7.86588555
_cell_length_c   8.82479800
_cell_angle_alpha   101.79904350
_cell_angle_beta   98.02646562
_cell_angle_gamma   106.99837099
_symmetry_Int_Tables_number   1
_chemical_formula_structural   Sr4Pa5InO18
_chemical_formula_sum   'Sr4 Pa5 In1 O18'
_cell_volume   440.07927262
_cell_formula_units_Z   1
loop_
 _symmetry_equiv_pos_site_id
 _symmetry_equiv_pos_as_xyz
  1  'x, y, z'
loop_
 _atom_site_type_symbol
 _atom_site_label
 _atom_site_symmetry_multiplicity
 _atom_site_fract_x
 _atom_site_fract_y
 _atom_site_fract_z
 _atom_site_occupancy
  Sr  Sr0  1  0.811003  0.112909  0.599077  1
  Sr  Sr1  1  0.587288  0.687143  0.189417  1
  Sr  Sr2  1  0.412712  0.312857  0.810583  1
  Sr  Sr3  1  0.188997  0.887091  0.400923  1
  Pa  Pa4  1  0.000000  0.000000  0.000000  1
  Pa  Pa5  1  0.792441  0.586533  0.582772  1
  Pa  Pa6  1  0.634011  0.192067  0.199623  1
  Pa  Pa7  1  0.365989  0.807933  0.800377  1
  Pa  Pa8  1  0.207559  0.413467  0.417228  1
  In  In9  1  0.000000  0.500000  0.000000  1
  O  O10  1  0.815072  0.785964  0.457345  1
  O  O11  1  0.992418  0.180607  0.214767  1
  O  O12  1  0.705362  0.394768  0.073411  1
  O  O13  1  0.462979  0.005354  0.683911  1
  O  O14  1  0.857800  0.345070  0.435521  1
  O  O15  1  0.504353  0.395716  0.346631  1
  O  O16  1  0.208870  0.566819  0.246416  1
  O  O17  1  0.977311  0.776823  0.107633  1
  O  O18  1  0.658770  0.933846  0.992223  1
  O  O19  1  0.341230  0.066154  0.007777  1
  O  O20  1  0.022689  0.223177  0.892367  1
  O  O21  1  0.791130  0.433181  0.753584  1
  O  O22  1  0.495647  0.604284  0.653369  1
  O  O23  1  0.142200  0.654930  0.564479  1
  O  O24  1  0.537021  0.994646  0.316089  1
  O  O25  1  0.294638  0.605232  0.926589  1
  O  O26  1  0.007582  0.819393  0.785233  1
  O  O27  1  0.184928  0.214036  0.542655  1
