# generated using pymatgen
data_Ca2PuO5
_symmetry_space_group_name_H-M   'P 1'
_cell_length_a   5.45335800
_cell_length_b   7.93323614
_cell_length_c   11.48607973
_cell_angle_alpha   71.54082466
_cell_angle_beta   90.00000000
_cell_angle_gamma   90.00000000
_symmetry_Int_Tables_number   1
_chemical_formula_structural   Ca2PuO5
_chemical_formula_sum   'Ca8 Pu4 O20'
_cell_volume   471.35293753
_cell_formula_units_Z   4
loop_
 _symmetry_equiv_pos_site_id
 _symmetry_equiv_pos_as_xyz
  1  'x, y, z'
loop_
 _atom_site_type_symbol
 _atom_site_label
 _atom_site_symmetry_multiplicity
 _atom_site_fract_x
 _atom_site_fract_y
 _atom_site_fract_z
 _atom_site_occupancy
  Ca  Ca0  1  0.935963  0.155295  0.681648  1
  Ca  Ca1  1  0.435963  0.844705  0.818352  1
  Ca  Ca2  1  0.064037  0.844705  0.318352  1
  Ca  Ca3  1  0.564037  0.155295  0.181648  1
  Ca  Ca4  1  0.494551  0.348286  0.860773  1
  Ca  Ca5  1  0.994551  0.651714  0.639227  1
  Ca  Ca6  1  0.505449  0.651714  0.139227  1
  Ca  Ca7  1  0.005449  0.348286  0.360773  1
  Pu  Pu8  1  0.000000  0.000000  0.000000  1
  Pu  Pu9  1  0.500000  0.000000  0.500000  1
  Pu  Pu10  1  0.000000  0.500000  0.000000  1
  Pu  Pu11  1  0.500000  0.500000  0.500000  1
  O  O12  1  0.676641  0.250360  0.502338  1
  O  O13  1  0.176641  0.749640  0.997662  1
  O  O14  1  0.323359  0.749640  0.497662  1
  O  O15  1  0.823359  0.250360  0.002338  1
  O  O16  1  0.753928  0.014154  0.368836  1
  O  O17  1  0.253928  0.985846  0.131164  1
  O  O18  1  0.246072  0.985846  0.631164  1
  O  O19  1  0.746072  0.014154  0.868836  1
  O  O20  1  0.802002  0.612843  0.427205  1
  O  O21  1  0.302002  0.387157  0.072795  1
  O  O22  1  0.197998  0.387157  0.572795  1
  O  O23  1  0.697998  0.612843  0.927205  1
  O  O24  1  0.676128  0.444883  0.673167  1
  O  O25  1  0.176128  0.555117  0.826833  1
  O  O26  1  0.323872  0.555117  0.326833  1
  O  O27  1  0.823872  0.444883  0.173167  1
  O  O28  1  0.717278  0.880201  0.642153  1
  O  O29  1  0.217278  0.119799  0.857847  1
  O  O30  1  0.282722  0.119799  0.357847  1
  O  O31  1  0.782722  0.880201  0.142153  1
