# generated using pymatgen
data_Ba(Ti3Te4)4
_symmetry_space_group_name_H-M   'P 1'
_cell_length_a   7.63903283
_cell_length_b   10.63350925
_cell_length_c   11.27594505
_cell_angle_alpha   118.03047795
_cell_angle_beta   109.72984365
_cell_angle_gamma   90.07339479
_symmetry_Int_Tables_number   1
_chemical_formula_structural   Ba(Ti3Te4)4
_chemical_formula_sum   'Ba1 Ti12 Te16'
_cell_volume   746.80626155
_cell_formula_units_Z   1
loop_
 _symmetry_equiv_pos_site_id
 _symmetry_equiv_pos_as_xyz
  1  'x, y, z'
loop_
 _atom_site_type_symbol
 _atom_site_label
 _atom_site_symmetry_multiplicity
 _atom_site_fract_x
 _atom_site_fract_y
 _atom_site_fract_z
 _atom_site_occupancy
  Ba  Ba0  1  0.500000  0.000000  0.000000  1
  Ti  Ti1  1  0.124202  0.126616  0.493613  1
  Ti  Ti2  1  0.620381  0.125541  0.494048  1
  Ti  Ti3  1  0.310977  0.368504  0.874531  1
  Ti  Ti4  1  0.812806  0.367448  0.872990  1
  Ti  Ti5  1  0.188470  0.506164  0.631155  1
  Ti  Ti6  1  0.693817  0.506161  0.632947  1
  Ti  Ti7  1  0.379619  0.874459  0.505952  1
  Ti  Ti8  1  0.875798  0.873384  0.506387  1
  Ti  Ti9  1  0.187194  0.632552  0.127010  1
  Ti  Ti10  1  0.689023  0.631496  0.125469  1
  Ti  Ti11  1  0.306183  0.493839  0.367053  1
  Ti  Ti12  1  0.811530  0.493836  0.368845  1
  Te  Te13  1  0.729947  0.052673  0.708806  1
  Te  Te14  1  0.226843  0.052415  0.707132  1
  Te  Te15  1  0.849235  0.655904  0.947541  1
  Te  Te16  1  0.346672  0.655548  0.947669  1
  Te  Te17  1  0.545255  0.292622  0.345071  1
  Te  Te18  1  0.047014  0.290523  0.343036  1
  Te  Te19  1  0.773157  0.947585  0.292868  1
  Te  Te20  1  0.270053  0.947327  0.291194  1
  Te  Te21  1  0.653328  0.344452  0.052331  1
  Te  Te22  1  0.150765  0.344096  0.052459  1
  Te  Te23  1  0.952986  0.709477  0.656964  1
  Te  Te24  1  0.454745  0.707378  0.654929  1
  Te  Te25  1  0.957804  0.332368  0.665792  1
  Te  Te26  1  0.458600  0.334319  0.667084  1
  Te  Te27  1  0.541400  0.665681  0.332916  1
  Te  Te28  1  0.042196  0.667632  0.334208  1
