# generated using pymatgen
data_Tb7Yb(Ga3Pd)4
_symmetry_space_group_name_H-M   'P 1'
_cell_length_a   8.96094800
_cell_length_b   8.93852037
_cell_length_c   7.05511700
_cell_angle_alpha   90.00000000
_cell_angle_beta   90.00000000
_cell_angle_gamma   120.08304248
_symmetry_Int_Tables_number   1
_chemical_formula_structural   Tb7Yb(Ga3Pd)4
_chemical_formula_sum   'Tb7 Yb1 Ga12 Pd4'
_cell_volume   488.97924011
_cell_formula_units_Z   1
loop_
 _symmetry_equiv_pos_site_id
 _symmetry_equiv_pos_as_xyz
  1  'x, y, z'
loop_
 _atom_site_type_symbol
 _atom_site_label
 _atom_site_symmetry_multiplicity
 _atom_site_fract_x
 _atom_site_fract_y
 _atom_site_fract_z
 _atom_site_occupancy
  Tb  Tb0  1  0.483410  0.966820  0.750000  1
  Tb  Tb1  1  0.963351  0.481710  0.250000  1
  Tb  Tb2  1  0.035736  0.517336  0.750000  1
  Tb  Tb3  1  0.518359  0.481710  0.250000  1
  Tb  Tb4  1  0.481600  0.517336  0.750000  1
  Tb  Tb5  1  0.998896  0.997795  0.250000  1
  Tb  Tb6  1  0.999650  0.999300  0.750000  1
  Yb  Yb7  1  0.517705  0.035407  0.250000  1
  Ga  Ga8  1  0.167053  0.334106  0.045165  1
  Ga  Ga9  1  0.832915  0.665831  0.955293  1
  Ga  Ga10  1  0.665192  0.833254  0.044662  1
  Ga  Ga11  1  0.832915  0.665831  0.544707  1
  Ga  Ga12  1  0.334633  0.167342  0.954844  1
  Ga  Ga13  1  0.167053  0.334106  0.454835  1
  Ga  Ga14  1  0.168061  0.833254  0.044662  1
  Ga  Ga15  1  0.334633  0.167342  0.545156  1
  Ga  Ga16  1  0.832709  0.167342  0.954844  1
  Ga  Ga17  1  0.665192  0.833254  0.455338  1
  Ga  Ga18  1  0.832709  0.167342  0.545156  1
  Ga  Ga19  1  0.168061  0.833254  0.455338  1
  Pd  Pd20  1  0.333098  0.666196  0.027757  1
  Pd  Pd21  1  0.666985  0.333968  0.971002  1
  Pd  Pd22  1  0.666985  0.333968  0.528998  1
  Pd  Pd23  1  0.333098  0.666196  0.472243  1
