# generated using pymatgen
data_Tb4Eu2BiO12
_symmetry_space_group_name_H-M   'P 1'
_cell_length_a   6.54812735
_cell_length_b   6.53860007
_cell_length_c   6.59931100
_cell_angle_alpha   98.61072529
_cell_angle_beta   98.93409667
_cell_angle_gamma   98.61607219
_symmetry_Int_Tables_number   1
_chemical_formula_structural   Tb4Eu2BiO12
_chemical_formula_sum   'Tb4 Eu2 Bi1 O12'
_cell_volume   271.61238141
_cell_formula_units_Z   1
loop_
 _symmetry_equiv_pos_site_id
 _symmetry_equiv_pos_as_xyz
  1  'x, y, z'
loop_
 _atom_site_type_symbol
 _atom_site_label
 _atom_site_symmetry_multiplicity
 _atom_site_fract_x
 _atom_site_fract_y
 _atom_site_fract_z
 _atom_site_occupancy
  Tb  Tb0  1  0.142404  0.307183  0.611823  1
  Tb  Tb1  1  0.389702  0.858404  0.697245  1
  Tb  Tb2  1  0.690856  0.390624  0.858624  1
  Tb  Tb3  1  0.301510  0.607249  0.135848  1
  Eu  Eu4  1  0.601116  0.142163  0.308294  1
  Eu  Eu5  1  0.861817  0.695215  0.396983  1
  Bi  Bi6  1  0.998752  0.000818  0.000385  1
  O  O7  1  0.070018  0.315962  0.951746  1
  O  O8  1  0.053647  0.937544  0.687184  1
  O  O9  1  0.413189  0.563661  0.822925  1
  O  O10  1  0.177822  0.588363  0.434575  1
  O  O11  1  0.684308  0.048013  0.925331  1
  O  O12  1  0.435456  0.176958  0.588502  1
  O  O13  1  0.564932  0.820977  0.411293  1
  O  O14  1  0.316323  0.946132  0.062714  1
  O  O15  1  0.822463  0.412245  0.568725  1
  O  O16  1  0.585508  0.432743  0.180035  1
  O  O17  1  0.958066  0.072642  0.314836  1
  O  O18  1  0.932113  0.683103  0.042932  1
