# generated using pymatgen
data_YPa3(CoP)4
_symmetry_space_group_name_H-M   'P 1'
_cell_length_a   3.88646400
_cell_length_b   3.88646402
_cell_length_c   15.25666200
_cell_angle_alpha   90.00000000
_cell_angle_beta   90.00000000
_cell_angle_gamma   120.00001686
_symmetry_Int_Tables_number   1
_chemical_formula_structural   YPa3(CoP)4
_chemical_formula_sum   'Y1 Pa3 Co4 P4'
_cell_volume   199.57189606
_cell_formula_units_Z   1
loop_
 _symmetry_equiv_pos_site_id
 _symmetry_equiv_pos_as_xyz
  1  'x, y, z'
loop_
 _atom_site_type_symbol
 _atom_site_label
 _atom_site_symmetry_multiplicity
 _atom_site_fract_x
 _atom_site_fract_y
 _atom_site_fract_z
 _atom_site_occupancy
  Y  Y0  1  0.000000  0.000000  0.750000  1
  Pa  Pa1  1  0.000000  0.000000  0.250000  1
  Pa  Pa2  1  0.000000  0.000000  0.000337  1
  Pa  Pa3  1  0.000000  0.000000  0.499663  1
  Co  Co4  1  0.333333  0.666667  0.119429  1
  Co  Co5  1  0.666667  0.333333  0.893758  1
  Co  Co6  1  0.666667  0.333333  0.606242  1
  Co  Co7  1  0.333333  0.666667  0.380571  1
  P  P8  1  0.333333  0.666667  0.629441  1
  P  P9  1  0.666667  0.333333  0.369200  1
  P  P10  1  0.666667  0.333333  0.130800  1
  P  P11  1  0.333333  0.666667  0.870559  1
