# generated using pymatgen
data_Dy3Tm(InGa2)2
_symmetry_space_group_name_H-M   'P 1'
_cell_length_a   7.20546365
_cell_length_b   7.20546365
_cell_length_c   4.43036300
_cell_angle_alpha   90.00000000
_cell_angle_beta   90.00000000
_cell_angle_gamma   89.58326570
_symmetry_Int_Tables_number   1
_chemical_formula_structural   Dy3Tm(InGa2)2
_chemical_formula_sum   'Dy3 Tm1 In2 Ga4'
_cell_volume   230.01263155
_cell_formula_units_Z   1
loop_
 _symmetry_equiv_pos_site_id
 _symmetry_equiv_pos_as_xyz
  1  'x, y, z'
loop_
 _atom_site_type_symbol
 _atom_site_label
 _atom_site_symmetry_multiplicity
 _atom_site_fract_x
 _atom_site_fract_y
 _atom_site_fract_z
 _atom_site_occupancy
  Dy  Dy0  1  0.828369  0.671631  0.500000  1
  Dy  Dy1  1  0.327057  0.827682  0.500000  1
  Dy  Dy2  1  0.672318  0.172943  0.500000  1
  Tm  Tm3  1  0.172151  0.327849  0.500000  1
  In  In4  1  0.000299  0.000232  0.000000  1
  In  In5  1  0.499768  0.499701  0.000000  1
  Ga  Ga6  1  0.126454  0.625142  0.000000  1
  Ga  Ga7  1  0.874858  0.373546  0.000000  1
  Ga  Ga8  1  0.372709  0.127291  0.000000  1
  Ga  Ga9  1  0.626017  0.873983  0.000000  1
