# generated using pymatgen
data_Ac2CdRhAu
_symmetry_space_group_name_H-M   'P 1'
_cell_length_a   8.17705400
_cell_length_b   8.20328900
_cell_length_c   4.11237800
_cell_angle_alpha   90.00000000
_cell_angle_beta   90.00000000
_cell_angle_gamma   90.00000000
_symmetry_Int_Tables_number   1
_chemical_formula_structural   Ac2CdRhAu
_chemical_formula_sum   'Ac4 Cd2 Rh2 Au2'
_cell_volume   275.85312284
_cell_formula_units_Z   2
loop_
 _symmetry_equiv_pos_site_id
 _symmetry_equiv_pos_as_xyz
  1  'x, y, z'
loop_
 _atom_site_type_symbol
 _atom_site_label
 _atom_site_symmetry_multiplicity
 _atom_site_fract_x
 _atom_site_fract_y
 _atom_site_fract_z
 _atom_site_occupancy
  Ac  Ac0  1  0.825061  0.685021  0.500000  1
  Ac  Ac1  1  0.325061  0.814979  0.500000  1
  Ac  Ac2  1  0.672975  0.150681  0.500000  1
  Ac  Ac3  1  0.172975  0.349319  0.500000  1
  Cd  Cd4  1  0.999920  0.993918  0.000000  1
  Cd  Cd5  1  0.499920  0.506082  0.000000  1
  Rh  Rh6  1  0.638503  0.874621  0.000000  1
  Rh  Rh7  1  0.138503  0.625379  0.000000  1
  Au  Au8  1  0.863540  0.380182  0.000000  1
  Au  Au9  1  0.363540  0.119818  0.000000  1
