# generated using pymatgen
data_Tb4V3TcB16
_symmetry_space_group_name_H-M   'P 1'
_cell_length_a   3.51637800
_cell_length_b   6.00048902
_cell_length_c   11.61543603
_cell_angle_alpha   90.00827307
_cell_angle_beta   90.00000000
_cell_angle_gamma   90.00000000
_symmetry_Int_Tables_number   1
_chemical_formula_structural   Tb4V3TcB16
_chemical_formula_sum   'Tb4 V3 Tc1 B16'
_cell_volume   245.08555323
_cell_formula_units_Z   1
loop_
 _symmetry_equiv_pos_site_id
 _symmetry_equiv_pos_as_xyz
  1  'x, y, z'
loop_
 _atom_site_type_symbol
 _atom_site_label
 _atom_site_symmetry_multiplicity
 _atom_site_fract_x
 _atom_site_fract_y
 _atom_site_fract_z
 _atom_site_occupancy
  Tb  Tb0  1  0.000000  0.123371  0.150243  1
  Tb  Tb1  1  0.000000  0.875967  0.848959  1
  Tb  Tb2  1  0.000000  0.626138  0.348101  1
  Tb  Tb3  1  0.000000  0.375138  0.651139  1
  V  V4  1  0.000000  0.872704  0.581477  1
  V  V5  1  0.000000  0.626275  0.083723  1
  V  V6  1  0.000000  0.374024  0.917845  1
  Tc  Tc7  1  0.000000  0.127118  0.417417  1
  B  B8  1  0.500000  0.475860  0.192211  1
  B  B9  1  0.500000  0.523827  0.807900  1
  B  B10  1  0.500000  0.976586  0.308143  1
  B  B11  1  0.500000  0.023250  0.691896  1
  B  B12  1  0.500000  0.283622  0.315505  1
  B  B13  1  0.500000  0.715943  0.684944  1
  B  B14  1  0.500000  0.784920  0.185556  1
  B  B15  1  0.500000  0.214933  0.814570  1
  B  B16  1  0.500000  0.364103  0.467987  1
  B  B17  1  0.500000  0.635624  0.532231  1
  B  B18  1  0.500000  0.863747  0.032698  1
  B  B19  1  0.500000  0.136265  0.967241  1
  B  B20  1  0.500000  0.385912  0.047228  1
  B  B21  1  0.500000  0.614556  0.952815  1
  B  B22  1  0.500000  0.886425  0.453007  1
  B  B23  1  0.500000  0.113692  0.547163  1
