# generated using pymatgen
data_Zn22FePt2
_symmetry_space_group_name_H-M   'P 1'
_cell_length_a   7.77078945
_cell_length_b   7.77078956
_cell_length_c   7.77925103
_cell_angle_alpha   72.07862796
_cell_angle_beta   72.07862719
_cell_angle_gamma   58.24400056
_symmetry_Int_Tables_number   1
_chemical_formula_structural   Zn22FePt2
_chemical_formula_sum   'Zn22 Fe1 Pt2'
_cell_volume   373.82881177
_cell_formula_units_Z   1
loop_
 _symmetry_equiv_pos_site_id
 _symmetry_equiv_pos_as_xyz
  1  'x, y, z'
loop_
 _atom_site_type_symbol
 _atom_site_label
 _atom_site_symmetry_multiplicity
 _atom_site_fract_x
 _atom_site_fract_y
 _atom_site_fract_z
 _atom_site_occupancy
  Zn  Zn0  1  0.333432  0.745137  0.317614  1
  Zn  Zn1  1  0.666568  0.254863  0.682386  1
  Zn  Zn2  1  0.254863  0.666568  0.682386  1
  Zn  Zn3  1  0.745137  0.333432  0.317614  1
  Zn  Zn4  1  0.683358  0.316642  0.000000  1
  Zn  Zn5  1  0.316642  0.683358  0.000000  1
  Zn  Zn6  1  0.834501  0.834501  0.775996  1
  Zn  Zn7  1  0.165499  0.165499  0.224004  1
  Zn  Zn8  1  0.976158  0.976158  0.175744  1
  Zn  Zn9  1  0.023842  0.023842  0.824256  1
  Zn  Zn10  1  0.351808  0.351808  0.278610  1
  Zn  Zn11  1  0.648192  0.648192  0.721390  1
  Zn  Zn12  1  0.684015  0.684015  0.382021  1
  Zn  Zn13  1  0.315985  0.315985  0.617979  1
  Zn  Zn14  1  0.662685  0.021640  0.460888  1
  Zn  Zn15  1  0.337315  0.978360  0.539112  1
  Zn  Zn16  1  0.978360  0.337315  0.539112  1
  Zn  Zn17  1  0.021640  0.662685  0.460888  1
  Zn  Zn18  1  0.622838  0.997758  0.106735  1
  Zn  Zn19  1  0.377162  0.002242  0.893265  1
  Zn  Zn20  1  0.002242  0.377162  0.893265  1
  Zn  Zn21  1  0.997758  0.622838  0.106735  1
  Fe  Fe22  1  0.000000  0.000000  0.500000  1
  Pt  Pt23  1  0.657160  0.657160  0.056848  1
  Pt  Pt24  1  0.342840  0.342840  0.943152  1
