# generated using pymatgen
data_SmTm5C2Br7
_symmetry_space_group_name_H-M   'P 1'
_cell_length_a   10.41343353
_cell_length_b   10.41343320
_cell_length_c   12.09380385
_cell_angle_alpha   57.66556549
_cell_angle_beta   57.66556670
_cell_angle_gamma   20.85444644
_symmetry_Int_Tables_number   1
_chemical_formula_structural   SmTm5C2Br7
_chemical_formula_sum   'Sm1 Tm5 C2 Br7'
_cell_volume   391.79070248
_cell_formula_units_Z   1
loop_
 _symmetry_equiv_pos_site_id
 _symmetry_equiv_pos_as_xyz
  1  'x, y, z'
loop_
 _atom_site_type_symbol
 _atom_site_label
 _atom_site_symmetry_multiplicity
 _atom_site_fract_x
 _atom_site_fract_y
 _atom_site_fract_z
 _atom_site_occupancy
  Sm  Sm0  1  0.232892  0.232892  0.830022  1
  Tm  Tm1  1  0.311556  0.311556  0.370744  1
  Tm  Tm2  1  0.131075  0.131075  0.447811  1
  Tm  Tm3  1  0.867248  0.867248  0.554420  1
  Tm  Tm4  1  0.689203  0.689203  0.631086  1
  Tm  Tm5  1  0.765489  0.765489  0.179622  1
  C  C6  1  0.281733  0.281733  0.596504  1
  C  C7  1  0.718744  0.718744  0.399797  1
  Br  Br8  1  0.162840  0.162840  0.176193  1
  Br  Br9  1  0.846135  0.846135  0.817502  1
  Br  Br10  1  0.060739  0.060739  0.715253  1
  Br  Br11  1  0.939525  0.939525  0.282766  1
  Br  Br12  1  0.501684  0.501684  0.497098  1
  Br  Br13  1  0.383884  0.383884  0.077279  1
  Br  Br14  1  0.607253  0.607253  0.923904  1
