# generated using pymatgen
data_Dy3Be(SiIr3)2
_symmetry_space_group_name_H-M   'P 1'
_cell_length_a   5.53951100
_cell_length_b   5.53951103
_cell_length_c   14.95144800
_cell_angle_alpha   90.00000000
_cell_angle_beta   90.00000000
_cell_angle_gamma   120.00000577
_symmetry_Int_Tables_number   1
_chemical_formula_structural   Dy3Be(SiIr3)2
_chemical_formula_sum   'Dy6 Be2 Si4 Ir12'
_cell_volume   397.33490811
_cell_formula_units_Z   2
loop_
 _symmetry_equiv_pos_site_id
 _symmetry_equiv_pos_as_xyz
  1  'x, y, z'
loop_
 _atom_site_type_symbol
 _atom_site_label
 _atom_site_symmetry_multiplicity
 _atom_site_fract_x
 _atom_site_fract_y
 _atom_site_fract_z
 _atom_site_occupancy
  Dy  Dy0  1  0.333333  0.666667  0.538652  1
  Dy  Dy1  1  0.666667  0.333333  0.461348  1
  Dy  Dy2  1  0.666667  0.333333  0.038652  1
  Dy  Dy3  1  0.333333  0.666667  0.961348  1
  Dy  Dy4  1  0.333333  0.666667  0.750000  1
  Dy  Dy5  1  0.666667  0.333333  0.250000  1
  Be  Be6  1  0.000000  0.000000  0.250000  1
  Be  Be7  1  0.000000  0.000000  0.750000  1
  Si  Si8  1  0.333333  0.666667  0.250000  1
  Si  Si9  1  0.666667  0.333333  0.750000  1
  Si  Si10  1  0.000000  0.000000  0.000000  1
  Si  Si11  1  0.000000  0.000000  0.500000  1
  Ir  Ir12  1  0.164859  0.329718  0.131727  1
  Ir  Ir13  1  0.835141  0.670282  0.868273  1
  Ir  Ir14  1  0.670282  0.835141  0.131727  1
  Ir  Ir15  1  0.835141  0.670282  0.631727  1
  Ir  Ir16  1  0.329718  0.164859  0.868273  1
  Ir  Ir17  1  0.164859  0.329718  0.368273  1
  Ir  Ir18  1  0.164859  0.835141  0.131727  1
  Ir  Ir19  1  0.329718  0.164859  0.631727  1
  Ir  Ir20  1  0.835141  0.164859  0.868273  1
  Ir  Ir21  1  0.670282  0.835141  0.368273  1
  Ir  Ir22  1  0.835141  0.164859  0.631727  1
  Ir  Ir23  1  0.164859  0.835141  0.368273  1
