# generated using pymatgen
data_Y12Th4Cd4Ir3Ru
_symmetry_space_group_name_H-M   'P 1'
_cell_length_a   9.79597463
_cell_length_b   9.79597365
_cell_length_c   9.79597499
_cell_angle_alpha   59.74984951
_cell_angle_beta   59.74984994
_cell_angle_gamma   59.74984986
_symmetry_Int_Tables_number   1
_chemical_formula_structural   Y12Th4Cd4Ir3Ru
_chemical_formula_sum   'Y12 Th4 Cd4 Ir3 Ru1'
_cell_volume   660.92767162
_cell_formula_units_Z   1
loop_
 _symmetry_equiv_pos_site_id
 _symmetry_equiv_pos_as_xyz
  1  'x, y, z'
loop_
 _atom_site_type_symbol
 _atom_site_label
 _atom_site_symmetry_multiplicity
 _atom_site_fract_x
 _atom_site_fract_y
 _atom_site_fract_z
 _atom_site_occupancy
  Y  Y0  1  0.812228  0.188453  0.188453  1
  Y  Y1  1  0.186606  0.812138  0.812138  1
  Y  Y2  1  0.188453  0.812228  0.188453  1
  Y  Y3  1  0.812138  0.186606  0.812138  1
  Y  Y4  1  0.188453  0.188453  0.812228  1
  Y  Y5  1  0.812138  0.812138  0.186606  1
  Y  Y6  1  0.936634  0.564230  0.564230  1
  Y  Y7  1  0.563669  0.935638  0.935638  1
  Y  Y8  1  0.564230  0.936634  0.564230  1
  Y  Y9  1  0.935638  0.563669  0.935638  1
  Y  Y10  1  0.564230  0.564230  0.936634  1
  Y  Y11  1  0.935638  0.935638  0.563669  1
  Th  Th12  1  0.348782  0.348782  0.348782  1
  Th  Th13  1  0.347458  0.347458  0.954842  1
  Th  Th14  1  0.347458  0.954842  0.347458  1
  Th  Th15  1  0.954842  0.347458  0.347458  1
  Cd  Cd16  1  0.581794  0.581794  0.581794  1
  Cd  Cd17  1  0.581472  0.581472  0.252786  1
  Cd  Cd18  1  0.581472  0.252786  0.581472  1
  Cd  Cd19  1  0.252786  0.581472  0.581472  1
  Ir  Ir20  1  0.144242  0.144242  0.570008  1
  Ir  Ir21  1  0.144242  0.570008  0.144242  1
  Ir  Ir22  1  0.570008  0.144242  0.144242  1
  Ru  Ru23  1  0.145388  0.145388  0.145388  1
