# generated using pymatgen
data_Ta6Tc4B6IrRu
_symmetry_space_group_name_H-M   'P 1'
_cell_length_a   3.17976500
_cell_length_b   9.05582884
_cell_length_c   15.64223111
_cell_angle_alpha   90.13018359
_cell_angle_beta   90.00000000
_cell_angle_gamma   90.00000000
_symmetry_Int_Tables_number   1
_chemical_formula_structural   Ta6Tc4B6IrRu
_chemical_formula_sum   'Ta12 Tc8 B12 Ir2 Ru2'
_cell_volume   450.42325752
_cell_formula_units_Z   2
loop_
 _symmetry_equiv_pos_site_id
 _symmetry_equiv_pos_as_xyz
  1  'x, y, z'
loop_
 _atom_site_type_symbol
 _atom_site_label
 _atom_site_symmetry_multiplicity
 _atom_site_fract_x
 _atom_site_fract_y
 _atom_site_fract_z
 _atom_site_occupancy
  Ta  Ta0  1  0.000000  0.803061  0.493330  1
  Ta  Ta1  1  0.000000  0.196939  0.506670  1
  Ta  Ta2  1  0.000000  0.303247  0.006389  1
  Ta  Ta3  1  0.000000  0.696753  0.993611  1
  Ta  Ta4  1  0.000000  0.515469  0.594187  1
  Ta  Ta5  1  0.000000  0.484531  0.405813  1
  Ta  Ta6  1  0.000000  0.015397  0.904847  1
  Ta  Ta7  1  0.000000  0.984603  0.095153  1
  Ta  Ta8  1  0.000000  0.683786  0.204495  1
  Ta  Ta9  1  0.000000  0.316214  0.795505  1
  Ta  Ta10  1  0.000000  0.178752  0.294988  1
  Ta  Ta11  1  0.000000  0.821248  0.705012  1
  Tc  Tc12  1  0.500000  0.716436  0.356690  1
  Tc  Tc13  1  0.500000  0.283564  0.643310  1
  Tc  Tc14  1  0.500000  0.217789  0.142998  1
  Tc  Tc15  1  0.500000  0.782211  0.857002  1
  Tc  Tc16  1  0.500000  0.519298  0.096221  1
  Tc  Tc17  1  0.500000  0.480702  0.903779  1
  Tc  Tc18  1  0.500000  0.019207  0.403817  1
  Tc  Tc19  1  0.500000  0.980793  0.596183  1
  B  B20  1  0.500000  0.604804  0.495769  1
  B  B21  1  0.500000  0.395196  0.504231  1
  B  B22  1  0.500000  0.104897  0.004704  1
  B  B23  1  0.500000  0.895103  0.995296  1
  B  B24  1  0.000000  0.611791  0.834924  1
  B  B25  1  0.000000  0.388209  0.165076  1
  B  B26  1  0.000000  0.111763  0.665773  1
  B  B27  1  0.000000  0.888237  0.334227  1
  B  B28  1  0.500000  0.716215  0.600017  1
  B  B29  1  0.500000  0.283785  0.399983  1
  B  B30  1  0.500000  0.215662  0.899560  1
  B  B31  1  0.500000  0.784338  0.100440  1
  Ir  Ir32  1  0.500000  0.568142  0.732562  1
  Ir  Ir33  1  0.500000  0.431858  0.267438  1
  Ru  Ru34  1  0.500000  0.068724  0.767847  1
  Ru  Ru35  1  0.500000  0.931276  0.232153  1
