# generated using pymatgen
data_SmDy3(Rh2O7)2
_symmetry_space_group_name_H-M   'P 1'
_cell_length_a   7.27062094
_cell_length_b   7.27062245
_cell_length_c   7.27062147
_cell_angle_alpha   59.87091539
_cell_angle_beta   59.87091843
_cell_angle_gamma   59.87091395
_symmetry_Int_Tables_number   1
_chemical_formula_structural   SmDy3(Rh2O7)2
_chemical_formula_sum   'Sm1 Dy3 Rh4 O14'
_cell_volume   270.97280441
_cell_formula_units_Z   1
loop_
 _symmetry_equiv_pos_site_id
 _symmetry_equiv_pos_as_xyz
  1  'x, y, z'
loop_
 _atom_site_type_symbol
 _atom_site_label
 _atom_site_symmetry_multiplicity
 _atom_site_fract_x
 _atom_site_fract_y
 _atom_site_fract_z
 _atom_site_occupancy
  Sm  Sm0  1  0.125000  0.125000  0.125000  1
  Dy  Dy1  1  0.125000  0.625000  0.125000  1
  Dy  Dy2  1  0.625000  0.125000  0.125000  1
  Dy  Dy3  1  0.125000  0.125000  0.625000  1
  Rh  Rh4  1  0.625000  0.625000  0.625000  1
  Rh  Rh5  1  0.625000  0.625000  0.125000  1
  Rh  Rh6  1  0.125000  0.625000  0.625000  1
  Rh  Rh7  1  0.625000  0.125000  0.625000  1
  O  O8  1  0.252244  0.252244  0.252244  1
  O  O9  1  0.288912  0.707706  0.288912  1
  O  O10  1  0.961088  0.961088  0.542294  1
  O  O11  1  0.538436  0.961366  0.538436  1
  O  O12  1  0.711564  0.711564  0.288634  1
  O  O13  1  0.961366  0.538436  0.538436  1
  O  O14  1  0.711564  0.288634  0.711564  1
  O  O15  1  0.288912  0.288912  0.707706  1
  O  O16  1  0.707706  0.288912  0.288912  1
  O  O17  1  0.288634  0.711564  0.711564  1
  O  O18  1  0.961088  0.542294  0.961088  1
  O  O19  1  0.538436  0.538436  0.961366  1
  O  O20  1  0.997756  0.997756  0.997756  1
  O  O21  1  0.542294  0.961088  0.961088  1
