# generated using pymatgen
data_Ca2CoC2
_symmetry_space_group_name_H-M   'P 1'
_cell_length_a   3.74284598
_cell_length_b   3.74866089
_cell_length_c   8.82536408
_cell_angle_alpha   123.95757918
_cell_angle_beta   86.25976322
_cell_angle_gamma   74.43978012
_symmetry_Int_Tables_number   1
_chemical_formula_structural   Ca2CoC2
_chemical_formula_sum   'Ca2 Co1 C2'
_cell_volume   95.29161825
_cell_formula_units_Z   1
loop_
 _symmetry_equiv_pos_site_id
 _symmetry_equiv_pos_as_xyz
  1  'x, y, z'
loop_
 _atom_site_type_symbol
 _atom_site_label
 _atom_site_symmetry_multiplicity
 _atom_site_fract_x
 _atom_site_fract_y
 _atom_site_fract_z
 _atom_site_occupancy
  Ca  Ca0  1  0.992332  0.465602  0.246998  1
  Ca  Ca1  1  0.720689  0.188494  0.742781  1
  Co  Co2  1  0.475340  0.445838  0.494886  1
  C  C3  1  0.011656  0.284156  0.494972  1
  C  C4  1  0.314400  0.981020  0.494667  1
