# generated using pymatgen
data_Dy20CoBi8Ru3
_symmetry_space_group_name_H-M   'P 1'
_cell_length_a   7.99116996
_cell_length_b   9.00075300
_cell_length_c   12.45143018
_cell_angle_alpha   90.00000000
_cell_angle_beta   89.77969338
_cell_angle_gamma   90.00000000
_symmetry_Int_Tables_number   1
_chemical_formula_structural   Dy20CoBi8Ru3
_chemical_formula_sum   'Dy20 Co1 Bi8 Ru3'
_cell_volume   895.58175723
_cell_formula_units_Z   1
loop_
 _symmetry_equiv_pos_site_id
 _symmetry_equiv_pos_as_xyz
  1  'x, y, z'
loop_
 _atom_site_type_symbol
 _atom_site_label
 _atom_site_symmetry_multiplicity
 _atom_site_fract_x
 _atom_site_fract_y
 _atom_site_fract_z
 _atom_site_occupancy
  Dy  Dy0  1  0.344885  0.750000  0.701451  1
  Dy  Dy1  1  0.656746  0.250000  0.293455  1
  Dy  Dy2  1  0.843504  0.250000  0.792593  1
  Dy  Dy3  1  0.155284  0.750000  0.205911  1
  Dy  Dy4  1  0.879528  0.750000  0.806412  1
  Dy  Dy5  1  0.119787  0.250000  0.193055  1
  Dy  Dy6  1  0.379317  0.250000  0.692487  1
  Dy  Dy7  1  0.616532  0.750000  0.311856  1
  Dy  Dy8  1  0.676126  0.543495  0.563862  1
  Dy  Dy9  1  0.324472  0.462164  0.436787  1
  Dy  Dy10  1  0.176296  0.458266  0.935654  1
  Dy  Dy11  1  0.324472  0.037836  0.436787  1
  Dy  Dy12  1  0.823492  0.542502  0.064509  1
  Dy  Dy13  1  0.676126  0.956505  0.563862  1
  Dy  Dy14  1  0.823492  0.957498  0.064509  1
  Dy  Dy15  1  0.176296  0.041734  0.935654  1
  Dy  Dy16  1  0.054233  0.750000  0.497006  1
  Dy  Dy17  1  0.947611  0.250000  0.503190  1
  Dy  Dy18  1  0.554399  0.250000  0.003468  1
  Dy  Dy19  1  0.445845  0.750000  0.995930  1
  Co  Co20  1  0.429542  0.750000  0.490956  1
  Bi  Bi21  1  0.571042  0.508668  0.826917  1
  Bi  Bi22  1  0.428573  0.492042  0.173098  1
  Bi  Bi23  1  0.072088  0.491763  0.672195  1
  Bi  Bi24  1  0.428573  0.007958  0.173098  1
  Bi  Bi25  1  0.928479  0.508850  0.328183  1
  Bi  Bi26  1  0.571042  0.991332  0.826917  1
  Bi  Bi27  1  0.928479  0.991150  0.328183  1
  Bi  Bi28  1  0.072088  0.008237  0.672195  1
  Ru  Ru29  1  0.073698  0.750000  0.989065  1
  Ru  Ru30  1  0.925436  0.250000  0.010613  1
  Ru  Ru31  1  0.572517  0.250000  0.510140  1
