# generated using pymatgen
data_Ho12ZnCo2Ni2Hg
_symmetry_space_group_name_H-M   'P 1'
_cell_length_a   8.23778303
_cell_length_b   8.23778397
_cell_length_c   8.23778381
_cell_angle_alpha   111.65490077
_cell_angle_beta   109.75907488
_cell_angle_gamma   107.03278809
_symmetry_Int_Tables_number   1
_chemical_formula_structural   Ho12ZnCo2Ni2Hg
_chemical_formula_sum   'Ho12 Zn1 Co2 Ni2 Hg1'
_cell_volume   429.63294668
_cell_formula_units_Z   1
loop_
 _symmetry_equiv_pos_site_id
 _symmetry_equiv_pos_as_xyz
  1  'x, y, z'
loop_
 _atom_site_type_symbol
 _atom_site_label
 _atom_site_symmetry_multiplicity
 _atom_site_fract_x
 _atom_site_fract_y
 _atom_site_fract_z
 _atom_site_occupancy
  Ho  Ho0  1  0.431601  0.235391  0.196210  1
  Ho  Ho1  1  0.568399  0.764609  0.803790  1
  Ho  Ho2  1  0.039180  0.235391  0.803790  1
  Ho  Ho3  1  0.960820  0.764609  0.196210  1
  Ho  Ho4  1  0.180651  0.284632  0.465282  1
  Ho  Ho5  1  0.819349  0.715368  0.534718  1
  Ho  Ho6  1  0.180651  0.715368  0.896019  1
  Ho  Ho7  1  0.819349  0.284632  0.103981  1
  Ho  Ho8  1  0.319711  0.628132  0.308421  1
  Ho  Ho9  1  0.680289  0.371868  0.691579  1
  Ho  Ho10  1  0.319711  0.011290  0.691579  1
  Ho  Ho11  1  0.680289  0.988710  0.308421  1
  Zn  Zn12  1  0.000000  0.000000  0.000000  1
  Co  Co13  1  0.115314  0.615314  0.500000  1
  Co  Co14  1  0.884686  0.384686  0.500000  1
  Ni  Ni15  1  0.350445  0.000000  0.350445  1
  Ni  Ni16  1  0.649555  0.000000  0.649555  1
  Hg  Hg17  1  0.500000  0.500000  0.000000  1
