# generated using pymatgen
data_DyLuP7Ru12
_symmetry_space_group_name_H-M   'P 1'
_cell_length_a   9.39460700
_cell_length_b   9.39460597
_cell_length_c   3.94826400
_cell_angle_alpha   90.00000000
_cell_angle_beta   90.00000000
_cell_angle_gamma   119.99999305
_symmetry_Int_Tables_number   1
_chemical_formula_structural   DyLuP7Ru12
_chemical_formula_sum   'Dy1 Lu1 P7 Ru12'
_cell_volume   301.78248679
_cell_formula_units_Z   1
loop_
 _symmetry_equiv_pos_site_id
 _symmetry_equiv_pos_as_xyz
  1  'x, y, z'
loop_
 _atom_site_type_symbol
 _atom_site_label
 _atom_site_symmetry_multiplicity
 _atom_site_fract_x
 _atom_site_fract_y
 _atom_site_fract_z
 _atom_site_occupancy
  Dy  Dy0  1  0.333333  0.666667  0.000000  1
  Lu  Lu1  1  0.666667  0.333333  0.500000  1
  P  P2  1  0.600645  0.718729  0.500000  1
  P  P3  1  0.000000  0.000000  0.000000  1
  P  P4  1  0.281271  0.881916  0.500000  1
  P  P5  1  0.118084  0.399355  0.500000  1
  P  P6  1  0.884254  0.572860  0.000000  1
  P  P7  1  0.427140  0.311394  0.000000  1
  P  P8  1  0.688606  0.115746  0.000000  1
  Ru  Ru9  1  0.556739  0.951280  0.500000  1
  Ru  Ru10  1  0.394542  0.443261  0.500000  1
  Ru  Ru11  1  0.914656  0.121717  0.500000  1
  Ru  Ru12  1  0.207062  0.085344  0.500000  1
  Ru  Ru13  1  0.878283  0.792938  0.500000  1
  Ru  Ru14  1  0.727316  0.892030  0.000000  1
  Ru  Ru15  1  0.107970  0.835285  0.000000  1
  Ru  Ru16  1  0.164715  0.272684  0.000000  1
  Ru  Ru17  1  0.424797  0.068208  0.000000  1
  Ru  Ru18  1  0.931792  0.356589  0.000000  1
  Ru  Ru19  1  0.643411  0.575203  0.000000  1
  Ru  Ru20  1  0.048720  0.605458  0.500000  1
