# generated using pymatgen
data_Dy16Y4Cd3Ru2Au3
_symmetry_space_group_name_H-M   'P 1'
_cell_length_a   9.60413020
_cell_length_b   9.61036952
_cell_length_c   9.61976470
_cell_angle_alpha   89.99999636
_cell_angle_beta   90.03796085
_cell_angle_gamma   120.02150039
_symmetry_Int_Tables_number   1
_chemical_formula_structural   Dy16Y4Cd3Ru2Au3
_chemical_formula_sum   'Dy16 Y4 Cd3 Ru2 Au3'
_cell_volume   768.77446196
_cell_formula_units_Z   1
loop_
 _symmetry_equiv_pos_site_id
 _symmetry_equiv_pos_as_xyz
  1  'x, y, z'
loop_
 _atom_site_type_symbol
 _atom_site_label
 _atom_site_symmetry_multiplicity
 _atom_site_fract_x
 _atom_site_fract_y
 _atom_site_fract_z
 _atom_site_occupancy
  Dy  Dy0  1  0.000041  0.000021  0.461090  1
  Dy  Dy1  1  0.000337  0.000168  0.038794  1
  Dy  Dy2  1  0.209393  0.790761  0.439837  1
  Dy  Dy3  1  0.209393  0.418633  0.439837  1
  Dy  Dy4  1  0.581215  0.790608  0.439954  1
  Dy  Dy5  1  0.791557  0.208453  0.558665  1
  Dy  Dy6  1  0.791557  0.583102  0.558665  1
  Dy  Dy7  1  0.416902  0.208450  0.558725  1
  Dy  Dy8  1  0.791645  0.208538  0.941267  1
  Dy  Dy9  1  0.791645  0.583106  0.941267  1
  Dy  Dy10  1  0.416980  0.208489  0.941296  1
  Dy  Dy11  1  0.209256  0.790640  0.060201  1
  Dy  Dy12  1  0.209256  0.418616  0.060201  1
  Dy  Dy13  1  0.540674  0.459221  0.250079  1
  Dy  Dy14  1  0.540674  0.081451  0.250079  1
  Dy  Dy15  1  0.918633  0.459316  0.249976  1
  Y  Y16  1  0.581936  0.790969  0.059509  1
  Y  Y17  1  0.458997  0.540918  0.749894  1
  Y  Y18  1  0.458997  0.918081  0.749894  1
  Y  Y19  1  0.082162  0.541081  0.749982  1
  Cd  Cd20  1  0.109976  0.889943  0.750000  1
  Cd  Cd21  1  0.109976  0.220032  0.750000  1
  Cd  Cd22  1  0.779949  0.889974  0.750081  1
  Ru  Ru23  1  0.332351  0.666176  0.250697  1
  Ru  Ru24  1  0.666498  0.333249  0.749952  1
  Au  Au25  1  0.869494  0.130516  0.249997  1
  Au  Au26  1  0.869494  0.738978  0.249997  1
  Au  Au27  1  0.261015  0.130508  0.250064  1
