# generated using pymatgen
data_Er5Tl2(InPd)2
_symmetry_space_group_name_H-M   'P 1'
_cell_length_a   3.61135800
_cell_length_b   7.99666000
_cell_length_c   18.28080200
_cell_angle_alpha   90.00000000
_cell_angle_beta   90.00000000
_cell_angle_gamma   90.00000000
_symmetry_Int_Tables_number   1
_chemical_formula_structural   Er5Tl2(InPd)2
_chemical_formula_sum   'Er10 Tl4 In4 Pd4'
_cell_volume   527.92766253
_cell_formula_units_Z   2
loop_
 _symmetry_equiv_pos_site_id
 _symmetry_equiv_pos_as_xyz
  1  'x, y, z'
loop_
 _atom_site_type_symbol
 _atom_site_label
 _atom_site_symmetry_multiplicity
 _atom_site_fract_x
 _atom_site_fract_y
 _atom_site_fract_z
 _atom_site_occupancy
  Er  Er0  1  0.000000  0.500000  0.500000  1
  Er  Er1  1  0.000000  0.000000  0.000000  1
  Er  Er2  1  0.000000  0.744136  0.279912  1
  Er  Er3  1  0.000000  0.255864  0.720088  1
  Er  Er4  1  0.000000  0.755864  0.779912  1
  Er  Er5  1  0.000000  0.244136  0.220088  1
  Er  Er6  1  0.000000  0.617372  0.084508  1
  Er  Er7  1  0.000000  0.382628  0.915492  1
  Er  Er8  1  0.000000  0.882628  0.584508  1
  Er  Er9  1  0.000000  0.117372  0.415492  1
  Tl  Tl10  1  0.500000  0.709861  0.932997  1
  Tl  Tl11  1  0.500000  0.290139  0.067003  1
  Tl  Tl12  1  0.500000  0.790139  0.432997  1
  Tl  Tl13  1  0.500000  0.209861  0.567003  1
  In  In14  1  0.500000  0.578329  0.649208  1
  In  In15  1  0.500000  0.421671  0.350792  1
  In  In16  1  0.500000  0.921671  0.149208  1
  In  In17  1  0.500000  0.078329  0.850792  1
  Pd  Pd18  1  0.500000  0.529565  0.197042  1
  Pd  Pd19  1  0.500000  0.470435  0.802958  1
  Pd  Pd20  1  0.500000  0.970435  0.697042  1
  Pd  Pd21  1  0.500000  0.029565  0.302958  1
