# generated using pymatgen
data_Tb2ThZr(Ga3Ir)6
_symmetry_space_group_name_H-M   'P 1'
_cell_length_a   7.60577954
_cell_length_b   7.61096660
_cell_length_c   9.45548200
_cell_angle_alpha   90.00000000
_cell_angle_beta   90.00000000
_cell_angle_gamma   119.84797666
_symmetry_Int_Tables_number   1
_chemical_formula_structural   Tb2ThZr(Ga3Ir)6
_chemical_formula_sum   'Tb2 Th1 Zr1 Ga18 Ir6'
_cell_volume   474.74577394
_cell_formula_units_Z   1
loop_
 _symmetry_equiv_pos_site_id
 _symmetry_equiv_pos_as_xyz
  1  'x, y, z'
loop_
 _atom_site_type_symbol
 _atom_site_label
 _atom_site_symmetry_multiplicity
 _atom_site_fract_x
 _atom_site_fract_y
 _atom_site_fract_z
 _atom_site_occupancy
  Tb  Tb0  1  0.003518  0.330870  0.750000  1
  Tb  Tb1  1  0.329799  0.003133  0.750000  1
  Th  Th2  1  0.996654  0.669546  0.250000  1
  Zr  Zr3  1  0.670309  0.995662  0.250000  1
  Ga  Ga4  1  0.128012  0.131235  0.250000  1
  Ga  Ga5  1  0.870675  0.873606  0.750000  1
  Ga  Ga6  1  0.996214  0.326051  0.079445  1
  Ga  Ga7  1  0.000621  0.665137  0.914623  1
  Ga  Ga8  1  0.000621  0.665137  0.585377  1
  Ga  Ga9  1  0.343468  0.004181  0.420556  1
  Ga  Ga10  1  0.996214  0.326051  0.420555  1
  Ga  Ga11  1  0.665557  0.001956  0.577183  1
  Ga  Ga12  1  0.665557  0.001956  0.922817  1
  Ga  Ga13  1  0.343468  0.004181  0.079444  1
  Ga  Ga14  1  0.331636  0.331556  0.567345  1
  Ga  Ga15  1  0.662710  0.670106  0.436076  1
  Ga  Ga16  1  0.662710  0.670106  0.063924  1
  Ga  Ga17  1  0.331636  0.331556  0.932655  1
  Ga  Ga18  1  0.344111  0.549707  0.250000  1
  Ga  Ga19  1  0.659213  0.452123  0.750000  1
  Ga  Ga20  1  0.542549  0.334870  0.250000  1
  Ga  Ga21  1  0.453567  0.661966  0.750000  1
  Ir  Ir22  1  0.673997  0.331302  0.002054  1
  Ir  Ir23  1  0.326788  0.671300  0.001525  1
  Ir  Ir24  1  0.326788  0.671300  0.498475  1
  Ir  Ir25  1  0.673997  0.331302  0.497946  1
  Ir  Ir26  1  0.999803  0.997055  0.001958  1
  Ir  Ir27  1  0.999803  0.997055  0.498042  1
