# generated using pymatgen
data_Er2MgNi7B2
_symmetry_space_group_name_H-M   'P 1'
_cell_length_a   4.97507600
_cell_length_b   4.97507583
_cell_length_c   14.16789400
_cell_angle_alpha   90.00000000
_cell_angle_beta   90.00000000
_cell_angle_gamma   120.00000116
_symmetry_Int_Tables_number   1
_chemical_formula_structural   Er2MgNi7B2
_chemical_formula_sum   'Er4 Mg2 Ni14 B4'
_cell_volume   303.69339686
_cell_formula_units_Z   2
loop_
 _symmetry_equiv_pos_site_id
 _symmetry_equiv_pos_as_xyz
  1  'x, y, z'
loop_
 _atom_site_type_symbol
 _atom_site_label
 _atom_site_symmetry_multiplicity
 _atom_site_fract_x
 _atom_site_fract_y
 _atom_site_fract_z
 _atom_site_occupancy
  Er  Er0  1  0.666667  0.333333  0.530124  1
  Er  Er1  1  0.333333  0.666667  0.030124  1
  Er  Er2  1  0.666667  0.333333  0.755182  1
  Er  Er3  1  0.333333  0.666667  0.255182  1
  Mg  Mg4  1  0.333333  0.666667  0.467023  1
  Mg  Mg5  1  0.666667  0.333333  0.967023  1
  Ni  Ni6  1  0.834698  0.165302  0.352976  1
  Ni  Ni7  1  0.834698  0.669396  0.352976  1
  Ni  Ni8  1  0.000000  0.000000  0.999129  1
  Ni  Ni9  1  0.000000  0.000000  0.499129  1
  Ni  Ni10  1  0.834057  0.668114  0.147294  1
  Ni  Ni11  1  0.165943  0.834057  0.647294  1
  Ni  Ni12  1  0.668114  0.834057  0.647294  1
  Ni  Ni13  1  0.331886  0.165943  0.147294  1
  Ni  Ni14  1  0.834057  0.165943  0.147294  1
  Ni  Ni15  1  0.165302  0.330604  0.852976  1
  Ni  Ni16  1  0.165302  0.834698  0.852976  1
  Ni  Ni17  1  0.165943  0.331886  0.647294  1
  Ni  Ni18  1  0.669396  0.834698  0.852976  1
  Ni  Ni19  1  0.330604  0.165302  0.352976  1
  B  B20  1  0.666667  0.333333  0.249884  1
  B  B21  1  0.333333  0.666667  0.749884  1
  B  B22  1  0.000000  0.000000  0.747848  1
  B  B23  1  0.000000  0.000000  0.247848  1
