# generated using pymatgen
data_YbCd3(Ru2O7)2
_symmetry_space_group_name_H-M   'P 1'
_cell_length_a   7.19927298
_cell_length_b   7.19927258
_cell_length_c   7.30571191
_cell_angle_alpha   60.48078859
_cell_angle_beta   60.48078940
_cell_angle_gamma   59.99999501
_symmetry_Int_Tables_number   1
_chemical_formula_structural   YbCd3(Ru2O7)2
_chemical_formula_sum   'Yb1 Cd3 Ru4 O14'
_cell_volume   269.67638912
_cell_formula_units_Z   1
loop_
 _symmetry_equiv_pos_site_id
 _symmetry_equiv_pos_as_xyz
  1  'x, y, z'
loop_
 _atom_site_type_symbol
 _atom_site_label
 _atom_site_symmetry_multiplicity
 _atom_site_fract_x
 _atom_site_fract_y
 _atom_site_fract_z
 _atom_site_occupancy
  Yb  Yb0  1  0.125000  0.125000  0.625000  1
  Cd  Cd1  1  0.125000  0.125000  0.125000  1
  Cd  Cd2  1  0.625000  0.125000  0.125000  1
  Cd  Cd3  1  0.125000  0.625000  0.125000  1
  Ru  Ru4  1  0.625000  0.625000  0.625000  1
  Ru  Ru5  1  0.125000  0.625000  0.625000  1
  Ru  Ru6  1  0.625000  0.625000  0.125000  1
  Ru  Ru7  1  0.625000  0.125000  0.625000  1
  O  O8  1  0.996569  0.996569  0.010292  1
  O  O9  1  0.253431  0.253431  0.239708  1
  O  O10  1  0.303906  0.303906  0.692404  1
  O  O11  1  0.557357  0.557357  0.941637  1
  O  O12  1  0.699785  0.303906  0.692404  1
  O  O13  1  0.692643  0.306351  0.308363  1
  O  O14  1  0.303906  0.699785  0.692404  1
  O  O15  1  0.306351  0.692643  0.308363  1
  O  O16  1  0.692643  0.692643  0.308363  1
  O  O17  1  0.946094  0.550215  0.557596  1
  O  O18  1  0.557357  0.943649  0.941637  1
  O  O19  1  0.946094  0.946094  0.557596  1
  O  O20  1  0.943649  0.557357  0.941637  1
  O  O21  1  0.550215  0.946094  0.557596  1
