# generated using pymatgen
data_Nd4Ni3Sb8Ir3
_symmetry_space_group_name_H-M   'P 1'
_cell_length_a   4.53039200
_cell_length_b   11.16544400
_cell_length_c   15.99980500
_cell_angle_alpha   90.00000000
_cell_angle_beta   90.00000000
_cell_angle_gamma   90.00000000
_symmetry_Int_Tables_number   1
_chemical_formula_structural   Nd4Ni3Sb8Ir3
_chemical_formula_sum   'Nd8 Ni6 Sb16 Ir6'
_cell_volume   809.33154694
_cell_formula_units_Z   2
loop_
 _symmetry_equiv_pos_site_id
 _symmetry_equiv_pos_as_xyz
  1  'x, y, z'
loop_
 _atom_site_type_symbol
 _atom_site_label
 _atom_site_symmetry_multiplicity
 _atom_site_fract_x
 _atom_site_fract_y
 _atom_site_fract_z
 _atom_site_occupancy
  Nd  Nd0  1  0.250000  0.746989  0.507526  1
  Nd  Nd1  1  0.250000  0.753011  0.007526  1
  Nd  Nd2  1  0.750000  0.252024  0.492898  1
  Nd  Nd3  1  0.750000  0.247976  0.992898  1
  Nd  Nd4  1  0.250000  0.590038  0.750895  1
  Nd  Nd5  1  0.250000  0.909962  0.250895  1
  Nd  Nd6  1  0.750000  0.407458  0.248309  1
  Nd  Nd7  1  0.750000  0.092542  0.748309  1
  Ni  Ni8  1  0.250000  0.465531  0.556886  1
  Ni  Ni9  1  0.250000  0.034469  0.056886  1
  Ni  Ni10  1  0.750000  0.530381  0.441899  1
  Ni  Ni11  1  0.750000  0.969619  0.941899  1
  Ni  Ni12  1  0.250000  0.055949  0.594015  1
  Ni  Ni13  1  0.250000  0.444051  0.094015  1
  Sb  Sb14  1  0.250000  0.270735  0.645095  1
  Sb  Sb15  1  0.250000  0.229265  0.145095  1
  Sb  Sb16  1  0.750000  0.722021  0.352555  1
  Sb  Sb17  1  0.750000  0.777979  0.852555  1
  Sb  Sb18  1  0.250000  0.888695  0.708324  1
  Sb  Sb19  1  0.250000  0.611305  0.208324  1
  Sb  Sb20  1  0.750000  0.109537  0.288555  1
  Sb  Sb21  1  0.750000  0.390463  0.788555  1
  Sb  Sb22  1  0.250000  0.068413  0.899568  1
  Sb  Sb23  1  0.250000  0.431587  0.399568  1
  Sb  Sb24  1  0.750000  0.935695  0.100220  1
  Sb  Sb25  1  0.750000  0.564305  0.600220  1
  Sb  Sb26  1  0.250000  0.444148  0.935015  1
  Sb  Sb27  1  0.250000  0.055852  0.435015  1
  Sb  Sb28  1  0.750000  0.546159  0.071838  1
  Sb  Sb29  1  0.750000  0.953841  0.571838  1
  Ir  Ir30  1  0.750000  0.942554  0.408807  1
  Ir  Ir31  1  0.750000  0.557446  0.908807  1
  Ir  Ir32  1  0.250000  0.277225  0.816188  1
  Ir  Ir33  1  0.250000  0.222775  0.316188  1
  Ir  Ir34  1  0.750000  0.725380  0.181410  1
  Ir  Ir35  1  0.750000  0.774620  0.681410  1
