# generated using pymatgen
data_DyYFe12P7
_symmetry_space_group_name_H-M   'P 1'
_cell_length_a   8.92266000
_cell_length_b   8.92265980
_cell_length_c   3.64302300
_cell_angle_alpha   90.00000000
_cell_angle_beta   90.00000000
_cell_angle_gamma   120.00000074
_symmetry_Int_Tables_number   1
_chemical_formula_structural   DyYFe12P7
_chemical_formula_sum   'Dy1 Y1 Fe12 P7'
_cell_volume   251.17778179
_cell_formula_units_Z   1
loop_
 _symmetry_equiv_pos_site_id
 _symmetry_equiv_pos_as_xyz
  1  'x, y, z'
loop_
 _atom_site_type_symbol
 _atom_site_label
 _atom_site_symmetry_multiplicity
 _atom_site_fract_x
 _atom_site_fract_y
 _atom_site_fract_z
 _atom_site_occupancy
  Dy  Dy0  1  0.333333  0.666667  0.000000  1
  Y  Y1  1  0.000000  0.000000  0.500000  1
  Fe  Fe2  1  0.722817  0.758305  0.000000  1
  Fe  Fe3  1  0.241695  0.964512  0.000000  1
  Fe  Fe4  1  0.035488  0.277183  0.000000  1
  Fe  Fe5  1  0.939778  0.486828  0.000000  1
  Fe  Fe6  1  0.513172  0.452949  0.000000  1
  Fe  Fe7  1  0.547051  0.060222  0.000000  1
  Fe  Fe8  1  0.099124  0.716922  0.500000  1
  Fe  Fe9  1  0.283078  0.382202  0.500000  1
  Fe  Fe10  1  0.617798  0.900876  0.500000  1
  Fe  Fe11  1  0.761603  0.543971  0.500000  1
  Fe  Fe12  1  0.456029  0.217633  0.500000  1
  Fe  Fe13  1  0.782367  0.238397  0.500000  1
  P  P14  1  0.965664  0.743362  0.000000  1
  P  P15  1  0.256638  0.222301  0.000000  1
  P  P16  1  0.777699  0.034336  0.000000  1
  P  P17  1  0.066226  0.443433  0.500000  1
  P  P18  1  0.556567  0.622792  0.500000  1
  P  P19  1  0.377208  0.933774  0.500000  1
  P  P20  1  0.666667  0.333333  0.000000  1
