# generated using pymatgen
data_CeZn2RhAu3
_symmetry_space_group_name_H-M   'P 1'
_cell_length_a   5.54939628
_cell_length_b   5.54939532
_cell_length_c   5.63704807
_cell_angle_alpha   104.01801015
_cell_angle_beta   104.01800403
_cell_angle_gamma   120.52368165
_symmetry_Int_Tables_number   1
_chemical_formula_structural   CeZn2RhAu3
_chemical_formula_sum   'Ce1 Zn2 Rh1 Au3'
_cell_volume   130.49804198
_cell_formula_units_Z   1
loop_
 _symmetry_equiv_pos_site_id
 _symmetry_equiv_pos_as_xyz
  1  'x, y, z'
loop_
 _atom_site_type_symbol
 _atom_site_label
 _atom_site_symmetry_multiplicity
 _atom_site_fract_x
 _atom_site_fract_y
 _atom_site_fract_z
 _atom_site_occupancy
  Ce  Ce0  1  0.026805  0.026805  0.053610  1
  Zn  Zn1  1  0.246218  0.746218  0.492435  1
  Zn  Zn2  1  0.746218  0.246218  0.492435  1
  Rh  Rh3  1  0.272932  0.272932  0.545863  1
  Au  Au4  1  0.723170  0.723170  0.446340  1
  Au  Au5  1  0.678636  0.306022  0.984659  1
  Au  Au6  1  0.306022  0.678636  0.984659  1
