# generated using pymatgen
data_Ho8Hf12Si15Pd
_symmetry_space_group_name_H-M   'P 1'
_cell_length_a   7.26350513
_cell_length_b   7.30768470
_cell_length_c   13.38765210
_cell_angle_alpha   89.95247438
_cell_angle_beta   89.87766046
_cell_angle_gamma   90.07295150
_symmetry_Int_Tables_number   1
_chemical_formula_structural   Ho8Hf12Si15Pd
_chemical_formula_sum   'Ho8 Hf12 Si15 Pd1'
_cell_volume   710.60616987
_cell_formula_units_Z   1
loop_
 _symmetry_equiv_pos_site_id
 _symmetry_equiv_pos_as_xyz
  1  'x, y, z'
loop_
 _atom_site_type_symbol
 _atom_site_label
 _atom_site_symmetry_multiplicity
 _atom_site_fract_x
 _atom_site_fract_y
 _atom_site_fract_z
 _atom_site_occupancy
  Ho  Ho0  1  0.993030  0.347509  0.214353  1
  Ho  Ho1  1  0.005048  0.654858  0.715163  1
  Ho  Ho2  1  0.156712  0.497048  0.465061  1
  Ho  Ho3  1  0.504087  0.843214  0.033480  1
  Ho  Ho4  1  0.843586  0.502623  0.965202  1
  Ho  Ho5  1  0.496877  0.154893  0.537502  1
  Ho  Ho6  1  0.343696  0.997803  0.785126  1
  Ho  Ho7  1  0.661461  0.998586  0.283717  1
  Hf  Hf8  1  0.174461  0.176240  0.999017  1
  Hf  Hf9  1  0.827192  0.824922  0.500210  1
  Hf  Hf10  1  0.325414  0.679173  0.249952  1
  Hf  Hf11  1  0.675322  0.324644  0.750212  1
  Hf  Hf12  1  0.148982  0.001057  0.374063  1
  Hf  Hf13  1  0.851396  0.003189  0.874891  1
  Hf  Hf14  1  0.503899  0.649648  0.624754  1
  Hf  Hf15  1  0.351874  0.496280  0.874754  1
  Hf  Hf16  1  0.493773  0.349266  0.124408  1
  Hf  Hf17  1  0.648198  0.507272  0.379960  1
  Hf  Hf18  1  0.997162  0.148415  0.626124  1
  Hf  Hf19  1  0.000220  0.849177  0.123373  1
  Si  Si20  1  0.638310  0.706144  0.818614  1
  Si  Si21  1  0.204592  0.861435  0.567586  1
  Si  Si22  1  0.138562  0.795018  0.931439  1
  Si  Si23  1  0.795306  0.138486  0.067215  1
  Si  Si24  1  0.859066  0.200747  0.434583  1
  Si  Si25  1  0.295715  0.361733  0.683006  1
  Si  Si26  1  0.703688  0.639374  0.181810  1
  Si  Si27  1  0.292512  0.045691  0.182337  1
  Si  Si28  1  0.704520  0.950914  0.685791  1
  Si  Si29  1  0.449700  0.797488  0.436345  1
  Si  Si30  1  0.203566  0.549396  0.063416  1
  Si  Si31  1  0.548273  0.203651  0.935236  1
  Si  Si32  1  0.796610  0.450314  0.566281  1
  Si  Si33  1  0.048098  0.297249  0.814718  1
  Si  Si34  1  0.951154  0.704830  0.313646  1
  Pd  Pd35  1  0.367939  0.291713  0.316652  1
