# generated using pymatgen
data_LaPr2TlIn2Rh3
_symmetry_space_group_name_H-M   'P 1'
_cell_length_a   7.65446834
_cell_length_b   7.79455119
_cell_length_c   4.10199200
_cell_angle_alpha   90.00000000
_cell_angle_beta   90.00000000
_cell_angle_gamma   120.25837206
_symmetry_Int_Tables_number   1
_chemical_formula_structural   LaPr2TlIn2Rh3
_chemical_formula_sum   'La1 Pr2 Tl1 In2 Rh3'
_cell_volume   211.39513565
_cell_formula_units_Z   1
loop_
 _symmetry_equiv_pos_site_id
 _symmetry_equiv_pos_as_xyz
  1  'x, y, z'
loop_
 _atom_site_type_symbol
 _atom_site_label
 _atom_site_symmetry_multiplicity
 _atom_site_fract_x
 _atom_site_fract_y
 _atom_site_fract_z
 _atom_site_occupancy
  La  La0  1  0.001311  0.584812  0.500000  1
  Pr  Pr1  1  0.409270  0.408319  0.500000  1
  Pr  Pr2  1  0.589925  0.001113  0.500000  1
  Tl  Tl3  1  0.743574  0.747496  0.000000  1
  In  In4  1  0.000776  0.246038  0.000000  1
  In  In5  1  0.255183  0.004780  0.000000  1
  Rh  Rh6  1  0.317588  0.665095  0.000000  1
  Rh  Rh7  1  0.009744  0.007797  0.500000  1
  Rh  Rh8  1  0.672630  0.334548  0.000000  1
