# generated using pymatgen
data_PmZn2Pd3
_symmetry_space_group_name_H-M   'P 1'
_cell_length_a   5.32695509
_cell_length_b   5.32695380
_cell_length_c   4.46925900
_cell_angle_alpha   90.00000000
_cell_angle_beta   90.00000000
_cell_angle_gamma   59.00043110
_symmetry_Int_Tables_number   1
_chemical_formula_structural   PmZn2Pd3
_chemical_formula_sum   'Pm1 Zn2 Pd3'
_cell_volume   108.70788541
_cell_formula_units_Z   1
loop_
 _symmetry_equiv_pos_site_id
 _symmetry_equiv_pos_as_xyz
  1  'x, y, z'
loop_
 _atom_site_type_symbol
 _atom_site_label
 _atom_site_symmetry_multiplicity
 _atom_site_fract_x
 _atom_site_fract_y
 _atom_site_fract_z
 _atom_site_occupancy
  Pm  Pm0  1  0.000132  0.999868  0.000000  1
  Zn  Zn1  1  0.500274  0.000038  0.499999  1
  Zn  Zn2  1  0.999962  0.499725  0.499999  1
  Pd  Pd3  1  0.321360  0.321323  0.000000  1
  Pd  Pd4  1  0.678677  0.678640  0.000000  1
  Pd  Pd5  1  0.499591  0.500408  0.499999  1
