# generated using pymatgen
data_La7Pu13(Si7Au)2
_symmetry_space_group_name_H-M   'P 1'
_cell_length_a   7.54194546
_cell_length_b   7.89884023
_cell_length_c   15.03706400
_cell_angle_alpha   89.84238426
_cell_angle_beta   89.94514242
_cell_angle_gamma   89.92170504
_symmetry_Int_Tables_number   1
_chemical_formula_structural   La7Pu13(Si7Au)2
_chemical_formula_sum   'La7 Pu13 Si14 Au2'
_cell_volume   895.79269968
_cell_formula_units_Z   1
loop_
 _symmetry_equiv_pos_site_id
 _symmetry_equiv_pos_as_xyz
  1  'x, y, z'
loop_
 _atom_site_type_symbol
 _atom_site_label
 _atom_site_symmetry_multiplicity
 _atom_site_fract_x
 _atom_site_fract_y
 _atom_site_fract_z
 _atom_site_occupancy
  La  La0  1  0.983529  0.833106  0.089446  1
  La  La1  1  0.484531  0.669176  0.410202  1
  La  La2  1  0.522407  0.317061  0.898789  1
  La  La3  1  0.020402  0.182693  0.596849  1
  La  La4  1  0.023026  0.185158  0.899541  1
  La  La5  1  0.523558  0.317001  0.599531  1
  La  La6  1  0.483798  0.665850  0.090588  1
  Pu  Pu7  1  0.646450  0.015127  0.253654  1
  Pu  Pu8  1  0.143591  0.485033  0.253117  1
  Pu  Pu9  1  0.862087  0.524243  0.749378  1
  Pu  Pu10  1  0.362373  0.978156  0.749529  1
  Pu  Pu11  1  0.981311  0.831739  0.410027  1
  Pu  Pu12  1  0.677507  0.819626  0.873424  1
  Pu  Pu13  1  0.173906  0.684429  0.622512  1
  Pu  Pu14  1  0.821981  0.310824  0.123811  1
  Pu  Pu15  1  0.313853  0.180035  0.380413  1
  Pu  Pu16  1  0.319396  0.186484  0.123007  1
  Pu  Pu17  1  0.822993  0.309361  0.377717  1
  Pu  Pu18  1  0.177720  0.681148  0.873630  1
  Pu  Pu19  1  0.681981  0.820902  0.625297  1
  Si  Si20  1  0.739388  0.128217  0.749562  1
  Si  Si21  1  0.237601  0.375049  0.748424  1
  Si  Si22  1  0.024637  0.104503  0.251215  1
  Si  Si23  1  0.522440  0.386557  0.252349  1
  Si  Si24  1  0.470348  0.594118  0.747855  1
  Si  Si25  1  0.972907  0.910542  0.750307  1
  Si  Si26  1  0.852699  0.533950  0.963231  1
  Si  Si27  1  0.359500  0.968022  0.539349  1
  Si  Si28  1  0.638264  0.026158  0.036924  1
  Si  Si29  1  0.137581  0.477609  0.460779  1
  Si  Si30  1  0.138581  0.474760  0.037049  1
  Si  Si31  1  0.643052  0.025667  0.463696  1
  Si  Si32  1  0.353773  0.966277  0.963052  1
  Si  Si33  1  0.851419  0.535195  0.534453  1
  Au  Au34  1  0.765639  0.632776  0.250392  1
  Au  Au35  1  0.265773  0.863451  0.250902  1
