# generated using pymatgen
data_LiMg3(SbPd5)2
_symmetry_space_group_name_H-M   'P 1'
_cell_length_a   4.23753600
_cell_length_b   5.59365351
_cell_length_c   10.92596388
_cell_angle_alpha   90.16129010
_cell_angle_beta   90.00000000
_cell_angle_gamma   90.00000000
_symmetry_Int_Tables_number   1
_chemical_formula_structural   LiMg3(SbPd5)2
_chemical_formula_sum   'Li1 Mg3 Sb2 Pd10'
_cell_volume   258.98046229
_cell_formula_units_Z   1
loop_
 _symmetry_equiv_pos_site_id
 _symmetry_equiv_pos_as_xyz
  1  'x, y, z'
loop_
 _atom_site_type_symbol
 _atom_site_label
 _atom_site_symmetry_multiplicity
 _atom_site_fract_x
 _atom_site_fract_y
 _atom_site_fract_z
 _atom_site_occupancy
  Li  Li0  1  0.500000  0.176843  0.142265  1
  Mg  Mg1  1  0.500000  0.826875  0.859252  1
  Mg  Mg2  1  0.500000  0.326962  0.642958  1
  Mg  Mg3  1  0.500000  0.673183  0.354032  1
  Sb  Sb4  1  0.000000  0.000331  0.498032  1
  Sb  Sb5  1  0.000000  0.490189  0.005219  1
  Pd  Pd6  1  0.500000  0.195106  0.386272  1
  Pd  Pd7  1  0.500000  0.803873  0.610899  1
  Pd  Pd8  1  0.500000  0.304609  0.889166  1
  Pd  Pd9  1  0.500000  0.702754  0.109709  1
  Pd  Pd10  1  0.000000  0.427527  0.245233  1
  Pd  Pd11  1  0.000000  0.571558  0.758485  1
  Pd  Pd12  1  0.000000  0.071226  0.743743  1
  Pd  Pd13  1  0.000000  0.930700  0.253750  1
  Pd  Pd14  1  0.000000  0.997943  0.000558  1
  Pd  Pd15  1  0.000000  0.500323  0.500428  1
