# generated using pymatgen
data_Y10CdFeAg2
_symmetry_space_group_name_H-M   'P 1'
_cell_length_a   9.54918912
_cell_length_b   9.54918992
_cell_length_c   9.72006000
_cell_angle_alpha   90.00000000
_cell_angle_beta   90.00000000
_cell_angle_gamma   120.01781363
_symmetry_Int_Tables_number   1
_chemical_formula_structural   Y10CdFeAg2
_chemical_formula_sum   'Y20 Cd2 Fe2 Ag4'
_cell_volume   767.45800049
_cell_formula_units_Z   2
loop_
 _symmetry_equiv_pos_site_id
 _symmetry_equiv_pos_as_xyz
  1  'x, y, z'
loop_
 _atom_site_type_symbol
 _atom_site_label
 _atom_site_symmetry_multiplicity
 _atom_site_fract_x
 _atom_site_fract_y
 _atom_site_fract_z
 _atom_site_occupancy
  Y  Y0  1  0.002901  0.997099  0.489680  1
  Y  Y1  1  0.002901  0.997099  0.010320  1
  Y  Y2  1  0.541505  0.458495  0.250000  1
  Y  Y3  1  0.541948  0.084264  0.250000  1
  Y  Y4  1  0.915736  0.458052  0.250000  1
  Y  Y5  1  0.456822  0.543178  0.750000  1
  Y  Y6  1  0.453958  0.918479  0.750000  1
  Y  Y7  1  0.081521  0.546042  0.750000  1
  Y  Y8  1  0.211671  0.788329  0.436130  1
  Y  Y9  1  0.211258  0.423193  0.437533  1
  Y  Y10  1  0.576807  0.788742  0.437533  1
  Y  Y11  1  0.789283  0.210717  0.563982  1
  Y  Y12  1  0.787316  0.576768  0.563663  1
  Y  Y13  1  0.423232  0.212684  0.563663  1
  Y  Y14  1  0.789283  0.210717  0.936018  1
  Y  Y15  1  0.787316  0.576768  0.936337  1
  Y  Y16  1  0.423232  0.212684  0.936337  1
  Y  Y17  1  0.211671  0.788329  0.063870  1
  Y  Y18  1  0.211258  0.423193  0.062467  1
  Y  Y19  1  0.576807  0.788742  0.062467  1
  Cd  Cd20  1  0.113717  0.225901  0.750000  1
  Cd  Cd21  1  0.774099  0.886283  0.750000  1
  Fe  Fe22  1  0.332525  0.667475  0.250000  1
  Fe  Fe23  1  0.668205  0.331795  0.750000  1
  Ag  Ag24  1  0.882216  0.117784  0.250000  1
  Ag  Ag25  1  0.880497  0.761376  0.250000  1
  Ag  Ag26  1  0.238624  0.119503  0.250000  1
  Ag  Ag27  1  0.113689  0.886311  0.750000  1
