# generated using pymatgen
data_Sc10GaSnSb4
_symmetry_space_group_name_H-M   'P 1'
_cell_length_a   8.38776211
_cell_length_b   8.39955035
_cell_length_c   5.98326400
_cell_angle_alpha   90.00000000
_cell_angle_beta   90.00000000
_cell_angle_gamma   119.97252314
_symmetry_Int_Tables_number   1
_chemical_formula_structural   Sc10GaSnSb4
_chemical_formula_sum   'Sc10 Ga1 Sn1 Sb4'
_cell_volume   365.16665981
_cell_formula_units_Z   1
loop_
 _symmetry_equiv_pos_site_id
 _symmetry_equiv_pos_as_xyz
  1  'x, y, z'
loop_
 _atom_site_type_symbol
 _atom_site_label
 _atom_site_symmetry_multiplicity
 _atom_site_fract_x
 _atom_site_fract_y
 _atom_site_fract_z
 _atom_site_occupancy
  Sc  Sc0  1  0.334879  0.674338  0.998167  1
  Sc  Sc1  1  0.660068  0.325597  0.501917  1
  Sc  Sc2  1  0.660068  0.325597  0.998083  1
  Sc  Sc3  1  0.334879  0.674338  0.501833  1
  Sc  Sc4  1  0.241982  0.000405  0.250000  1
  Sc  Sc5  1  0.244575  0.231918  0.750000  1
  Sc  Sc6  1  0.011985  0.768164  0.750000  1
  Sc  Sc7  1  0.998918  0.240866  0.250000  1
  Sc  Sc8  1  0.758290  0.759901  0.250000  1
  Sc  Sc9  1  0.752252  0.999120  0.750000  1
  Ga  Ga10  1  0.393975  0.999991  0.750000  1
  Sn  Sn11  1  0.611989  0.610011  0.750000  1
  Sb  Sb12  1  0.607238  0.000086  0.250000  1
  Sb  Sb13  1  0.001957  0.388766  0.750000  1
  Sb  Sb14  1  0.997305  0.608489  0.250000  1
  Sb  Sb15  1  0.389642  0.392413  0.250000  1
