# generated using pymatgen
data_Cs3RbErUBr12
_symmetry_space_group_name_H-M   'P 1'
_cell_length_a   7.98392037
_cell_length_b   7.94984685
_cell_length_c   11.64870700
_cell_angle_alpha   90.00000000
_cell_angle_beta   90.00000000
_cell_angle_gamma   90.36588368
_symmetry_Int_Tables_number   1
_chemical_formula_structural   Cs3RbErUBr12
_chemical_formula_sum   'Cs3 Rb1 Er1 U1 Br12'
_cell_volume   739.33935698
_cell_formula_units_Z   1
loop_
 _symmetry_equiv_pos_site_id
 _symmetry_equiv_pos_as_xyz
  1  'x, y, z'
loop_
 _atom_site_type_symbol
 _atom_site_label
 _atom_site_symmetry_multiplicity
 _atom_site_fract_x
 _atom_site_fract_y
 _atom_site_fract_z
 _atom_site_occupancy
  Cs  Cs0  1  0.500000  0.000000  0.789658  1
  Cs  Cs1  1  0.500000  0.000000  0.209058  1
  Cs  Cs2  1  0.000000  0.500000  0.210302  1
  Rb  Rb3  1  0.000000  0.500000  0.800837  1
  Er  Er4  1  0.000000  0.000000  0.998334  1
  U  U5  1  0.500000  0.500000  0.500558  1
  Br  Br6  1  0.762193  0.255412  0.996953  1
  Br  Br7  1  0.237807  0.744588  0.996953  1
  Br  Br8  1  0.500000  0.500000  0.266692  1
  Br  Br9  1  0.302235  0.224147  0.499885  1
  Br  Br10  1  0.253442  0.241891  0.998809  1
  Br  Br11  1  0.774427  0.303284  0.500926  1
  Br  Br12  1  0.000000  0.000000  0.238076  1
  Br  Br13  1  0.697765  0.775853  0.499885  1
  Br  Br14  1  0.225573  0.696716  0.500926  1
  Br  Br15  1  0.500000  0.500000  0.733923  1
  Br  Br16  1  0.746558  0.758109  0.998809  1
  Br  Br17  1  0.000000  0.000000  0.759417  1
