# generated using pymatgen
data_La5Nd3(HgIr)2
_symmetry_space_group_name_H-M   'P 1'
_cell_length_a   10.05210500
_cell_length_b   10.05210473
_cell_length_c   10.05210500
_cell_angle_alpha   59.99999583
_cell_angle_beta   59.99999670
_cell_angle_gamma   60.00000073
_symmetry_Int_Tables_number   1
_chemical_formula_structural   La5Nd3(HgIr)2
_chemical_formula_sum   'La10 Nd6 Hg4 Ir4'
_cell_volume   718.21755738
_cell_formula_units_Z   2
loop_
 _symmetry_equiv_pos_site_id
 _symmetry_equiv_pos_as_xyz
  1  'x, y, z'
loop_
 _atom_site_type_symbol
 _atom_site_label
 _atom_site_symmetry_multiplicity
 _atom_site_fract_x
 _atom_site_fract_y
 _atom_site_fract_z
 _atom_site_occupancy
  La  La0  1  0.348597  0.348597  0.348597  1
  La  La1  1  0.348597  0.348597  0.954208  1
  La  La2  1  0.348597  0.954208  0.348597  1
  La  La3  1  0.954208  0.348597  0.348597  1
  La  La4  1  0.807853  0.192147  0.192147  1
  La  La5  1  0.192147  0.807853  0.807853  1
  La  La6  1  0.192147  0.807853  0.192147  1
  La  La7  1  0.807853  0.192147  0.807853  1
  La  La8  1  0.192147  0.192147  0.807853  1
  La  La9  1  0.807853  0.807853  0.192147  1
  Nd  Nd10  1  0.936260  0.563740  0.563740  1
  Nd  Nd11  1  0.563740  0.936260  0.936260  1
  Nd  Nd12  1  0.563740  0.936260  0.563740  1
  Nd  Nd13  1  0.936260  0.563740  0.936260  1
  Nd  Nd14  1  0.563740  0.563740  0.936260  1
  Nd  Nd15  1  0.936260  0.936260  0.563740  1
  Hg  Hg16  1  0.584343  0.584343  0.584343  1
  Hg  Hg17  1  0.584343  0.584343  0.246969  1
  Hg  Hg18  1  0.584343  0.246969  0.584343  1
  Hg  Hg19  1  0.246969  0.584343  0.584343  1
  Ir  Ir20  1  0.140997  0.140997  0.140997  1
  Ir  Ir21  1  0.140997  0.140997  0.577006  1
  Ir  Ir22  1  0.140997  0.577006  0.140997  1
  Ir  Ir23  1  0.577006  0.140997  0.140997  1
