# generated using pymatgen
data_SrAlGaAu5
_symmetry_space_group_name_H-M   'P 1'
_cell_length_a   7.21597800
_cell_length_b   9.16382400
_cell_length_c   10.12511400
_cell_angle_alpha   90.00000000
_cell_angle_beta   90.00000000
_cell_angle_gamma   90.00000000
_symmetry_Int_Tables_number   1
_chemical_formula_structural   SrAlGaAu5
_chemical_formula_sum   'Sr4 Al4 Ga4 Au20'
_cell_volume   669.53280620
_cell_formula_units_Z   4
loop_
 _symmetry_equiv_pos_site_id
 _symmetry_equiv_pos_as_xyz
  1  'x, y, z'
loop_
 _atom_site_type_symbol
 _atom_site_label
 _atom_site_symmetry_multiplicity
 _atom_site_fract_x
 _atom_site_fract_y
 _atom_site_fract_z
 _atom_site_occupancy
  Sr  Sr0  1  0.250000  0.248086  0.123125  1
  Sr  Sr1  1  0.250000  0.748086  0.376875  1
  Sr  Sr2  1  0.750000  0.751914  0.876875  1
  Sr  Sr3  1  0.750000  0.251914  0.623125  1
  Al  Al4  1  0.250000  0.052380  0.618326  1
  Al  Al5  1  0.250000  0.552380  0.881674  1
  Al  Al6  1  0.750000  0.947620  0.381674  1
  Al  Al7  1  0.750000  0.447620  0.118326  1
  Ga  Ga8  1  0.250000  0.350923  0.477389  1
  Ga  Ga9  1  0.250000  0.850923  0.022611  1
  Ga  Ga10  1  0.750000  0.649077  0.522611  1
  Ga  Ga11  1  0.750000  0.149077  0.977389  1
  Au  Au12  1  0.054693  0.101932  0.396906  1
  Au  Au13  1  0.445307  0.601932  0.103094  1
  Au  Au14  1  0.554693  0.898068  0.603094  1
  Au  Au15  1  0.945307  0.398068  0.896906  1
  Au  Au16  1  0.945307  0.898068  0.603094  1
  Au  Au17  1  0.554693  0.398068  0.896906  1
  Au  Au18  1  0.445307  0.101932  0.396906  1
  Au  Au19  1  0.054693  0.601932  0.103094  1
  Au  Au20  1  0.039805  0.059894  0.857866  1
  Au  Au21  1  0.460195  0.559894  0.642134  1
  Au  Au22  1  0.539805  0.940106  0.142134  1
  Au  Au23  1  0.960195  0.440106  0.357866  1
  Au  Au24  1  0.960195  0.940106  0.142134  1
  Au  Au25  1  0.539805  0.440106  0.357866  1
  Au  Au26  1  0.460195  0.059894  0.857866  1
  Au  Au27  1  0.039805  0.559894  0.642134  1
  Au  Au28  1  0.250000  0.301273  0.732505  1
  Au  Au29  1  0.250000  0.801273  0.767495  1
  Au  Au30  1  0.750000  0.698727  0.267495  1
  Au  Au31  1  0.750000  0.198727  0.232505  1
