# generated using pymatgen
data_Dy3Th11Ru6
_symmetry_space_group_name_H-M   'P 1'
_cell_length_a   9.82048571
_cell_length_b   9.88908632
_cell_length_c   6.39963677
_cell_angle_alpha   90.11880630
_cell_angle_beta   89.96681011
_cell_angle_gamma   120.30492595
_symmetry_Int_Tables_number   1
_chemical_formula_structural   Dy3Th11Ru6
_chemical_formula_sum   'Dy3 Th11 Ru6'
_cell_volume   536.57625368
_cell_formula_units_Z   1
loop_
 _symmetry_equiv_pos_site_id
 _symmetry_equiv_pos_as_xyz
  1  'x, y, z'
loop_
 _atom_site_type_symbol
 _atom_site_label
 _atom_site_symmetry_multiplicity
 _atom_site_fract_x
 _atom_site_fract_y
 _atom_site_fract_z
 _atom_site_occupancy
  Dy  Dy0  1  0.460650  0.536585  0.296405  1
  Dy  Dy1  1  0.073845  0.535989  0.300798  1
  Dy  Dy2  1  0.926051  0.462567  0.799966  1
  Th  Th3  1  0.249666  0.126467  0.510365  1
  Th  Th4  1  0.542337  0.082582  0.796533  1
  Th  Th5  1  0.747635  0.873692  0.011639  1
  Th  Th6  1  0.666515  0.333383  0.279042  1
  Th  Th7  1  0.125029  0.870719  0.008855  1
  Th  Th8  1  0.458993  0.917162  0.296723  1
  Th  Th9  1  0.539687  0.463440  0.798728  1
  Th  Th10  1  0.876528  0.128929  0.510123  1
  Th  Th11  1  0.124385  0.252442  0.012669  1
  Th  Th12  1  0.874290  0.748623  0.508647  1
  Th  Th13  1  0.333683  0.665739  0.775294  1
  Ru  Ru14  1  0.811719  0.630879  0.048065  1
  Ru  Ru15  1  0.814312  0.182019  0.045823  1
  Ru  Ru16  1  0.631485  0.816070  0.545526  1
  Ru  Ru17  1  0.370801  0.187734  0.042142  1
  Ru  Ru18  1  0.184041  0.365772  0.552159  1
  Ru  Ru19  1  0.188350  0.819207  0.544495  1
