# generated using pymatgen
data_Sm2Er2LuSn4
_symmetry_space_group_name_H-M   'P 1'
_cell_length_a   8.02346600
_cell_length_b   8.17283600
_cell_length_c   15.44223000
_cell_angle_alpha   90.00000000
_cell_angle_beta   90.00000000
_cell_angle_gamma   90.00000000
_symmetry_Int_Tables_number   1
_chemical_formula_structural   Sm2Er2LuSn4
_chemical_formula_sum   'Sm8 Er8 Lu4 Sn16'
_cell_volume   1012.61607519
_cell_formula_units_Z   4
loop_
 _symmetry_equiv_pos_site_id
 _symmetry_equiv_pos_as_xyz
  1  'x, y, z'
loop_
 _atom_site_type_symbol
 _atom_site_label
 _atom_site_symmetry_multiplicity
 _atom_site_fract_x
 _atom_site_fract_y
 _atom_site_fract_z
 _atom_site_occupancy
  Sm  Sm0  1  0.518344  0.321459  0.903280  1
  Sm  Sm1  1  0.018344  0.178541  0.596720  1
  Sm  Sm2  1  0.481656  0.678541  0.403280  1
  Sm  Sm3  1  0.981656  0.821459  0.096720  1
  Sm  Sm4  1  0.481656  0.678541  0.096720  1
  Sm  Sm5  1  0.981656  0.821459  0.403280  1
  Sm  Sm6  1  0.518344  0.321459  0.596720  1
  Sm  Sm7  1  0.018344  0.178541  0.903280  1
  Er  Er8  1  0.363784  0.836688  0.876957  1
  Er  Er9  1  0.863784  0.663312  0.623043  1
  Er  Er10  1  0.636216  0.163312  0.376957  1
  Er  Er11  1  0.136216  0.336688  0.123043  1
  Er  Er12  1  0.636216  0.163312  0.123043  1
  Er  Er13  1  0.136216  0.336688  0.376957  1
  Er  Er14  1  0.363784  0.836688  0.623043  1
  Er  Er15  1  0.863784  0.663312  0.876957  1
  Lu  Lu16  1  0.196078  0.504105  0.750000  1
  Lu  Lu17  1  0.696078  0.995895  0.750000  1
  Lu  Lu18  1  0.803922  0.495895  0.250000  1
  Lu  Lu19  1  0.303922  0.004105  0.250000  1
  Sn  Sn20  1  0.299739  0.039586  0.042324  1
  Sn  Sn21  1  0.799739  0.460414  0.457676  1
  Sn  Sn22  1  0.700261  0.960414  0.542324  1
  Sn  Sn23  1  0.200261  0.539586  0.957676  1
  Sn  Sn24  1  0.700261  0.960414  0.957676  1
  Sn  Sn25  1  0.200261  0.539586  0.542324  1
  Sn  Sn26  1  0.299739  0.039586  0.457676  1
  Sn  Sn27  1  0.799739  0.460414  0.042324  1
  Sn  Sn28  1  0.561191  0.621660  0.750000  1
  Sn  Sn29  1  0.061191  0.878340  0.750000  1
  Sn  Sn30  1  0.438809  0.378340  0.250000  1
  Sn  Sn31  1  0.938809  0.121660  0.250000  1
  Sn  Sn32  1  0.326776  0.146649  0.750000  1
  Sn  Sn33  1  0.826776  0.353351  0.750000  1
  Sn  Sn34  1  0.673224  0.853351  0.250000  1
  Sn  Sn35  1  0.173224  0.646649  0.250000  1
