# generated using pymatgen
data_LaTb2Sm(Mo2O7)2
_symmetry_space_group_name_H-M   'P 1'
_cell_length_a   7.49084949
_cell_length_b   7.49085049
_cell_length_c   7.53160050
_cell_angle_alpha   59.26813666
_cell_angle_beta   59.26813464
_cell_angle_gamma   58.97933240
_symmetry_Int_Tables_number   1
_chemical_formula_structural   LaTb2Sm(Mo2O7)2
_chemical_formula_sum   'La1 Tb2 Sm1 Mo4 O14'
_cell_volume   293.19263502
_cell_formula_units_Z   1
loop_
 _symmetry_equiv_pos_site_id
 _symmetry_equiv_pos_as_xyz
  1  'x, y, z'
loop_
 _atom_site_type_symbol
 _atom_site_label
 _atom_site_symmetry_multiplicity
 _atom_site_fract_x
 _atom_site_fract_y
 _atom_site_fract_z
 _atom_site_occupancy
  La  La0  1  0.125000  0.125000  0.125000  1
  Tb  Tb1  1  0.625000  0.125000  0.125000  1
  Tb  Tb2  1  0.125000  0.625000  0.125000  1
  Sm  Sm3  1  0.125000  0.125000  0.625000  1
  Mo  Mo4  1  0.625000  0.625000  0.625000  1
  Mo  Mo5  1  0.125000  0.625000  0.625000  1
  Mo  Mo6  1  0.625000  0.625000  0.125000  1
  Mo  Mo7  1  0.625000  0.125000  0.625000  1
  O  O8  1  0.996846  0.996846  0.001144  1
  O  O9  1  0.253154  0.253154  0.248856  1
  O  O10  1  0.289616  0.289616  0.700002  1
  O  O11  1  0.534135  0.534135  0.968776  1
  O  O12  1  0.706023  0.289215  0.718432  1
  O  O13  1  0.703187  0.289445  0.292630  1
  O  O14  1  0.289215  0.706023  0.718432  1
  O  O15  1  0.289445  0.703187  0.292630  1
  O  O16  1  0.715865  0.715865  0.281224  1
  O  O17  1  0.960785  0.543977  0.531568  1
  O  O18  1  0.546813  0.960555  0.957370  1
  O  O19  1  0.960384  0.960384  0.549998  1
  O  O20  1  0.960555  0.546813  0.957370  1
  O  O21  1  0.543977  0.960785  0.531568  1
