# generated using pymatgen
data_Nd7CdAsPd24
_symmetry_space_group_name_H-M   'P 1'
_cell_length_a   8.50311658
_cell_length_b   8.50311656
_cell_length_c   8.50311600
_cell_angle_alpha   90.23672744
_cell_angle_beta   90.23672744
_cell_angle_gamma   89.76327353
_symmetry_Int_Tables_number   1
_chemical_formula_structural   Nd7CdAsPd24
_chemical_formula_sum   'Nd7 Cd1 As1 Pd24'
_cell_volume   614.78502327
_cell_formula_units_Z   1
loop_
 _symmetry_equiv_pos_site_id
 _symmetry_equiv_pos_as_xyz
  1  'x, y, z'
loop_
 _atom_site_type_symbol
 _atom_site_label
 _atom_site_symmetry_multiplicity
 _atom_site_fract_x
 _atom_site_fract_y
 _atom_site_fract_z
 _atom_site_occupancy
  Nd  Nd0  1  0.746838  0.253342  0.746658  1
  Nd  Nd1  1  0.253342  0.746838  0.746658  1
  Nd  Nd2  1  0.744645  0.744645  0.746621  1
  Nd  Nd3  1  0.744645  0.253379  0.255355  1
  Nd  Nd4  1  0.254237  0.254237  0.745763  1
  Nd  Nd5  1  0.253379  0.744645  0.255355  1
  Nd  Nd6  1  0.253342  0.253342  0.253162  1
  Cd  Cd7  1  0.745603  0.745603  0.254397  1
  As  As8  1  0.006382  0.006382  0.993618  1
  Pd  Pd9  1  0.993351  0.993351  0.283019  1
  Pd  Pd10  1  0.739365  0.995153  0.497696  1
  Pd  Pd11  1  0.739365  0.502304  0.004847  1
  Pd  Pd12  1  0.501837  0.000299  0.741220  1
  Pd  Pd13  1  0.995153  0.739365  0.497696  1
  Pd  Pd14  1  0.502304  0.995153  0.260635  1
  Pd  Pd15  1  0.000299  0.258780  0.498163  1
  Pd  Pd16  1  0.502304  0.739365  0.004847  1
  Pd  Pd17  1  0.252940  0.500163  0.499837  1
  Pd  Pd18  1  0.500163  0.500163  0.747060  1
  Pd  Pd19  1  0.502620  0.502620  0.253457  1
  Pd  Pd20  1  0.500163  0.252940  0.499837  1
  Pd  Pd21  1  0.502620  0.746543  0.497380  1
  Pd  Pd22  1  0.746543  0.502620  0.497380  1
  Pd  Pd23  1  0.294522  0.999431  0.000569  1
  Pd  Pd24  1  0.999431  0.999431  0.705478  1
  Pd  Pd25  1  0.995153  0.502304  0.260635  1
  Pd  Pd26  1  0.999431  0.294522  0.000569  1
  Pd  Pd27  1  0.993351  0.716981  0.006649  1
  Pd  Pd28  1  0.716981  0.993351  0.006649  1
  Pd  Pd29  1  0.258780  0.501837  0.999701  1
  Pd  Pd30  1  0.258780  0.000299  0.498163  1
  Pd  Pd31  1  0.000299  0.501837  0.741220  1
  Pd  Pd32  1  0.501837  0.258780  0.999701  1
