# generated using pymatgen
data_Lu2MnGaOs2
_symmetry_space_group_name_H-M   'P 1'
_cell_length_a   5.32057755
_cell_length_b   5.36338145
_cell_length_c   8.48960500
_cell_angle_alpha   90.00000000
_cell_angle_beta   90.00000000
_cell_angle_gamma   120.26647465
_symmetry_Int_Tables_number   1
_chemical_formula_structural   Lu2MnGaOs2
_chemical_formula_sum   'Lu4 Mn2 Ga2 Os4'
_cell_volume   209.23924666
_cell_formula_units_Z   2
loop_
 _symmetry_equiv_pos_site_id
 _symmetry_equiv_pos_as_xyz
  1  'x, y, z'
loop_
 _atom_site_type_symbol
 _atom_site_label
 _atom_site_symmetry_multiplicity
 _atom_site_fract_x
 _atom_site_fract_y
 _atom_site_fract_z
 _atom_site_occupancy
  Lu  Lu0  1  0.338099  0.669050  0.432445  1
  Lu  Lu1  1  0.662396  0.331198  0.559110  1
  Lu  Lu2  1  0.662396  0.331198  0.940890  1
  Lu  Lu3  1  0.338099  0.669050  0.067555  1
  Mn  Mn4  1  0.989954  0.994977  0.006780  1
  Mn  Mn5  1  0.989954  0.994977  0.493220  1
  Ga  Ga6  1  0.171309  0.336829  0.750000  1
  Ga  Ga7  1  0.171309  0.834481  0.750000  1
  Os  Os8  1  0.345016  0.172507  0.250000  1
  Os  Os9  1  0.831233  0.661510  0.250000  1
  Os  Os10  1  0.669004  0.834502  0.750000  1
  Os  Os11  1  0.831233  0.169722  0.250000  1
