# generated using pymatgen
data_CaHoUIr3
_symmetry_space_group_name_H-M   'P 1'
_cell_length_a   5.33587331
_cell_length_b   5.33587304
_cell_length_c   5.33587354
_cell_angle_alpha   65.83340801
_cell_angle_beta   65.83341926
_cell_angle_gamma   65.83341977
_symmetry_Int_Tables_number   1
_chemical_formula_structural   CaHoUIr3
_chemical_formula_sum   'Ca1 Ho1 U1 Ir3'
_cell_volume   121.00600084
_cell_formula_units_Z   1
loop_
 _symmetry_equiv_pos_site_id
 _symmetry_equiv_pos_as_xyz
  1  'x, y, z'
loop_
 _atom_site_type_symbol
 _atom_site_label
 _atom_site_symmetry_multiplicity
 _atom_site_fract_x
 _atom_site_fract_y
 _atom_site_fract_z
 _atom_site_occupancy
  Ca  Ca0  1  0.000047  0.000047  0.000047  1
  Ho  Ho1  1  0.249999  0.249999  0.249999  1
  U  U2  1  0.625684  0.625684  0.625684  1
  Ir  Ir3  1  0.125795  0.624237  0.624237  1
  Ir  Ir4  1  0.624237  0.125795  0.624237  1
  Ir  Ir5  1  0.624237  0.624237  0.125795  1
