# generated using pymatgen
data_Y2Lu3Rh2
_symmetry_space_group_name_H-M   'P 1'
_cell_length_a   6.35719155
_cell_length_b   7.12603529
_cell_length_c   8.49528822
_cell_angle_alpha   97.17708723
_cell_angle_beta   111.97239978
_cell_angle_gamma   90.00000113
_symmetry_Int_Tables_number   1
_chemical_formula_structural   Y2Lu3Rh2
_chemical_formula_sum   'Y4 Lu6 Rh4'
_cell_volume   353.64235282
_cell_formula_units_Z   2
loop_
 _symmetry_equiv_pos_site_id
 _symmetry_equiv_pos_as_xyz
  1  'x, y, z'
loop_
 _atom_site_type_symbol
 _atom_site_label
 _atom_site_symmetry_multiplicity
 _atom_site_fract_x
 _atom_site_fract_y
 _atom_site_fract_z
 _atom_site_occupancy
  Y  Y0  1  0.522775  0.080474  0.808249  1
  Y  Y1  1  0.477225  0.919526  0.191751  1
  Y  Y2  1  0.714525  0.419526  0.191751  1
  Y  Y3  1  0.285475  0.580474  0.808249  1
  Lu  Lu4  1  0.294780  0.313415  0.437416  1
  Lu  Lu5  1  0.705220  0.686585  0.562584  1
  Lu  Lu6  1  0.857365  0.186585  0.562584  1
  Lu  Lu7  1  0.142635  0.813415  0.437416  1
  Lu  Lu8  1  0.076443  0.250000  0.000000  1
  Lu  Lu9  1  0.923557  0.750000  0.000000  1
  Rh  Rh10  1  0.312020  0.571532  0.223096  1
  Rh  Rh11  1  0.687980  0.428468  0.776904  1
  Rh  Rh12  1  0.088925  0.928468  0.776904  1
  Rh  Rh13  1  0.911075  0.071532  0.223096  1
