# generated using pymatgen
data_Pr3Gd5(DyRu2)2
_symmetry_space_group_name_H-M   'P 1'
_cell_length_a   8.68255935
_cell_length_b   8.61477176
_cell_length_c   7.38861200
_cell_angle_alpha   83.18404621
_cell_angle_beta   83.31341205
_cell_angle_gamma   43.96545739
_symmetry_Int_Tables_number   1
_chemical_formula_structural   Pr3Gd5(DyRu2)2
_chemical_formula_sum   'Pr3 Gd5 Dy2 Ru4'
_cell_volume   380.56951704
_cell_formula_units_Z   1
loop_
 _symmetry_equiv_pos_site_id
 _symmetry_equiv_pos_as_xyz
  1  'x, y, z'
loop_
 _atom_site_type_symbol
 _atom_site_label
 _atom_site_symmetry_multiplicity
 _atom_site_fract_x
 _atom_site_fract_y
 _atom_site_fract_z
 _atom_site_occupancy
  Pr  Pr0  1  0.357405  0.208048  0.810036  1
  Pr  Pr1  1  0.979240  0.207681  0.084201  1
  Pr  Pr2  1  0.793192  0.020338  0.416302  1
  Gd  Gd3  1  0.206410  0.977437  0.584932  1
  Gd  Gd4  1  0.018493  0.795648  0.914777  1
  Gd  Gd5  1  0.204189  0.364526  0.315600  1
  Gd  Gd6  1  0.638291  0.794178  0.184266  1
  Gd  Gd7  1  0.790380  0.639312  0.686875  1
  Dy  Dy8  1  0.574364  0.425253  0.751174  1
  Dy  Dy9  1  0.425689  0.574870  0.249558  1
  Ru  Ru10  1  0.180139  0.604583  0.574893  1
  Ru  Ru11  1  0.404431  0.811503  0.923879  1
  Ru  Ru12  1  0.825004  0.401536  0.428720  1
  Ru  Ru13  1  0.602773  0.175084  0.074784  1
