# generated using pymatgen
data_Rb8Dy6IrI20
_symmetry_space_group_name_H-M   'P 1'
_cell_length_a   13.28696952
_cell_length_b   13.28696928
_cell_length_c   13.28696900
_cell_angle_alpha   59.99999822
_cell_angle_beta   59.99999879
_cell_angle_gamma   60.00000149
_symmetry_Int_Tables_number   1
_chemical_formula_structural   Rb8Dy6IrI20
_chemical_formula_sum   'Rb8 Dy6 Ir1 I20'
_cell_volume   1658.68068959
_cell_formula_units_Z   1
loop_
 _symmetry_equiv_pos_site_id
 _symmetry_equiv_pos_as_xyz
  1  'x, y, z'
loop_
 _atom_site_type_symbol
 _atom_site_label
 _atom_site_symmetry_multiplicity
 _atom_site_fract_x
 _atom_site_fract_y
 _atom_site_fract_z
 _atom_site_occupancy
  Rb  Rb0  1  0.359721  0.359721  0.359721  1
  Rb  Rb1  1  0.640279  0.640279  0.640279  1
  Rb  Rb2  1  0.359721  0.359721  0.920839  1
  Rb  Rb3  1  0.359721  0.920839  0.359721  1
  Rb  Rb4  1  0.640279  0.640279  0.079161  1
  Rb  Rb5  1  0.640279  0.079161  0.640279  1
  Rb  Rb6  1  0.920839  0.359721  0.359721  1
  Rb  Rb7  1  0.079161  0.640279  0.640279  1
  Dy  Dy8  1  0.851032  0.148968  0.148968  1
  Dy  Dy9  1  0.148968  0.851032  0.851032  1
  Dy  Dy10  1  0.148968  0.851032  0.148968  1
  Dy  Dy11  1  0.851032  0.148968  0.851032  1
  Dy  Dy12  1  0.148968  0.148968  0.851032  1
  Dy  Dy13  1  0.851032  0.851032  0.148968  1
  Ir  Ir14  1  0.000000  0.000000  0.000000  1
  I  I15  1  0.329313  0.000000  0.000000  1
  I  I16  1  0.670687  0.000000  0.000000  1
  I  I17  1  0.000000  0.329313  0.670687  1
  I  I18  1  0.000000  0.670687  0.329313  1
  I  I19  1  0.000000  0.329313  0.000000  1
  I  I20  1  0.670687  0.000000  0.329313  1
  I  I21  1  0.000000  0.670687  0.000000  1
  I  I22  1  0.329313  0.000000  0.670687  1
  I  I23  1  0.000000  0.000000  0.329313  1
  I  I24  1  0.000000  0.000000  0.670687  1
  I  I25  1  0.670687  0.329313  0.000000  1
  I  I26  1  0.329313  0.670687  0.000000  1
  I  I27  1  0.681251  0.318749  0.318749  1
  I  I28  1  0.318749  0.681251  0.681251  1
  I  I29  1  0.318749  0.681251  0.318749  1
  I  I30  1  0.681251  0.318749  0.681251  1
  I  I31  1  0.318749  0.318749  0.681251  1
  I  I32  1  0.681251  0.681251  0.318749  1
  I  I33  1  0.250000  0.250000  0.250000  1
  I  I34  1  0.750000  0.750000  0.750000  1
