# generated using pymatgen
data_Ho8Ta11Si16Ag
_symmetry_space_group_name_H-M   'P 1'
_cell_length_a   7.04108069
_cell_length_b   7.04108036
_cell_length_c   12.97326808
_cell_angle_alpha   90.27991011
_cell_angle_beta   89.72009204
_cell_angle_gamma   89.68593044
_symmetry_Int_Tables_number   1
_chemical_formula_structural   Ho8Ta11Si16Ag
_chemical_formula_sum   'Ho8 Ta11 Si16 Ag1'
_cell_volume   643.14821287
_cell_formula_units_Z   1
loop_
 _symmetry_equiv_pos_site_id
 _symmetry_equiv_pos_as_xyz
  1  'x, y, z'
loop_
 _atom_site_type_symbol
 _atom_site_label
 _atom_site_symmetry_multiplicity
 _atom_site_fract_x
 _atom_site_fract_y
 _atom_site_fract_z
 _atom_site_occupancy
  Ho  Ho0  1  0.341248  0.001603  0.467382  1
  Ho  Ho1  1  0.496828  0.841133  0.717622  1
  Ho  Ho2  1  0.503307  0.158327  0.216694  1
  Ho  Ho3  1  0.841133  0.496828  0.282378  1
  Ho  Ho4  1  0.158327  0.503307  0.783306  1
  Ho  Ho5  1  0.656122  0.001569  0.967830  1
  Ho  Ho6  1  0.001603  0.341248  0.532618  1
  Ho  Ho7  1  0.001569  0.656122  0.032170  1
  Ta  Ta8  1  0.170776  0.826720  0.249914  1
  Ta  Ta9  1  0.826720  0.170776  0.750086  1
  Ta  Ta10  1  0.670855  0.670855  0.500000  1
  Ta  Ta11  1  0.149892  0.008121  0.875573  1
  Ta  Ta12  1  0.497893  0.652996  0.122705  1
  Ta  Ta13  1  0.504734  0.348854  0.623293  1
  Ta  Ta14  1  0.652996  0.497893  0.877295  1
  Ta  Ta15  1  0.348854  0.504734  0.376707  1
  Ta  Ta16  1  0.847538  0.991659  0.372896  1
  Ta  Ta17  1  0.008121  0.149892  0.124427  1
  Ta  Ta18  1  0.991659  0.847538  0.627104  1
  Si  Si19  1  0.201902  0.136384  0.682600  1
  Si  Si20  1  0.370288  0.718340  0.928476  1
  Si  Si21  1  0.635405  0.294442  0.431269  1
  Si  Si22  1  0.718340  0.370288  0.071524  1
  Si  Si23  1  0.294442  0.635405  0.568731  1
  Si  Si24  1  0.796562  0.864943  0.180701  1
  Si  Si25  1  0.136384  0.201902  0.317400  1
  Si  Si26  1  0.864943  0.796562  0.819299  1
  Si  Si27  1  0.290286  0.942229  0.064920  1
  Si  Si28  1  0.544043  0.793670  0.312707  1
  Si  Si29  1  0.455814  0.206033  0.810162  1
  Si  Si30  1  0.793670  0.544043  0.687293  1
  Si  Si31  1  0.206033  0.455814  0.189838  1
  Si  Si32  1  0.704627  0.044571  0.563289  1
  Si  Si33  1  0.942229  0.290286  0.935080  1
  Si  Si34  1  0.044571  0.704627  0.436711  1
  Ag  Ag35  1  0.330283  0.330283  0.000000  1
