# generated using pymatgen
data_Y3Er5(AlIr)2
_symmetry_space_group_name_H-M   'P 1'
_cell_length_a   9.49812069
_cell_length_b   9.49812067
_cell_length_c   9.49812100
_cell_angle_alpha   60.00000234
_cell_angle_beta   60.00000239
_cell_angle_gamma   59.99999752
_symmetry_Int_Tables_number   1
_chemical_formula_structural   Y3Er5(AlIr)2
_chemical_formula_sum   'Y6 Er10 Al4 Ir4'
_cell_volume   605.89598409
_cell_formula_units_Z   2
loop_
 _symmetry_equiv_pos_site_id
 _symmetry_equiv_pos_as_xyz
  1  'x, y, z'
loop_
 _atom_site_type_symbol
 _atom_site_label
 _atom_site_symmetry_multiplicity
 _atom_site_fract_x
 _atom_site_fract_y
 _atom_site_fract_z
 _atom_site_occupancy
  Y  Y0  1  0.939393  0.560607  0.560607  1
  Y  Y1  1  0.560607  0.939393  0.939393  1
  Y  Y2  1  0.560607  0.939393  0.560607  1
  Y  Y3  1  0.939393  0.560607  0.939393  1
  Y  Y4  1  0.560607  0.560607  0.939393  1
  Y  Y5  1  0.939393  0.939393  0.560607  1
  Er  Er6  1  0.351891  0.351891  0.351891  1
  Er  Er7  1  0.351891  0.351891  0.944328  1
  Er  Er8  1  0.351891  0.944328  0.351891  1
  Er  Er9  1  0.944328  0.351891  0.351891  1
  Er  Er10  1  0.805620  0.194380  0.194380  1
  Er  Er11  1  0.194380  0.805620  0.805620  1
  Er  Er12  1  0.194380  0.805620  0.194380  1
  Er  Er13  1  0.805620  0.194380  0.805620  1
  Er  Er14  1  0.194380  0.194380  0.805620  1
  Er  Er15  1  0.805620  0.805620  0.194380  1
  Al  Al16  1  0.578128  0.578128  0.578128  1
  Al  Al17  1  0.578128  0.578128  0.265617  1
  Al  Al18  1  0.578128  0.265617  0.578128  1
  Al  Al19  1  0.265617  0.578128  0.578128  1
  Ir  Ir20  1  0.141221  0.141221  0.141221  1
  Ir  Ir21  1  0.141221  0.141221  0.576336  1
  Ir  Ir22  1  0.141221  0.576336  0.141221  1
  Ir  Ir23  1  0.576336  0.141221  0.141221  1
