# generated using pymatgen
data_Tb6TaCo17P12
_symmetry_space_group_name_H-M   'P 1'
_cell_length_a   3.70326600
_cell_length_b   10.57621100
_cell_length_c   12.27062300
_cell_angle_alpha   90.00000000
_cell_angle_beta   90.00000000
_cell_angle_gamma   90.00000000
_symmetry_Int_Tables_number   1
_chemical_formula_structural   Tb6TaCo17P12
_chemical_formula_sum   'Tb6 Ta1 Co17 P12'
_cell_volume   480.59763311
_cell_formula_units_Z   1
loop_
 _symmetry_equiv_pos_site_id
 _symmetry_equiv_pos_as_xyz
  1  'x, y, z'
loop_
 _atom_site_type_symbol
 _atom_site_label
 _atom_site_symmetry_multiplicity
 _atom_site_fract_x
 _atom_site_fract_y
 _atom_site_fract_z
 _atom_site_occupancy
  Tb  Tb0  1  0.000000  0.500000  0.525990  1
  Tb  Tb1  1  0.500000  0.000000  0.477961  1
  Tb  Tb2  1  0.500000  0.819820  0.206967  1
  Tb  Tb3  1  0.500000  0.180180  0.206967  1
  Tb  Tb4  1  0.000000  0.682734  0.795895  1
  Tb  Tb5  1  0.000000  0.317266  0.795895  1
  Ta  Ta6  1  0.500000  0.500000  0.153839  1
  Co  Co7  1  0.000000  0.000000  0.839644  1
  Co  Co8  1  0.500000  0.500000  0.702100  1
  Co  Co9  1  0.000000  0.000000  0.296514  1
  Co  Co10  1  0.000000  0.500000  0.985469  1
  Co  Co11  1  0.500000  0.000000  0.014054  1
  Co  Co12  1  0.500000  0.330544  0.990698  1
  Co  Co13  1  0.500000  0.669456  0.990698  1
  Co  Co14  1  0.000000  0.164155  0.004352  1
  Co  Co15  1  0.000000  0.835845  0.004352  1
  Co  Co16  1  0.500000  0.295590  0.432022  1
  Co  Co17  1  0.500000  0.704410  0.432022  1
  Co  Co18  1  0.000000  0.202789  0.569522  1
  Co  Co19  1  0.000000  0.797211  0.569522  1
  Co  Co20  1  0.500000  0.879877  0.708752  1
  Co  Co21  1  0.500000  0.120123  0.708752  1
  Co  Co22  1  0.000000  0.621976  0.292833  1
  Co  Co23  1  0.000000  0.378024  0.292833  1
  P  P24  1  0.500000  0.500000  0.881165  1
  P  P25  1  0.000000  0.000000  0.116639  1
  P  P26  1  0.500000  0.500000  0.355085  1
  P  P27  1  0.000000  0.000000  0.656862  1
  P  P28  1  0.500000  0.309374  0.616505  1
  P  P29  1  0.500000  0.690626  0.616505  1
  P  P30  1  0.000000  0.189046  0.385678  1
  P  P31  1  0.000000  0.810954  0.385678  1
  P  P32  1  0.500000  0.850914  0.890877  1
  P  P33  1  0.500000  0.149086  0.890877  1
  P  P34  1  0.000000  0.660620  0.103238  1
  P  P35  1  0.000000  0.339380  0.103238  1
