# generated using pymatgen
data_Sr4GdDyNb2O12
_symmetry_space_group_name_H-M   'P 1'
_cell_length_a   5.97192817
_cell_length_b   5.87321365
_cell_length_c   10.19032967
_cell_angle_alpha   55.04856151
_cell_angle_beta   89.97307289
_cell_angle_gamma   89.98322820
_symmetry_Int_Tables_number   1
_chemical_formula_structural   Sr4GdDyNb2O12
_chemical_formula_sum   'Sr4 Gd1 Dy1 Nb2 O12'
_cell_volume   292.95477906
_cell_formula_units_Z   1
loop_
 _symmetry_equiv_pos_site_id
 _symmetry_equiv_pos_as_xyz
  1  'x, y, z'
loop_
 _atom_site_type_symbol
 _atom_site_label
 _atom_site_symmetry_multiplicity
 _atom_site_fract_x
 _atom_site_fract_y
 _atom_site_fract_z
 _atom_site_occupancy
  Sr  Sr0  1  0.460862  0.258333  0.750969  1
  Sr  Sr1  1  0.961056  0.740915  0.749787  1
  Sr  Sr2  1  0.038944  0.259085  0.250213  1
  Sr  Sr3  1  0.539138  0.741667  0.249031  1
  Gd  Gd4  1  0.500000  0.000000  0.500000  1
  Dy  Dy5  1  0.000000  0.000000  0.000000  1
  Nb  Nb6  1  0.500000  0.500000  0.000000  1
  Nb  Nb7  1  0.000000  0.500000  0.500000  1
  O  O8  1  0.723491  0.641427  0.549079  1
  O  O9  1  0.222517  0.355863  0.951407  1
  O  O10  1  0.276509  0.358573  0.450921  1
  O  O11  1  0.777483  0.644137  0.048593  1
  O  O12  1  0.193638  0.731607  0.544462  1
  O  O13  1  0.695783  0.266933  0.955995  1
  O  O14  1  0.806362  0.268393  0.455538  1
  O  O15  1  0.304217  0.733067  0.044005  1
  O  O16  1  0.028011  0.177613  0.735396  1
  O  O17  1  0.528264  0.821220  0.766494  1
  O  O18  1  0.971989  0.822387  0.264604  1
  O  O19  1  0.471736  0.178780  0.233506  1
