# generated using pymatgen
data_Ca2Tb4Si24OsRu7
_symmetry_space_group_name_H-M   'P 1'
_cell_length_a   10.14275732
_cell_length_b   10.14275782
_cell_length_c   8.13833601
_cell_angle_alpha   90.00041286
_cell_angle_beta   90.00041752
_cell_angle_gamma   132.63398841
_symmetry_Int_Tables_number   1
_chemical_formula_structural   Ca2Tb4Si24OsRu7
_chemical_formula_sum   'Ca2 Tb4 Si24 Os1 Ru7'
_cell_volume   615.95043267
_cell_formula_units_Z   1
loop_
 _symmetry_equiv_pos_site_id
 _symmetry_equiv_pos_as_xyz
  1  'x, y, z'
loop_
 _atom_site_type_symbol
 _atom_site_label
 _atom_site_symmetry_multiplicity
 _atom_site_fract_x
 _atom_site_fract_y
 _atom_site_fract_z
 _atom_site_occupancy
  Ca  Ca0  1  0.499920  0.500080  0.500000  1
  Ca  Ca1  1  0.000059  0.999941  0.000000  1
  Tb  Tb2  1  0.501446  0.001468  0.750000  1
  Tb  Tb3  1  0.998532  0.498554  0.250000  1
  Tb  Tb4  1  0.497618  0.997668  0.249910  1
  Tb  Tb5  1  0.002332  0.502382  0.750090  1
  Si  Si6  1  0.796712  0.203288  0.500000  1
  Si  Si7  1  0.296066  0.703934  0.000000  1
  Si  Si8  1  0.203924  0.796076  0.500000  1
  Si  Si9  1  0.703891  0.296109  0.000000  1
  Si  Si10  1  0.332323  0.332980  0.832771  1
  Si  Si11  1  0.667020  0.667677  0.167229  1
  Si  Si12  1  0.167748  0.166868  0.332692  1
  Si  Si13  1  0.833132  0.832252  0.667308  1
  Si  Si14  1  0.122672  0.890030  0.729820  1
  Si  Si15  1  0.109970  0.877328  0.270180  1
  Si  Si16  1  0.609481  0.377544  0.229116  1
  Si  Si17  1  0.622456  0.390519  0.770884  1
  Si  Si18  1  0.876565  0.108729  0.269495  1
  Si  Si19  1  0.891271  0.123435  0.730505  1
  Si  Si20  1  0.390278  0.622887  0.770378  1
  Si  Si21  1  0.377113  0.609722  0.229622  1
  Si  Si22  1  0.345270  0.113589  0.506104  1
  Si  Si23  1  0.886411  0.654730  0.493896  1
  Si  Si24  1  0.385870  0.153565  0.006297  1
  Si  Si25  1  0.846435  0.614130  0.993703  1
  Si  Si26  1  0.653141  0.885338  0.492644  1
  Si  Si27  1  0.114662  0.346859  0.507356  1
  Si  Si28  1  0.614017  0.846041  0.993851  1
  Si  Si29  1  0.153959  0.385983  0.006149  1
  Os  Os30  1  0.671452  0.328548  0.500000  1
  Ru  Ru31  1  0.171141  0.828859  0.000000  1
  Ru  Ru32  1  0.328846  0.671154  0.500000  1
  Ru  Ru33  1  0.828557  0.171443  0.000000  1
  Ru  Ru34  1  0.125567  0.125759  0.625962  1
  Ru  Ru35  1  0.874241  0.874433  0.374038  1
  Ru  Ru36  1  0.374158  0.374256  0.125970  1
  Ru  Ru37  1  0.625744  0.625842  0.874030  1
