# generated using pymatgen
data_Tb3Y5(ReB6)4
_symmetry_space_group_name_H-M   'P 1'
_cell_length_a   3.68880900
_cell_length_b   9.19723900
_cell_length_c   11.59282700
_cell_angle_alpha   90.00108070
_cell_angle_beta   90.00000000
_cell_angle_gamma   90.00000000
_symmetry_Int_Tables_number   1
_chemical_formula_structural   Tb3Y5(ReB6)4
_chemical_formula_sum   'Tb3 Y5 Re4 B24'
_cell_volume   393.30819539
_cell_formula_units_Z   1
loop_
 _symmetry_equiv_pos_site_id
 _symmetry_equiv_pos_as_xyz
  1  'x, y, z'
loop_
 _atom_site_type_symbol
 _atom_site_label
 _atom_site_symmetry_multiplicity
 _atom_site_fract_x
 _atom_site_fract_y
 _atom_site_fract_z
 _atom_site_occupancy
  Tb  Tb0  1  0.000000  0.823517  0.085997  1
  Tb  Tb1  1  0.000000  0.176399  0.913970  1
  Tb  Tb2  1  0.000000  0.323474  0.413960  1
  Y  Y3  1  0.000000  0.676593  0.585958  1
  Y  Y4  1  0.000000  0.442782  0.129915  1
  Y  Y5  1  0.000000  0.557307  0.870099  1
  Y  Y6  1  0.000000  0.942782  0.370159  1
  Y  Y7  1  0.000000  0.057132  0.629854  1
  Re  Re8  1  0.000000  0.138080  0.179091  1
  Re  Re9  1  0.000000  0.861956  0.820849  1
  Re  Re10  1  0.000000  0.638017  0.320929  1
  Re  Re11  1  0.000000  0.361926  0.679210  1
  B  B12  1  0.500000  0.053291  0.067391  1
  B  B13  1  0.500000  0.946644  0.932565  1
  B  B14  1  0.500000  0.553209  0.432658  1
  B  B15  1  0.500000  0.446748  0.567336  1
  B  B16  1  0.500000  0.248674  0.081642  1
  B  B17  1  0.500000  0.751360  0.918305  1
  B  B18  1  0.500000  0.748718  0.418441  1
  B  B19  1  0.500000  0.251318  0.581632  1
  B  B20  1  0.500000  0.291361  0.234564  1
  B  B21  1  0.500000  0.708602  0.765453  1
  B  B22  1  0.500000  0.791401  0.265436  1
  B  B23  1  0.500000  0.208561  0.734578  1
  B  B24  1  0.500000  0.130834  0.314046  1
  B  B25  1  0.500000  0.869173  0.685970  1
  B  B26  1  0.500000  0.630858  0.185954  1
  B  B27  1  0.500000  0.369181  0.814037  1
  B  B28  1  0.500000  0.482392  0.288162  1
  B  B29  1  0.500000  0.517770  0.711817  1
  B  B30  1  0.500000  0.982381  0.211858  1
  B  B31  1  0.500000  0.017563  0.788149  1
  B  B32  1  0.500000  0.100343  0.471905  1
  B  B33  1  0.500000  0.899601  0.528129  1
  B  B34  1  0.500000  0.600288  0.028058  1
  B  B35  1  0.500000  0.399761  0.971925  1
