# generated using pymatgen
data_Hf18Ta3Cu2Re5
_symmetry_space_group_name_H-M   'P 1'
_cell_length_a   8.48857200
_cell_length_b   8.72414370
_cell_length_c   8.74948842
_cell_angle_alpha   119.90390791
_cell_angle_beta   90.00000000
_cell_angle_gamma   90.00000000
_symmetry_Int_Tables_number   1
_chemical_formula_structural   Hf18Ta3Cu2Re5
_chemical_formula_sum   'Hf18 Ta3 Cu2 Re5'
_cell_volume   561.68192340
_cell_formula_units_Z   1
loop_
 _symmetry_equiv_pos_site_id
 _symmetry_equiv_pos_as_xyz
  1  'x, y, z'
loop_
 _atom_site_type_symbol
 _atom_site_label
 _atom_site_symmetry_multiplicity
 _atom_site_fract_x
 _atom_site_fract_y
 _atom_site_fract_z
 _atom_site_occupancy
  Hf  Hf0  1  0.555200  0.802706  0.605413  1
  Hf  Hf1  1  0.552167  0.801874  0.197926  1
  Hf  Hf2  1  0.552146  0.396040  0.197923  1
  Hf  Hf3  1  0.443008  0.198557  0.397114  1
  Hf  Hf4  1  0.445418  0.197162  0.802475  1
  Hf  Hf5  1  0.445421  0.605330  0.802494  1
  Hf  Hf6  1  0.056992  0.198557  0.397114  1
  Hf  Hf7  1  0.054582  0.197162  0.802475  1
  Hf  Hf8  1  0.054579  0.605330  0.802494  1
  Hf  Hf9  1  0.944800  0.802706  0.605413  1
  Hf  Hf10  1  0.947833  0.801874  0.197926  1
  Hf  Hf11  1  0.947854  0.396040  0.197923  1
  Hf  Hf12  1  0.750000  0.458532  0.917071  1
  Hf  Hf13  1  0.750000  0.459843  0.542616  1
  Hf  Hf14  1  0.750000  0.082773  0.542613  1
  Hf  Hf15  1  0.250000  0.541210  0.082413  1
  Hf  Hf16  1  0.250000  0.542844  0.459191  1
  Hf  Hf17  1  0.250000  0.916360  0.459200  1
  Ta  Ta18  1  0.750000  0.113604  0.227205  1
  Ta  Ta19  1  0.496793  0.998850  0.997696  1
  Ta  Ta20  1  0.003207  0.998850  0.997696  1
  Cu  Cu21  1  0.750000  0.666565  0.333233  1
  Cu  Cu22  1  0.250000  0.334531  0.668991  1
  Re  Re23  1  0.750000  0.113169  0.884538  1
  Re  Re24  1  0.750000  0.771365  0.884557  1
  Re  Re25  1  0.250000  0.885265  0.770515  1
  Re  Re26  1  0.250000  0.884129  0.112885  1
  Re  Re27  1  0.250000  0.228774  0.112886  1
