# generated using pymatgen
data_Pr2DyIn3(TeO6)3
_symmetry_space_group_name_H-M   'P 1'
_cell_length_a   9.12081303
_cell_length_b   9.12081329
_cell_length_c   5.25707024
_cell_angle_alpha   89.71020834
_cell_angle_beta   90.28979024
_cell_angle_gamma   119.95769136
_symmetry_Int_Tables_number   1
_chemical_formula_structural   Pr2DyIn3(TeO6)3
_chemical_formula_sum   'Pr2 Dy1 In3 Te3 O18'
_cell_volume   378.89521013
_cell_formula_units_Z   1
loop_
 _symmetry_equiv_pos_site_id
 _symmetry_equiv_pos_as_xyz
  1  'x, y, z'
loop_
 _atom_site_type_symbol
 _atom_site_label
 _atom_site_symmetry_multiplicity
 _atom_site_fract_x
 _atom_site_fract_y
 _atom_site_fract_z
 _atom_site_occupancy
  Pr  Pr0  1  0.613181  0.002525  0.001179  1
  Pr  Pr1  1  0.002525  0.613181  0.998821  1
  Dy  Dy2  1  0.379591  0.379591  0.000000  1
  In  In3  1  0.284638  0.999447  0.501929  1
  In  In4  1  0.999447  0.284638  0.498071  1
  In  In5  1  0.715608  0.715608  0.500000  1
  Te  Te6  1  0.002545  0.002545  0.000000  1
  Te  Te7  1  0.334588  0.662910  0.496459  1
  Te  Te8  1  0.662910  0.334588  0.503541  1
  O  O9  1  0.091055  0.889140  0.787624  1
  O  O10  1  0.117635  0.208054  0.791548  1
  O  O11  1  0.800019  0.913996  0.786447  1
  O  O12  1  0.208054  0.117635  0.208452  1
  O  O13  1  0.913996  0.800019  0.213553  1
  O  O14  1  0.889140  0.091055  0.212376  1
  O  O15  1  0.460292  0.590877  0.716106  1
  O  O16  1  0.395131  0.857605  0.712765  1
  O  O17  1  0.132307  0.531263  0.696820  1
  O  O18  1  0.857605  0.395131  0.287235  1
  O  O19  1  0.531263  0.132307  0.303180  1
  O  O20  1  0.590877  0.460292  0.283894  1
  O  O21  1  0.237905  0.771117  0.282550  1
  O  O22  1  0.234356  0.462221  0.275614  1
  O  O23  1  0.541752  0.770240  0.294475  1
  O  O24  1  0.462221  0.234356  0.724386  1
  O  O25  1  0.770240  0.541752  0.705525  1
  O  O26  1  0.771117  0.237905  0.717450  1
