# generated using pymatgen
data_Dy7Th(AlCo)2
_symmetry_space_group_name_H-M   'P 1'
_cell_length_a   9.38099340
_cell_length_b   9.48115051
_cell_length_c   9.48115151
_cell_angle_alpha   59.30233653
_cell_angle_beta   60.34883919
_cell_angle_gamma   60.34883768
_symmetry_Int_Tables_number   1
_chemical_formula_structural   Dy7Th(AlCo)2
_chemical_formula_sum   'Dy14 Th2 Al4 Co4'
_cell_volume   596.15621614
_cell_formula_units_Z   2
loop_
 _symmetry_equiv_pos_site_id
 _symmetry_equiv_pos_as_xyz
  1  'x, y, z'
loop_
 _atom_site_type_symbol
 _atom_site_label
 _atom_site_symmetry_multiplicity
 _atom_site_fract_x
 _atom_site_fract_y
 _atom_site_fract_z
 _atom_site_occupancy
  Dy  Dy0  1  0.194470  0.805530  0.194470  1
  Dy  Dy1  1  0.805530  0.194470  0.805530  1
  Dy  Dy2  1  0.194470  0.194470  0.805530  1
  Dy  Dy3  1  0.805530  0.805530  0.194470  1
  Dy  Dy4  1  0.933507  0.566493  0.566493  1
  Dy  Dy5  1  0.566493  0.933507  0.933507  1
  Dy  Dy6  1  0.561382  0.938618  0.561382  1
  Dy  Dy7  1  0.938618  0.561382  0.938618  1
  Dy  Dy8  1  0.561382  0.561382  0.938618  1
  Dy  Dy9  1  0.938618  0.938618  0.561382  1
  Dy  Dy10  1  0.345720  0.349093  0.349093  1
  Dy  Dy11  1  0.349093  0.345720  0.956095  1
  Dy  Dy12  1  0.349093  0.956095  0.345720  1
  Dy  Dy13  1  0.956095  0.349093  0.349093  1
  Th  Th14  1  0.811283  0.188717  0.188717  1
  Th  Th15  1  0.188717  0.811283  0.811283  1
  Al  Al16  1  0.579798  0.574957  0.574957  1
  Al  Al17  1  0.574957  0.579798  0.270287  1
  Al  Al18  1  0.574957  0.270287  0.579798  1
  Al  Al19  1  0.270287  0.574957  0.574957  1
  Co  Co20  1  0.114683  0.149056  0.149056  1
  Co  Co21  1  0.149056  0.114683  0.587203  1
  Co  Co22  1  0.149056  0.587203  0.114683  1
  Co  Co23  1  0.587203  0.149056  0.149056  1
