# generated using pymatgen
data_Pr4Al4IrPt2Rh
_symmetry_space_group_name_H-M   'P 1'
_cell_length_a   4.47327900
_cell_length_b   7.12703779
_cell_length_c   7.97664213
_cell_angle_alpha   90.26998723
_cell_angle_beta   90.00000000
_cell_angle_gamma   90.00000000
_symmetry_Int_Tables_number   1
_chemical_formula_structural   Pr4Al4IrPt2Rh
_chemical_formula_sum   'Pr4 Al4 Ir1 Pt2 Rh1'
_cell_volume   254.30232689
_cell_formula_units_Z   1
loop_
 _symmetry_equiv_pos_site_id
 _symmetry_equiv_pos_as_xyz
  1  'x, y, z'
loop_
 _atom_site_type_symbol
 _atom_site_label
 _atom_site_symmetry_multiplicity
 _atom_site_fract_x
 _atom_site_fract_y
 _atom_site_fract_z
 _atom_site_occupancy
  Pr  Pr0  1  0.250000  0.533337  0.821588  1
  Pr  Pr1  1  0.250000  0.033029  0.679079  1
  Pr  Pr2  1  0.750000  0.974114  0.315102  1
  Pr  Pr3  1  0.750000  0.472258  0.185481  1
  Al  Al4  1  0.250000  0.141582  0.067964  1
  Al  Al5  1  0.750000  0.354793  0.563321  1
  Al  Al6  1  0.250000  0.640179  0.434255  1
  Al  Al7  1  0.750000  0.856021  0.935659  1
  Ir  Ir8  1  0.250000  0.279136  0.385603  1
  Pt  Pt9  1  0.750000  0.718320  0.614246  1
  Pt  Pt10  1  0.750000  0.218402  0.885749  1
  Rh  Rh11  1  0.250000  0.778830  0.111953  1
