# generated using pymatgen
data_Lu12Fe2TcAg2
_symmetry_space_group_name_H-M   'P 1'
_cell_length_a   8.10845926
_cell_length_b   8.10845981
_cell_length_c   8.10845935
_cell_angle_alpha   108.52974174
_cell_angle_beta   108.52973946
_cell_angle_gamma   111.37104519
_symmetry_Int_Tables_number   1
_chemical_formula_structural   Lu12Fe2TcAg2
_chemical_formula_sum   'Lu12 Fe2 Tc1 Ag2'
_cell_volume   410.04694528
_cell_formula_units_Z   1
loop_
 _symmetry_equiv_pos_site_id
 _symmetry_equiv_pos_as_xyz
  1  'x, y, z'
loop_
 _atom_site_type_symbol
 _atom_site_label
 _atom_site_symmetry_multiplicity
 _atom_site_fract_x
 _atom_site_fract_y
 _atom_site_fract_z
 _atom_site_occupancy
  Lu  Lu0  1  0.310340  0.310340  0.620680  1
  Lu  Lu1  1  0.689660  0.689660  0.379320  1
  Lu  Lu2  1  0.689660  0.310340  0.000000  1
  Lu  Lu3  1  0.310340  0.689660  0.000000  1
  Lu  Lu4  1  0.191373  0.434533  0.243160  1
  Lu  Lu5  1  0.808627  0.565467  0.756840  1
  Lu  Lu6  1  0.191373  0.948212  0.756840  1
  Lu  Lu7  1  0.948212  0.191373  0.756840  1
  Lu  Lu8  1  0.808627  0.051788  0.243160  1
  Lu  Lu9  1  0.051788  0.808627  0.243160  1
  Lu  Lu10  1  0.434533  0.191373  0.243160  1
  Lu  Lu11  1  0.565467  0.808627  0.756840  1
  Fe  Fe12  1  0.380622  0.380622  0.000000  1
  Fe  Fe13  1  0.619378  0.619378  0.000000  1
  Tc  Tc14  1  0.000000  0.000000  0.000000  1
  Ag  Ag15  1  0.000000  0.500000  0.500000  1
  Ag  Ag16  1  0.500000  0.000000  0.500000  1
