# generated using pymatgen
data_LaEu7P6
_symmetry_space_group_name_H-M   'P 1'
_cell_length_a   7.78920235
_cell_length_b   7.78920195
_cell_length_c   7.75579300
_cell_angle_alpha   109.38436353
_cell_angle_beta   109.38436251
_cell_angle_gamma   109.55793999
_symmetry_Int_Tables_number   1
_chemical_formula_structural   LaEu7P6
_chemical_formula_sum   'La1 Eu7 P6'
_cell_volume   362.62243956
_cell_formula_units_Z   1
loop_
 _symmetry_equiv_pos_site_id
 _symmetry_equiv_pos_as_xyz
  1  'x, y, z'
loop_
 _atom_site_type_symbol
 _atom_site_label
 _atom_site_symmetry_multiplicity
 _atom_site_fract_x
 _atom_site_fract_y
 _atom_site_fract_z
 _atom_site_occupancy
  La  La0  1  0.500000  0.000000  0.368759  1
  Eu  Eu1  1  0.630926  0.629660  0.629980  1
  Eu  Eu2  1  0.005561  0.375716  0.503632  1
  Eu  Eu3  1  0.370155  0.494439  0.998071  1
  Eu  Eu4  1  0.998734  0.869074  0.499054  1
  Eu  Eu5  1  0.870340  0.501266  0.000320  1
  Eu  Eu6  1  0.500000  0.000000  0.870565  1
  Eu  Eu7  1  0.124284  0.129845  0.127916  1
  P  P8  1  0.872373  0.123955  0.747023  1
  P  P9  1  0.376045  0.248418  0.623068  1
  P  P10  1  0.127005  0.752281  0.878750  1
  P  P11  1  0.747719  0.874724  0.126468  1
  P  P12  1  0.251582  0.627627  0.374650  1
  P  P13  1  0.625276  0.372995  0.251744  1
