# generated using pymatgen
data_Er(TaS2)4
_symmetry_space_group_name_H-M   'P 1'
_cell_length_a   6.67938900
_cell_length_b   6.67938877
_cell_length_c   13.72598400
_cell_angle_alpha   90.00000000
_cell_angle_beta   90.00000000
_cell_angle_gamma   120.00000610
_symmetry_Int_Tables_number   1
_chemical_formula_structural   Er(TaS2)4
_chemical_formula_sum   'Er2 Ta8 S16'
_cell_volume   530.33165719
_cell_formula_units_Z   2
loop_
 _symmetry_equiv_pos_site_id
 _symmetry_equiv_pos_as_xyz
  1  'x, y, z'
loop_
 _atom_site_type_symbol
 _atom_site_label
 _atom_site_symmetry_multiplicity
 _atom_site_fract_x
 _atom_site_fract_y
 _atom_site_fract_z
 _atom_site_occupancy
  Er  Er0  1  0.000000  0.000000  0.500000  1
  Er  Er1  1  0.000000  0.000000  0.000000  1
  Ta  Ta2  1  0.504678  0.495322  0.750000  1
  Ta  Ta3  1  0.009355  0.504678  0.250000  1
  Ta  Ta4  1  0.495322  0.990645  0.250000  1
  Ta  Ta5  1  0.504678  0.009355  0.750000  1
  Ta  Ta6  1  0.990645  0.495322  0.750000  1
  Ta  Ta7  1  0.495322  0.504678  0.250000  1
  Ta  Ta8  1  0.000000  0.000000  0.750000  1
  Ta  Ta9  1  0.000000  0.000000  0.250000  1
  S  S10  1  0.831345  0.168655  0.364097  1
  S  S11  1  0.831345  0.662689  0.364097  1
  S  S12  1  0.337311  0.168655  0.364097  1
  S  S13  1  0.662689  0.831345  0.864097  1
  S  S14  1  0.168655  0.337311  0.635903  1
  S  S15  1  0.168655  0.831345  0.864097  1
  S  S16  1  0.168655  0.337311  0.864097  1
  S  S17  1  0.831345  0.168655  0.135903  1
  S  S18  1  0.337311  0.168655  0.135903  1
  S  S19  1  0.662689  0.831345  0.635903  1
  S  S20  1  0.333333  0.666667  0.133350  1
  S  S21  1  0.666667  0.333333  0.633350  1
  S  S22  1  0.666667  0.333333  0.866650  1
  S  S23  1  0.333333  0.666667  0.366650  1
  S  S24  1  0.831345  0.662689  0.135903  1
  S  S25  1  0.168655  0.831345  0.635903  1
