# generated using pymatgen
data_SrNd6IrI12
_symmetry_space_group_name_H-M   'P 1'
_cell_length_a   10.07032071
_cell_length_b   10.07031977
_cell_length_c   10.07031969
_cell_angle_alpha   106.47126704
_cell_angle_beta   106.47126444
_cell_angle_gamma   106.47127166
_symmetry_Int_Tables_number   1
_chemical_formula_structural   SrNd6IrI12
_chemical_formula_sum   'Sr1 Nd6 Ir1 I12'
_cell_volume   862.47540290
_cell_formula_units_Z   1
loop_
 _symmetry_equiv_pos_site_id
 _symmetry_equiv_pos_as_xyz
  1  'x, y, z'
loop_
 _atom_site_type_symbol
 _atom_site_label
 _atom_site_symmetry_multiplicity
 _atom_site_fract_x
 _atom_site_fract_y
 _atom_site_fract_z
 _atom_site_occupancy
  Sr  Sr0  1  0.500000  0.500000  0.500000  1
  Nd  Nd1  1  0.099219  0.024755  0.302186  1
  Nd  Nd2  1  0.302186  0.099219  0.024755  1
  Nd  Nd3  1  0.024755  0.302186  0.099219  1
  Nd  Nd4  1  0.900781  0.975245  0.697814  1
  Nd  Nd5  1  0.697814  0.900781  0.975245  1
  Nd  Nd6  1  0.975245  0.697814  0.900781  1
  Ir  Ir7  1  0.000000  0.000000  0.000000  1
  I  I8  1  0.069967  0.679601  0.223317  1
  I  I9  1  0.223317  0.069967  0.679601  1
  I  I10  1  0.679601  0.223317  0.069967  1
  I  I11  1  0.930033  0.320399  0.776683  1
  I  I12  1  0.776683  0.930033  0.320399  1
  I  I13  1  0.320399  0.776683  0.930033  1
  I  I14  1  0.456038  0.144750  0.374946  1
  I  I15  1  0.374946  0.456038  0.144750  1
  I  I16  1  0.144750  0.374946  0.456038  1
  I  I17  1  0.543962  0.855250  0.625054  1
  I  I18  1  0.625054  0.543962  0.855250  1
  I  I19  1  0.855250  0.625054  0.543962  1
