# generated using pymatgen
data_Dy4ScIr3O14
_symmetry_space_group_name_H-M   'P 1'
_cell_length_a   7.26354082
_cell_length_b   7.26354054
_cell_length_c   7.32696292
_cell_angle_alpha   60.28593500
_cell_angle_beta   60.28593637
_cell_angle_gamma   60.00000609
_symmetry_Int_Tables_number   1
_chemical_formula_structural   Dy4ScIr3O14
_chemical_formula_sum   'Dy4 Sc1 Ir3 O14'
_cell_volume   274.51702775
_cell_formula_units_Z   1
loop_
 _symmetry_equiv_pos_site_id
 _symmetry_equiv_pos_as_xyz
  1  'x, y, z'
loop_
 _atom_site_type_symbol
 _atom_site_label
 _atom_site_symmetry_multiplicity
 _atom_site_fract_x
 _atom_site_fract_y
 _atom_site_fract_z
 _atom_site_occupancy
  Dy  Dy0  1  0.625000  0.125000  0.125000  1
  Dy  Dy1  1  0.125000  0.625000  0.125000  1
  Dy  Dy2  1  0.125000  0.125000  0.625000  1
  Dy  Dy3  1  0.125000  0.125000  0.125000  1
  Sc  Sc4  1  0.625000  0.625000  0.125000  1
  Ir  Ir5  1  0.125000  0.625000  0.625000  1
  Ir  Ir6  1  0.625000  0.125000  0.625000  1
  Ir  Ir7  1  0.625000  0.625000  0.625000  1
  O  O8  1  0.720605  0.720605  0.289075  1
  O  O9  1  0.295964  0.295964  0.687985  1
  O  O10  1  0.720087  0.295964  0.687985  1
  O  O11  1  0.269715  0.720605  0.289075  1
  O  O12  1  0.295964  0.720087  0.687985  1
  O  O13  1  0.720605  0.269715  0.289075  1
  O  O14  1  0.529395  0.529395  0.960925  1
  O  O15  1  0.954036  0.954036  0.562015  1
  O  O16  1  0.529913  0.954036  0.562015  1
  O  O17  1  0.980285  0.529395  0.960925  1
  O  O18  1  0.954036  0.529913  0.562015  1
  O  O19  1  0.529395  0.980285  0.960925  1
  O  O20  1  0.247141  0.247141  0.258576  1
  O  O21  1  0.002859  0.002859  0.991424  1
