# generated using pymatgen
data_Yb4Al18Ir5Pd
_symmetry_space_group_name_H-M   'P 1'
_cell_length_a   7.56132915
_cell_length_b   7.56132946
_cell_length_c   9.59817769
_cell_angle_alpha   89.97815961
_cell_angle_beta   89.97815329
_cell_angle_gamma   119.39038579
_symmetry_Int_Tables_number   1
_chemical_formula_structural   Yb4Al18Ir5Pd
_chemical_formula_sum   'Yb4 Al18 Ir5 Pd1'
_cell_volume   478.13526128
_cell_formula_units_Z   1
loop_
 _symmetry_equiv_pos_site_id
 _symmetry_equiv_pos_as_xyz
  1  'x, y, z'
loop_
 _atom_site_type_symbol
 _atom_site_label
 _atom_site_symmetry_multiplicity
 _atom_site_fract_x
 _atom_site_fract_y
 _atom_site_fract_z
 _atom_site_occupancy
  Yb  Yb0  1  0.995594  0.671674  0.251215  1
  Yb  Yb1  1  0.005131  0.328607  0.749050  1
  Yb  Yb2  1  0.671393  0.994869  0.250950  1
  Yb  Yb3  1  0.328326  0.004406  0.748785  1
  Al  Al4  1  0.129480  0.129144  0.250191  1
  Al  Al5  1  0.870856  0.870520  0.749809  1
  Al  Al6  1  0.005500  0.335538  0.071954  1
  Al  Al7  1  0.001415  0.668851  0.927684  1
  Al  Al8  1  0.999028  0.664646  0.570468  1
  Al  Al9  1  0.335354  0.000972  0.429532  1
  Al  Al10  1  0.001827  0.335031  0.428692  1
  Al  Al11  1  0.664969  0.998173  0.571308  1
  Al  Al12  1  0.664462  0.994500  0.928046  1
  Al  Al13  1  0.331149  0.998585  0.072316  1
  Al  Al14  1  0.333482  0.333546  0.547536  1
  Al  Al15  1  0.666454  0.666518  0.452464  1
  Al  Al16  1  0.665657  0.668750  0.050669  1
  Al  Al17  1  0.331250  0.334343  0.949331  1
  Al  Al18  1  0.337228  0.547426  0.250203  1
  Al  Al19  1  0.663957  0.455369  0.747734  1
  Al  Al20  1  0.544631  0.336043  0.252266  1
  Al  Al21  1  0.452574  0.662772  0.749797  1
  Ir  Ir22  1  0.328568  0.671432  0.000000  1
  Ir  Ir23  1  0.329051  0.670949  0.500000  1
  Ir  Ir24  1  0.671457  0.328543  0.500000  1
  Ir  Ir25  1  0.999481  0.000519  0.000000  1
  Ir  Ir26  1  0.000019  0.999981  0.500000  1
  Pd  Pd27  1  0.671706  0.328294  0.000000  1
