# generated using pymatgen
data_TaSb16
_symmetry_space_group_name_H-M   'P 1'
_cell_length_a   7.62514279
_cell_length_b   7.62514245
_cell_length_c   12.77004500
_cell_angle_alpha   57.21793278
_cell_angle_beta   57.21793443
_cell_angle_gamma   67.56971285
_symmetry_Int_Tables_number   1
_chemical_formula_structural   TaSb16
_chemical_formula_sum   'Ta1 Sb16'
_cell_volume   520.69669256
_cell_formula_units_Z   1
loop_
 _symmetry_equiv_pos_site_id
 _symmetry_equiv_pos_as_xyz
  1  'x, y, z'
loop_
 _atom_site_type_symbol
 _atom_site_label
 _atom_site_symmetry_multiplicity
 _atom_site_fract_x
 _atom_site_fract_y
 _atom_site_fract_z
 _atom_site_occupancy
  Ta  Ta0  1  0.711582  0.711582  0.579789  1
  Sb  Sb1  1  0.881213  0.881213  0.844897  1
  Sb  Sb2  1  0.329928  0.329928  0.903049  1
  Sb  Sb3  1  0.673310  0.169387  0.117094  1
  Sb  Sb4  1  0.169387  0.673310  0.117094  1
  Sb  Sb5  1  0.002363  0.002363  0.352687  1
  Sb  Sb6  1  0.482894  0.482894  0.374024  1
  Sb  Sb7  1  0.531792  0.079141  0.618286  1
  Sb  Sb8  1  0.079141  0.531792  0.618286  1
  Sb  Sb9  1  0.211123  0.211123  0.389731  1
  Sb  Sb10  1  0.736602  0.736602  0.343829  1
  Sb  Sb11  1  0.275745  0.791999  0.623024  1
  Sb  Sb12  1  0.791999  0.275745  0.623024  1
  Sb  Sb13  1  0.082147  0.082147  0.883602  1
  Sb  Sb14  1  0.571369  0.571369  0.878602  1
  Sb  Sb15  1  0.385033  0.895669  0.133692  1
  Sb  Sb16  1  0.895669  0.385033  0.133692  1
