# generated using pymatgen
data_Ca5(InN2)2
_symmetry_space_group_name_H-M   'P 1'
_cell_length_a   6.33525026
_cell_length_b   6.33525094
_cell_length_c   14.86472500
_cell_angle_alpha   90.00000000
_cell_angle_beta   90.00000000
_cell_angle_gamma   134.44689537
_symmetry_Int_Tables_number   1
_chemical_formula_structural   Ca5(InN2)2
_chemical_formula_sum   'Ca10 In4 N8'
_cell_volume   425.91381299
_cell_formula_units_Z   2
loop_
 _symmetry_equiv_pos_site_id
 _symmetry_equiv_pos_as_xyz
  1  'x, y, z'
loop_
 _atom_site_type_symbol
 _atom_site_label
 _atom_site_symmetry_multiplicity
 _atom_site_fract_x
 _atom_site_fract_y
 _atom_site_fract_z
 _atom_site_occupancy
  Ca  Ca0  1  0.376287  0.623713  0.325711  1
  Ca  Ca1  1  0.123713  0.876287  0.825711  1
  Ca  Ca2  1  0.623713  0.376287  0.674289  1
  Ca  Ca3  1  0.500000  0.500000  0.000000  1
  Ca  Ca4  1  0.233009  0.766991  0.075732  1
  Ca  Ca5  1  0.733009  0.266991  0.424268  1
  Ca  Ca6  1  0.266991  0.733009  0.575732  1
  Ca  Ca7  1  0.000000  0.000000  0.500000  1
  Ca  Ca8  1  0.876287  0.123713  0.174289  1
  Ca  Ca9  1  0.766991  0.233009  0.924268  1
  In  In10  1  0.905894  0.094106  0.695573  1
  In  In11  1  0.094106  0.905894  0.304427  1
  In  In12  1  0.405894  0.594106  0.804427  1
  In  In13  1  0.594106  0.405894  0.195573  1
  N  N14  1  0.089569  0.910431  0.653567  1
  N  N15  1  0.195911  0.804089  0.426502  1
  N  N16  1  0.804089  0.195911  0.573498  1
  N  N17  1  0.589569  0.410431  0.846433  1
  N  N18  1  0.410431  0.589569  0.153567  1
  N  N19  1  0.304089  0.695911  0.926502  1
  N  N20  1  0.910431  0.089569  0.346433  1
  N  N21  1  0.695911  0.304089  0.073498  1
