# generated using pymatgen
data_Tl3AuSe13
_symmetry_space_group_name_H-M   'P 1'
_cell_length_a   4.89758800
_cell_length_b   13.70681070
_cell_length_c   16.85245033
_cell_angle_alpha   93.78057196
_cell_angle_beta   90.00000000
_cell_angle_gamma   90.00000000
_symmetry_Int_Tables_number   1
_chemical_formula_structural   Tl3AuSe13
_chemical_formula_sum   'Tl6 Au2 Se26'
_cell_volume   1128.84837882
_cell_formula_units_Z   2
loop_
 _symmetry_equiv_pos_site_id
 _symmetry_equiv_pos_as_xyz
  1  'x, y, z'
loop_
 _atom_site_type_symbol
 _atom_site_label
 _atom_site_symmetry_multiplicity
 _atom_site_fract_x
 _atom_site_fract_y
 _atom_site_fract_z
 _atom_site_occupancy
  Tl  Tl0  1  0.197766  0.200456  0.730288  1
  Tl  Tl1  1  0.197766  0.299544  0.269712  1
  Tl  Tl2  1  0.151440  0.250000  0.000000  1
  Tl  Tl3  1  0.848560  0.750000  0.000000  1
  Tl  Tl4  1  0.802234  0.799544  0.269712  1
  Tl  Tl5  1  0.802234  0.700456  0.730288  1
  Au  Au6  1  0.000000  0.500000  0.500000  1
  Au  Au7  1  0.000000  0.000000  0.500000  1
  Se  Se8  1  0.314777  0.575909  0.606045  1
  Se  Se9  1  0.623176  0.547245  0.301482  1
  Se  Se10  1  0.376824  0.047245  0.301482  1
  Se  Se11  1  0.376824  0.452755  0.698518  1
  Se  Se12  1  0.966313  0.516401  0.199891  1
  Se  Se13  1  0.966313  0.983599  0.800109  1
  Se  Se14  1  0.033687  0.483599  0.800109  1
  Se  Se15  1  0.033687  0.016401  0.199891  1
  Se  Se16  1  0.735342  0.422346  0.096647  1
  Se  Se17  1  0.623176  0.952755  0.698518  1
  Se  Se18  1  0.264658  0.577654  0.903353  1
  Se  Se19  1  0.264658  0.922346  0.096647  1
  Se  Se20  1  0.709724  0.260419  0.138845  1
  Se  Se21  1  0.709724  0.239581  0.861155  1
  Se  Se22  1  0.290276  0.739581  0.861155  1
  Se  Se23  1  0.290276  0.760419  0.138845  1
  Se  Se24  1  0.070469  0.647844  0.419897  1
  Se  Se25  1  0.070469  0.852156  0.580103  1
  Se  Se26  1  0.929531  0.352156  0.580103  1
  Se  Se27  1  0.929531  0.147844  0.419897  1
  Se  Se28  1  0.626284  0.250000  0.500000  1
  Se  Se29  1  0.373716  0.750000  0.500000  1
  Se  Se30  1  0.685223  0.424091  0.393955  1
  Se  Se31  1  0.685223  0.075909  0.606045  1
  Se  Se32  1  0.735342  0.077654  0.903353  1
  Se  Se33  1  0.314777  0.924091  0.393955  1
