# generated using pymatgen
data_CeDy3(TcB4)4
_symmetry_space_group_name_H-M   'P 1'
_cell_length_a   3.62092500
_cell_length_b   5.98433586
_cell_length_c   11.58727493
_cell_angle_alpha   89.94281715
_cell_angle_beta   90.00000000
_cell_angle_gamma   90.00000000
_symmetry_Int_Tables_number   1
_chemical_formula_structural   CeDy3(TcB4)4
_chemical_formula_sum   'Ce1 Dy3 Tc4 B16'
_cell_volume   251.08258078
_cell_formula_units_Z   1
loop_
 _symmetry_equiv_pos_site_id
 _symmetry_equiv_pos_as_xyz
  1  'x, y, z'
loop_
 _atom_site_type_symbol
 _atom_site_label
 _atom_site_symmetry_multiplicity
 _atom_site_fract_x
 _atom_site_fract_y
 _atom_site_fract_z
 _atom_site_occupancy
  Ce  Ce0  1  0.000000  0.626659  0.349405  1
  Dy  Dy1  1  0.000000  0.372259  0.650779  1
  Dy  Dy2  1  0.000000  0.127077  0.149281  1
  Dy  Dy3  1  0.000000  0.873201  0.849564  1
  Tc  Tc4  1  0.000000  0.632961  0.087347  1
  Tc  Tc5  1  0.000000  0.365515  0.912127  1
  Tc  Tc6  1  0.000000  0.134777  0.411333  1
  Tc  Tc7  1  0.000000  0.865776  0.588932  1
  B  B8  1  0.500000  0.787041  0.184105  1
  B  B9  1  0.500000  0.212587  0.815167  1
  B  B10  1  0.500000  0.287012  0.315010  1
  B  B11  1  0.500000  0.713275  0.686050  1
  B  B12  1  0.500000  0.863864  0.031140  1
  B  B13  1  0.500000  0.135899  0.968049  1
  B  B14  1  0.500000  0.363537  0.468944  1
  B  B15  1  0.500000  0.637034  0.532354  1
  B  B16  1  0.500000  0.888866  0.454094  1
  B  B17  1  0.500000  0.113661  0.547733  1
  B  B18  1  0.500000  0.386081  0.046247  1
  B  B19  1  0.500000  0.612862  0.952616  1
  B  B20  1  0.500000  0.976547  0.308218  1
  B  B21  1  0.500000  0.023331  0.692763  1
  B  B22  1  0.500000  0.477287  0.190952  1
  B  B23  1  0.500000  0.522892  0.807790  1
