# generated using pymatgen
data_La4SiBr6
_symmetry_space_group_name_H-M   'P 1'
_cell_length_a   4.33977700
_cell_length_b   13.92258400
_cell_length_c   14.79664800
_cell_angle_alpha   90.00000000
_cell_angle_beta   90.00000000
_cell_angle_gamma   90.00000000
_symmetry_Int_Tables_number   1
_chemical_formula_structural   La4SiBr6
_chemical_formula_sum   'La8 Si2 Br12'
_cell_volume   894.02693450
_cell_formula_units_Z   2
loop_
 _symmetry_equiv_pos_site_id
 _symmetry_equiv_pos_as_xyz
  1  'x, y, z'
loop_
 _atom_site_type_symbol
 _atom_site_label
 _atom_site_symmetry_multiplicity
 _atom_site_fract_x
 _atom_site_fract_y
 _atom_site_fract_z
 _atom_site_occupancy
  La  La0  1  0.500000  0.120031  0.338406  1
  La  La1  1  0.500000  0.879969  0.661594  1
  La  La2  1  0.500000  0.620031  0.161594  1
  La  La3  1  0.500000  0.379969  0.838406  1
  La  La4  1  0.000000  0.120463  0.579760  1
  La  La5  1  0.000000  0.879537  0.420240  1
  La  La6  1  0.000000  0.620463  0.920240  1
  La  La7  1  0.000000  0.379537  0.079760  1
  Si  Si8  1  0.500000  0.000000  0.500000  1
  Si  Si9  1  0.500000  0.500000  0.000000  1
  Br  Br10  1  0.500000  0.243911  0.162786  1
  Br  Br11  1  0.500000  0.756089  0.837214  1
  Br  Br12  1  0.500000  0.743911  0.337214  1
  Br  Br13  1  0.500000  0.256089  0.662786  1
  Br  Br14  1  0.000000  0.253373  0.411130  1
  Br  Br15  1  0.000000  0.746627  0.588870  1
  Br  Br16  1  0.000000  0.753373  0.088870  1
  Br  Br17  1  0.000000  0.246627  0.911130  1
  Br  Br18  1  0.000000  0.002313  0.244886  1
  Br  Br19  1  0.000000  0.997687  0.755114  1
  Br  Br20  1  0.000000  0.502313  0.255114  1
  Br  Br21  1  0.000000  0.497687  0.744886  1
