# generated using pymatgen
data_Yb6NpMoO12
_symmetry_space_group_name_H-M   'P 1'
_cell_length_a   6.58931371
_cell_length_b   6.58931331
_cell_length_c   6.58931400
_cell_angle_alpha   92.13559768
_cell_angle_beta   92.13559755
_cell_angle_gamma   92.13560402
_symmetry_Int_Tables_number   1
_chemical_formula_structural   Yb6NpMoO12
_chemical_formula_sum   'Yb6 Np1 Mo1 O12'
_cell_volume   285.49036903
_cell_formula_units_Z   1
loop_
 _symmetry_equiv_pos_site_id
 _symmetry_equiv_pos_as_xyz
  1  'x, y, z'
loop_
 _atom_site_type_symbol
 _atom_site_label
 _atom_site_symmetry_multiplicity
 _atom_site_fract_x
 _atom_site_fract_y
 _atom_site_fract_z
 _atom_site_occupancy
  Yb  Yb0  1  0.931205  0.437000  0.740832  1
  Yb  Yb1  1  0.740832  0.931205  0.437000  1
  Yb  Yb2  1  0.563000  0.259168  0.068795  1
  Yb  Yb3  1  0.437000  0.740832  0.931205  1
  Yb  Yb4  1  0.259168  0.068795  0.563000  1
  Yb  Yb5  1  0.068795  0.563000  0.259168  1
  Np  Np6  1  0.000000  0.000000  0.000000  1
  Mo  Mo7  1  0.500000  0.500000  0.500000  1
  O  O8  1  0.925119  0.298671  0.065590  1
  O  O9  1  0.934410  0.074881  0.701329  1
  O  O10  1  0.783428  0.580599  0.454941  1
  O  O11  1  0.701329  0.934410  0.074881  1
  O  O12  1  0.580599  0.454941  0.783428  1
  O  O13  1  0.545059  0.216572  0.419401  1
  O  O14  1  0.454941  0.783428  0.580599  1
  O  O15  1  0.419401  0.545059  0.216572  1
  O  O16  1  0.298671  0.065590  0.925119  1
  O  O17  1  0.216572  0.419401  0.545059  1
  O  O18  1  0.065590  0.925119  0.298671  1
  O  O19  1  0.074881  0.701329  0.934410  1
