# generated using pymatgen
data_Zr3(GaCu)4
_symmetry_space_group_name_H-M   'P 1'
_cell_length_a   4.10605463
_cell_length_b   6.48009609
_cell_length_c   7.70532387
_cell_angle_alpha   114.86581301
_cell_angle_beta   105.45270101
_cell_angle_gamma   90.00000211
_symmetry_Int_Tables_number   1
_chemical_formula_structural   Zr3(GaCu)4
_chemical_formula_sum   'Zr3 Ga4 Cu4'
_cell_volume   177.81221476
_cell_formula_units_Z   1
loop_
 _symmetry_equiv_pos_site_id
 _symmetry_equiv_pos_as_xyz
  1  'x, y, z'
loop_
 _atom_site_type_symbol
 _atom_site_label
 _atom_site_symmetry_multiplicity
 _atom_site_fract_x
 _atom_site_fract_y
 _atom_site_fract_z
 _atom_site_occupancy
  Zr  Zr0  1  0.000000  0.500000  0.000000  1
  Zr  Zr1  1  0.124075  0.124075  0.248149  1
  Zr  Zr2  1  0.875925  0.875925  0.751851  1
  Ga  Ga3  1  0.499999  0.197230  0.000000  1
  Ga  Ga4  1  0.499999  0.802771  0.000000  1
  Ga  Ga5  1  0.214975  0.714975  0.429951  1
  Ga  Ga6  1  0.785024  0.285024  0.570048  1
  Cu  Cu7  1  0.673657  0.480300  0.347314  1
  Cu  Cu8  1  0.673657  0.867015  0.347314  1
  Cu  Cu9  1  0.326343  0.132985  0.652687  1
  Cu  Cu10  1  0.326343  0.519701  0.652687  1
