# generated using pymatgen
data_TaNb2Cr3Si2P
_symmetry_space_group_name_H-M   'P 1'
_cell_length_a   6.62920650
_cell_length_b   6.60780835
_cell_length_c   3.29078400
_cell_angle_alpha   90.00000000
_cell_angle_beta   90.00000000
_cell_angle_gamma   119.89327524
_symmetry_Int_Tables_number   1
_chemical_formula_structural   TaNb2Cr3Si2P
_chemical_formula_sum   'Ta1 Nb2 Cr3 Si2 P1'
_cell_volume   124.97266876
_cell_formula_units_Z   1
loop_
 _symmetry_equiv_pos_site_id
 _symmetry_equiv_pos_as_xyz
  1  'x, y, z'
loop_
 _atom_site_type_symbol
 _atom_site_label
 _atom_site_symmetry_multiplicity
 _atom_site_fract_x
 _atom_site_fract_y
 _atom_site_fract_z
 _atom_site_occupancy
  Ta  Ta0  1  0.000000  0.601071  0.500000  1
  Nb  Nb1  1  0.599635  0.999385  0.500000  1
  Nb  Nb2  1  0.400365  0.399750  0.500000  1
  Cr  Cr3  1  0.753096  0.752014  0.000000  1
  Cr  Cr4  1  0.246904  0.998918  0.000000  1
  Cr  Cr5  1  0.000000  0.248490  0.000000  1
  Si  Si6  1  0.666458  0.332973  0.000000  1
  Si  Si7  1  0.333542  0.666516  0.000000  1
  P  P8  1  0.000000  0.000882  0.500000  1
