# generated using pymatgen
data_Rb3NaFeO4
_symmetry_space_group_name_H-M   'P 1'
_cell_length_a   6.51915300
_cell_length_b   10.65036562
_cell_length_c   10.97589048
_cell_angle_alpha   69.11277906
_cell_angle_beta   90.00000000
_cell_angle_gamma   90.00000000
_symmetry_Int_Tables_number   1
_chemical_formula_structural   Rb3NaFeO4
_chemical_formula_sum   'Rb12 Na4 Fe4 O16'
_cell_volume   711.99078878
_cell_formula_units_Z   4
loop_
 _symmetry_equiv_pos_site_id
 _symmetry_equiv_pos_as_xyz
  1  'x, y, z'
loop_
 _atom_site_type_symbol
 _atom_site_label
 _atom_site_symmetry_multiplicity
 _atom_site_fract_x
 _atom_site_fract_y
 _atom_site_fract_z
 _atom_site_occupancy
  Rb  Rb0  1  0.650381  0.044420  0.328241  1
  Rb  Rb1  1  0.124591  0.319310  0.596511  1
  Rb  Rb2  1  0.392177  0.542275  0.312386  1
  Rb  Rb3  1  0.107823  0.542275  0.812386  1
  Rb  Rb4  1  0.849619  0.044420  0.828241  1
  Rb  Rb5  1  0.607823  0.457725  0.687614  1
  Rb  Rb6  1  0.875409  0.680690  0.403489  1
  Rb  Rb7  1  0.150381  0.955580  0.171759  1
  Rb  Rb8  1  0.624591  0.680690  0.903489  1
  Rb  Rb9  1  0.375409  0.319310  0.096511  1
  Rb  Rb10  1  0.349619  0.955580  0.671759  1
  Rb  Rb11  1  0.892177  0.457725  0.187614  1
  Na  Na12  1  0.612089  0.872002  0.107833  1
  Na  Na13  1  0.387911  0.127998  0.892167  1
  Na  Na14  1  0.887911  0.872002  0.607833  1
  Na  Na15  1  0.112089  0.127998  0.392167  1
  Fe  Fe16  1  0.366094  0.759775  0.483542  1
  Fe  Fe17  1  0.633906  0.240225  0.516458  1
  Fe  Fe18  1  0.866094  0.240225  0.016458  1
  Fe  Fe19  1  0.133906  0.759775  0.983542  1
  O  O20  1  0.984335  0.198552  0.179041  1
  O  O21  1  0.484335  0.801448  0.320959  1
  O  O22  1  0.254977  0.593941  0.053183  1
  O  O23  1  0.154877  0.884070  0.456591  1
  O  O24  1  0.745023  0.406059  0.946817  1
  O  O25  1  0.415714  0.243713  0.407710  1
  O  O26  1  0.654877  0.115930  0.043409  1
  O  O27  1  0.015665  0.801448  0.820959  1
  O  O28  1  0.754977  0.406059  0.446817  1
  O  O29  1  0.084286  0.243713  0.907710  1
  O  O30  1  0.345123  0.884070  0.956591  1
  O  O31  1  0.845123  0.115930  0.543409  1
  O  O32  1  0.584286  0.756287  0.592290  1
  O  O33  1  0.245023  0.593941  0.553183  1
  O  O34  1  0.515665  0.198552  0.679041  1
  O  O35  1  0.915714  0.756287  0.092290  1
