# generated using pymatgen
data_YbDy3Ru8
_symmetry_space_group_name_H-M   'P 1'
_cell_length_a   5.23881170
_cell_length_b   5.23881114
_cell_length_c   8.98301000
_cell_angle_alpha   89.99819540
_cell_angle_beta   90.00180735
_cell_angle_gamma   120.00329318
_symmetry_Int_Tables_number   1
_chemical_formula_structural   YbDy3Ru8
_chemical_formula_sum   'Yb1 Dy3 Ru8'
_cell_volume   213.50282866
_cell_formula_units_Z   1
loop_
 _symmetry_equiv_pos_site_id
 _symmetry_equiv_pos_as_xyz
  1  'x, y, z'
loop_
 _atom_site_type_symbol
 _atom_site_label
 _atom_site_symmetry_multiplicity
 _atom_site_fract_x
 _atom_site_fract_y
 _atom_site_fract_z
 _atom_site_occupancy
  Yb  Yb0  1  0.666645  0.333355  0.935340  1
  Dy  Dy1  1  0.666644  0.333356  0.572532  1
  Dy  Dy2  1  0.333343  0.666657  0.432208  1
  Dy  Dy3  1  0.333343  0.666657  0.062767  1
  Ru  Ru4  1  0.999973  0.000027  0.498205  1
  Ru  Ru5  1  0.999991  0.000009  0.999362  1
  Ru  Ru6  1  0.170501  0.341020  0.749768  1
  Ru  Ru7  1  0.170535  0.829465  0.749756  1
  Ru  Ru8  1  0.658980  0.829499  0.749768  1
  Ru  Ru9  1  0.828797  0.657480  0.250100  1
  Ru  Ru10  1  0.828729  0.171271  0.250094  1
  Ru  Ru11  1  0.342520  0.171203  0.250100  1
