# generated using pymatgen
data_Na3Tm2Ge2P10Ir19
_symmetry_space_group_name_H-M   'P 1'
_cell_length_a   12.72714706
_cell_length_b   12.78444772
_cell_length_c   3.96452400
_cell_angle_alpha   90.00000000
_cell_angle_beta   90.00000000
_cell_angle_gamma   120.14904315
_symmetry_Int_Tables_number   1
_chemical_formula_structural   Na3Tm2Ge2P10Ir19
_chemical_formula_sum   'Na3 Tm2 Ge2 P10 Ir19'
_cell_volume   557.80256563
_cell_formula_units_Z   1
loop_
 _symmetry_equiv_pos_site_id
 _symmetry_equiv_pos_as_xyz
  1  'x, y, z'
loop_
 _atom_site_type_symbol
 _atom_site_label
 _atom_site_symmetry_multiplicity
 _atom_site_fract_x
 _atom_site_fract_y
 _atom_site_fract_z
 _atom_site_occupancy
  Na  Na0  1  0.175178  0.175522  0.000000  1
  Na  Na1  1  0.824822  0.000344  0.000000  1
  Na  Na2  1  0.000000  0.822305  0.000000  1
  Tm  Tm3  1  0.333490  0.667295  0.500000  1
  Tm  Tm4  1  0.666510  0.333805  0.500000  1
  Ge  Ge5  1  0.352198  0.352330  0.500000  1
  Ge  Ge6  1  0.647802  0.000132  0.500000  1
  P  P7  1  0.309415  0.828276  0.000000  1
  P  P8  1  0.174070  0.483708  0.000000  1
  P  P9  1  0.519368  0.690840  0.000000  1
  P  P10  1  0.825930  0.309638  0.000000  1
  P  P11  1  0.480632  0.171472  0.000000  1
  P  P12  1  0.690585  0.518861  0.000000  1
  P  P13  1  0.000000  0.645041  0.500000  1
  P  P14  1  0.823956  0.822550  0.500000  1
  P  P15  1  0.176044  0.998594  0.500000  1
  P  P16  1  0.000000  0.180326  0.500000  1
  Ir  Ir17  1  0.195364  0.815990  0.500000  1
  Ir  Ir18  1  0.177368  0.385949  0.500000  1
  Ir  Ir19  1  0.617574  0.793098  0.500000  1
  Ir  Ir20  1  0.822632  0.208580  0.500000  1
  Ir  Ir21  1  0.382426  0.175524  0.500000  1
  Ir  Ir22  1  0.804636  0.620626  0.500000  1
  Ir  Ir23  1  0.132906  0.637339  0.000000  1
  Ir  Ir24  1  0.365545  0.497634  0.000000  1
  Ir  Ir25  1  0.503259  0.865099  0.000000  1
  Ir  Ir26  1  0.634455  0.132091  0.000000  1
  Ir  Ir27  1  0.496741  0.361842  0.000000  1
  Ir  Ir28  1  0.867094  0.504434  0.000000  1
  Ir  Ir29  1  0.548462  0.542287  0.500000  1
  Ir  Ir30  1  0.451538  0.993825  0.500000  1
  Ir  Ir31  1  0.000000  0.465630  0.500000  1
  Ir  Ir32  1  0.715384  0.711958  0.000000  1
  Ir  Ir33  1  0.284616  0.996574  0.000000  1
  Ir  Ir34  1  0.000000  0.288500  0.000000  1
  Ir  Ir35  1  0.000000  0.001983  0.500000  1
