# generated using pymatgen
data_Ba2USbSe6
_symmetry_space_group_name_H-M   'P 1'
_cell_length_a   7.50000529
_cell_length_b   7.81614022
_cell_length_c   13.16005781
_cell_angle_alpha   89.98576478
_cell_angle_beta   124.90959863
_cell_angle_gamma   89.99665635
_symmetry_Int_Tables_number   1
_chemical_formula_structural   Ba2USbSe6
_chemical_formula_sum   'Ba4 U2 Sb2 Se12'
_cell_volume   632.63789164
_cell_formula_units_Z   2
loop_
 _symmetry_equiv_pos_site_id
 _symmetry_equiv_pos_as_xyz
  1  'x, y, z'
loop_
 _atom_site_type_symbol
 _atom_site_label
 _atom_site_symmetry_multiplicity
 _atom_site_fract_x
 _atom_site_fract_y
 _atom_site_fract_z
 _atom_site_occupancy
  Ba  Ba0  1  0.767965  0.929167  0.248689  1
  Ba  Ba1  1  0.232014  0.429157  0.251299  1
  Ba  Ba2  1  0.767986  0.570844  0.748701  1
  Ba  Ba3  1  0.232035  0.070833  0.751311  1
  U  U4  1  0.000000  0.000000  0.000000  1
  U  U5  1  0.000000  0.500001  0.500000  1
  Sb  Sb6  1  0.500000  0.500001  0.000000  1
  Sb  Sb7  1  0.500000  0.000000  0.500000  1
  Se  Se8  1  0.855788  0.703897  0.047076  1
  Se  Se9  1  0.746468  0.195029  0.044807  1
  Se  Se10  1  0.335115  0.015960  0.245518  1
  Se  Se11  1  0.664928  0.515976  0.254539  1
  Se  Se12  1  0.253420  0.694986  0.455187  1
  Se  Se13  1  0.144145  0.204003  0.452935  1
  Se  Se14  1  0.855856  0.795996  0.547065  1
  Se  Se15  1  0.746580  0.305014  0.544814  1
  Se  Se16  1  0.335072  0.484024  0.745461  1
  Se  Se17  1  0.664885  0.984040  0.754481  1
  Se  Se18  1  0.253531  0.804971  0.955193  1
  Se  Se19  1  0.144211  0.296104  0.952924  1
