# generated using pymatgen
data_Y3MgAl2Si2Pd
_symmetry_space_group_name_H-M   'P 1'
_cell_length_a   7.03229700
_cell_length_b   6.97323579
_cell_length_c   4.29225600
_cell_angle_alpha   90.00000000
_cell_angle_beta   90.00000000
_cell_angle_gamma   120.28057791
_symmetry_Int_Tables_number   1
_chemical_formula_structural   Y3MgAl2Si2Pd
_chemical_formula_sum   'Y3 Mg1 Al2 Si2 Pd1'
_cell_volume   181.76613406
_cell_formula_units_Z   1
loop_
 _symmetry_equiv_pos_site_id
 _symmetry_equiv_pos_as_xyz
  1  'x, y, z'
loop_
 _atom_site_type_symbol
 _atom_site_label
 _atom_site_symmetry_multiplicity
 _atom_site_fract_x
 _atom_site_fract_y
 _atom_site_fract_z
 _atom_site_occupancy
  Y  Y0  1  0.416778  0.000000  0.000000  1
  Y  Y1  1  0.998701  0.418909  0.000000  1
  Y  Y2  1  0.579791  0.581090  0.000000  1
  Mg  Mg3  1  0.760595  0.000000  0.500000  1
  Al  Al4  1  0.241232  0.237507  0.500000  1
  Al  Al5  1  0.003726  0.762495  0.500000  1
  Si  Si6  1  0.663163  0.340314  0.500000  1
  Si  Si7  1  0.322850  0.659687  0.500000  1
  Pd  Pd8  1  0.013165  0.000000  0.000000  1
