# generated using pymatgen
data_Dy3ErIn4
_symmetry_space_group_name_H-M   'P 1'
_cell_length_a   6.50277401
_cell_length_b   6.50277291
_cell_length_c   10.27556500
_cell_angle_alpha   90.00000000
_cell_angle_beta   90.00000000
_cell_angle_gamma   103.09552727
_symmetry_Int_Tables_number   1
_chemical_formula_structural   Dy3ErIn4
_chemical_formula_sum   'Dy6 Er2 In8'
_cell_volume   423.21308734
_cell_formula_units_Z   2
loop_
 _symmetry_equiv_pos_site_id
 _symmetry_equiv_pos_as_xyz
  1  'x, y, z'
loop_
 _atom_site_type_symbol
 _atom_site_label
 _atom_site_symmetry_multiplicity
 _atom_site_fract_x
 _atom_site_fract_y
 _atom_site_fract_z
 _atom_site_occupancy
  Dy  Dy0  1  0.522620  0.522620  0.250000  1
  Dy  Dy1  1  0.477380  0.477380  0.750000  1
  Dy  Dy2  1  0.247196  0.752804  0.500000  1
  Dy  Dy3  1  0.247196  0.752804  0.000000  1
  Dy  Dy4  1  0.752804  0.247196  0.500000  1
  Dy  Dy5  1  0.752804  0.247196  0.000000  1
  Er  Er6  1  0.988274  0.988274  0.250000  1
  Er  Er7  1  0.011726  0.011726  0.750000  1
  In  In8  1  0.251539  0.251539  0.012047  1
  In  In9  1  0.748461  0.748461  0.987953  1
  In  In10  1  0.251539  0.251539  0.487953  1
  In  In11  1  0.748461  0.748461  0.512047  1
  In  In12  1  0.491886  0.014038  0.250000  1
  In  In13  1  0.985962  0.508114  0.750000  1
  In  In14  1  0.508114  0.985962  0.750000  1
  In  In15  1  0.014038  0.491886  0.250000  1
