# generated using pymatgen
data_Ho2TmCo7NiP6Os
_symmetry_space_group_name_H-M   'P 1'
_cell_length_a   3.70252400
_cell_length_b   10.46803400
_cell_length_c   12.20214300
_cell_angle_alpha   90.00000000
_cell_angle_beta   90.00000000
_cell_angle_gamma   90.00000000
_symmetry_Int_Tables_number   1
_chemical_formula_structural   Ho2TmCo7NiP6Os
_chemical_formula_sum   'Ho4 Tm2 Co14 Ni2 P12 Os2'
_cell_volume   472.93245355
_cell_formula_units_Z   2
loop_
 _symmetry_equiv_pos_site_id
 _symmetry_equiv_pos_as_xyz
  1  'x, y, z'
loop_
 _atom_site_type_symbol
 _atom_site_label
 _atom_site_symmetry_multiplicity
 _atom_site_fract_x
 _atom_site_fract_y
 _atom_site_fract_z
 _atom_site_occupancy
  Ho  Ho0  1  0.000000  0.500000  0.525142  1
  Ho  Ho1  1  0.500000  0.000000  0.475605  1
  Ho  Ho2  1  0.500000  0.816050  0.206750  1
  Ho  Ho3  1  0.500000  0.183950  0.206750  1
  Tm  Tm4  1  0.000000  0.683478  0.793018  1
  Tm  Tm5  1  0.000000  0.316522  0.793018  1
  Co  Co6  1  0.000000  0.500000  0.986516  1
  Co  Co7  1  0.500000  0.000000  0.012368  1
  Co  Co8  1  0.500000  0.332545  0.988260  1
  Co  Co9  1  0.500000  0.667455  0.988260  1
  Co  Co10  1  0.000000  0.167856  0.010416  1
  Co  Co11  1  0.000000  0.832144  0.010416  1
  Co  Co12  1  0.500000  0.299217  0.432027  1
  Co  Co13  1  0.500000  0.700783  0.432027  1
  Co  Co14  1  0.000000  0.200937  0.568965  1
  Co  Co15  1  0.000000  0.799063  0.568965  1
  Co  Co16  1  0.500000  0.878838  0.709309  1
  Co  Co17  1  0.500000  0.121162  0.709309  1
  Co  Co18  1  0.000000  0.620579  0.291179  1
  Co  Co19  1  0.000000  0.379421  0.291179  1
  Ni  Ni20  1  0.500000  0.500000  0.703559  1
  Ni  Ni21  1  0.000000  0.000000  0.296972  1
  P  P22  1  0.500000  0.500000  0.880159  1
  P  P23  1  0.000000  0.000000  0.118807  1
  P  P24  1  0.500000  0.500000  0.351206  1
  P  P25  1  0.000000  0.000000  0.649082  1
  P  P26  1  0.500000  0.311494  0.616677  1
  P  P27  1  0.500000  0.688506  0.616677  1
  P  P28  1  0.000000  0.188845  0.384598  1
  P  P29  1  0.000000  0.811155  0.384598  1
  P  P30  1  0.500000  0.845853  0.892286  1
  P  P31  1  0.500000  0.154147  0.892286  1
  P  P32  1  0.000000  0.653266  0.106943  1
  P  P33  1  0.000000  0.346734  0.106943  1
  Os  Os34  1  0.500000  0.500000  0.158264  1
  Os  Os35  1  0.000000  0.000000  0.841464  1
