# generated using pymatgen
data_YPSe
_symmetry_space_group_name_H-M   'P 1'
_cell_length_a   5.45688600
_cell_length_b   5.52792100
_cell_length_c   17.33784200
_cell_angle_alpha   90.00000000
_cell_angle_beta   90.00000000
_cell_angle_gamma   90.00000000
_symmetry_Int_Tables_number   1
_chemical_formula_structural   YPSe
_chemical_formula_sum   'Y8 P8 Se8'
_cell_volume   523.00007336
_cell_formula_units_Z   8
loop_
 _symmetry_equiv_pos_site_id
 _symmetry_equiv_pos_as_xyz
  1  'x, y, z'
loop_
 _atom_site_type_symbol
 _atom_site_label
 _atom_site_symmetry_multiplicity
 _atom_site_fract_x
 _atom_site_fract_y
 _atom_site_fract_z
 _atom_site_occupancy
  Y  Y0  1  0.750000  0.016179  0.359546  1
  Y  Y1  1  0.250000  0.483821  0.859546  1
  Y  Y2  1  0.750000  0.516179  0.140454  1
  Y  Y3  1  0.250000  0.983821  0.640454  1
  Y  Y4  1  0.750000  0.482312  0.630525  1
  Y  Y5  1  0.250000  0.017688  0.130525  1
  Y  Y6  1  0.750000  0.982312  0.869475  1
  Y  Y7  1  0.250000  0.517688  0.369475  1
  P  P8  1  0.539669  0.299609  0.003139  1
  P  P9  1  0.460331  0.200391  0.503139  1
  P  P10  1  0.960331  0.799609  0.496861  1
  P  P11  1  0.039669  0.700391  0.996861  1
  P  P12  1  0.460331  0.700391  0.996861  1
  P  P13  1  0.539669  0.799609  0.496861  1
  P  P14  1  0.039669  0.200391  0.503139  1
  P  P15  1  0.960331  0.299609  0.003139  1
  Se  Se16  1  0.750000  0.012686  0.184295  1
  Se  Se17  1  0.250000  0.487314  0.684295  1
  Se  Se18  1  0.750000  0.512686  0.315705  1
  Se  Se19  1  0.250000  0.987314  0.815705  1
  Se  Se20  1  0.750000  0.483189  0.809691  1
  Se  Se21  1  0.250000  0.016811  0.309691  1
  Se  Se22  1  0.750000  0.983189  0.690309  1
  Se  Se23  1  0.250000  0.516811  0.190309  1
