# generated using pymatgen
data_Yb8Al(Si4Au)3
_symmetry_space_group_name_H-M   'P 1'
_cell_length_a   8.23026500
_cell_length_b   8.23026476
_cell_length_c   8.43942000
_cell_angle_alpha   90.00000000
_cell_angle_beta   90.00000000
_cell_angle_gamma   120.00000500
_symmetry_Int_Tables_number   1
_chemical_formula_structural   Yb8Al(Si4Au)3
_chemical_formula_sum   'Yb8 Al1 Si12 Au3'
_cell_volume   495.07481698
_cell_formula_units_Z   1
loop_
 _symmetry_equiv_pos_site_id
 _symmetry_equiv_pos_as_xyz
  1  'x, y, z'
loop_
 _atom_site_type_symbol
 _atom_site_label
 _atom_site_symmetry_multiplicity
 _atom_site_fract_x
 _atom_site_fract_y
 _atom_site_fract_z
 _atom_site_occupancy
  Yb  Yb0  1  0.502413  0.004823  0.252818  1
  Yb  Yb1  1  0.500453  0.000906  0.747587  1
  Yb  Yb2  1  0.995177  0.497587  0.252818  1
  Yb  Yb3  1  0.999094  0.499547  0.747587  1
  Yb  Yb4  1  0.502413  0.497587  0.252818  1
  Yb  Yb5  1  0.500453  0.499547  0.747587  1
  Yb  Yb6  1  0.000000  0.000000  0.248941  1
  Yb  Yb7  1  0.000000  0.000000  0.750347  1
  Al  Al8  1  0.333333  0.666667  0.006041  1
  Si  Si9  1  0.163002  0.326004  0.998209  1
  Si  Si10  1  0.836791  0.673580  0.000752  1
  Si  Si11  1  0.673996  0.836998  0.998209  1
  Si  Si12  1  0.837944  0.675888  0.499962  1
  Si  Si13  1  0.326420  0.163209  0.000752  1
  Si  Si14  1  0.162105  0.324209  0.499923  1
  Si  Si15  1  0.163002  0.836998  0.998209  1
  Si  Si16  1  0.324112  0.162056  0.499962  1
  Si  Si17  1  0.836791  0.163209  0.000752  1
  Si  Si18  1  0.675791  0.837895  0.499923  1
  Si  Si19  1  0.837944  0.162056  0.499962  1
  Si  Si20  1  0.162105  0.837895  0.499923  1
  Au  Au21  1  0.666667  0.333333  0.997545  1
  Au  Au22  1  0.666667  0.333333  0.502296  1
  Au  Au23  1  0.333333  0.666667  0.497078  1
