# generated using pymatgen
data_Pr4SmHoTa2O14
_symmetry_space_group_name_H-M   'P 1'
_cell_length_a   6.67386011
_cell_length_b   6.66139807
_cell_length_c   7.71295300
_cell_angle_alpha   90.00000000
_cell_angle_beta   90.00000000
_cell_angle_gamma   108.73427479
_symmetry_Int_Tables_number   1
_chemical_formula_structural   Pr4SmHoTa2O14
_chemical_formula_sum   'Pr4 Sm1 Ho1 Ta2 O14'
_cell_volume   324.72935453
_cell_formula_units_Z   1
loop_
 _symmetry_equiv_pos_site_id
 _symmetry_equiv_pos_as_xyz
  1  'x, y, z'
loop_
 _atom_site_type_symbol
 _atom_site_label
 _atom_site_symmetry_multiplicity
 _atom_site_fract_x
 _atom_site_fract_y
 _atom_site_fract_z
 _atom_site_occupancy
  Pr  Pr0  1  0.468756  0.470888  0.501133  1
  Pr  Pr1  1  0.468756  0.470888  0.998867  1
  Pr  Pr2  1  0.538870  0.995148  0.750000  1
  Pr  Pr3  1  0.993548  0.536273  0.250000  1
  Sm  Sm4  1  0.466582  0.996153  0.250000  1
  Ho  Ho5  1  0.996616  0.471598  0.750000  1
  Ta  Ta6  1  0.999025  0.998749  0.501382  1
  Ta  Ta7  1  0.999025  0.998749  0.998618  1
  O  O8  1  0.695138  0.941675  0.463615  1
  O  O9  1  0.953097  0.697421  0.542240  1
  O  O10  1  0.695138  0.941675  0.036385  1
  O  O11  1  0.953097  0.697421  0.957760  1
  O  O12  1  0.320878  0.077455  0.524387  1
  O  O13  1  0.072125  0.321029  0.480059  1
  O  O14  1  0.320878  0.077455  0.975613  1
  O  O15  1  0.072125  0.321029  0.019941  1
  O  O16  1  0.942043  0.059693  0.750000  1
  O  O17  1  0.057816  0.942368  0.250000  1
  O  O18  1  0.353532  0.622288  0.750000  1
  O  O19  1  0.624956  0.361609  0.250000  1
  O  O20  1  0.646964  0.364443  0.750000  1
  O  O21  1  0.361033  0.635993  0.250000  1
