# generated using pymatgen
data_Y5Ni16(MoP4)3
_symmetry_space_group_name_H-M   'P 1'
_cell_length_a   12.21306600
_cell_length_b   12.21306428
_cell_length_c   3.73313800
_cell_angle_alpha   90.00000000
_cell_angle_beta   90.00000000
_cell_angle_gamma   119.99999925
_symmetry_Int_Tables_number   1
_chemical_formula_structural   Y5Ni16(MoP4)3
_chemical_formula_sum   'Y5 Ni16 Mo3 P12'
_cell_volume   482.22977950
_cell_formula_units_Z   1
loop_
 _symmetry_equiv_pos_site_id
 _symmetry_equiv_pos_as_xyz
  1  'x, y, z'
loop_
 _atom_site_type_symbol
 _atom_site_label
 _atom_site_symmetry_multiplicity
 _atom_site_fract_x
 _atom_site_fract_y
 _atom_site_fract_z
 _atom_site_occupancy
  Y  Y0  1  0.185424  0.185424  0.500000  1
  Y  Y1  1  0.814576  0.000000  0.500000  1
  Y  Y2  1  0.000000  0.814576  0.500000  1
  Y  Y3  1  0.333333  0.666667  0.000000  1
  Y  Y4  1  0.666667  0.333333  0.000000  1
  Ni  Ni5  1  0.719830  0.719830  0.500000  1
  Ni  Ni6  1  0.280170  0.000000  0.500000  1
  Ni  Ni7  1  0.000000  0.280170  0.500000  1
  Ni  Ni8  1  0.184142  0.377142  0.000000  1
  Ni  Ni9  1  0.622858  0.807001  0.000000  1
  Ni  Ni10  1  0.192999  0.815858  0.000000  1
  Ni  Ni11  1  0.807001  0.622858  0.000000  1
  Ni  Ni12  1  0.815858  0.192999  0.000000  1
  Ni  Ni13  1  0.377142  0.184142  0.000000  1
  Ni  Ni14  1  0.358872  0.483994  0.500000  1
  Ni  Ni15  1  0.516006  0.874879  0.500000  1
  Ni  Ni16  1  0.125121  0.641128  0.500000  1
  Ni  Ni17  1  0.874879  0.516006  0.500000  1
  Ni  Ni18  1  0.641128  0.125121  0.500000  1
  Ni  Ni19  1  0.483994  0.358872  0.500000  1
  Ni  Ni20  1  0.000000  0.000000  0.000000  1
  Mo  Mo21  1  0.559065  0.559065  0.000000  1
  Mo  Mo22  1  0.440935  0.000000  0.000000  1
  Mo  Mo23  1  0.000000  0.440935  0.000000  1
  P  P24  1  0.821490  0.821490  0.000000  1
  P  P25  1  0.178510  0.000000  0.000000  1
  P  P26  1  0.000000  0.178510  0.000000  1
  P  P27  1  0.165354  0.478636  0.500000  1
  P  P28  1  0.521364  0.686718  0.500000  1
  P  P29  1  0.313282  0.834646  0.500000  1
  P  P30  1  0.686718  0.521364  0.500000  1
  P  P31  1  0.834646  0.313282  0.500000  1
  P  P32  1  0.478636  0.165354  0.500000  1
  P  P33  1  0.364967  0.364967  0.000000  1
  P  P34  1  0.635033  0.000000  0.000000  1
  P  P35  1  0.000000  0.635033  0.000000  1
