# generated using pymatgen
data_EuEr2RhO7
_symmetry_space_group_name_H-M   'P 1'
_cell_length_a   6.41065755
_cell_length_b   6.41065774
_cell_length_c   7.43023300
_cell_angle_alpha   90.00000000
_cell_angle_beta   90.00000000
_cell_angle_gamma   108.78032011
_symmetry_Int_Tables_number   1
_chemical_formula_structural   EuEr2RhO7
_chemical_formula_sum   'Eu2 Er4 Rh2 O14'
_cell_volume   289.09957584
_cell_formula_units_Z   2
loop_
 _symmetry_equiv_pos_site_id
 _symmetry_equiv_pos_as_xyz
  1  'x, y, z'
loop_
 _atom_site_type_symbol
 _atom_site_label
 _atom_site_symmetry_multiplicity
 _atom_site_fract_x
 _atom_site_fract_y
 _atom_site_fract_z
 _atom_site_occupancy
  Eu  Eu0  1  0.501038  0.501038  0.500000  1
  Eu  Eu1  1  0.498962  0.498962  0.000000  1
  Er  Er2  1  0.000771  0.464354  0.749256  1
  Er  Er3  1  0.999229  0.535646  0.249256  1
  Er  Er4  1  0.535646  0.999229  0.750744  1
  Er  Er5  1  0.464354  0.000771  0.250744  1
  Rh  Rh6  1  0.999537  0.999537  0.500000  1
  Rh  Rh7  1  0.000463  0.000463  0.000000  1
  O  O8  1  0.638268  0.361732  0.750000  1
  O  O9  1  0.361732  0.638268  0.250000  1
  O  O10  1  0.926623  0.073377  0.750000  1
  O  O11  1  0.073377  0.926623  0.250000  1
  O  O12  1  0.929512  0.675911  0.528065  1
  O  O13  1  0.070488  0.324089  0.028065  1
  O  O14  1  0.324089  0.070488  0.971935  1
  O  O15  1  0.675911  0.929512  0.471935  1
  O  O16  1  0.364428  0.635572  0.750000  1
  O  O17  1  0.635572  0.364428  0.250000  1
  O  O18  1  0.931559  0.677485  0.970539  1
  O  O19  1  0.068441  0.322515  0.470539  1
  O  O20  1  0.322515  0.068441  0.529461  1
  O  O21  1  0.677485  0.931559  0.029461  1
