# generated using pymatgen
data_Lu6Cr2Fe11Co5P12
_symmetry_space_group_name_H-M   'P 1'
_cell_length_a   3.68757000
_cell_length_b   10.45989404
_cell_length_c   12.09511304
_cell_angle_alpha   90.00980749
_cell_angle_beta   90.00000000
_cell_angle_gamma   90.00000000
_symmetry_Int_Tables_number   1
_chemical_formula_structural   Lu6Cr2Fe11Co5P12
_chemical_formula_sum   'Lu6 Cr2 Fe11 Co5 P12'
_cell_volume   466.52775216
_cell_formula_units_Z   1
loop_
 _symmetry_equiv_pos_site_id
 _symmetry_equiv_pos_as_xyz
  1  'x, y, z'
loop_
 _atom_site_type_symbol
 _atom_site_label
 _atom_site_symmetry_multiplicity
 _atom_site_fract_x
 _atom_site_fract_y
 _atom_site_fract_z
 _atom_site_occupancy
  Lu  Lu0  1  0.000000  0.499828  0.525657  1
  Lu  Lu1  1  0.500000  0.000573  0.473675  1
  Lu  Lu2  1  0.500000  0.821467  0.207288  1
  Lu  Lu3  1  0.500000  0.178872  0.206431  1
  Lu  Lu4  1  0.000000  0.678011  0.793495  1
  Lu  Lu5  1  0.000000  0.321487  0.793682  1
  Cr  Cr6  1  0.500000  0.500244  0.153612  1
  Cr  Cr7  1  0.000000  0.999643  0.846977  1
  Fe  Fe8  1  0.000000  0.500741  0.988463  1
  Fe  Fe9  1  0.500000  0.998755  0.011920  1
  Fe  Fe10  1  0.500000  0.328759  0.996676  1
  Fe  Fe11  1  0.500000  0.673367  0.996224  1
  Fe  Fe12  1  0.000000  0.171810  0.003916  1
  Fe  Fe13  1  0.000000  0.826819  0.003691  1
  Fe  Fe14  1  0.500000  0.297983  0.430080  1
  Fe  Fe15  1  0.500000  0.702098  0.429873  1
  Fe  Fe16  1  0.000000  0.201964  0.570087  1
  Fe  Fe17  1  0.000000  0.797509  0.569827  1
  Fe  Fe18  1  0.500000  0.881156  0.705140  1
  Co  Co19  1  0.500000  0.499205  0.700508  1
  Co  Co20  1  0.000000  0.000003  0.299445  1
  Co  Co21  1  0.500000  0.120729  0.708716  1
  Co  Co22  1  0.000000  0.620243  0.292556  1
  Co  Co23  1  0.000000  0.379838  0.292305  1
  P  P24  1  0.500000  0.499996  0.884027  1
  P  P25  1  0.000000  0.999854  0.115845  1
  P  P26  1  0.500000  0.499918  0.347021  1
  P  P27  1  0.000000  0.999559  0.652769  1
  P  P28  1  0.500000  0.308750  0.614862  1
  P  P29  1  0.500000  0.689922  0.614907  1
  P  P30  1  0.000000  0.191207  0.385476  1
  P  P31  1  0.000000  0.808960  0.385331  1
  P  P32  1  0.500000  0.848000  0.886877  1
  P  P33  1  0.500000  0.153004  0.890381  1
  P  P34  1  0.000000  0.652000  0.111794  1
  P  P35  1  0.000000  0.347725  0.110464  1
