# generated using pymatgen
data_Sm8Y12Si15Os
_symmetry_space_group_name_H-M   'P 1'
_cell_length_a   7.43532666
_cell_length_b   7.83209890
_cell_length_c   14.74214700
_cell_angle_alpha   90.00000000
_cell_angle_beta   90.00000000
_cell_angle_gamma   90.11137893
_symmetry_Int_Tables_number   1
_chemical_formula_structural   Sm8Y12Si15Os
_chemical_formula_sum   'Sm8 Y12 Si15 Os1'
_cell_volume   858.49571722
_cell_formula_units_Z   1
loop_
 _symmetry_equiv_pos_site_id
 _symmetry_equiv_pos_as_xyz
  1  'x, y, z'
loop_
 _atom_site_type_symbol
 _atom_site_label
 _atom_site_symmetry_multiplicity
 _atom_site_fract_x
 _atom_site_fract_y
 _atom_site_fract_z
 _atom_site_occupancy
  Sm  Sm0  1  0.019177  0.183954  0.097165  1
  Sm  Sm1  1  0.984634  0.826703  0.902793  1
  Sm  Sm2  1  0.481459  0.679957  0.903587  1
  Sm  Sm3  1  0.984634  0.826703  0.597207  1
  Sm  Sm4  1  0.517950  0.319422  0.096629  1
  Sm  Sm5  1  0.019177  0.183954  0.402835  1
  Sm  Sm6  1  0.517950  0.319422  0.403371  1
  Sm  Sm7  1  0.481459  0.679957  0.596413  1
  Y  Y8  1  0.153423  0.508910  0.750000  1
  Y  Y9  1  0.840620  0.486942  0.250000  1
  Y  Y10  1  0.340648  0.015146  0.250000  1
  Y  Y11  1  0.666790  0.988665  0.750000  1
  Y  Y12  1  0.315086  0.174732  0.626207  1
  Y  Y13  1  0.676763  0.823011  0.375902  1
  Y  Y14  1  0.175769  0.680640  0.376339  1
  Y  Y15  1  0.676763  0.823011  0.124098  1
  Y  Y16  1  0.833291  0.314759  0.625502  1
  Y  Y17  1  0.315086  0.174732  0.873793  1
  Y  Y18  1  0.833291  0.314759  0.874498  1
  Y  Y19  1  0.175769  0.680640  0.123661  1
  Si  Si20  1  0.969007  0.892979  0.250000  1
  Si  Si21  1  0.470358  0.608015  0.250000  1
  Si  Si22  1  0.528892  0.396865  0.750000  1
  Si  Si23  1  0.275485  0.868729  0.750000  1
  Si  Si24  1  0.722123  0.127129  0.250000  1
  Si  Si25  1  0.223920  0.374142  0.250000  1
  Si  Si26  1  0.767463  0.621819  0.750000  1
  Si  Si27  1  0.154219  0.472539  0.537284  1
  Si  Si28  1  0.849867  0.531608  0.462230  1
  Si  Si29  1  0.349873  0.969465  0.461421  1
  Si  Si30  1  0.849867  0.531608  0.037770  1
  Si  Si31  1  0.648322  0.029927  0.537678  1
  Si  Si32  1  0.154219  0.472539  0.962716  1
  Si  Si33  1  0.648322  0.029927  0.962322  1
  Si  Si34  1  0.349873  0.969465  0.038579  1
  Os  Os35  1  0.028453  0.097230  0.750000  1
