# generated using pymatgen
data_Ta7Nb5Al5Au3N4
_symmetry_space_group_name_H-M   'P 1'
_cell_length_a   7.09036242
_cell_length_b   7.08699610
_cell_length_c   7.08218029
_cell_angle_alpha   90.20201235
_cell_angle_beta   90.18826583
_cell_angle_gamma   90.08217084
_symmetry_Int_Tables_number   1
_chemical_formula_structural   Ta7Nb5Al5Au3N4
_chemical_formula_sum   'Ta7 Nb5 Al5 Au3 N4'
_cell_volume   355.87059846
_cell_formula_units_Z   1
loop_
 _symmetry_equiv_pos_site_id
 _symmetry_equiv_pos_as_xyz
  1  'x, y, z'
loop_
 _atom_site_type_symbol
 _atom_site_label
 _atom_site_symmetry_multiplicity
 _atom_site_fract_x
 _atom_site_fract_y
 _atom_site_fract_z
 _atom_site_occupancy
  Ta  Ta0  1  0.785348  0.955471  0.385770  1
  Ta  Ta1  1  0.710293  0.038946  0.869930  1
  Ta  Ta2  1  0.210600  0.455774  0.126496  1
  Ta  Ta3  1  0.292285  0.544621  0.622365  1
  Ta  Ta4  1  0.954031  0.382822  0.784645  1
  Ta  Ta5  1  0.039696  0.868119  0.711764  1
  Ta  Ta6  1  0.453919  0.128228  0.212258  1
  Nb  Nb7  1  0.546936  0.625679  0.291370  1
  Nb  Nb8  1  0.385035  0.785145  0.954185  1
  Nb  Nb9  1  0.869145  0.711450  0.038431  1
  Nb  Nb10  1  0.125894  0.211366  0.454120  1
  Nb  Nb11  1  0.624288  0.292412  0.546254  1
  Al  Al12  1  0.677057  0.677401  0.676468  1
  Al  Al13  1  0.571060  0.424994  0.931061  1
  Al  Al14  1  0.424922  0.930993  0.571683  1
  Al  Al15  1  0.930819  0.571027  0.425074  1
  Al  Al16  1  0.070956  0.069778  0.070779  1
  Au  Au17  1  0.178788  0.820187  0.317006  1
  Au  Au18  1  0.315836  0.179478  0.822219  1
  Au  Au19  1  0.821039  0.315409  0.177188  1
  N  N20  1  0.881597  0.125268  0.627428  1
  N  N21  1  0.625762  0.886306  0.128985  1
  N  N22  1  0.127944  0.621442  0.878914  1
  N  N23  1  0.376752  0.377682  0.375604  1
