# generated using pymatgen
data_Sr2LaPr(BO4)2
_symmetry_space_group_name_H-M   'P 1'
_cell_length_a   3.87111200
_cell_length_b   10.07124646
_cell_length_c   11.12532611
_cell_angle_alpha   90.20696337
_cell_angle_beta   90.00000000
_cell_angle_gamma   90.00000000
_symmetry_Int_Tables_number   1
_chemical_formula_structural   Sr2LaPr(BO4)2
_chemical_formula_sum   'Sr4 La2 Pr2 B4 O16'
_cell_volume   433.73940289
_cell_formula_units_Z   2
loop_
 _symmetry_equiv_pos_site_id
 _symmetry_equiv_pos_as_xyz
  1  'x, y, z'
loop_
 _atom_site_type_symbol
 _atom_site_label
 _atom_site_symmetry_multiplicity
 _atom_site_fract_x
 _atom_site_fract_y
 _atom_site_fract_z
 _atom_site_occupancy
  Sr  Sr0  1  0.250000  0.670750  0.078586  1
  Sr  Sr1  1  0.750000  0.329250  0.921414  1
  Sr  Sr2  1  0.750000  0.168815  0.421419  1
  Sr  Sr3  1  0.250000  0.831185  0.578581  1
  La  La4  1  0.750000  0.583095  0.381202  1
  La  La5  1  0.250000  0.416905  0.618798  1
  Pr  Pr6  1  0.250000  0.084890  0.116457  1
  Pr  Pr7  1  0.750000  0.915110  0.883543  1
  B  B8  1  0.250000  0.366053  0.200603  1
  B  B9  1  0.750000  0.633947  0.799397  1
  B  B10  1  0.750000  0.868559  0.298201  1
  B  B11  1  0.250000  0.131441  0.701799  1
  O  O12  1  0.250000  0.495249  0.245137  1
  O  O13  1  0.750000  0.504751  0.754863  1
  O  O14  1  0.750000  0.996849  0.251951  1
  O  O15  1  0.250000  0.003151  0.748049  1
  O  O16  1  0.250000  0.256129  0.277521  1
  O  O17  1  0.750000  0.743871  0.722479  1
  O  O18  1  0.750000  0.757588  0.221747  1
  O  O19  1  0.250000  0.242412  0.778253  1
  O  O20  1  0.250000  0.344972  0.075365  1
  O  O21  1  0.750000  0.655028  0.924635  1
  O  O22  1  0.750000  0.849956  0.423695  1
  O  O23  1  0.250000  0.150044  0.576305  1
  O  O24  1  0.250000  0.610371  0.497709  1
  O  O25  1  0.750000  0.389629  0.502291  1
  O  O26  1  0.750000  0.111278  0.001624  1
  O  O27  1  0.250000  0.888722  0.998376  1
