# generated using pymatgen
data_Sc6AlNi2
_symmetry_space_group_name_H-M   'P 1'
_cell_length_a   7.77652400
_cell_length_b   7.77652347
_cell_length_c   7.77652348
_cell_angle_alpha   111.32463203
_cell_angle_beta   110.81981296
_cell_angle_gamma   106.31500747
_symmetry_Int_Tables_number   1
_chemical_formula_structural   Sc6AlNi2
_chemical_formula_sum   'Sc12 Al2 Ni4'
_cell_volume   361.19611721
_cell_formula_units_Z   2
loop_
 _symmetry_equiv_pos_site_id
 _symmetry_equiv_pos_as_xyz
  1  'x, y, z'
loop_
 _atom_site_type_symbol
 _atom_site_label
 _atom_site_symmetry_multiplicity
 _atom_site_fract_x
 _atom_site_fract_y
 _atom_site_fract_z
 _atom_site_occupancy
  Sc  Sc0  1  0.034660  0.736929  0.297731  1
  Sc  Sc1  1  0.965340  0.263071  0.702269  1
  Sc  Sc2  1  0.560802  0.263071  0.297731  1
  Sc  Sc3  1  0.439198  0.736929  0.702269  1
  Sc  Sc4  1  0.676241  0.879108  0.202866  1
  Sc  Sc5  1  0.323759  0.526624  0.202866  1
  Sc  Sc6  1  0.323759  0.120892  0.797134  1
  Sc  Sc7  1  0.676241  0.473376  0.797134  1
  Sc  Sc8  1  0.185076  0.215679  0.400756  1
  Sc  Sc9  1  0.814924  0.215679  0.030603  1
  Sc  Sc10  1  0.185076  0.784321  0.969397  1
  Sc  Sc11  1  0.814924  0.784321  0.599244  1
  Al  Al12  1  0.000000  0.500000  0.500000  1
  Al  Al13  1  0.500000  0.000000  0.500000  1
  Ni  Ni14  1  0.652899  0.500000  0.152899  1
  Ni  Ni15  1  0.347101  0.500000  0.847101  1
  Ni  Ni16  1  0.871995  0.871995  0.000000  1
  Ni  Ni17  1  0.128005  0.128005  0.000000  1
