# generated using pymatgen
data_Lu8Si7(Ge3Mo4)3
_symmetry_space_group_name_H-M   'P 1'
_cell_length_a   6.75910722
_cell_length_b   6.98944060
_cell_length_c   12.95791206
_cell_angle_alpha   90.09800920
_cell_angle_beta   89.97511415
_cell_angle_gamma   90.01442435
_symmetry_Int_Tables_number   1
_chemical_formula_structural   Lu8Si7(Ge3Mo4)3
_chemical_formula_sum   'Lu8 Si7 Ge9 Mo12'
_cell_volume   612.16161212
_cell_formula_units_Z   1
loop_
 _symmetry_equiv_pos_site_id
 _symmetry_equiv_pos_as_xyz
  1  'x, y, z'
loop_
 _atom_site_type_symbol
 _atom_site_label
 _atom_site_symmetry_multiplicity
 _atom_site_fract_x
 _atom_site_fract_y
 _atom_site_fract_z
 _atom_site_occupancy
  Lu  Lu0  1  0.489720  0.330516  0.091415  1
  Lu  Lu1  1  0.989798  0.168591  0.408398  1
  Lu  Lu2  1  0.509534  0.670515  0.592509  1
  Lu  Lu3  1  0.010438  0.830565  0.908444  1
  Lu  Lu4  1  0.504809  0.668200  0.908043  1
  Lu  Lu5  1  0.005914  0.832181  0.592348  1
  Lu  Lu6  1  0.491906  0.330010  0.407510  1
  Lu  Lu7  1  0.995022  0.168266  0.091809  1
  Si  Si8  1  0.666080  0.043452  0.547554  1
  Si  Si9  1  0.165412  0.456790  0.952321  1
  Si  Si10  1  0.334459  0.956842  0.047732  1
  Si  Si11  1  0.532200  0.367641  0.751121  1
  Si  Si12  1  0.032404  0.131539  0.749702  1
  Si  Si13  1  0.468807  0.632085  0.250439  1
  Si  Si14  1  0.968364  0.867425  0.249019  1
  Ge  Ge15  1  0.829411  0.542381  0.452861  1
  Ge  Ge16  1  0.332136  0.958770  0.453372  1
  Ge  Ge17  1  0.832570  0.541394  0.046422  1
  Ge  Ge18  1  0.667471  0.041185  0.952981  1
  Ge  Ge19  1  0.170474  0.458012  0.547664  1
  Ge  Ge20  1  0.805735  0.643305  0.750029  1
  Ge  Ge21  1  0.305501  0.856685  0.750326  1
  Ge  Ge22  1  0.193643  0.356441  0.249803  1
  Ge  Ge23  1  0.694521  0.144424  0.249585  1
  Mo  Mo24  1  0.826617  0.334707  0.626701  1
  Mo  Mo25  1  0.325284  0.162483  0.875784  1
  Mo  Mo26  1  0.175312  0.662331  0.123953  1
  Mo  Mo27  1  0.672569  0.842507  0.374323  1
  Mo  Mo28  1  0.170966  0.661894  0.371195  1
  Mo  Mo29  1  0.667658  0.839132  0.127814  1
  Mo  Mo30  1  0.832215  0.338564  0.872274  1
  Mo  Mo31  1  0.332666  0.160772  0.628307  1
  Mo  Mo32  1  0.668254  0.003660  0.748383  1
  Mo  Mo33  1  0.168281  0.495848  0.751588  1
  Mo  Mo34  1  0.331661  0.995930  0.248388  1
  Mo  Mo35  1  0.832188  0.504956  0.249884  1
