# generated using pymatgen
data_HoEr3Ni2(B2O5)4
_symmetry_space_group_name_H-M   'P 1'
_cell_length_a   4.52807299
_cell_length_b   7.25269936
_cell_length_c   9.40580467
_cell_angle_alpha   89.96440087
_cell_angle_beta   91.23836107
_cell_angle_gamma   89.99526818
_symmetry_Int_Tables_number   1
_chemical_formula_structural   HoEr3Ni2(B2O5)4
_chemical_formula_sum   'Ho1 Er3 Ni2 B8 O20'
_cell_volume   308.82149192
_cell_formula_units_Z   1
loop_
 _symmetry_equiv_pos_site_id
 _symmetry_equiv_pos_as_xyz
  1  'x, y, z'
loop_
 _atom_site_type_symbol
 _atom_site_label
 _atom_site_symmetry_multiplicity
 _atom_site_fract_x
 _atom_site_fract_y
 _atom_site_fract_z
 _atom_site_occupancy
  Ho  Ho0  1  0.003609  0.399006  0.164812  1
  Er  Er1  1  0.003752  0.100837  0.664633  1
  Er  Er2  1  0.996341  0.600909  0.835126  1
  Er  Er3  1  0.996595  0.899234  0.335576  1
  Ni  Ni4  1  0.000079  0.999773  0.999915  1
  Ni  Ni5  1  0.999782  0.500093  0.500113  1
  B  B6  1  0.464371  0.095270  0.161628  1
  B  B7  1  0.535506  0.596365  0.338701  1
  B  B8  1  0.535900  0.904224  0.838423  1
  B  B9  1  0.464115  0.404030  0.661475  1
  B  B10  1  0.471205  0.765272  0.584652  1
  B  B11  1  0.528871  0.264940  0.915061  1
  B  B12  1  0.528681  0.234666  0.415558  1
  B  B13  1  0.471273  0.735054  0.084569  1
  O  O14  1  0.248462  0.892211  0.538965  1
  O  O15  1  0.751229  0.392145  0.960433  1
  O  O16  1  0.751975  0.108147  0.461238  1
  O  O17  1  0.248940  0.608304  0.038329  1
  O  O18  1  0.326606  0.169082  0.295713  1
  O  O19  1  0.673434  0.670032  0.204664  1
  O  O20  1  0.673805  0.830172  0.704493  1
  O  O21  1  0.325879  0.330023  0.795385  1
  O  O22  1  0.333616  0.206734  0.037858  1
  O  O23  1  0.667388  0.707547  0.462116  1
  O  O24  1  0.667636  0.793056  0.962129  1
  O  O25  1  0.332498  0.292544  0.537981  1
  O  O26  1  0.320615  0.907169  0.143213  1
  O  O27  1  0.677840  0.407572  0.357179  1
  O  O28  1  0.679318  0.092683  0.856592  1
  O  O29  1  0.320899  0.592613  0.643040  1
  O  O30  1  0.778131  0.094866  0.167442  1
  O  O31  1  0.221668  0.596835  0.333150  1
  O  O32  1  0.221941  0.904382  0.832752  1
  O  O33  1  0.778054  0.404211  0.667091  1
