# generated using pymatgen
data_PrYCo2Br
_symmetry_space_group_name_H-M   'P 1'
_cell_length_a   3.93943500
_cell_length_b   3.93943407
_cell_length_c   16.74077600
_cell_angle_alpha   90.00000000
_cell_angle_beta   90.00000000
_cell_angle_gamma   119.99999942
_symmetry_Int_Tables_number   1
_chemical_formula_structural   PrYCo2Br
_chemical_formula_sum   'Pr2 Y2 Co4 Br2'
_cell_volume   224.99558443
_cell_formula_units_Z   2
loop_
 _symmetry_equiv_pos_site_id
 _symmetry_equiv_pos_as_xyz
  1  'x, y, z'
loop_
 _atom_site_type_symbol
 _atom_site_label
 _atom_site_symmetry_multiplicity
 _atom_site_fract_x
 _atom_site_fract_y
 _atom_site_fract_z
 _atom_site_occupancy
  Pr  Pr0  1  0.000000  0.000000  0.613229  1
  Pr  Pr1  1  0.000000  0.000000  0.386771  1
  Y  Y2  1  0.000000  0.000000  0.105494  1
  Y  Y3  1  0.000000  0.000000  0.894506  1
  Co  Co4  1  0.333333  0.666667  0.499931  1
  Co  Co5  1  0.666667  0.333333  0.500069  1
  Co  Co6  1  0.666667  0.333333  0.002492  1
  Co  Co7  1  0.333333  0.666667  0.997508  1
  Br  Br8  1  0.333333  0.666667  0.241138  1
  Br  Br9  1  0.666667  0.333333  0.758862  1
