# generated using pymatgen
data_Nd11Cd8InNi4
_symmetry_space_group_name_H-M   'P 1'
_cell_length_a   13.39959754
_cell_length_b   13.39959820
_cell_length_c   3.71249600
_cell_angle_alpha   90.00000000
_cell_angle_beta   90.00000000
_cell_angle_gamma   111.77792667
_symmetry_Int_Tables_number   1
_chemical_formula_structural   Nd11Cd8InNi4
_chemical_formula_sum   'Nd11 Cd8 In1 Ni4'
_cell_volume   619.00147862
_cell_formula_units_Z   1
loop_
 _symmetry_equiv_pos_site_id
 _symmetry_equiv_pos_as_xyz
  1  'x, y, z'
loop_
 _atom_site_type_symbol
 _atom_site_label
 _atom_site_symmetry_multiplicity
 _atom_site_fract_x
 _atom_site_fract_y
 _atom_site_fract_z
 _atom_site_occupancy
  Nd  Nd0  1  0.082169  0.419430  0.000000  1
  Nd  Nd1  1  0.917831  0.580570  0.000000  1
  Nd  Nd2  1  0.419430  0.082169  0.000000  1
  Nd  Nd3  1  0.580570  0.917831  0.000000  1
  Nd  Nd4  1  0.626342  0.373658  0.000000  1
  Nd  Nd5  1  0.373658  0.626342  0.000000  1
  Nd  Nd6  1  0.838505  0.161495  0.000000  1
  Nd  Nd7  1  0.161495  0.838505  0.000000  1
  Nd  Nd8  1  0.000000  0.000000  0.000000  1
  Nd  Nd9  1  0.311021  0.311021  0.000000  1
  Nd  Nd10  1  0.688979  0.688979  0.000000  1
  Cd  Cd11  1  0.837938  0.365509  0.500000  1
  Cd  Cd12  1  0.162062  0.634491  0.500000  1
  Cd  Cd13  1  0.365509  0.837938  0.500000  1
  Cd  Cd14  1  0.634491  0.162062  0.500000  1
  Cd  Cd15  1  0.078620  0.218669  0.500000  1
  Cd  Cd16  1  0.921380  0.781331  0.500000  1
  Cd  Cd17  1  0.218669  0.078620  0.500000  1
  Cd  Cd18  1  0.781331  0.921380  0.500000  1
  In  In19  1  0.500000  0.500000  0.500000  1
  Ni  Ni20  1  0.250433  0.451887  0.500000  1
  Ni  Ni21  1  0.749567  0.548113  0.500000  1
  Ni  Ni22  1  0.451887  0.250433  0.500000  1
  Ni  Ni23  1  0.548113  0.749567  0.500000  1
