# generated using pymatgen
data_U6Co2GeP3
_symmetry_space_group_name_H-M   'P 1'
_cell_length_a   3.74824400
_cell_length_b   9.68618200
_cell_length_c   11.67115100
_cell_angle_alpha   90.00000000
_cell_angle_beta   90.00000000
_cell_angle_gamma   90.00000000
_symmetry_Int_Tables_number   1
_chemical_formula_structural   U6Co2GeP3
_chemical_formula_sum   'U12 Co4 Ge2 P6'
_cell_volume   423.73483390
_cell_formula_units_Z   2
loop_
 _symmetry_equiv_pos_site_id
 _symmetry_equiv_pos_as_xyz
  1  'x, y, z'
loop_
 _atom_site_type_symbol
 _atom_site_label
 _atom_site_symmetry_multiplicity
 _atom_site_fract_x
 _atom_site_fract_y
 _atom_site_fract_z
 _atom_site_occupancy
  U  U0  1  0.250000  0.086626  0.871870  1
  U  U1  1  0.250000  0.413374  0.371870  1
  U  U2  1  0.750000  0.919052  0.131179  1
  U  U3  1  0.750000  0.580948  0.631179  1
  U  U4  1  0.250000  0.085848  0.525375  1
  U  U5  1  0.250000  0.414152  0.025375  1
  U  U6  1  0.750000  0.917589  0.457704  1
  U  U7  1  0.750000  0.582411  0.957704  1
  U  U8  1  0.250000  0.748268  0.705346  1
  U  U9  1  0.250000  0.751732  0.205346  1
  U  U10  1  0.750000  0.242567  0.302404  1
  U  U11  1  0.750000  0.257433  0.802404  1
  Co  Co12  1  0.250000  0.338636  0.639292  1
  Co  Co13  1  0.250000  0.161364  0.139292  1
  Co  Co14  1  0.750000  0.658237  0.367878  1
  Co  Co15  1  0.750000  0.841763  0.867878  1
  Ge  Ge16  1  0.750000  0.517967  0.199428  1
  Ge  Ge17  1  0.750000  0.982033  0.699428  1
  P  P18  1  0.250000  0.808311  0.966851  1
  P  P19  1  0.250000  0.691689  0.466851  1
  P  P20  1  0.750000  0.192992  0.038477  1
  P  P21  1  0.750000  0.307008  0.538477  1
  P  P22  1  0.250000  0.479094  0.794198  1
  P  P23  1  0.250000  0.020906  0.294198  1
