# generated using pymatgen
data_TbLu2Hf3(GaPt)6
_symmetry_space_group_name_H-M   'P 1'
_cell_length_a   7.24579300
_cell_length_b   7.26310592
_cell_length_c   7.29745400
_cell_angle_alpha   90.00000000
_cell_angle_beta   90.00000000
_cell_angle_gamma   119.92101544
_symmetry_Int_Tables_number   1
_chemical_formula_structural   TbLu2Hf3(GaPt)6
_chemical_formula_sum   'Tb1 Lu2 Hf3 Ga6 Pt6'
_cell_volume   332.85524401
_cell_formula_units_Z   1
loop_
 _symmetry_equiv_pos_site_id
 _symmetry_equiv_pos_as_xyz
  1  'x, y, z'
loop_
 _atom_site_type_symbol
 _atom_site_label
 _atom_site_symmetry_multiplicity
 _atom_site_fract_x
 _atom_site_fract_y
 _atom_site_fract_z
 _atom_site_occupancy
  Tb  Tb0  1  0.591523  0.000459  0.250000  1
  Lu  Lu1  1  0.407138  0.407207  0.250000  1
  Lu  Lu2  1  0.998945  0.592314  0.250000  1
  Hf  Hf3  1  0.608827  0.999390  0.750000  1
  Hf  Hf4  1  0.389945  0.390643  0.750000  1
  Hf  Hf5  1  0.000520  0.609991  0.750000  1
  Ga  Ga6  1  0.263455  0.000347  0.992191  1
  Ga  Ga7  1  0.263455  0.000347  0.507809  1
  Ga  Ga8  1  0.000606  0.264260  0.505438  1
  Ga  Ga9  1  0.000606  0.264260  0.994562  1
  Ga  Ga10  1  0.736668  0.735429  0.994565  1
  Ga  Ga11  1  0.736668  0.735429  0.505435  1
  Pt  Pt12  1  0.667204  0.335199  0.526996  1
  Pt  Pt13  1  0.999207  0.999993  0.750000  1
  Pt  Pt14  1  0.667204  0.335199  0.973004  1
  Pt  Pt15  1  0.331972  0.664769  0.974519  1
  Pt  Pt16  1  0.331972  0.664769  0.525481  1
  Pt  Pt17  1  0.004088  0.999996  0.250000  1
