# generated using pymatgen
data_NdY3Er(FeB3)2
_symmetry_space_group_name_H-M   'P 1'
_cell_length_a   8.30583285
_cell_length_b   8.30583318
_cell_length_c   8.30583200
_cell_angle_alpha   38.24845960
_cell_angle_beta   38.24846565
_cell_angle_gamma   38.24845383
_symmetry_Int_Tables_number   1
_chemical_formula_structural   NdY3Er(FeB3)2
_chemical_formula_sum   'Nd1 Y3 Er1 Fe2 B6'
_cell_volume   197.21347377
_cell_formula_units_Z   1
loop_
 _symmetry_equiv_pos_site_id
 _symmetry_equiv_pos_as_xyz
  1  'x, y, z'
loop_
 _atom_site_type_symbol
 _atom_site_label
 _atom_site_symmetry_multiplicity
 _atom_site_fract_x
 _atom_site_fract_y
 _atom_site_fract_z
 _atom_site_occupancy
  Nd  Nd0  1  0.999592  0.999592  0.999592  1
  Y  Y1  1  0.583298  0.583298  0.583298  1
  Y  Y2  1  0.416814  0.416814  0.416814  1
  Y  Y3  1  0.749509  0.749509  0.749509  1
  Er  Er4  1  0.249525  0.249525  0.249525  1
  Fe  Fe5  1  0.882644  0.882644  0.882644  1
  Fe  Fe6  1  0.117390  0.117390  0.117390  1
  B  B7  1  0.499792  0.833040  0.167783  1
  B  B8  1  0.167783  0.499792  0.833040  1
  B  B9  1  0.833040  0.167783  0.499792  1
  B  B10  1  0.499792  0.167783  0.833040  1
  B  B11  1  0.833040  0.499792  0.167783  1
  B  B12  1  0.167783  0.833040  0.499792  1
