# generated using pymatgen
data_Tb9Nd7Cd4PdRu3
_symmetry_space_group_name_H-M   'P 1'
_cell_length_a   9.79191297
_cell_length_b   9.81516203
_cell_length_c   9.83120800
_cell_angle_alpha   59.94591275
_cell_angle_beta   59.86716849
_cell_angle_gamma   59.85027654
_symmetry_Int_Tables_number   1
_chemical_formula_structural   Tb9Nd7Cd4PdRu3
_chemical_formula_sum   'Tb9 Nd7 Cd4 Pd1 Ru3'
_cell_volume   666.42166123
_cell_formula_units_Z   1
loop_
 _symmetry_equiv_pos_site_id
 _symmetry_equiv_pos_as_xyz
  1  'x, y, z'
loop_
 _atom_site_type_symbol
 _atom_site_label
 _atom_site_symmetry_multiplicity
 _atom_site_fract_x
 _atom_site_fract_y
 _atom_site_fract_z
 _atom_site_occupancy
  Tb  Tb0  1  0.341967  0.350915  0.350127  1
  Tb  Tb1  1  0.341967  0.350915  0.956991  1
  Tb  Tb2  1  0.341138  0.958176  0.350343  1
  Tb  Tb3  1  0.967178  0.342594  0.345113  1
  Tb  Tb4  1  0.817586  0.189781  0.188108  1
  Tb  Tb5  1  0.189078  0.812131  0.811174  1
  Tb  Tb6  1  0.189078  0.812131  0.187617  1
  Tb  Tb7  1  0.817586  0.189781  0.804527  1
  Tb  Tb8  1  0.187217  0.187387  0.812698  1
  Nd  Nd9  1  0.818280  0.804887  0.188417  1
  Nd  Nd10  1  0.938530  0.559507  0.561687  1
  Nd  Nd11  1  0.555747  0.940470  0.939533  1
  Nd  Nd12  1  0.555747  0.940470  0.564251  1
  Nd  Nd13  1  0.938530  0.559507  0.940276  1
  Nd  Nd14  1  0.556785  0.563863  0.939677  1
  Nd  Nd15  1  0.938055  0.940733  0.560606  1
  Cd  Cd16  1  0.579188  0.578150  0.580170  1
  Cd  Cd17  1  0.579188  0.578150  0.262492  1
  Cd  Cd18  1  0.579795  0.261957  0.579124  1
  Cd  Cd19  1  0.260817  0.579669  0.579758  1
  Pd  Pd20  1  0.572739  0.145236  0.141012  1
  Ru  Ru21  1  0.144015  0.137847  0.138734  1
  Ru  Ru22  1  0.144015  0.137847  0.579402  1
  Ru  Ru23  1  0.145776  0.577898  0.138162  1
