# generated using pymatgen
data_TbDy10In9Ni4
_symmetry_space_group_name_H-M   'P 1'
_cell_length_a   3.63061200
_cell_length_b   13.03100203
_cell_length_c   13.03100224
_cell_angle_alpha   112.62971430
_cell_angle_beta   90.00000000
_cell_angle_gamma   90.00000000
_symmetry_Int_Tables_number   1
_chemical_formula_structural   TbDy10In9Ni4
_chemical_formula_sum   'Tb1 Dy10 In9 Ni4'
_cell_volume   569.03928482
_cell_formula_units_Z   1
loop_
 _symmetry_equiv_pos_site_id
 _symmetry_equiv_pos_as_xyz
  1  'x, y, z'
loop_
 _atom_site_type_symbol
 _atom_site_label
 _atom_site_symmetry_multiplicity
 _atom_site_fract_x
 _atom_site_fract_y
 _atom_site_fract_z
 _atom_site_occupancy
  Tb  Tb0  1  0.000000  0.000000  0.000000  1
  Dy  Dy1  1  0.000000  0.416800  0.079574  1
  Dy  Dy2  1  0.000000  0.839780  0.160220  1
  Dy  Dy3  1  0.000000  0.312309  0.312309  1
  Dy  Dy4  1  0.000000  0.625488  0.374511  1
  Dy  Dy5  1  0.000000  0.079574  0.416800  1
  Dy  Dy6  1  0.000000  0.920426  0.583200  1
  Dy  Dy7  1  0.000000  0.374511  0.625488  1
  Dy  Dy8  1  0.000000  0.687691  0.687691  1
  Dy  Dy9  1  0.000000  0.160220  0.839780  1
  Dy  Dy10  1  0.000000  0.583200  0.920426  1
  In  In11  1  0.500000  0.219780  0.077827  1
  In  In12  1  0.500000  0.631995  0.158738  1
  In  In13  1  0.500000  0.077827  0.219780  1
  In  In14  1  0.500000  0.841262  0.368005  1
  In  In15  1  0.500000  0.500000  0.500000  1
  In  In16  1  0.500000  0.158738  0.631995  1
  In  In17  1  0.500000  0.922172  0.780220  1
  In  In18  1  0.500000  0.368005  0.841262  1
  In  In19  1  0.500000  0.780220  0.922172  1
  Ni  Ni20  1  0.500000  0.449437  0.247892  1
  Ni  Ni21  1  0.500000  0.247892  0.449437  1
  Ni  Ni22  1  0.500000  0.752108  0.550563  1
  Ni  Ni23  1  0.500000  0.550563  0.752108  1
