# generated using pymatgen
data_HoTm4(In2Cu)2
_symmetry_space_group_name_H-M   'P 1'
_cell_length_a   3.62354600
_cell_length_b   7.97016600
_cell_length_c   17.82913600
_cell_angle_alpha   90.00000000
_cell_angle_beta   90.00000000
_cell_angle_gamma   90.00000000
_symmetry_Int_Tables_number   1
_chemical_formula_structural   HoTm4(In2Cu)2
_chemical_formula_sum   'Ho2 Tm8 In8 Cu4'
_cell_volume   514.91013904
_cell_formula_units_Z   2
loop_
 _symmetry_equiv_pos_site_id
 _symmetry_equiv_pos_as_xyz
  1  'x, y, z'
loop_
 _atom_site_type_symbol
 _atom_site_label
 _atom_site_symmetry_multiplicity
 _atom_site_fract_x
 _atom_site_fract_y
 _atom_site_fract_z
 _atom_site_occupancy
  Ho  Ho0  1  0.000000  0.500000  0.500000  1
  Ho  Ho1  1  0.000000  0.000000  0.000000  1
  Tm  Tm2  1  0.000000  0.738703  0.279691  1
  Tm  Tm3  1  0.000000  0.261297  0.720309  1
  Tm  Tm4  1  0.000000  0.761297  0.779691  1
  Tm  Tm5  1  0.000000  0.238703  0.220309  1
  Tm  Tm6  1  0.000000  0.616011  0.083270  1
  Tm  Tm7  1  0.000000  0.383989  0.916730  1
  Tm  Tm8  1  0.000000  0.883989  0.583270  1
  Tm  Tm9  1  0.000000  0.116011  0.416730  1
  In  In10  1  0.500000  0.708098  0.930695  1
  In  In11  1  0.500000  0.291902  0.069305  1
  In  In12  1  0.500000  0.791902  0.430695  1
  In  In13  1  0.500000  0.208098  0.569305  1
  In  In14  1  0.500000  0.580842  0.650363  1
  In  In15  1  0.500000  0.419158  0.349637  1
  In  In16  1  0.500000  0.919158  0.150363  1
  In  In17  1  0.500000  0.080842  0.849637  1
  Cu  Cu18  1  0.500000  0.524121  0.197168  1
  Cu  Cu19  1  0.500000  0.475879  0.802832  1
  Cu  Cu20  1  0.500000  0.975879  0.697168  1
  Cu  Cu21  1  0.500000  0.024121  0.302832  1
