# generated using pymatgen
data_TiAg2AsF12
_symmetry_space_group_name_H-M   'P 1'
_cell_length_a   5.37912574
_cell_length_b   5.61093364
_cell_length_c   7.82788000
_cell_angle_alpha   95.78502321
_cell_angle_beta   89.26987290
_cell_angle_gamma   90.60725144
_symmetry_Int_Tables_number   1
_chemical_formula_structural   TiAg2AsF12
_chemical_formula_sum   'Ti1 Ag2 As1 F12'
_cell_volume   235.02779002
_cell_formula_units_Z   1
loop_
 _symmetry_equiv_pos_site_id
 _symmetry_equiv_pos_as_xyz
  1  'x, y, z'
loop_
 _atom_site_type_symbol
 _atom_site_label
 _atom_site_symmetry_multiplicity
 _atom_site_fract_x
 _atom_site_fract_y
 _atom_site_fract_z
 _atom_site_occupancy
  Ti  Ti0  1  0.000000  0.000000  0.500000  1
  Ag  Ag1  1  0.000000  0.000000  0.000000  1
  Ag  Ag2  1  0.500000  0.500000  0.500000  1
  As  As3  1  0.500000  0.500000  0.000000  1
  F  F4  1  0.886357  0.001240  0.729262  1
  F  F5  1  0.165180  0.296145  0.559763  1
  F  F6  1  0.238216  0.627893  0.908094  1
  F  F7  1  0.327885  0.479444  0.192371  1
  F  F8  1  0.392531  0.209942  0.919507  1
  F  F9  1  0.289776  0.834955  0.553779  1
  F  F10  1  0.710224  0.165045  0.446221  1
  F  F11  1  0.607469  0.790058  0.080493  1
  F  F12  1  0.672115  0.520556  0.807629  1
  F  F13  1  0.761784  0.372107  0.091906  1
  F  F14  1  0.834820  0.703855  0.440237  1
  F  F15  1  0.113643  0.998760  0.270738  1
