# generated using pymatgen
data_ErSc5Co16(MoP6)2
_symmetry_space_group_name_H-M   'P 1'
_cell_length_a   3.64928600
_cell_length_b   10.43129900
_cell_length_c   12.06561700
_cell_angle_alpha   90.00000000
_cell_angle_beta   90.00000000
_cell_angle_gamma   90.00000000
_symmetry_Int_Tables_number   1
_chemical_formula_structural   ErSc5Co16(MoP6)2
_chemical_formula_sum   'Er1 Sc5 Co16 Mo2 P12'
_cell_volume   459.29934961
_cell_formula_units_Z   1
loop_
 _symmetry_equiv_pos_site_id
 _symmetry_equiv_pos_as_xyz
  1  'x, y, z'
loop_
 _atom_site_type_symbol
 _atom_site_label
 _atom_site_symmetry_multiplicity
 _atom_site_fract_x
 _atom_site_fract_y
 _atom_site_fract_z
 _atom_site_occupancy
  Er  Er0  1  0.250000  0.750000  0.527240  1
  Sc  Sc1  1  0.750000  0.250000  0.473589  1
  Sc  Sc2  1  0.250000  0.930610  0.796308  1
  Sc  Sc3  1  0.250000  0.569390  0.796308  1
  Sc  Sc4  1  0.750000  0.070574  0.204632  1
  Sc  Sc5  1  0.750000  0.429426  0.204632  1
  Co  Co6  1  0.250000  0.250000  0.299350  1
  Co  Co7  1  0.750000  0.750000  0.702905  1
  Co  Co8  1  0.750000  0.250000  0.014031  1
  Co  Co9  1  0.250000  0.750000  0.985871  1
  Co  Co10  1  0.250000  0.417032  0.010487  1
  Co  Co11  1  0.250000  0.082968  0.010487  1
  Co  Co12  1  0.750000  0.582074  0.989570  1
  Co  Co13  1  0.750000  0.917926  0.989570  1
  Co  Co14  1  0.250000  0.451851  0.567625  1
  Co  Co15  1  0.250000  0.048149  0.567625  1
  Co  Co16  1  0.750000  0.544378  0.431843  1
  Co  Co17  1  0.750000  0.955622  0.431843  1
  Co  Co18  1  0.250000  0.874953  0.293692  1
  Co  Co19  1  0.250000  0.625047  0.293692  1
  Co  Co20  1  0.750000  0.126384  0.705538  1
  Co  Co21  1  0.750000  0.373616  0.705538  1
  Mo  Mo22  1  0.250000  0.250000  0.840996  1
  Mo  Mo23  1  0.750000  0.750000  0.157263  1
  P  P24  1  0.250000  0.250000  0.122632  1
  P  P25  1  0.750000  0.750000  0.878852  1
  P  P26  1  0.250000  0.250000  0.644288  1
  P  P27  1  0.750000  0.750000  0.352087  1
  P  P28  1  0.250000  0.434405  0.382086  1
  P  P29  1  0.250000  0.065595  0.382086  1
  P  P30  1  0.750000  0.562621  0.618980  1
  P  P31  1  0.750000  0.937379  0.618980  1
  P  P32  1  0.250000  0.908901  0.109680  1
  P  P33  1  0.250000  0.591099  0.109680  1
  P  P34  1  0.750000  0.091969  0.890006  1
  P  P35  1  0.750000  0.408031  0.890006  1
