# generated using pymatgen
data_Ac8Be(SiN4)3
_symmetry_space_group_name_H-M   'P 1'
_cell_length_a   6.40982369
_cell_length_b   6.40982454
_cell_length_c   12.21719272
_cell_angle_alpha   88.66733130
_cell_angle_beta   91.33266969
_cell_angle_gamma   128.10226614
_symmetry_Int_Tables_number   1
_chemical_formula_structural   Ac8Be(SiN4)3
_chemical_formula_sum   'Ac8 Be1 Si3 N12'
_cell_volume   394.86054053
_cell_formula_units_Z   1
loop_
 _symmetry_equiv_pos_site_id
 _symmetry_equiv_pos_as_xyz
  1  'x, y, z'
loop_
 _atom_site_type_symbol
 _atom_site_label
 _atom_site_symmetry_multiplicity
 _atom_site_fract_x
 _atom_site_fract_y
 _atom_site_fract_z
 _atom_site_occupancy
  Ac  Ac0  1  0.051565  0.948435  0.859305  1
  Ac  Ac1  1  0.944473  0.055527  0.140777  1
  Ac  Ac2  1  0.444054  0.555946  0.362409  1
  Ac  Ac3  1  0.572424  0.427576  0.661696  1
  Ac  Ac4  1  0.643730  0.356270  0.059633  1
  Ac  Ac5  1  0.348474  0.651526  0.920034  1
  Ac  Ac6  1  0.862288  0.137712  0.577420  1
  Ac  Ac7  1  0.141491  0.858509  0.426630  1
  Be  Be8  1  0.773768  0.226232  0.825302  1
  Si  Si9  1  0.257414  0.742586  0.168259  1
  Si  Si10  1  0.757810  0.242190  0.330497  1
  Si  Si11  1  0.243896  0.756104  0.668763  1
  N  N12  1  0.554530  0.445470  0.866995  1
  N  N13  1  0.409585  0.590415  0.141547  1
  N  N14  1  0.911889  0.088111  0.361437  1
  N  N15  1  0.088103  0.911897  0.638730  1
  N  N16  1  0.526780  0.984460  0.745597  1
  N  N17  1  0.976168  0.526222  0.249701  1
  N  N18  1  0.473778  0.023832  0.249701  1
  N  N19  1  0.015540  0.473220  0.745597  1
  N  N20  1  0.843458  0.156542  0.951325  1
  N  N21  1  0.159446  0.840554  0.053946  1
  N  N22  1  0.666855  0.333145  0.444744  1
  N  N23  1  0.332480  0.667520  0.549955  1
