# generated using pymatgen
data_LaPr3Y4(CdPd)2
_symmetry_space_group_name_H-M   'P 1'
_cell_length_a   9.93037747
_cell_length_b   9.93037802
_cell_length_c   9.89572200
_cell_angle_alpha   60.11537795
_cell_angle_beta   60.11537612
_cell_angle_gamma   60.08599417
_symmetry_Int_Tables_number   1
_chemical_formula_structural   LaPr3Y4(CdPd)2
_chemical_formula_sum   'La2 Pr6 Y8 Cd4 Pd4'
_cell_volume   691.67430239
_cell_formula_units_Z   2
loop_
 _symmetry_equiv_pos_site_id
 _symmetry_equiv_pos_as_xyz
  1  'x, y, z'
loop_
 _atom_site_type_symbol
 _atom_site_label
 _atom_site_symmetry_multiplicity
 _atom_site_fract_x
 _atom_site_fract_y
 _atom_site_fract_z
 _atom_site_occupancy
  La  La0  1  0.350645  0.350645  0.354345  1
  La  La1  1  0.350645  0.350645  0.944367  1
  Pr  Pr2  1  0.937709  0.562909  0.563905  1
  Pr  Pr3  1  0.562909  0.937709  0.935477  1
  Pr  Pr4  1  0.562909  0.937709  0.563905  1
  Pr  Pr5  1  0.937709  0.562909  0.935477  1
  Pr  Pr6  1  0.562931  0.562931  0.937069  1
  Pr  Pr7  1  0.937262  0.937262  0.562738  1
  Y  Y8  1  0.352645  0.938445  0.354455  1
  Y  Y9  1  0.938445  0.352645  0.354455  1
  Y  Y10  1  0.815164  0.186740  0.186010  1
  Y  Y11  1  0.186740  0.815164  0.812086  1
  Y  Y12  1  0.186740  0.815164  0.186010  1
  Y  Y13  1  0.815164  0.186740  0.812086  1
  Y  Y14  1  0.186115  0.186115  0.813885  1
  Y  Y15  1  0.812068  0.812068  0.187932  1
  Cd  Cd16  1  0.582798  0.582798  0.574669  1
  Cd  Cd17  1  0.582798  0.582798  0.259733  1
  Cd  Cd18  1  0.585286  0.260180  0.577266  1
  Cd  Cd19  1  0.260180  0.585286  0.577266  1
  Pd  Pd20  1  0.140875  0.140875  0.148389  1
  Pd  Pd21  1  0.140875  0.140875  0.569860  1
  Pd  Pd22  1  0.138646  0.572741  0.144306  1
  Pd  Pd23  1  0.572741  0.138646  0.144306  1
