# generated using pymatgen
data_La7Nd(Si3Pt)4
_symmetry_space_group_name_H-M   'P 1'
_cell_length_a   8.29201000
_cell_length_b   8.29201060
_cell_length_c   8.78617800
_cell_angle_alpha   90.00000000
_cell_angle_beta   90.00000000
_cell_angle_gamma   119.99999761
_symmetry_Int_Tables_number   1
_chemical_formula_structural   La7Nd(Si3Pt)4
_chemical_formula_sum   'La7 Nd1 Si12 Pt4'
_cell_volume   523.17900226
_cell_formula_units_Z   1
loop_
 _symmetry_equiv_pos_site_id
 _symmetry_equiv_pos_as_xyz
  1  'x, y, z'
loop_
 _atom_site_type_symbol
 _atom_site_label
 _atom_site_symmetry_multiplicity
 _atom_site_fract_x
 _atom_site_fract_y
 _atom_site_fract_z
 _atom_site_occupancy
  La  La0  1  0.000000  0.000000  0.750000  1
  La  La1  1  0.500951  0.499049  0.250000  1
  La  La2  1  0.500951  0.001903  0.250000  1
  La  La3  1  0.998097  0.499049  0.250000  1
  La  La4  1  0.499052  0.500948  0.750000  1
  La  La5  1  0.499052  0.998101  0.750000  1
  La  La6  1  0.001899  0.500948  0.750000  1
  Nd  Nd7  1  0.000000  0.000000  0.250000  1
  Si  Si8  1  0.165469  0.834531  0.500729  1
  Si  Si9  1  0.165469  0.330940  0.500729  1
  Si  Si10  1  0.669060  0.834531  0.500729  1
  Si  Si11  1  0.834544  0.165456  0.499010  1
  Si  Si12  1  0.834544  0.669087  0.499010  1
  Si  Si13  1  0.330913  0.165456  0.499010  1
  Si  Si14  1  0.834544  0.165456  0.000990  1
  Si  Si15  1  0.834544  0.669087  0.000990  1
  Si  Si16  1  0.330913  0.165456  0.000990  1
  Si  Si17  1  0.165469  0.834531  0.999271  1
  Si  Si18  1  0.165469  0.330940  0.999271  1
  Si  Si19  1  0.669060  0.834531  0.999271  1
  Pt  Pt20  1  0.333333  0.666667  0.495615  1
  Pt  Pt21  1  0.666667  0.333333  0.503572  1
  Pt  Pt22  1  0.666667  0.333333  0.996428  1
  Pt  Pt23  1  0.333333  0.666667  0.004385  1
