# generated using pymatgen
data_Np4AlGa23Pt9
_symmetry_space_group_name_H-M   'P 1'
_cell_length_a   7.56425141
_cell_length_b   7.57830162
_cell_length_c   13.18560000
_cell_angle_alpha   84.50944126
_cell_angle_beta   79.01323482
_cell_angle_gamma   59.92727879
_symmetry_Int_Tables_number   1
_chemical_formula_structural   Np4AlGa23Pt9
_chemical_formula_sum   'Np4 Al1 Ga23 Pt9'
_cell_volume   642.11928248
_cell_formula_units_Z   1
loop_
 _symmetry_equiv_pos_site_id
 _symmetry_equiv_pos_as_xyz
  1  'x, y, z'
loop_
 _atom_site_type_symbol
 _atom_site_label
 _atom_site_symmetry_multiplicity
 _atom_site_fract_x
 _atom_site_fract_y
 _atom_site_fract_z
 _atom_site_occupancy
  Np  Np0  1  0.395514  0.168967  0.804797  1
  Np  Np1  1  0.603304  0.832288  0.196149  1
  Np  Np2  1  0.732591  0.498416  0.804544  1
  Np  Np3  1  0.267865  0.499973  0.194531  1
  Al  Al4  1  0.681669  0.834222  0.947139  1
  Ga  Ga5  1  0.319155  0.166714  0.058034  1
  Ga  Ga6  1  0.145752  0.833576  0.560229  1
  Ga  Ga7  1  0.853554  0.165869  0.439944  1
  Ga  Ga8  1  0.480997  0.166431  0.557503  1
  Ga  Ga9  1  0.519867  0.832917  0.442020  1
  Ga  Ga10  1  0.219048  0.165423  0.325683  1
  Ga  Ga11  1  0.779678  0.834178  0.676279  1
  Ga  Ga12  1  0.435770  0.506470  0.674741  1
  Ga  Ga13  1  0.563481  0.494077  0.325272  1
  Ga  Ga14  1  0.107995  0.160437  0.674215  1
  Ga  Ga15  1  0.892230  0.838225  0.325496  1
  Ga  Ga16  1  0.358172  0.494912  0.940997  1
  Ga  Ga17  1  0.641405  0.505543  0.058514  1
  Ga  Ga18  1  0.018605  0.173339  0.942511  1
  Ga  Ga19  1  0.982374  0.828138  0.056851  1
  Ga  Ga20  1  0.185740  0.500011  0.441978  1
  Ga  Ga21  1  0.814457  0.500020  0.557798  1
  Ga  Ga22  1  0.736173  0.167382  0.181245  1
  Ga  Ga23  1  0.264050  0.834395  0.818083  1
  Ga  Ga24  1  0.056818  0.633478  0.817999  1
  Ga  Ga25  1  0.942292  0.366950  0.181758  1
  Ga  Ga26  1  0.855303  0.036911  0.818304  1
  Ga  Ga27  1  0.143729  0.959783  0.180866  1
  Pt  Pt28  1  0.120849  0.494608  0.638537  1
  Pt  Pt29  1  0.879881  0.504107  0.361245  1
  Pt  Pt30  1  0.664310  0.165671  0.999783  1
  Pt  Pt31  1  0.341490  0.832501  0.998265  1
  Pt  Pt32  1  0.540769  0.166599  0.360916  1
  Pt  Pt33  1  0.459613  0.833467  0.638140  1
  Pt  Pt34  1  0.781281  0.172135  0.637870  1
  Pt  Pt35  1  0.217944  0.828013  0.361935  1
  Pt  Pt36  1  0.996277  0.503850  0.999829  1
