# generated using pymatgen
data_Th3Bi4Rh2Au
_symmetry_space_group_name_H-M   'P 1'
_cell_length_a   8.76222680
_cell_length_b   8.76222628
_cell_length_c   8.76222599
_cell_angle_alpha   109.05276183
_cell_angle_beta   109.05276024
_cell_angle_gamma   110.31141955
_symmetry_Int_Tables_number   1
_chemical_formula_structural   Th3Bi4Rh2Au
_chemical_formula_sum   'Th6 Bi8 Rh4 Au2'
_cell_volume   517.78725306
_cell_formula_units_Z   2
loop_
 _symmetry_equiv_pos_site_id
 _symmetry_equiv_pos_as_xyz
  1  'x, y, z'
loop_
 _atom_site_type_symbol
 _atom_site_label
 _atom_site_symmetry_multiplicity
 _atom_site_fract_x
 _atom_site_fract_y
 _atom_site_fract_z
 _atom_site_occupancy
  Th  Th0  1  0.879317  0.250000  0.129317  1
  Th  Th1  1  0.620683  0.750000  0.370683  1
  Th  Th2  1  0.250000  0.120683  0.870683  1
  Th  Th3  1  0.750000  0.379317  0.629317  1
  Th  Th4  1  0.125000  0.875000  0.250000  1
  Th  Th5  1  0.375000  0.625000  0.750000  1
  Bi  Bi6  1  0.673528  0.503425  0.994325  1
  Bi  Bi7  1  0.490900  0.996575  0.670103  1
  Bi  Bi8  1  0.009100  0.679203  0.505675  1
  Bi  Bi9  1  0.826472  0.820797  0.829897  1
  Bi  Bi10  1  0.496575  0.990900  0.170103  1
  Bi  Bi11  1  0.179203  0.509100  0.005675  1
  Bi  Bi12  1  0.003425  0.173528  0.494325  1
  Bi  Bi13  1  0.320797  0.326472  0.329897  1
  Rh  Rh14  1  0.378053  0.250000  0.628053  1
  Rh  Rh15  1  0.121947  0.750000  0.871947  1
  Rh  Rh16  1  0.250000  0.621947  0.371947  1
  Rh  Rh17  1  0.750000  0.878053  0.128053  1
  Au  Au18  1  0.625000  0.375000  0.250000  1
  Au  Au19  1  0.875000  0.125000  0.750000  1
