# generated using pymatgen
data_NaTl(IO3)4
_symmetry_space_group_name_H-M   'P 1'
_cell_length_a   5.19164200
_cell_length_b   7.31692582
_cell_length_c   16.05915800
_cell_angle_alpha   78.66888250
_cell_angle_beta   90.00000000
_cell_angle_gamma   90.00000000
_symmetry_Int_Tables_number   1
_chemical_formula_structural   NaTl(IO3)4
_chemical_formula_sum   'Na2 Tl2 I8 O24'
_cell_volume   598.14619444
_cell_formula_units_Z   2
loop_
 _symmetry_equiv_pos_site_id
 _symmetry_equiv_pos_as_xyz
  1  'x, y, z'
loop_
 _atom_site_type_symbol
 _atom_site_label
 _atom_site_symmetry_multiplicity
 _atom_site_fract_x
 _atom_site_fract_y
 _atom_site_fract_z
 _atom_site_occupancy
  Na  Na0  1  0.500000  0.500000  0.000000  1
  Na  Na1  1  0.000000  0.500000  0.500000  1
  Tl  Tl2  1  0.500000  0.000000  0.000000  1
  Tl  Tl3  1  0.000000  0.000000  0.500000  1
  I  I4  1  0.904518  0.665185  0.165442  1
  I  I5  1  0.404518  0.334815  0.334558  1
  I  I6  1  0.095482  0.334815  0.834558  1
  I  I7  1  0.595482  0.665185  0.665442  1
  I  I8  1  0.986830  0.184207  0.139751  1
  I  I9  1  0.486830  0.815793  0.360249  1
  I  I10  1  0.013170  0.815793  0.860249  1
  I  I11  1  0.513170  0.184207  0.639751  1
  O  O12  1  0.676352  0.730252  0.074254  1
  O  O13  1  0.176352  0.269748  0.425746  1
  O  O14  1  0.323648  0.269748  0.925746  1
  O  O15  1  0.823648  0.730252  0.574254  1
  O  O16  1  0.790624  0.828747  0.230580  1
  O  O17  1  0.290624  0.171253  0.269420  1
  O  O18  1  0.209376  0.171253  0.769420  1
  O  O19  1  0.709376  0.828747  0.730580  1
  O  O20  1  0.738188  0.446506  0.210586  1
  O  O21  1  0.238188  0.553494  0.289414  1
  O  O22  1  0.261812  0.553494  0.789414  1
  O  O23  1  0.761812  0.446506  0.710586  1
  O  O24  1  0.738392  0.209621  0.052878  1
  O  O25  1  0.238392  0.790379  0.447122  1
  O  O26  1  0.261608  0.790379  0.947122  1
  O  O27  1  0.761608  0.209621  0.552878  1
  O  O28  1  0.192665  0.002195  0.106673  1
  O  O29  1  0.692665  0.997805  0.393327  1
  O  O30  1  0.807335  0.997805  0.893327  1
  O  O31  1  0.307335  0.002195  0.606673  1
  O  O32  1  0.153349  0.397730  0.094874  1
  O  O33  1  0.653349  0.602270  0.405126  1
  O  O34  1  0.846651  0.602270  0.905126  1
  O  O35  1  0.346651  0.397730  0.594874  1
