# generated using pymatgen
data_SmPa2(SnRh)3
_symmetry_space_group_name_H-M   'P 1'
_cell_length_a   7.51277779
_cell_length_b   7.40556798
_cell_length_c   4.03525000
_cell_angle_alpha   90.00000000
_cell_angle_beta   90.00000000
_cell_angle_gamma   119.52904659
_symmetry_Int_Tables_number   1
_chemical_formula_structural   SmPa2(SnRh)3
_chemical_formula_sum   'Sm1 Pa2 Sn3 Rh3'
_cell_volume   195.34464013
_cell_formula_units_Z   1
loop_
 _symmetry_equiv_pos_site_id
 _symmetry_equiv_pos_as_xyz
  1  'x, y, z'
loop_
 _atom_site_type_symbol
 _atom_site_label
 _atom_site_symmetry_multiplicity
 _atom_site_fract_x
 _atom_site_fract_y
 _atom_site_fract_z
 _atom_site_occupancy
  Sm  Sm0  1  0.000000  0.590302  0.500000  1
  Pa  Pa1  1  0.413382  0.412491  0.500000  1
  Pa  Pa2  1  0.586618  0.999109  0.500000  1
  Sn  Sn3  1  0.754454  0.746599  0.000000  1
  Sn  Sn4  1  0.245546  0.992146  0.000000  1
  Sn  Sn5  1  0.000000  0.261930  0.000000  1
  Rh  Rh6  1  0.642240  0.312575  0.000000  1
  Rh  Rh7  1  0.357760  0.670337  0.000000  1
  Rh  Rh8  1  0.000000  0.014511  0.500000  1
