# generated using pymatgen
data_TmPa5I24
_symmetry_space_group_name_H-M   'P 1'
_cell_length_a   9.14983000
_cell_length_b   9.20726379
_cell_length_c   19.23196779
_cell_angle_alpha   76.88823038
_cell_angle_beta   90.00000000
_cell_angle_gamma   90.00000000
_symmetry_Int_Tables_number   1
_chemical_formula_structural   TmPa5I24
_chemical_formula_sum   'Tm1 Pa5 I24'
_cell_volume   1577.95569467
_cell_formula_units_Z   1
loop_
 _symmetry_equiv_pos_site_id
 _symmetry_equiv_pos_as_xyz
  1  'x, y, z'
loop_
 _atom_site_type_symbol
 _atom_site_label
 _atom_site_symmetry_multiplicity
 _atom_site_fract_x
 _atom_site_fract_y
 _atom_site_fract_z
 _atom_site_occupancy
  Tm  Tm0  1  0.392355  0.000000  0.250000  1
  Pa  Pa1  1  0.879880  0.827442  0.581828  1
  Pa  Pa2  1  0.119874  0.172858  0.414737  1
  Pa  Pa3  1  0.628755  0.000000  0.750000  1
  Pa  Pa4  1  0.879880  0.172558  0.918172  1
  Pa  Pa5  1  0.119874  0.827142  0.085263  1
  I  I6  1  0.109268  0.395232  0.907597  1
  I  I7  1  0.586975  0.758640  0.260540  1
  I  I8  1  0.118257  0.071570  0.579487  1
  I  I9  1  0.353217  0.375996  0.427871  1
  I  I10  1  0.121894  0.776626  0.244318  1
  I  I11  1  0.121894  0.223374  0.255682  1
  I  I12  1  0.118257  0.928430  0.920513  1
  I  I13  1  0.413155  0.235828  0.740639  1
  I  I14  1  0.892660  0.606036  0.090531  1
  I  I15  1  0.878979  0.230162  0.753754  1
  I  I16  1  0.413155  0.764172  0.759361  1
  I  I17  1  0.892660  0.393964  0.409469  1
  I  I18  1  0.586975  0.241360  0.239460  1
  I  I19  1  0.652064  0.079355  0.586172  1
  I  I20  1  0.341902  0.923629  0.412612  1
  I  I21  1  0.878979  0.769838  0.746246  1
  I  I22  1  0.109268  0.604768  0.592403  1
  I  I23  1  0.644072  0.377660  0.928715  1
  I  I24  1  0.341902  0.076371  0.087388  1
  I  I25  1  0.877247  0.068355  0.081400  1
  I  I26  1  0.644072  0.622340  0.571285  1
  I  I27  1  0.652064  0.920645  0.913828  1
  I  I28  1  0.353217  0.624004  0.072129  1
  I  I29  1  0.877247  0.931645  0.418600  1
