# generated using pymatgen
data_Pr17Er2LuSn16
_symmetry_space_group_name_H-M   'P 1'
_cell_length_a   8.30390800
_cell_length_b   8.46644061
_cell_length_c   16.06339300
_cell_angle_alpha   90.00000000
_cell_angle_beta   90.00000000
_cell_angle_gamma   90.07784484
_symmetry_Int_Tables_number   1
_chemical_formula_structural   Pr17Er2LuSn16
_chemical_formula_sum   'Pr17 Er2 Lu1 Sn16'
_cell_volume   1129.32847630
_cell_formula_units_Z   1
loop_
 _symmetry_equiv_pos_site_id
 _symmetry_equiv_pos_as_xyz
  1  'x, y, z'
loop_
 _atom_site_type_symbol
 _atom_site_label
 _atom_site_symmetry_multiplicity
 _atom_site_fract_x
 _atom_site_fract_y
 _atom_site_fract_z
 _atom_site_occupancy
  Pr  Pr0  1  0.366630  0.837650  0.877932  1
  Pr  Pr1  1  0.866923  0.661751  0.620375  1
  Pr  Pr2  1  0.633971  0.163062  0.379640  1
  Pr  Pr3  1  0.132133  0.338077  0.119690  1
  Pr  Pr4  1  0.633971  0.163062  0.120360  1
  Pr  Pr5  1  0.132133  0.338077  0.380310  1
  Pr  Pr6  1  0.366630  0.837650  0.622068  1
  Pr  Pr7  1  0.866923  0.661751  0.879625  1
  Pr  Pr8  1  0.518192  0.318531  0.901148  1
  Pr  Pr9  1  0.018373  0.181129  0.599752  1
  Pr  Pr10  1  0.481949  0.680505  0.401679  1
  Pr  Pr11  1  0.981385  0.818193  0.098140  1
  Pr  Pr12  1  0.481949  0.680505  0.098321  1
  Pr  Pr13  1  0.981385  0.818193  0.401860  1
  Pr  Pr14  1  0.518192  0.318531  0.598852  1
  Pr  Pr15  1  0.018373  0.181129  0.900248  1
  Pr  Pr16  1  0.303719  0.001741  0.250000  1
  Er  Er17  1  0.199353  0.501400  0.750000  1
  Er  Er18  1  0.698723  0.997976  0.750000  1
  Lu  Lu19  1  0.801386  0.497391  0.250000  1
  Sn  Sn20  1  0.292339  0.036346  0.041255  1
  Sn  Sn21  1  0.792048  0.466487  0.455056  1
  Sn  Sn22  1  0.707438  0.966258  0.545141  1
  Sn  Sn23  1  0.208381  0.534063  0.954586  1
  Sn  Sn24  1  0.707438  0.966258  0.954859  1
  Sn  Sn25  1  0.208381  0.534063  0.545414  1
  Sn  Sn26  1  0.292339  0.036346  0.458745  1
  Sn  Sn27  1  0.792048  0.466487  0.044944  1
  Sn  Sn28  1  0.564112  0.616350  0.750000  1
  Sn  Sn29  1  0.062278  0.883269  0.750000  1
  Sn  Sn30  1  0.438288  0.386857  0.250000  1
  Sn  Sn31  1  0.932158  0.117346  0.250000  1
  Sn  Sn32  1  0.324102  0.147626  0.750000  1
  Sn  Sn33  1  0.822659  0.353480  0.750000  1
  Sn  Sn34  1  0.679098  0.851220  0.250000  1
  Sn  Sn35  1  0.174601  0.641236  0.250000  1
