# generated using pymatgen
data_YCr2AgO8
_symmetry_space_group_name_H-M   'P 1'
_cell_length_a   5.38131706
_cell_length_b   5.38131700
_cell_length_c   7.34750874
_cell_angle_alpha   87.04562732
_cell_angle_beta   92.95437507
_cell_angle_gamma   113.78896785
_symmetry_Int_Tables_number   1
_chemical_formula_structural   YCr2AgO8
_chemical_formula_sum   'Y1 Cr2 Ag1 O8'
_cell_volume   194.32668959
_cell_formula_units_Z   1
loop_
 _symmetry_equiv_pos_site_id
 _symmetry_equiv_pos_as_xyz
  1  'x, y, z'
loop_
 _atom_site_type_symbol
 _atom_site_label
 _atom_site_symmetry_multiplicity
 _atom_site_fract_x
 _atom_site_fract_y
 _atom_site_fract_z
 _atom_site_occupancy
  Y  Y0  1  0.000000  0.000000  0.000000  1
  Cr  Cr1  1  0.648072  0.351928  0.240085  1
  Cr  Cr2  1  0.351928  0.648072  0.759915  1
  Ag  Ag3  1  0.000000  0.000000  0.500000  1
  O  O4  1  0.303594  0.220675  0.227316  1
  O  O5  1  0.220675  0.303594  0.772684  1
  O  O6  1  0.249901  0.750099  0.568945  1
  O  O7  1  0.757899  0.242101  0.065651  1
  O  O8  1  0.242101  0.757899  0.934349  1
  O  O9  1  0.750099  0.249901  0.431055  1
  O  O10  1  0.696406  0.779325  0.772684  1
  O  O11  1  0.779325  0.696406  0.227316  1
