# generated using pymatgen
data_Er10CdIn8Ru3
_symmetry_space_group_name_H-M   'P 1'
_cell_length_a   3.60046300
_cell_length_b   8.09188712
_cell_length_c   18.37237983
_cell_angle_alpha   90.09172530
_cell_angle_beta   90.00000000
_cell_angle_gamma   90.00000000
_symmetry_Int_Tables_number   1
_chemical_formula_structural   Er10CdIn8Ru3
_chemical_formula_sum   'Er10 Cd1 In8 Ru3'
_cell_volume   535.27015223
_cell_formula_units_Z   1
loop_
 _symmetry_equiv_pos_site_id
 _symmetry_equiv_pos_as_xyz
  1  'x, y, z'
loop_
 _atom_site_type_symbol
 _atom_site_label
 _atom_site_symmetry_multiplicity
 _atom_site_fract_x
 _atom_site_fract_y
 _atom_site_fract_z
 _atom_site_occupancy
  Er  Er0  1  0.000000  0.116381  0.416911  1
  Er  Er1  1  0.000000  0.882633  0.590708  1
  Er  Er2  1  0.000000  0.382602  0.908314  1
  Er  Er3  1  0.000000  0.627354  0.073190  1
  Er  Er4  1  0.000000  0.209722  0.223927  1
  Er  Er5  1  0.000000  0.755951  0.776739  1
  Er  Er6  1  0.000000  0.255603  0.721357  1
  Er  Er7  1  0.000000  0.771444  0.285775  1
  Er  Er8  1  0.000000  0.003218  0.998490  1
  Er  Er9  1  0.000000  0.500730  0.501071  1
  Cd  Cd10  1  0.500000  0.522962  0.198855  1
  In  In11  1  0.500000  0.418175  0.354266  1
  In  In12  1  0.500000  0.567404  0.650281  1
  In  In13  1  0.500000  0.069178  0.848845  1
  In  In14  1  0.500000  0.924040  0.147931  1
  In  In15  1  0.500000  0.295262  0.065430  1
  In  In16  1  0.500000  0.706719  0.927235  1
  In  In17  1  0.500000  0.207151  0.569265  1
  In  In18  1  0.500000  0.793579  0.434696  1
  Ru  Ru19  1  0.500000  0.026408  0.307276  1
  Ru  Ru20  1  0.500000  0.982075  0.696595  1
  Ru  Ru21  1  0.500000  0.481410  0.802844  1
