# generated using pymatgen
data_ThAl4Os
_symmetry_space_group_name_H-M   'P 1'
_cell_length_a   7.74263200
_cell_length_b   8.94078900
_cell_length_c   9.60930700
_cell_angle_alpha   90.00000000
_cell_angle_beta   90.00000000
_cell_angle_gamma   90.00000000
_symmetry_Int_Tables_number   1
_chemical_formula_structural   ThAl4Os
_chemical_formula_sum   'Th6 Al24 Os6'
_cell_volume   665.20657386
_cell_formula_units_Z   6
loop_
 _symmetry_equiv_pos_site_id
 _symmetry_equiv_pos_as_xyz
  1  'x, y, z'
loop_
 _atom_site_type_symbol
 _atom_site_label
 _atom_site_symmetry_multiplicity
 _atom_site_fract_x
 _atom_site_fract_y
 _atom_site_fract_z
 _atom_site_occupancy
  Th  Th0  1  0.320249  0.500000  0.750000  1
  Th  Th1  1  0.679751  0.500000  0.250000  1
  Th  Th2  1  0.836696  0.247455  0.750000  1
  Th  Th3  1  0.163304  0.752545  0.250000  1
  Th  Th4  1  0.836696  0.752545  0.750000  1
  Th  Th5  1  0.163304  0.247455  0.250000  1
  Al  Al6  1  0.180936  0.232442  0.574162  1
  Al  Al7  1  0.819064  0.767558  0.425838  1
  Al  Al8  1  0.180936  0.767558  0.925838  1
  Al  Al9  1  0.819064  0.232442  0.425838  1
  Al  Al10  1  0.819064  0.232442  0.074162  1
  Al  Al11  1  0.180936  0.767558  0.574162  1
  Al  Al12  1  0.819064  0.767558  0.074162  1
  Al  Al13  1  0.180936  0.232442  0.925838  1
  Al  Al14  1  0.131005  0.000000  0.750000  1
  Al  Al15  1  0.868995  0.000000  0.250000  1
  Al  Al16  1  0.339475  0.000000  0.055566  1
  Al  Al17  1  0.660525  0.000000  0.944434  1
  Al  Al18  1  0.339475  0.000000  0.444434  1
  Al  Al19  1  0.660525  0.000000  0.555566  1
  Al  Al20  1  0.450664  0.152907  0.750000  1
  Al  Al21  1  0.549336  0.847093  0.250000  1
  Al  Al22  1  0.450664  0.847093  0.750000  1
  Al  Al23  1  0.549336  0.152907  0.250000  1
  Al  Al24  1  0.652151  0.500000  0.578593  1
  Al  Al25  1  0.347849  0.500000  0.421407  1
  Al  Al26  1  0.652151  0.500000  0.921407  1
  Al  Al27  1  0.347849  0.500000  0.078593  1
  Al  Al28  1  0.000000  0.500000  0.500000  1
  Al  Al29  1  0.000000  0.500000  0.000000  1
  Os  Os30  1  0.500000  0.257654  0.500000  1
  Os  Os31  1  0.500000  0.742346  0.500000  1
  Os  Os32  1  0.500000  0.742346  0.000000  1
  Os  Os33  1  0.500000  0.257654  0.000000  1
  Os  Os34  1  0.000000  0.000000  0.500000  1
  Os  Os35  1  0.000000  0.000000  0.000000  1
