# generated using pymatgen
data_Li8Nd8Sn5Sb3
_symmetry_space_group_name_H-M   'P 1'
_cell_length_a   9.54989500
_cell_length_b   9.54989553
_cell_length_c   7.60648800
_cell_angle_alpha   90.00000000
_cell_angle_beta   90.00000000
_cell_angle_gamma   120.00000162
_symmetry_Int_Tables_number   1
_chemical_formula_structural   Li8Nd8Sn5Sb3
_chemical_formula_sum   'Li8 Nd8 Sn5 Sb3'
_cell_volume   600.77524122
_cell_formula_units_Z   1
loop_
 _symmetry_equiv_pos_site_id
 _symmetry_equiv_pos_as_xyz
  1  'x, y, z'
loop_
 _atom_site_type_symbol
 _atom_site_label
 _atom_site_symmetry_multiplicity
 _atom_site_fract_x
 _atom_site_fract_y
 _atom_site_fract_z
 _atom_site_occupancy
  Li  Li0  1  0.166752  0.333504  0.281082  1
  Li  Li1  1  0.166752  0.833248  0.281082  1
  Li  Li2  1  0.666496  0.833248  0.281082  1
  Li  Li3  1  0.833547  0.667094  0.783748  1
  Li  Li4  1  0.833547  0.166453  0.783748  1
  Li  Li5  1  0.332906  0.166453  0.783748  1
  Li  Li6  1  0.333333  0.666667  0.674132  1
  Li  Li7  1  0.666667  0.333333  0.178299  1
  Nd  Nd8  1  0.511790  0.023581  0.492158  1
  Nd  Nd9  1  0.511790  0.488210  0.492158  1
  Nd  Nd10  1  0.976419  0.488210  0.492158  1
  Nd  Nd11  1  0.489949  0.979897  0.996639  1
  Nd  Nd12  1  0.489949  0.510051  0.996639  1
  Nd  Nd13  1  0.020103  0.510051  0.996639  1
  Nd  Nd14  1  0.000000  0.000000  0.497097  1
  Nd  Nd15  1  0.000000  0.000000  0.003451  1
  Sn  Sn16  1  0.833404  0.666807  0.233560  1
  Sn  Sn17  1  0.833404  0.166596  0.233560  1
  Sn  Sn18  1  0.333193  0.166596  0.233560  1
  Sn  Sn19  1  0.333333  0.666667  0.262128  1
  Sn  Sn20  1  0.666667  0.333333  0.762778  1
  Sb  Sb21  1  0.166871  0.333743  0.734176  1
  Sb  Sb22  1  0.166871  0.833129  0.734176  1
  Sb  Sb23  1  0.666257  0.833129  0.734176  1
