# generated using pymatgen
data_EuNbOsF12
_symmetry_space_group_name_H-M   'P 1'
_cell_length_a   5.35981243
_cell_length_b   5.66673216
_cell_length_c   9.33527000
_cell_angle_alpha   73.86472015
_cell_angle_beta   88.60593350
_cell_angle_gamma   62.37045776
_symmetry_Int_Tables_number   1
_chemical_formula_structural   EuNbOsF12
_chemical_formula_sum   'Eu1 Nb1 Os1 F12'
_cell_volume   239.48028174
_cell_formula_units_Z   1
loop_
 _symmetry_equiv_pos_site_id
 _symmetry_equiv_pos_as_xyz
  1  'x, y, z'
loop_
 _atom_site_type_symbol
 _atom_site_label
 _atom_site_symmetry_multiplicity
 _atom_site_fract_x
 _atom_site_fract_y
 _atom_site_fract_z
 _atom_site_occupancy
  Eu  Eu0  1  0.502784  0.506614  0.487454  1
  Nb  Nb1  1  0.244157  0.978038  0.787477  1
  Os  Os2  1  0.757123  0.013504  0.227779  1
  F  F3  1  0.933160  0.240487  0.213338  1
  F  F4  1  0.067149  0.753486  0.805762  1
  F  F5  1  0.032683  0.785984  0.126292  1
  F  F6  1  0.485165  0.768990  0.649028  1
  F  F7  1  0.483024  0.227547  0.349029  1
  F  F8  1  0.980839  0.217685  0.588268  1
  F  F9  1  0.004782  0.768776  0.422496  1
  F  F10  1  0.421899  0.221957  0.705265  1
  F  F11  1  0.577090  0.770490  0.267886  1
  F  F12  1  0.526949  0.763095  0.950522  1
  F  F13  1  0.505665  0.238394  0.049705  1
  F  F14  1  0.977533  0.244952  0.869696  1
