# generated using pymatgen
data_Li4Y3Th(Si2Pb)2
_symmetry_space_group_name_H-M   'P 1'
_cell_length_a   9.69888605
_cell_length_b   9.69888559
_cell_length_c   6.86640100
_cell_angle_alpha   90.00000000
_cell_angle_beta   90.00000000
_cell_angle_gamma   153.56308788
_symmetry_Int_Tables_number   1
_chemical_formula_structural   Li4Y3Th(Si2Pb)2
_chemical_formula_sum   'Li4 Y3 Th1 Si4 Pb2'
_cell_volume   287.56753343
_cell_formula_units_Z   1
loop_
 _symmetry_equiv_pos_site_id
 _symmetry_equiv_pos_as_xyz
  1  'x, y, z'
loop_
 _atom_site_type_symbol
 _atom_site_label
 _atom_site_symmetry_multiplicity
 _atom_site_fract_x
 _atom_site_fract_y
 _atom_site_fract_z
 _atom_site_occupancy
  Li  Li0  1  0.182522  0.817478  0.054914  1
  Li  Li1  1  0.182522  0.817478  0.445086  1
  Li  Li2  1  0.817157  0.182843  0.945591  1
  Li  Li3  1  0.817157  0.182843  0.554409  1
  Y  Y4  1  0.355635  0.644365  0.250000  1
  Y  Y5  1  0.645461  0.354539  0.750000  1
  Y  Y6  1  0.548072  0.451928  0.250000  1
  Th  Th7  1  0.452284  0.547716  0.750000  1
  Si  Si8  1  0.057894  0.942106  0.928878  1
  Si  Si9  1  0.942646  0.057354  0.070675  1
  Si  Si10  1  0.942646  0.057354  0.429325  1
  Si  Si11  1  0.057894  0.942106  0.571122  1
  Pb  Pb12  1  0.720476  0.279524  0.250000  1
  Pb  Pb13  1  0.277634  0.722366  0.750000  1
