# generated using pymatgen
data_Tb5Dy5InSb5
_symmetry_space_group_name_H-M   'P 1'
_cell_length_a   6.40060500
_cell_length_b   9.02382079
_cell_length_c   9.00648677
_cell_angle_alpha   119.90251904
_cell_angle_beta   90.00001790
_cell_angle_gamma   89.99997202
_symmetry_Int_Tables_number   1
_chemical_formula_structural   Tb5Dy5InSb5
_chemical_formula_sum   'Tb5 Dy5 In1 Sb5'
_cell_volume   450.94471126
_cell_formula_units_Z   1
loop_
 _symmetry_equiv_pos_site_id
 _symmetry_equiv_pos_as_xyz
  1  'x, y, z'
loop_
 _atom_site_type_symbol
 _atom_site_label
 _atom_site_symmetry_multiplicity
 _atom_site_fract_x
 _atom_site_fract_y
 _atom_site_fract_z
 _atom_site_occupancy
  Tb  Tb0  1  0.750001  0.244601  0.999870  1
  Tb  Tb1  1  0.750001  0.753055  0.756520  1
  Tb  Tb2  1  0.249999  0.756936  0.000474  1
  Tb  Tb3  1  0.250001  0.246815  0.245127  1
  Tb  Tb4  1  0.250001  0.001776  0.754761  1
  Dy  Dy5  1  0.498427  0.335075  0.668943  1
  Dy  Dy6  1  0.498866  0.666214  0.331268  1
  Dy  Dy7  1  0.001133  0.666215  0.331268  1
  Dy  Dy8  1  0.001572  0.335076  0.668943  1
  Dy  Dy9  1  0.750001  0.996314  0.242224  1
  In  In10  1  0.749999  0.606850  0.000687  1
  Sb  Sb11  1  0.750001  0.387346  0.388775  1
  Sb  Sb12  1  0.750001  0.999271  0.609585  1
  Sb  Sb13  1  0.250000  0.390922  0.000297  1
  Sb  Sb14  1  0.250000  0.611816  0.611020  1
  Sb  Sb15  1  0.250000  0.001715  0.390238  1
