# generated using pymatgen
data_La2YHo(Ge2Pt)4
_symmetry_space_group_name_H-M   'P 1'
_cell_length_a   4.43847222
_cell_length_b   8.81099306
_cell_length_c   9.66381419
_cell_angle_alpha   117.12128583
_cell_angle_beta   103.27611595
_cell_angle_gamma   90.00000234
_symmetry_Int_Tables_number   1
_chemical_formula_structural   La2YHo(Ge2Pt)4
_chemical_formula_sum   'La2 Y1 Ho1 Ge8 Pt4'
_cell_volume   324.98155604
_cell_formula_units_Z   1
loop_
 _symmetry_equiv_pos_site_id
 _symmetry_equiv_pos_as_xyz
  1  'x, y, z'
loop_
 _atom_site_type_symbol
 _atom_site_label
 _atom_site_symmetry_multiplicity
 _atom_site_fract_x
 _atom_site_fract_y
 _atom_site_fract_z
 _atom_site_occupancy
  La  La0  1  0.999969  0.259950  0.999937  1
  La  La1  1  0.999969  0.739988  0.999937  1
  Y  Y2  1  0.202107  0.702107  0.404214  1
  Ho  Ho3  1  0.797814  0.297814  0.595628  1
  Ge  Ge4  1  0.426026  0.926026  0.852053  1
  Ge  Ge5  1  0.573971  0.073971  0.147941  1
  Ge  Ge6  1  0.423775  0.423775  0.847551  1
  Ge  Ge7  1  0.576019  0.576019  0.152037  1
  Ge  Ge8  1  0.201021  0.051977  0.402041  1
  Ge  Ge9  1  0.799119  0.948660  0.598238  1
  Ge  Ge10  1  0.201021  0.350065  0.402041  1
  Ge  Ge11  1  0.799119  0.649578  0.598238  1
  Pt  Pt12  1  0.348564  0.096061  0.697127  1
  Pt  Pt13  1  0.651472  0.904453  0.302945  1
  Pt  Pt14  1  0.348564  0.601066  0.697127  1
  Pt  Pt15  1  0.651472  0.398491  0.302945  1
