# generated using pymatgen
data_Hf6Ti6Ga10Ir7
_symmetry_space_group_name_H-M   'P 1'
_cell_length_a   8.85471600
_cell_length_b   8.80345327
_cell_length_c   8.80345532
_cell_angle_alpha   59.61458816
_cell_angle_beta   59.80719238
_cell_angle_gamma   59.80718775
_symmetry_Int_Tables_number   1
_chemical_formula_structural   Hf6Ti6Ga10Ir7
_chemical_formula_sum   'Hf6 Ti6 Ga10 Ir7'
_cell_volume   482.41457685
_cell_formula_units_Z   1
loop_
 _symmetry_equiv_pos_site_id
 _symmetry_equiv_pos_as_xyz
  1  'x, y, z'
loop_
 _atom_site_type_symbol
 _atom_site_label
 _atom_site_symmetry_multiplicity
 _atom_site_fract_x
 _atom_site_fract_y
 _atom_site_fract_z
 _atom_site_occupancy
  Hf  Hf0  1  0.685462  0.692346  0.312223  1
  Hf  Hf1  1  0.309970  0.692346  0.312223  1
  Hf  Hf2  1  0.690938  0.309062  0.309062  1
  Hf  Hf3  1  0.309970  0.312223  0.692346  1
  Hf  Hf4  1  0.685462  0.312223  0.692346  1
  Hf  Hf5  1  0.311118  0.688882  0.688882  1
  Ti  Ti6  1  0.876787  0.881558  0.364868  1
  Ti  Ti7  1  0.876787  0.364868  0.881558  1
  Ti  Ti8  1  0.370652  0.878357  0.878357  1
  Ti  Ti9  1  0.872635  0.878357  0.878357  1
  Ti  Ti10  1  0.124209  0.125115  0.626467  1
  Ti  Ti11  1  0.124209  0.626467  0.125115  1
  Ga  Ga12  1  0.648447  0.117820  0.117820  1
  Ga  Ga13  1  0.115912  0.117820  0.117820  1
  Ga  Ga14  1  0.658348  0.655556  0.027747  1
  Ga  Ga15  1  0.658348  0.027747  0.655556  1
  Ga  Ga16  1  0.025491  0.657480  0.657480  1
  Ga  Ga17  1  0.659549  0.657480  0.657480  1
  Ga  Ga18  1  0.340094  0.339823  0.979991  1
  Ga  Ga19  1  0.340094  0.979991  0.339823  1
  Ga  Ga20  1  0.969788  0.343258  0.343258  1
  Ga  Ga21  1  0.343696  0.343258  0.343258  1
  Ir  Ir22  1  0.012665  0.987335  0.987335  1
  Ir  Ir23  1  0.999031  0.999339  0.506274  1
  Ir  Ir24  1  0.495356  0.999339  0.506274  1
  Ir  Ir25  1  0.999346  0.500654  0.500654  1
  Ir  Ir26  1  0.495356  0.506274  0.999339  1
  Ir  Ir27  1  0.999031  0.506274  0.999339  1
  Ir  Ir28  1  0.501250  0.998750  0.998750  1
