# generated using pymatgen
data_Tb3Ho3NiI10
_symmetry_space_group_name_H-M   'P 1'
_cell_length_a   7.69068062
_cell_length_b   9.66075337
_cell_length_c   9.70478978
_cell_angle_alpha   106.93928045
_cell_angle_beta   96.66923853
_cell_angle_gamma   104.30024396
_symmetry_Int_Tables_number   1
_chemical_formula_structural   Tb3Ho3NiI10
_chemical_formula_sum   'Tb3 Ho3 Ni1 I10'
_cell_volume   654.48259671
_cell_formula_units_Z   1
loop_
 _symmetry_equiv_pos_site_id
 _symmetry_equiv_pos_as_xyz
  1  'x, y, z'
loop_
 _atom_site_type_symbol
 _atom_site_label
 _atom_site_symmetry_multiplicity
 _atom_site_fract_x
 _atom_site_fract_y
 _atom_site_fract_z
 _atom_site_occupancy
  Tb  Tb0  1  0.034341  0.720435  0.917168  1
  Tb  Tb1  1  0.885786  0.958594  0.236365  1
  Tb  Tb2  1  0.114251  0.041947  0.764084  1
  Ho  Ho3  1  0.336186  0.119107  0.159829  1
  Ho  Ho4  1  0.663397  0.881548  0.840258  1
  Ho  Ho5  1  0.966356  0.277311  0.082533  1
  Ni  Ni6  1  0.999061  0.999619  0.999849  1
  I  I7  1  0.344851  0.447477  0.271620  1
  I  I8  1  0.652844  0.552551  0.727174  1
  I  I9  1  0.767846  0.254966  0.341441  1
  I  I10  1  0.233282  0.746409  0.657203  1
  I  I11  1  0.546267  0.186347  0.907957  1
  I  I12  1  0.455201  0.814515  0.092939  1
  I  I13  1  0.742620  0.913603  0.539505  1
  I  I14  1  0.257683  0.086695  0.460520  1
  I  I15  1  0.913708  0.625286  0.180839  1
  I  I16  1  0.086322  0.373590  0.820715  1
