# generated using pymatgen
data_LiTb4Er12In3Rh4
_symmetry_space_group_name_H-M   'P 1'
_cell_length_a   9.60998843
_cell_length_b   9.60766996
_cell_length_c   9.60645931
_cell_angle_alpha   60.07575897
_cell_angle_beta   59.84855855
_cell_angle_gamma   60.19296325
_symmetry_Int_Tables_number   1
_chemical_formula_structural   LiTb4Er12In3Rh4
_chemical_formula_sum   'Li1 Tb4 Er12 In3 Rh4'
_cell_volume   627.71985681
_cell_formula_units_Z   1
loop_
 _symmetry_equiv_pos_site_id
 _symmetry_equiv_pos_as_xyz
  1  'x, y, z'
loop_
 _atom_site_type_symbol
 _atom_site_label
 _atom_site_symmetry_multiplicity
 _atom_site_fract_x
 _atom_site_fract_y
 _atom_site_fract_z
 _atom_site_occupancy
  Li  Li0  1  0.428161  0.714187  0.429888  1
  Tb  Tb1  1  0.189013  0.192140  0.809853  1
  Tb  Tb2  1  0.439491  0.059405  0.061766  1
  Tb  Tb3  1  0.433185  0.064345  0.433678  1
  Tb  Tb4  1  0.064729  0.437814  0.065072  1
  Er  Er5  1  0.647679  0.052355  0.647571  1
  Er  Er6  1  0.188211  0.812277  0.812948  1
  Er  Er7  1  0.058239  0.060458  0.440268  1
  Er  Er8  1  0.808903  0.192019  0.189934  1
  Er  Er9  1  0.815140  0.812629  0.187539  1
  Er  Er10  1  0.653079  0.647094  0.046602  1
  Er  Er11  1  0.654287  0.654127  0.652196  1
  Er  Er12  1  0.063625  0.435554  0.436713  1
  Er  Er13  1  0.045587  0.648224  0.652131  1
  Er  Er14  1  0.808813  0.191430  0.809238  1
  Er  Er15  1  0.438187  0.436660  0.062226  1
  Er  Er16  1  0.187081  0.812817  0.187647  1
  In  In17  1  0.416898  0.422425  0.745381  1
  In  In18  1  0.745265  0.423062  0.416616  1
  In  In19  1  0.416159  0.420918  0.414999  1
  Rh  Rh20  1  0.854714  0.427859  0.856677  1
  Rh  Rh21  1  0.860771  0.861344  0.426334  1
  Rh  Rh22  1  0.426633  0.858409  0.860139  1
  Rh  Rh23  1  0.856146  0.862451  0.854581  1
