# generated using pymatgen
data_YHf2Nb3(B2Ru5)2
_symmetry_space_group_name_H-M   'P 1'
_cell_length_a   9.52000373
_cell_length_b   9.52012553
_cell_length_c   3.10361100
_cell_angle_alpha   90.00000000
_cell_angle_beta   90.00000000
_cell_angle_gamma   90.37219222
_symmetry_Int_Tables_number   1
_chemical_formula_structural   YHf2Nb3(B2Ru5)2
_chemical_formula_sum   'Y1 Hf2 Nb3 B4 Ru10'
_cell_volume   281.27939064
_cell_formula_units_Z   1
loop_
 _symmetry_equiv_pos_site_id
 _symmetry_equiv_pos_as_xyz
  1  'x, y, z'
loop_
 _atom_site_type_symbol
 _atom_site_label
 _atom_site_symmetry_multiplicity
 _atom_site_fract_x
 _atom_site_fract_y
 _atom_site_fract_z
 _atom_site_occupancy
  Y  Y0  1  0.824631  0.675383  0.000000  1
  Hf  Hf1  1  0.177274  0.323894  0.000000  1
  Hf  Hf2  1  0.324313  0.824262  0.000000  1
  Nb  Nb3  1  0.676123  0.175485  0.000000  1
  Nb  Nb4  1  0.500310  0.501643  0.000000  1
  Nb  Nb5  1  0.001116  0.998422  0.000000  1
  B  B6  1  0.619397  0.881428  0.000000  1
  B  B7  1  0.377147  0.123721  0.000000  1
  B  B8  1  0.122972  0.618730  0.000000  1
  B  B9  1  0.880498  0.375629  0.000000  1
  Ru  Ru10  1  0.560975  0.724116  0.500000  1
  Ru  Ru11  1  0.431461  0.282487  0.500000  1
  Ru  Ru12  1  0.078687  0.781656  0.500000  1
  Ru  Ru13  1  0.925929  0.214475  0.500000  1
  Ru  Ru14  1  0.283396  0.569042  0.500000  1
  Ru  Ru15  1  0.716454  0.416277  0.500000  1
  Ru  Ru16  1  0.217881  0.072384  0.500000  1
  Ru  Ru17  1  0.776227  0.942456  0.500000  1
  Ru  Ru18  1  0.499786  0.006357  0.500000  1
  Ru  Ru19  1  0.005422  0.492151  0.500000  1
