# generated using pymatgen
data_Dy10Tl3In3Br2
_symmetry_space_group_name_H-M   'P 1'
_cell_length_a   9.23424100
_cell_length_b   9.23054409
_cell_length_c   6.74892700
_cell_angle_alpha   90.00000000
_cell_angle_beta   90.00000000
_cell_angle_gamma   120.09299797
_symmetry_Int_Tables_number   1
_chemical_formula_structural   Dy10Tl3In3Br2
_chemical_formula_sum   'Dy10 Tl3 In3 Br2'
_cell_volume   497.72118157
_cell_formula_units_Z   1
loop_
 _symmetry_equiv_pos_site_id
 _symmetry_equiv_pos_as_xyz
  1  'x, y, z'
loop_
 _atom_site_type_symbol
 _atom_site_label
 _atom_site_symmetry_multiplicity
 _atom_site_fract_x
 _atom_site_fract_y
 _atom_site_fract_z
 _atom_site_occupancy
  Dy  Dy0  1  0.265601  0.997615  0.250000  1
  Dy  Dy1  1  0.732956  0.999937  0.750000  1
  Dy  Dy2  1  0.997953  0.265482  0.250000  1
  Dy  Dy3  1  0.002115  0.734983  0.750000  1
  Dy  Dy4  1  0.734432  0.734060  0.250000  1
  Dy  Dy5  1  0.266762  0.264645  0.750000  1
  Dy  Dy6  1  0.332909  0.669872  0.000526  1
  Dy  Dy7  1  0.667206  0.331942  0.000458  1
  Dy  Dy8  1  0.667206  0.331942  0.499542  1
  Dy  Dy9  1  0.332909  0.669872  0.499474  1
  Tl  Tl10  1  0.000634  0.392185  0.750000  1
  Tl  Tl11  1  0.391791  0.391895  0.250000  1
  Tl  Tl12  1  0.607440  0.607020  0.750000  1
  In  In13  1  0.607651  0.999694  0.250000  1
  In  In14  1  0.393217  0.000418  0.750000  1
  In  In15  1  0.999389  0.607387  0.250000  1
  Br  Br16  1  0.999916  0.000526  0.999912  1
  Br  Br17  1  0.999916  0.000526  0.500088  1
