# generated using pymatgen
data_LaHo(MoO4)3
_symmetry_space_group_name_H-M   'P 1'
_cell_length_a   7.59183790
_cell_length_b   7.59183780
_cell_length_c   10.89179200
_cell_angle_alpha   90.00000000
_cell_angle_beta   90.00000000
_cell_angle_gamma   89.42936578
_symmetry_Int_Tables_number   1
_chemical_formula_structural   LaHo(MoO4)3
_chemical_formula_sum   'La2 Ho2 Mo6 O24'
_cell_volume   627.72821068
_cell_formula_units_Z   2
loop_
 _symmetry_equiv_pos_site_id
 _symmetry_equiv_pos_as_xyz
  1  'x, y, z'
loop_
 _atom_site_type_symbol
 _atom_site_label
 _atom_site_symmetry_multiplicity
 _atom_site_fract_x
 _atom_site_fract_y
 _atom_site_fract_z
 _atom_site_occupancy
  La  La0  1  0.190005  0.690005  0.260485  1
  La  La1  1  0.809995  0.309995  0.260485  1
  Ho  Ho2  1  0.687990  0.812010  0.737041  1
  Ho  Ho3  1  0.312010  0.187990  0.737041  1
  Mo  Mo4  1  0.207788  0.707788  0.650398  1
  Mo  Mo5  1  0.792212  0.292212  0.650398  1
  Mo  Mo6  1  0.708492  0.791508  0.363188  1
  Mo  Mo7  1  0.291508  0.208492  0.363188  1
  Mo  Mo8  1  0.000000  0.000000  0.988923  1
  Mo  Mo9  1  0.500000  0.500000  0.988923  1
  O  O10  1  0.198096  0.698096  0.487189  1
  O  O11  1  0.801904  0.301904  0.487189  1
  O  O12  1  0.694681  0.805319  0.526706  1
  O  O13  1  0.305319  0.194681  0.526706  1
  O  O14  1  0.627075  0.127075  0.694939  1
  O  O15  1  0.372925  0.872925  0.694939  1
  O  O16  1  0.127927  0.372073  0.315232  1
  O  O17  1  0.872073  0.627927  0.315232  1
  O  O18  1  0.774949  0.997084  0.300951  1
  O  O19  1  0.225051  0.002916  0.300951  1
  O  O20  1  0.497084  0.274949  0.300951  1
  O  O21  1  0.502916  0.725051  0.300951  1
  O  O22  1  0.005297  0.227513  0.705523  1
  O  O23  1  0.994703  0.772487  0.705523  1
  O  O24  1  0.727513  0.505297  0.705523  1
  O  O25  1  0.272487  0.494703  0.705523  1
  O  O26  1  0.811511  0.953491  0.895244  1
  O  O27  1  0.188489  0.046509  0.895244  1
  O  O28  1  0.453491  0.311511  0.895244  1
  O  O29  1  0.546509  0.688489  0.895244  1
  O  O30  1  0.955386  0.185186  0.086232  1
  O  O31  1  0.044614  0.814814  0.086232  1
  O  O32  1  0.685186  0.455386  0.086232  1
  O  O33  1  0.314814  0.544614  0.086232  1
