# generated using pymatgen
data_Na2AgF6
_symmetry_space_group_name_H-M   'P 1'
_cell_length_a   9.50828100
_cell_length_b   9.50828171
_cell_length_c   5.32537400
_cell_angle_alpha   90.00000000
_cell_angle_beta   90.00000000
_cell_angle_gamma   119.99999405
_symmetry_Int_Tables_number   1
_chemical_formula_structural   Na2AgF6
_chemical_formula_sum   'Na6 Ag3 F18'
_cell_volume   416.95080800
_cell_formula_units_Z   3
loop_
 _symmetry_equiv_pos_site_id
 _symmetry_equiv_pos_as_xyz
  1  'x, y, z'
loop_
 _atom_site_type_symbol
 _atom_site_label
 _atom_site_symmetry_multiplicity
 _atom_site_fract_x
 _atom_site_fract_y
 _atom_site_fract_z
 _atom_site_occupancy
  Na  Na0  1  0.629719  0.629719  0.000000  1
  Na  Na1  1  0.000000  0.370281  0.000000  1
  Na  Na2  1  0.370281  0.000000  0.000000  1
  Na  Na3  1  0.292537  0.292537  0.500000  1
  Na  Na4  1  0.000000  0.707463  0.500000  1
  Na  Na5  1  0.707463  0.000000  0.500000  1
  Ag  Ag6  1  0.666667  0.333333  0.505862  1
  Ag  Ag7  1  0.333333  0.666667  0.494138  1
  Ag  Ag8  1  0.000000  0.000000  0.000000  1
  F  F9  1  0.091967  0.205082  0.210211  1
  F  F10  1  0.794918  0.886885  0.210211  1
  F  F11  1  0.113115  0.908033  0.210211  1
  F  F12  1  0.886885  0.794918  0.789789  1
  F  F13  1  0.908033  0.113115  0.789789  1
  F  F14  1  0.205082  0.091967  0.789789  1
  F  F15  1  0.542786  0.410483  0.720362  1
  F  F16  1  0.589517  0.132303  0.720362  1
  F  F17  1  0.867697  0.457214  0.720362  1
  F  F18  1  0.463945  0.218140  0.292543  1
  F  F19  1  0.781860  0.245805  0.292543  1
  F  F20  1  0.754195  0.536055  0.292543  1
  F  F21  1  0.245805  0.781860  0.707457  1
  F  F22  1  0.536055  0.754195  0.707457  1
  F  F23  1  0.218140  0.463945  0.707457  1
  F  F24  1  0.410483  0.542786  0.279638  1
  F  F25  1  0.457214  0.867697  0.279638  1
  F  F26  1  0.132303  0.589517  0.279638  1
