# generated using pymatgen
data_Ce6VCo17P12
_symmetry_space_group_name_H-M   'P 1'
_cell_length_a   3.75750600
_cell_length_b   10.53824200
_cell_length_c   12.33709600
_cell_angle_alpha   90.00000000
_cell_angle_beta   90.00000000
_cell_angle_gamma   90.00000000
_symmetry_Int_Tables_number   1
_chemical_formula_structural   Ce6VCo17P12
_chemical_formula_sum   'Ce6 V1 Co17 P12'
_cell_volume   488.51825194
_cell_formula_units_Z   1
loop_
 _symmetry_equiv_pos_site_id
 _symmetry_equiv_pos_as_xyz
  1  'x, y, z'
loop_
 _atom_site_type_symbol
 _atom_site_label
 _atom_site_symmetry_multiplicity
 _atom_site_fract_x
 _atom_site_fract_y
 _atom_site_fract_z
 _atom_site_occupancy
  Ce  Ce0  1  0.000000  0.500000  0.523503  1
  Ce  Ce1  1  0.500000  0.000000  0.477354  1
  Ce  Ce2  1  0.500000  0.818664  0.208220  1
  Ce  Ce3  1  0.500000  0.181336  0.208220  1
  Ce  Ce4  1  0.000000  0.682102  0.794175  1
  Ce  Ce5  1  0.000000  0.317898  0.794175  1
  V  V6  1  0.500000  0.500000  0.153113  1
  Co  Co7  1  0.000000  0.000000  0.840943  1
  Co  Co8  1  0.500000  0.500000  0.703245  1
  Co  Co9  1  0.000000  0.000000  0.296498  1
  Co  Co10  1  0.000000  0.500000  0.986661  1
  Co  Co11  1  0.500000  0.000000  0.015006  1
  Co  Co12  1  0.500000  0.332202  0.993401  1
  Co  Co13  1  0.500000  0.667798  0.993401  1
  Co  Co14  1  0.000000  0.166319  0.004687  1
  Co  Co15  1  0.000000  0.833681  0.004687  1
  Co  Co16  1  0.500000  0.298984  0.430142  1
  Co  Co17  1  0.500000  0.701016  0.430142  1
  Co  Co18  1  0.000000  0.200112  0.570740  1
  Co  Co19  1  0.000000  0.799888  0.570740  1
  Co  Co20  1  0.500000  0.880051  0.712013  1
  Co  Co21  1  0.500000  0.119949  0.712013  1
  Co  Co22  1  0.000000  0.621004  0.288147  1
  Co  Co23  1  0.000000  0.378996  0.288147  1
  P  P24  1  0.500000  0.500000  0.885459  1
  P  P25  1  0.000000  0.000000  0.113981  1
  P  P26  1  0.500000  0.500000  0.342140  1
  P  P27  1  0.000000  0.000000  0.658819  1
  P  P28  1  0.500000  0.306868  0.613931  1
  P  P29  1  0.500000  0.693132  0.613931  1
  P  P30  1  0.000000  0.193028  0.387313  1
  P  P31  1  0.000000  0.806972  0.387313  1
  P  P32  1  0.500000  0.849703  0.894185  1
  P  P33  1  0.500000  0.150297  0.894185  1
  P  P34  1  0.000000  0.654007  0.104686  1
  P  P35  1  0.000000  0.345993  0.104686  1
