# generated using pymatgen
data_Hf3Be2Co5
_symmetry_space_group_name_H-M   'P 1'
_cell_length_a   8.89454500
_cell_length_b   8.89454500
_cell_length_c   3.21821600
_cell_angle_alpha   90.00000000
_cell_angle_beta   90.00000000
_cell_angle_gamma   90.00000000
_symmetry_Int_Tables_number   1
_chemical_formula_structural   Hf3Be2Co5
_chemical_formula_sum   'Hf6 Be4 Co10'
_cell_volume   254.60249957
_cell_formula_units_Z   2
loop_
 _symmetry_equiv_pos_site_id
 _symmetry_equiv_pos_as_xyz
  1  'x, y, z'
loop_
 _atom_site_type_symbol
 _atom_site_label
 _atom_site_symmetry_multiplicity
 _atom_site_fract_x
 _atom_site_fract_y
 _atom_site_fract_z
 _atom_site_occupancy
  Hf  Hf0  1  0.825810  0.325810  0.000000  1
  Hf  Hf1  1  0.325810  0.174190  0.000000  1
  Hf  Hf2  1  0.674190  0.825810  0.000000  1
  Hf  Hf3  1  0.174190  0.674190  0.000000  1
  Hf  Hf4  1  0.000000  0.000000  0.000000  1
  Hf  Hf5  1  0.500000  0.500000  0.000000  1
  Be  Be6  1  0.618711  0.118711  0.000000  1
  Be  Be7  1  0.118711  0.381289  0.000000  1
  Be  Be8  1  0.881289  0.618711  0.000000  1
  Be  Be9  1  0.381289  0.881289  0.000000  1
  Co  Co10  1  0.071303  0.220587  0.500000  1
  Co  Co11  1  0.220587  0.928697  0.500000  1
  Co  Co12  1  0.779413  0.071303  0.500000  1
  Co  Co13  1  0.928697  0.779413  0.500000  1
  Co  Co14  1  0.428697  0.720587  0.500000  1
  Co  Co15  1  0.571303  0.279413  0.500000  1
  Co  Co16  1  0.720587  0.571303  0.500000  1
  Co  Co17  1  0.279413  0.428697  0.500000  1
  Co  Co18  1  0.500000  0.000000  0.500000  1
  Co  Co19  1  0.000000  0.500000  0.500000  1
