# generated using pymatgen
data_Rb2Li14Ce3O14
_symmetry_space_group_name_H-M   'P 1'
_cell_length_a   8.64676230
_cell_length_b   8.64676192
_cell_length_c   8.64676184
_cell_angle_alpha   128.81362045
_cell_angle_beta   123.81235367
_cell_angle_gamma   79.44007770
_symmetry_Int_Tables_number   1
_chemical_formula_structural   Rb2Li14Ce3O14
_chemical_formula_sum   'Rb2 Li14 Ce3 O14'
_cell_volume   404.62493599
_cell_formula_units_Z   1
loop_
 _symmetry_equiv_pos_site_id
 _symmetry_equiv_pos_as_xyz
  1  'x, y, z'
loop_
 _atom_site_type_symbol
 _atom_site_label
 _atom_site_symmetry_multiplicity
 _atom_site_fract_x
 _atom_site_fract_y
 _atom_site_fract_z
 _atom_site_occupancy
  Rb  Rb0  1  0.500000  0.234460  0.734460  1
  Rb  Rb1  1  0.500000  0.765540  0.265540  1
  Li  Li2  1  0.847174  0.500000  0.347174  1
  Li  Li3  1  0.152826  0.500000  0.652826  1
  Li  Li4  1  0.410356  0.768388  0.641970  1
  Li  Li5  1  0.589644  0.231612  0.358030  1
  Li  Li6  1  0.873582  0.231612  0.641970  1
  Li  Li7  1  0.126418  0.768388  0.358030  1
  Li  Li8  1  0.709402  0.587663  0.568198  1
  Li  Li9  1  0.290598  0.858795  0.878261  1
  Li  Li10  1  0.980535  0.412337  0.121739  1
  Li  Li11  1  0.019465  0.141205  0.431802  1
  Li  Li12  1  0.290598  0.412337  0.431802  1
  Li  Li13  1  0.709402  0.141205  0.121739  1
  Li  Li14  1  0.019465  0.587663  0.878261  1
  Li  Li15  1  0.980535  0.858795  0.568198  1
  Ce  Ce16  1  0.726687  0.726687  0.000000  1
  Ce  Ce17  1  0.273313  0.273313  0.000000  1
  Ce  Ce18  1  0.000000  0.000000  0.000000  1
  O  O19  1  0.751060  0.044095  0.293034  1
  O  O20  1  0.248940  0.541974  0.293034  1
  O  O21  1  0.248940  0.955905  0.706966  1
  O  O22  1  0.751060  0.458026  0.706966  1
  O  O23  1  0.000000  0.706527  0.706527  1
  O  O24  1  0.000000  0.293473  0.293473  1
  O  O25  1  0.684557  0.868379  0.816177  1
  O  O26  1  0.315443  0.131621  0.183823  1
  O  O27  1  0.947798  0.131621  0.816177  1
  O  O28  1  0.052202  0.868379  0.183823  1
  O  O29  1  0.406469  0.626658  0.779812  1
  O  O30  1  0.593531  0.373342  0.220188  1
  O  O31  1  0.153154  0.373342  0.779812  1
  O  O32  1  0.846846  0.626658  0.220188  1
