# generated using pymatgen
data_Li4Sn3Pd8Pb
_symmetry_space_group_name_H-M   'P 1'
_cell_length_a   4.49960187
_cell_length_b   6.32100800
_cell_length_c   9.15234377
_cell_angle_alpha   90.00000000
_cell_angle_beta   90.16800799
_cell_angle_gamma   90.00000000
_symmetry_Int_Tables_number   1
_chemical_formula_structural   Li4Sn3Pd8Pb
_chemical_formula_sum   'Li4 Sn3 Pd8 Pb1'
_cell_volume   260.31002005
_cell_formula_units_Z   1
loop_
 _symmetry_equiv_pos_site_id
 _symmetry_equiv_pos_as_xyz
  1  'x, y, z'
loop_
 _atom_site_type_symbol
 _atom_site_label
 _atom_site_symmetry_multiplicity
 _atom_site_fract_x
 _atom_site_fract_y
 _atom_site_fract_z
 _atom_site_occupancy
  Li  Li0  1  0.237718  0.749999  0.124175  1
  Li  Li1  1  0.738099  0.249999  0.377034  1
  Li  Li2  1  0.262002  0.749999  0.624136  1
  Li  Li3  1  0.761671  0.249999  0.874478  1
  Sn  Sn4  1  0.736098  0.749999  0.377736  1
  Sn  Sn5  1  0.263818  0.249999  0.623423  1
  Sn  Sn6  1  0.764714  0.749999  0.875434  1
  Pd  Pd7  1  0.734090  0.513566  0.126615  1
  Pd  Pd8  1  0.734090  0.986434  0.126615  1
  Pd  Pd9  1  0.235633  0.997305  0.379970  1
  Pd  Pd10  1  0.235633  0.502695  0.379970  1
  Pd  Pd11  1  0.764569  0.501641  0.626350  1
  Pd  Pd12  1  0.764569  0.998359  0.626350  1
  Pd  Pd13  1  0.265916  0.997116  0.867121  1
  Pd  Pd14  1  0.265916  0.502884  0.867121  1
  Pb  Pb15  1  0.235464  0.249999  0.123470  1
