# generated using pymatgen
data_Zr4IrPdO
_symmetry_space_group_name_H-M   'P 1'
_cell_length_a   8.92385154
_cell_length_b   8.85259766
_cell_length_c   8.92385100
_cell_angle_alpha   59.73338291
_cell_angle_beta   59.99999829
_cell_angle_gamma   59.73338349
_symmetry_Int_Tables_number   1
_chemical_formula_structural   Zr4IrPdO
_chemical_formula_sum   'Zr16 Ir4 Pd4 O4'
_cell_volume   496.47615585
_cell_formula_units_Z   4
loop_
 _symmetry_equiv_pos_site_id
 _symmetry_equiv_pos_as_xyz
  1  'x, y, z'
loop_
 _atom_site_type_symbol
 _atom_site_label
 _atom_site_symmetry_multiplicity
 _atom_site_fract_x
 _atom_site_fract_y
 _atom_site_fract_z
 _atom_site_occupancy
  Zr  Zr0  1  0.316518  0.684828  0.316518  1
  Zr  Zr1  1  0.932492  0.569484  0.932492  1
  Zr  Zr2  1  0.683462  0.315408  0.683462  1
  Zr  Zr3  1  0.683462  0.315408  0.317667  1
  Zr  Zr4  1  0.316518  0.684828  0.682137  1
  Zr  Zr5  1  0.628971  0.119237  0.125896  1
  Zr  Zr6  1  0.934952  0.932597  0.566226  1
  Zr  Zr7  1  0.682137  0.684828  0.316518  1
  Zr  Zr8  1  0.115121  0.654637  0.115121  1
  Zr  Zr9  1  0.125896  0.119237  0.628971  1
  Zr  Zr10  1  0.317667  0.315408  0.683462  1
  Zr  Zr11  1  0.125896  0.119237  0.125896  1
  Zr  Zr12  1  0.565532  0.569484  0.932492  1
  Zr  Zr13  1  0.566226  0.932597  0.934952  1
  Zr  Zr14  1  0.932492  0.569484  0.565532  1
  Zr  Zr15  1  0.566226  0.932597  0.566226  1
  Ir  Ir16  1  0.296063  0.909563  0.897187  1
  Ir  Ir17  1  0.897187  0.909563  0.897187  1
  Ir  Ir18  1  0.897187  0.909563  0.296063  1
  Ir  Ir19  1  0.347094  0.958717  0.347094  1
  Pd  Pd20  1  0.335993  0.344529  0.335993  1
  Pd  Pd21  1  0.983485  0.344529  0.335993  1
  Pd  Pd22  1  0.335993  0.344529  0.983485  1
  Pd  Pd23  1  0.909614  0.271159  0.909614  1
  O  O24  1  0.626156  0.621860  0.626156  1
  O  O25  1  0.125828  0.621860  0.626156  1
  O  O26  1  0.626156  0.621860  0.125828  1
  O  O27  1  0.625675  0.122974  0.625675  1
