# generated using pymatgen
data_La3Sn3RuPt2
_symmetry_space_group_name_H-M   'P 1'
_cell_length_a   7.67887000
_cell_length_b   7.67887094
_cell_length_c   4.21964200
_cell_angle_alpha   90.00000000
_cell_angle_beta   90.00000000
_cell_angle_gamma   120.00000457
_symmetry_Int_Tables_number   1
_chemical_formula_structural   La3Sn3RuPt2
_chemical_formula_sum   'La3 Sn3 Ru1 Pt2'
_cell_volume   215.47699073
_cell_formula_units_Z   1
loop_
 _symmetry_equiv_pos_site_id
 _symmetry_equiv_pos_as_xyz
  1  'x, y, z'
loop_
 _atom_site_type_symbol
 _atom_site_label
 _atom_site_symmetry_multiplicity
 _atom_site_fract_x
 _atom_site_fract_y
 _atom_site_fract_z
 _atom_site_occupancy
  La  La0  1  0.411263  0.411263  0.000000  1
  La  La1  1  0.588737  0.000000  0.000000  1
  La  La2  1  0.000000  0.588737  0.000000  1
  Sn  Sn3  1  0.000000  0.244518  0.500000  1
  Sn  Sn4  1  0.755482  0.755482  0.500000  1
  Sn  Sn5  1  0.244518  0.000000  0.500000  1
  Ru  Ru6  1  0.000000  0.000000  0.000000  1
  Pt  Pt7  1  0.333333  0.666667  0.500000  1
  Pt  Pt8  1  0.666667  0.333333  0.500000  1
