# generated using pymatgen
data_Dy4Mg4Ir3Au
_symmetry_space_group_name_H-M   'P 1'
_cell_length_a   4.12669200
_cell_length_b   7.14921768
_cell_length_c   8.65308832
_cell_angle_alpha   91.03707483
_cell_angle_beta   90.00000000
_cell_angle_gamma   90.00000000
_symmetry_Int_Tables_number   1
_chemical_formula_structural   Dy4Mg4Ir3Au
_chemical_formula_sum   'Dy4 Mg4 Ir3 Au1'
_cell_volume   255.24695326
_cell_formula_units_Z   1
loop_
 _symmetry_equiv_pos_site_id
 _symmetry_equiv_pos_as_xyz
  1  'x, y, z'
loop_
 _atom_site_type_symbol
 _atom_site_label
 _atom_site_symmetry_multiplicity
 _atom_site_fract_x
 _atom_site_fract_y
 _atom_site_fract_z
 _atom_site_occupancy
  Dy  Dy0  1  0.250000  0.027718  0.337830  1
  Dy  Dy1  1  0.250000  0.559700  0.177700  1
  Dy  Dy2  1  0.750000  0.960053  0.676289  1
  Dy  Dy3  1  0.750000  0.468525  0.814115  1
  Mg  Mg4  1  0.250000  0.133122  0.932120  1
  Mg  Mg5  1  0.250000  0.634789  0.560324  1
  Mg  Mg6  1  0.750000  0.860753  0.059340  1
  Mg  Mg7  1  0.750000  0.364819  0.442895  1
  Ir  Ir8  1  0.250000  0.247232  0.627568  1
  Ir  Ir9  1  0.250000  0.747737  0.875075  1
  Ir  Ir10  1  0.750000  0.747628  0.370277  1
  Au  Au11  1  0.750000  0.247925  0.126469  1
