# generated using pymatgen
data_CaEu2YAl6O14
_symmetry_space_group_name_H-M   'P 1'
_cell_length_a   7.82852441
_cell_length_b   7.82852492
_cell_length_c   5.16108435
_cell_angle_alpha   89.88370317
_cell_angle_beta   90.11629566
_cell_angle_gamma   89.18220849
_symmetry_Int_Tables_number   1
_chemical_formula_structural   CaEu2YAl6O14
_chemical_formula_sum   'Ca1 Eu2 Y1 Al6 O14'
_cell_volume   316.26763533
_cell_formula_units_Z   1
loop_
 _symmetry_equiv_pos_site_id
 _symmetry_equiv_pos_as_xyz
  1  'x, y, z'
loop_
 _atom_site_type_symbol
 _atom_site_label
 _atom_site_symmetry_multiplicity
 _atom_site_fract_x
 _atom_site_fract_y
 _atom_site_fract_z
 _atom_site_occupancy
  Ca  Ca0  1  0.664421  0.335579  0.517519  1
  Eu  Eu1  1  0.159451  0.164723  0.488183  1
  Eu  Eu2  1  0.835277  0.840549  0.488183  1
  Y  Y3  1  0.343247  0.656753  0.521559  1
  Al  Al4  1  0.499111  0.998977  0.994650  1
  Al  Al5  1  0.001023  0.500889  0.994650  1
  Al  Al6  1  0.149079  0.850921  0.961640  1
  Al  Al7  1  0.355880  0.361963  0.041434  1
  Al  Al8  1  0.856205  0.143795  0.960358  1
  Al  Al9  1  0.638037  0.644120  0.041434  1
  O  O10  1  0.342242  0.900770  0.796677  1
  O  O11  1  0.161354  0.416065  0.201695  1
  O  O12  1  0.662064  0.088605  0.803385  1
  O  O13  1  0.839961  0.599836  0.181275  1
  O  O14  1  0.583935  0.838646  0.201695  1
  O  O15  1  0.911395  0.337936  0.803385  1
  O  O16  1  0.400164  0.160039  0.181275  1
  O  O17  1  0.099230  0.657758  0.796677  1
  O  O18  1  0.155075  0.844925  0.299638  1
  O  O19  1  0.355454  0.375447  0.702624  1
  O  O20  1  0.862166  0.137834  0.299206  1
  O  O21  1  0.624553  0.644546  0.702624  1
  O  O22  1  0.497662  0.502338  0.197609  1
  O  O23  1  0.003011  0.996989  0.822648  1
