# generated using pymatgen
data_HoMnCdPt3
_symmetry_space_group_name_H-M   'P 1'
_cell_length_a   5.22286367
_cell_length_b   5.48911103
_cell_length_c   5.48911200
_cell_angle_alpha   59.99999418
_cell_angle_beta   58.29884979
_cell_angle_gamma   58.29885798
_symmetry_Int_Tables_number   1
_chemical_formula_structural   HoMnCdPt3
_chemical_formula_sum   'Ho1 Mn1 Cd1 Pt3'
_cell_volume   108.32746101
_cell_formula_units_Z   1
loop_
 _symmetry_equiv_pos_site_id
 _symmetry_equiv_pos_as_xyz
  1  'x, y, z'
loop_
 _atom_site_type_symbol
 _atom_site_label
 _atom_site_symmetry_multiplicity
 _atom_site_fract_x
 _atom_site_fract_y
 _atom_site_fract_z
 _atom_site_occupancy
  Ho  Ho0  1  0.745547  0.751484  0.751484  1
  Mn  Mn1  1  0.878003  0.373999  0.373999  1
  Cd  Cd2  1  0.993898  0.002034  0.002034  1
  Pt  Pt3  1  0.377517  0.373458  0.875566  1
  Pt  Pt4  1  0.377517  0.875566  0.373458  1
  Pt  Pt5  1  0.377517  0.373458  0.373458  1
