# generated using pymatgen
data_Tb5Y11Cd4Co3Ni
_symmetry_space_group_name_H-M   'P 1'
_cell_length_a   9.52938942
_cell_length_b   9.54573943
_cell_length_c   9.54573899
_cell_angle_alpha   60.02853396
_cell_angle_beta   60.03422748
_cell_angle_gamma   60.03422749
_symmetry_Int_Tables_number   1
_chemical_formula_structural   Tb5Y11Cd4Co3Ni
_chemical_formula_sum   'Tb5 Y11 Cd4 Co3 Ni1'
_cell_volume   614.45114590
_cell_formula_units_Z   1
loop_
 _symmetry_equiv_pos_site_id
 _symmetry_equiv_pos_as_xyz
  1  'x, y, z'
loop_
 _atom_site_type_symbol
 _atom_site_label
 _atom_site_symmetry_multiplicity
 _atom_site_fract_x
 _atom_site_fract_y
 _atom_site_fract_z
 _atom_site_occupancy
  Tb  Tb0  1  0.593946  0.598053  0.598053  1
  Tb  Tb1  1  0.595092  0.599428  0.207787  1
  Tb  Tb2  1  0.595092  0.207787  0.599428  1
  Tb  Tb3  1  0.210958  0.596692  0.596692  1
  Tb  Tb4  1  0.064828  0.438399  0.438399  1
  Y  Y5  1  0.436774  0.061773  0.061773  1
  Y  Y6  1  0.438613  0.060219  0.438799  1
  Y  Y7  1  0.065292  0.437438  0.057525  1
  Y  Y8  1  0.438613  0.438799  0.060219  1
  Y  Y9  1  0.065292  0.057525  0.437438  1
  Y  Y10  1  0.187524  0.812760  0.812760  1
  Y  Y11  1  0.810610  0.187917  0.187917  1
  Y  Y12  1  0.810886  0.188976  0.813247  1
  Y  Y13  1  0.187036  0.812010  0.188352  1
  Y  Y14  1  0.810886  0.813247  0.188976  1
  Y  Y15  1  0.187036  0.188352  0.812010  1
  Cd  Cd16  1  0.830085  0.830015  0.830015  1
  Cd  Cd17  1  0.830579  0.830777  0.508138  1
  Cd  Cd18  1  0.830579  0.508138  0.830777  1
  Cd  Cd19  1  0.506925  0.830920  0.830920  1
  Co  Co20  1  0.391210  0.392459  0.392459  1
  Co  Co21  1  0.393510  0.392237  0.823582  1
  Co  Co22  1  0.393510  0.823582  0.392237  1
  Ni  Ni23  1  0.825122  0.392492  0.392492  1
