# generated using pymatgen
data_Pr3C2Br3
_symmetry_space_group_name_H-M   'P 1'
_cell_length_a   10.41959900
_cell_length_b   10.41959887
_cell_length_c   17.25850500
_cell_angle_alpha   90.00000000
_cell_angle_beta   90.00000000
_cell_angle_gamma   112.11156813
_symmetry_Int_Tables_number   1
_chemical_formula_structural   Pr3C2Br3
_chemical_formula_sum   'Pr24 C16 Br24'
_cell_volume   1735.91480307
_cell_formula_units_Z   8
loop_
 _symmetry_equiv_pos_site_id
 _symmetry_equiv_pos_as_xyz
  1  'x, y, z'
loop_
 _atom_site_type_symbol
 _atom_site_label
 _atom_site_symmetry_multiplicity
 _atom_site_fract_x
 _atom_site_fract_y
 _atom_site_fract_z
 _atom_site_occupancy
  Pr  Pr0  1  0.856778  0.115312  0.003336  1
  Pr  Pr1  1  0.389614  0.678528  0.019156  1
  Pr  Pr2  1  0.014309  0.551948  0.102444  1
  Pr  Pr3  1  0.747754  0.776201  0.103345  1
  Pr  Pr4  1  0.477202  0.985897  0.123498  1
  Pr  Pr5  1  0.374378  0.625621  0.250000  1
  Pr  Pr6  1  0.168027  0.831972  0.250000  1
  Pr  Pr7  1  0.014102  0.522797  0.376502  1
  Pr  Pr8  1  0.223800  0.252246  0.396656  1
  Pr  Pr9  1  0.448052  0.985690  0.397556  1
  Pr  Pr10  1  0.321472  0.610385  0.480845  1
  Pr  Pr11  1  0.884687  0.143221  0.496664  1
  Pr  Pr12  1  0.143221  0.884687  0.503336  1
  Pr  Pr13  1  0.610385  0.321472  0.519156  1
  Pr  Pr14  1  0.985690  0.448052  0.602444  1
  Pr  Pr15  1  0.252246  0.223800  0.603344  1
  Pr  Pr16  1  0.522797  0.014102  0.623498  1
  Pr  Pr17  1  0.831972  0.168027  0.750000  1
  Pr  Pr18  1  0.625621  0.374378  0.750000  1
  Pr  Pr19  1  0.985897  0.477202  0.876502  1
  Pr  Pr20  1  0.776201  0.747754  0.896656  1
  Pr  Pr21  1  0.551948  0.014309  0.897556  1
  Pr  Pr22  1  0.678528  0.389614  0.980845  1
  Pr  Pr23  1  0.115312  0.856778  0.996664  1
  C  C24  1  0.860740  0.663972  0.023567  1
  C  C25  1  0.600437  0.912443  0.032380  1
  C  C26  1  0.226305  0.783077  0.094734  1
  C  C27  1  0.286399  0.726676  0.150208  1
  C  C28  1  0.273324  0.713600  0.349792  1
  C  C29  1  0.216923  0.773696  0.405266  1
  C  C30  1  0.087557  0.399562  0.467620  1
  C  C31  1  0.336028  0.139260  0.476433  1
  C  C32  1  0.139260  0.336028  0.523566  1
  C  C33  1  0.399562  0.087557  0.532379  1
  C  C34  1  0.773696  0.216923  0.594734  1
  C  C35  1  0.713600  0.273324  0.650208  1
  C  C36  1  0.726676  0.286399  0.849792  1
  C  C37  1  0.783077  0.226305  0.905266  1
  C  C38  1  0.912443  0.600437  0.967621  1
  C  C39  1  0.663972  0.860740  0.976433  1
  Br  Br40  1  0.141217  0.385707  0.003366  1
  Br  Br41  1  0.507056  0.500008  0.115489  1
  Br  Br42  1  0.755683  0.269973  0.127086  1
  Br  Br43  1  0.019687  0.012662  0.128042  1
  Br  Br44  1  0.872790  0.631805  0.240696  1
  Br  Br45  1  0.103286  0.370417  0.243193  1
  Br  Br46  1  0.629584  0.896714  0.256807  1
  Br  Br47  1  0.368195  0.127209  0.259304  1
  Br  Br48  1  0.987338  0.980314  0.371958  1
  Br  Br49  1  0.730027  0.244317  0.372914  1
  Br  Br50  1  0.499993  0.492945  0.384511  1
  Br  Br51  1  0.614294  0.858784  0.496634  1
  Br  Br52  1  0.858784  0.614294  0.503366  1
  Br  Br53  1  0.492945  0.499993  0.615489  1
  Br  Br54  1  0.244317  0.730027  0.627086  1
  Br  Br55  1  0.980314  0.987338  0.628042  1
  Br  Br56  1  0.127209  0.368195  0.740696  1
  Br  Br57  1  0.896714  0.629584  0.743193  1
  Br  Br58  1  0.370417  0.103286  0.756807  1
  Br  Br59  1  0.631805  0.872790  0.759304  1
  Br  Br60  1  0.012662  0.019687  0.871958  1
  Br  Br61  1  0.269973  0.755683  0.872914  1
  Br  Br62  1  0.500008  0.507056  0.884511  1
  Br  Br63  1  0.385707  0.141217  0.996634  1
