# generated using pymatgen
data_Dy5Y3Cd2RuPt
_symmetry_space_group_name_H-M   'P 1'
_cell_length_a   9.68227196
_cell_length_b   9.68227256
_cell_length_c   9.71556000
_cell_angle_alpha   59.88620730
_cell_angle_beta   59.88620524
_cell_angle_gamma   59.82030546
_symmetry_Int_Tables_number   1
_chemical_formula_structural   Dy5Y3Cd2RuPt
_chemical_formula_sum   'Dy10 Y6 Cd4 Ru2 Pt2'
_cell_volume   642.04735624
_cell_formula_units_Z   2
loop_
 _symmetry_equiv_pos_site_id
 _symmetry_equiv_pos_as_xyz
  1  'x, y, z'
loop_
 _atom_site_type_symbol
 _atom_site_label
 _atom_site_symmetry_multiplicity
 _atom_site_fract_x
 _atom_site_fract_y
 _atom_site_fract_z
 _atom_site_occupancy
  Dy  Dy0  1  0.349116  0.349116  0.352429  1
  Dy  Dy1  1  0.349116  0.349116  0.949340  1
  Dy  Dy2  1  0.346268  0.954828  0.349452  1
  Dy  Dy3  1  0.954828  0.346268  0.349452  1
  Dy  Dy4  1  0.814875  0.188271  0.190345  1
  Dy  Dy5  1  0.188271  0.814875  0.806510  1
  Dy  Dy6  1  0.188271  0.814875  0.190345  1
  Dy  Dy7  1  0.814875  0.188271  0.806510  1
  Dy  Dy8  1  0.187955  0.187955  0.812045  1
  Dy  Dy9  1  0.808358  0.808358  0.191642  1
  Y  Y10  1  0.937305  0.559240  0.566228  1
  Y  Y11  1  0.559240  0.937305  0.937226  1
  Y  Y12  1  0.559240  0.937305  0.566228  1
  Y  Y13  1  0.937305  0.559240  0.937226  1
  Y  Y14  1  0.563152  0.563152  0.936848  1
  Y  Y15  1  0.938118  0.938118  0.561882  1
  Cd  Cd16  1  0.579962  0.579962  0.581254  1
  Cd  Cd17  1  0.579962  0.579962  0.258822  1
  Cd  Cd18  1  0.581059  0.255498  0.581722  1
  Cd  Cd19  1  0.255498  0.581059  0.581722  1
  Ru  Ru20  1  0.144124  0.144124  0.137609  1
  Ru  Ru21  1  0.144124  0.144124  0.574143  1
  Pt  Pt22  1  0.144982  0.573997  0.140511  1
  Pt  Pt23  1  0.573997  0.144982  0.140511  1
