# generated using pymatgen
data_Y5Co19(SiP)6
_symmetry_space_group_name_H-M   'P 1'
_cell_length_a   12.09175800
_cell_length_b   12.09175971
_cell_length_c   3.68533800
_cell_angle_alpha   90.00000000
_cell_angle_beta   90.00000000
_cell_angle_gamma   120.00000080
_symmetry_Int_Tables_number   1
_chemical_formula_structural   Y5Co19(SiP)6
_chemical_formula_sum   'Y5 Co19 Si6 P6'
_cell_volume   466.64531329
_cell_formula_units_Z   1
loop_
 _symmetry_equiv_pos_site_id
 _symmetry_equiv_pos_as_xyz
  1  'x, y, z'
loop_
 _atom_site_type_symbol
 _atom_site_label
 _atom_site_symmetry_multiplicity
 _atom_site_fract_x
 _atom_site_fract_y
 _atom_site_fract_z
 _atom_site_occupancy
  Y  Y0  1  0.666667  0.333333  0.000000  1
  Y  Y1  1  0.333333  0.666667  0.000000  1
  Y  Y2  1  0.815138  0.815138  0.500000  1
  Y  Y3  1  0.184862  0.000000  0.500000  1
  Y  Y4  1  0.000000  0.184862  0.500000  1
  Co  Co5  1  0.878616  0.355318  0.500000  1
  Co  Co6  1  0.644682  0.523299  0.500000  1
  Co  Co7  1  0.476701  0.121384  0.500000  1
  Co  Co8  1  0.355318  0.878616  0.500000  1
  Co  Co9  1  0.523299  0.644682  0.500000  1
  Co  Co10  1  0.121384  0.476701  0.500000  1
  Co  Co11  1  0.447046  0.447046  0.000000  1
  Co  Co12  1  0.552954  0.000000  0.000000  1
  Co  Co13  1  0.000000  0.552954  0.000000  1
  Co  Co14  1  0.805429  0.178815  0.000000  1
  Co  Co15  1  0.821185  0.626614  0.000000  1
  Co  Co16  1  0.373386  0.194571  0.000000  1
  Co  Co17  1  0.178815  0.805429  0.000000  1
  Co  Co18  1  0.626614  0.821185  0.000000  1
  Co  Co19  1  0.194571  0.373386  0.000000  1
  Co  Co20  1  0.277873  0.277873  0.500000  1
  Co  Co21  1  0.722127  0.000000  0.500000  1
  Co  Co22  1  0.000000  0.722127  0.500000  1
  Co  Co23  1  0.000000  0.000000  0.000000  1
  Si  Si24  1  0.681455  0.159107  0.500000  1
  Si  Si25  1  0.840893  0.522349  0.500000  1
  Si  Si26  1  0.477651  0.318545  0.500000  1
  Si  Si27  1  0.159107  0.681455  0.500000  1
  Si  Si28  1  0.522349  0.840893  0.500000  1
  Si  Si29  1  0.318545  0.477651  0.500000  1
  P  P30  1  0.181434  0.181434  0.000000  1
  P  P31  1  0.818566  0.000000  0.000000  1
  P  P32  1  0.000000  0.818566  0.000000  1
  P  P33  1  0.630954  0.630954  0.000000  1
  P  P34  1  0.369046  0.000000  0.000000  1
  P  P35  1  0.000000  0.369046  0.000000  1
