# generated using pymatgen
data_DyTm2Th(Al3Ir)6
_symmetry_space_group_name_H-M   'P 1'
_cell_length_a   7.58118600
_cell_length_b   7.59175030
_cell_length_c   9.46767400
_cell_angle_alpha   90.00000000
_cell_angle_beta   90.00000000
_cell_angle_gamma   119.47155035
_symmetry_Int_Tables_number   1
_chemical_formula_structural   DyTm2Th(Al3Ir)6
_chemical_formula_sum   'Dy1 Tm2 Th1 Al18 Ir6'
_cell_volume   474.39606041
_cell_formula_units_Z   1
loop_
 _symmetry_equiv_pos_site_id
 _symmetry_equiv_pos_as_xyz
  1  'x, y, z'
loop_
 _atom_site_type_symbol
 _atom_site_label
 _atom_site_symmetry_multiplicity
 _atom_site_fract_x
 _atom_site_fract_y
 _atom_site_fract_z
 _atom_site_occupancy
  Dy  Dy0  1  0.672497  0.994526  0.250000  1
  Tm  Tm1  1  0.003671  0.327626  0.750000  1
  Tm  Tm2  1  0.326986  0.004529  0.750000  1
  Th  Th3  1  0.994289  0.671576  0.250000  1
  Al  Al4  1  0.131955  0.134065  0.250000  1
  Al  Al5  1  0.871964  0.873753  0.750000  1
  Al  Al6  1  0.001374  0.330933  0.071636  1
  Al  Al7  1  0.000177  0.663977  0.917178  1
  Al  Al8  1  0.000177  0.663977  0.582822  1
  Al  Al9  1  0.340407  0.005568  0.428322  1
  Al  Al10  1  0.001374  0.330933  0.428364  1
  Al  Al11  1  0.664365  0.000911  0.577736  1
  Al  Al12  1  0.664365  0.000911  0.922264  1
  Al  Al13  1  0.340407  0.005568  0.071678  1
  Al  Al14  1  0.331709  0.331829  0.558001  1
  Al  Al15  1  0.662919  0.666549  0.457222  1
  Al  Al16  1  0.662919  0.666549  0.042778  1
  Al  Al17  1  0.331709  0.331829  0.941999  1
  Al  Al18  1  0.344536  0.548812  0.250000  1
  Al  Al19  1  0.658336  0.448063  0.750000  1
  Al  Al20  1  0.544136  0.337280  0.250000  1
  Al  Al21  1  0.448650  0.660248  0.750000  1
  Ir  Ir22  1  0.673411  0.329419  0.999678  1
  Ir  Ir23  1  0.326383  0.671727  0.999803  1
  Ir  Ir24  1  0.326383  0.671727  0.500197  1
  Ir  Ir25  1  0.673411  0.329419  0.500322  1
  Ir  Ir26  1  0.000742  0.998845  0.999791  1
  Ir  Ir27  1  0.000742  0.998845  0.500209  1
