# generated using pymatgen
data_TbPrTlCd2In
_symmetry_space_group_name_H-M   'P 1'
_cell_length_a   4.93955300
_cell_length_b   4.93955342
_cell_length_c   7.62529500
_cell_angle_alpha   90.00000000
_cell_angle_beta   90.00000000
_cell_angle_gamma   120.00001728
_symmetry_Int_Tables_number   1
_chemical_formula_structural   TbPrTlCd2In
_chemical_formula_sum   'Tb1 Pr1 Tl1 Cd2 In1'
_cell_volume   161.12485599
_cell_formula_units_Z   1
loop_
 _symmetry_equiv_pos_site_id
 _symmetry_equiv_pos_as_xyz
  1  'x, y, z'
loop_
 _atom_site_type_symbol
 _atom_site_label
 _atom_site_symmetry_multiplicity
 _atom_site_fract_x
 _atom_site_fract_y
 _atom_site_fract_z
 _atom_site_occupancy
  Tb  Tb0  1  0.000000  0.000000  0.498732  1
  Pr  Pr1  1  0.000000  0.000000  0.998997  1
  Tl  Tl2  1  0.333333  0.666667  0.214252  1
  Cd  Cd3  1  0.333333  0.666667  0.775039  1
  Cd  Cd4  1  0.666667  0.333333  0.304430  1
  In  In5  1  0.666667  0.333333  0.708551  1
