# generated using pymatgen
data_Ho4MgSc3(B6Ir)4
_symmetry_space_group_name_H-M   'P 1'
_cell_length_a   3.54531500
_cell_length_b   8.98618310
_cell_length_c   11.35069939
_cell_angle_alpha   90.05668080
_cell_angle_beta   90.00000000
_cell_angle_gamma   90.00000000
_symmetry_Int_Tables_number   1
_chemical_formula_structural   Ho4MgSc3(B6Ir)4
_chemical_formula_sum   'Ho4 Mg1 Sc3 B24 Ir4'
_cell_volume   361.62004925
_cell_formula_units_Z   1
loop_
 _symmetry_equiv_pos_site_id
 _symmetry_equiv_pos_as_xyz
  1  'x, y, z'
loop_
 _atom_site_type_symbol
 _atom_site_label
 _atom_site_symmetry_multiplicity
 _atom_site_fract_x
 _atom_site_fract_y
 _atom_site_fract_z
 _atom_site_occupancy
  Ho  Ho0  1  0.500000  0.319357  0.414626  1
  Ho  Ho1  1  0.500000  0.680609  0.586565  1
  Ho  Ho2  1  0.500000  0.180960  0.913826  1
  Ho  Ho3  1  0.500000  0.819123  0.085791  1
  Mg  Mg4  1  0.500000  0.446856  0.120747  1
  Sc  Sc5  1  0.500000  0.554181  0.877535  1
  Sc  Sc6  1  0.500000  0.055045  0.624249  1
  Sc  Sc7  1  0.500000  0.945038  0.375882  1
  B  B8  1  0.000000  0.100704  0.472970  1
  B  B9  1  0.000000  0.899333  0.527230  1
  B  B10  1  0.000000  0.398823  0.973021  1
  B  B11  1  0.000000  0.600484  0.027420  1
  B  B12  1  0.000000  0.129743  0.318163  1
  B  B13  1  0.000000  0.869820  0.681374  1
  B  B14  1  0.000000  0.370303  0.819589  1
  B  B15  1  0.000000  0.629085  0.181395  1
  B  B16  1  0.000000  0.055025  0.066221  1
  B  B17  1  0.000000  0.945411  0.934578  1
  B  B18  1  0.000000  0.444725  0.565418  1
  B  B19  1  0.000000  0.555150  0.433818  1
  B  B20  1  0.000000  0.481771  0.284338  1
  B  B21  1  0.000000  0.518115  0.715866  1
  B  B22  1  0.000000  0.018933  0.785203  1
  B  B23  1  0.000000  0.981838  0.214732  1
  B  B24  1  0.000000  0.254926  0.080625  1
  B  B25  1  0.000000  0.745160  0.920448  1
  B  B26  1  0.000000  0.245770  0.579883  1
  B  B27  1  0.000000  0.754232  0.419636  1
  B  B28  1  0.000000  0.295928  0.234911  1
  B  B29  1  0.000000  0.704056  0.764658  1
  B  B30  1  0.000000  0.204465  0.735886  1
  B  B31  1  0.000000  0.794696  0.264730  1
  Ir  Ir32  1  0.500000  0.142603  0.182071  1
  Ir  Ir33  1  0.500000  0.859693  0.818226  1
  Ir  Ir34  1  0.500000  0.358803  0.679755  1
  Ir  Ir35  1  0.500000  0.639232  0.318614  1
