# generated using pymatgen
data_Dy12Co4HgPd
_symmetry_space_group_name_H-M   'P 1'
_cell_length_a   8.28933422
_cell_length_b   8.28933310
_cell_length_c   8.28933400
_cell_angle_alpha   107.17705360
_cell_angle_beta   110.08370471
_cell_angle_gamma   111.17893800
_symmetry_Int_Tables_number   1
_chemical_formula_structural   Dy12Co4HgPd
_chemical_formula_sum   'Dy12 Co4 Hg1 Pd1'
_cell_volume   437.90076040
_cell_formula_units_Z   1
loop_
 _symmetry_equiv_pos_site_id
 _symmetry_equiv_pos_as_xyz
  1  'x, y, z'
loop_
 _atom_site_type_symbol
 _atom_site_label
 _atom_site_symmetry_multiplicity
 _atom_site_fract_x
 _atom_site_fract_y
 _atom_site_fract_z
 _atom_site_occupancy
  Dy  Dy0  1  0.478115  0.292472  0.185642  1
  Dy  Dy1  1  0.106829  0.292472  0.814357  1
  Dy  Dy2  1  0.893171  0.707528  0.185643  1
  Dy  Dy3  1  0.521885  0.707528  0.814358  1
  Dy  Dy4  1  0.302828  0.619122  0.316293  1
  Dy  Dy5  1  0.302827  0.986537  0.683707  1
  Dy  Dy6  1  0.697172  0.380878  0.683707  1
  Dy  Dy7  1  0.697173  0.013463  0.316293  1
  Dy  Dy8  1  0.198987  0.215683  0.414671  1
  Dy  Dy9  1  0.801013  0.784317  0.585329  1
  Dy  Dy10  1  0.198988  0.784317  0.983304  1
  Dy  Dy11  1  0.801012  0.215683  0.016696  1
  Co  Co12  1  0.500000  0.613217  0.113218  1
  Co  Co13  1  0.500000  0.386783  0.886782  1
  Co  Co14  1  0.378663  0.000000  0.378663  1
  Co  Co15  1  0.621337  0.000000  0.621337  1
  Hg  Hg16  1  0.000000  0.500000  0.500000  1
  Pd  Pd17  1  0.000000  0.000000  0.000000  1
