# generated using pymatgen
data_Li8Tc11Ge16Mo
_symmetry_space_group_name_H-M   'P 1'
_cell_length_a   6.54905556
_cell_length_b   6.76761238
_cell_length_c   12.56692885
_cell_angle_alpha   90.04088864
_cell_angle_beta   90.08624284
_cell_angle_gamma   89.99377960
_symmetry_Int_Tables_number   1
_chemical_formula_structural   Li8Tc11Ge16Mo
_chemical_formula_sum   'Li8 Tc11 Ge16 Mo1'
_cell_volume   556.98397790
_cell_formula_units_Z   1
loop_
 _symmetry_equiv_pos_site_id
 _symmetry_equiv_pos_as_xyz
  1  'x, y, z'
loop_
 _atom_site_type_symbol
 _atom_site_label
 _atom_site_symmetry_multiplicity
 _atom_site_fract_x
 _atom_site_fract_y
 _atom_site_fract_z
 _atom_site_occupancy
  Li  Li0  1  0.471292  0.676285  0.582307  1
  Li  Li1  1  0.969432  0.822396  0.916769  1
  Li  Li2  1  0.528558  0.323473  0.082564  1
  Li  Li3  1  0.030354  0.174725  0.415012  1
  Li  Li4  1  0.524992  0.328106  0.416029  1
  Li  Li5  1  0.028238  0.170981  0.083812  1
  Li  Li6  1  0.474817  0.672915  0.918180  1
  Li  Li7  1  0.971798  0.827703  0.584140  1
  Tc  Tc8  1  0.669110  0.159945  0.629523  1
  Tc  Tc9  1  0.171385  0.342473  0.873247  1
  Tc  Tc10  1  0.329950  0.841914  0.128796  1
  Tc  Tc11  1  0.828222  0.658971  0.370218  1
  Tc  Tc12  1  0.331940  0.842174  0.369237  1
  Tc  Tc13  1  0.829705  0.658433  0.129041  1
  Tc  Tc14  1  0.668585  0.157713  0.871782  1
  Tc  Tc15  1  0.842119  0.492101  0.750516  1
  Tc  Tc16  1  0.340294  0.009497  0.750123  1
  Tc  Tc17  1  0.159856  0.507064  0.249697  1
  Tc  Tc18  1  0.660992  0.993156  0.249627  1
  Ge  Ge19  1  0.680729  0.966077  0.455140  1
  Ge  Ge20  1  0.180234  0.534885  0.045305  1
  Ge  Ge21  1  0.318751  0.033736  0.955181  1
  Ge  Ge22  1  0.817013  0.462320  0.542126  1
  Ge  Ge23  1  0.321170  0.036681  0.541768  1
  Ge  Ge24  1  0.821648  0.463267  0.956069  1
  Ge  Ge25  1  0.679190  0.963738  0.044584  1
  Ge  Ge26  1  0.178464  0.538105  0.454567  1
  Ge  Ge27  1  0.474848  0.396412  0.751695  1
  Ge  Ge28  1  0.970975  0.105446  0.753460  1
  Ge  Ge29  1  0.526992  0.605789  0.249275  1
  Ge  Ge30  1  0.027993  0.892421  0.250039  1
  Ge  Ge31  1  0.680243  0.830608  0.750445  1
  Ge  Ge32  1  0.183892  0.670639  0.751080  1
  Ge  Ge33  1  0.319804  0.169364  0.249429  1
  Ge  Ge34  1  0.819821  0.330403  0.249511  1
  Mo  Mo35  1  0.166595  0.340080  0.629705  1
