# generated using pymatgen
data_La7DyH24
_symmetry_space_group_name_H-M   'P 1'
_cell_length_a   7.02166500
_cell_length_b   7.02166500
_cell_length_c   7.02166500
_cell_angle_alpha   90.00000000
_cell_angle_beta   90.00000000
_cell_angle_gamma   90.00000000
_symmetry_Int_Tables_number   1
_chemical_formula_structural   La7DyH24
_chemical_formula_sum   'La7 Dy1 H24'
_cell_volume   346.19462199
_cell_formula_units_Z   1
loop_
 _symmetry_equiv_pos_site_id
 _symmetry_equiv_pos_as_xyz
  1  'x, y, z'
loop_
 _atom_site_type_symbol
 _atom_site_label
 _atom_site_symmetry_multiplicity
 _atom_site_fract_x
 _atom_site_fract_y
 _atom_site_fract_z
 _atom_site_occupancy
  La  La0  1  0.000000  0.000000  0.000000  1
  La  La1  1  0.253422  0.000000  0.500000  1
  La  La2  1  0.746578  0.000000  0.500000  1
  La  La3  1  0.000000  0.500000  0.253422  1
  La  La4  1  0.000000  0.500000  0.746578  1
  La  La5  1  0.500000  0.746578  0.000000  1
  La  La6  1  0.500000  0.253422  0.000000  1
  Dy  Dy7  1  0.500000  0.500000  0.500000  1
  H  H8  1  0.000000  0.155001  0.309002  1
  H  H9  1  0.500000  0.205028  0.651861  1
  H  H10  1  0.500000  0.794972  0.348139  1
  H  H11  1  0.794972  0.651861  0.500000  1
  H  H12  1  0.205028  0.651861  0.500000  1
  H  H13  1  0.348139  0.500000  0.794972  1
  H  H14  1  0.651861  0.500000  0.794972  1
  H  H15  1  0.309002  0.000000  0.155001  1
  H  H16  1  0.155001  0.309002  0.000000  1
  H  H17  1  0.844999  0.690998  0.000000  1
  H  H18  1  0.309002  0.000000  0.844999  1
  H  H19  1  0.844999  0.309002  0.000000  1
  H  H20  1  0.690998  0.000000  0.155001  1
  H  H21  1  0.690998  0.000000  0.844999  1
  H  H22  1  0.155001  0.690998  0.000000  1
  H  H23  1  0.000000  0.844999  0.690998  1
  H  H24  1  0.000000  0.155001  0.690998  1
  H  H25  1  0.000000  0.844999  0.309002  1
  H  H26  1  0.651861  0.500000  0.205028  1
  H  H27  1  0.348139  0.500000  0.205028  1
  H  H28  1  0.794972  0.348139  0.500000  1
  H  H29  1  0.205028  0.348139  0.500000  1
  H  H30  1  0.500000  0.794972  0.651861  1
  H  H31  1  0.500000  0.205028  0.348139  1
