# generated using pymatgen
data_TbPr16Nd3Sn16
_symmetry_space_group_name_H-M   'P 1'
_cell_length_a   8.35675200
_cell_length_b   8.51187400
_cell_length_c   16.10500800
_cell_angle_alpha   90.00000000
_cell_angle_beta   90.00000000
_cell_angle_gamma   90.00169146
_symmetry_Int_Tables_number   1
_chemical_formula_structural   TbPr16Nd3Sn16
_chemical_formula_sum   'Tb1 Pr16 Nd3 Sn16'
_cell_volume   1145.57531008
_cell_formula_units_Z   1
loop_
 _symmetry_equiv_pos_site_id
 _symmetry_equiv_pos_as_xyz
  1  'x, y, z'
loop_
 _atom_site_type_symbol
 _atom_site_label
 _atom_site_symmetry_multiplicity
 _atom_site_fract_x
 _atom_site_fract_y
 _atom_site_fract_z
 _atom_site_occupancy
  Tb  Tb0  1  0.199740  0.501960  0.250000  1
  Pr  Pr1  1  0.017963  0.181445  0.400751  1
  Pr  Pr2  1  0.368206  0.836589  0.120414  1
  Pr  Pr3  1  0.131359  0.336836  0.620041  1
  Pr  Pr4  1  0.482302  0.681151  0.900794  1
  Pr  Pr5  1  0.869129  0.662790  0.120280  1
  Pr  Pr6  1  0.131359  0.336836  0.879959  1
  Pr  Pr7  1  0.482302  0.681151  0.599206  1
  Pr  Pr8  1  0.631442  0.163195  0.620296  1
  Pr  Pr9  1  0.869129  0.662790  0.379720  1
  Pr  Pr10  1  0.017963  0.181445  0.099249  1
  Pr  Pr11  1  0.982168  0.818957  0.900752  1
  Pr  Pr12  1  0.631442  0.163195  0.879704  1
  Pr  Pr13  1  0.517330  0.319173  0.099338  1
  Pr  Pr14  1  0.368206  0.836589  0.379586  1
  Pr  Pr15  1  0.982168  0.818957  0.599248  1
  Pr  Pr16  1  0.517330  0.319173  0.400662  1
  Nd  Nd17  1  0.698627  0.998050  0.250000  1
  Nd  Nd18  1  0.301610  0.002147  0.750000  1
  Nd  Nd19  1  0.801481  0.498000  0.750000  1
  Sn  Sn20  1  0.791007  0.464006  0.542412  1
  Sn  Sn21  1  0.708964  0.964133  0.457517  1
  Sn  Sn22  1  0.677126  0.856742  0.750000  1
  Sn  Sn23  1  0.208902  0.535420  0.456590  1
  Sn  Sn24  1  0.291025  0.035875  0.957617  1
  Sn  Sn25  1  0.823773  0.357448  0.250000  1
  Sn  Sn26  1  0.791007  0.464006  0.957588  1
  Sn  Sn27  1  0.565600  0.615104  0.250000  1
  Sn  Sn28  1  0.208902  0.535420  0.043410  1
  Sn  Sn29  1  0.432151  0.384529  0.750000  1
  Sn  Sn30  1  0.177380  0.642985  0.750000  1
  Sn  Sn31  1  0.932249  0.115428  0.750000  1
  Sn  Sn32  1  0.291025  0.035875  0.542383  1
  Sn  Sn33  1  0.708964  0.964133  0.042483  1
  Sn  Sn34  1  0.322373  0.145184  0.250000  1
  Sn  Sn35  1  0.068297  0.883284  0.250000  1
