# generated using pymatgen
data_DyY(SbO3)6
_symmetry_space_group_name_H-M   'P 1'
_cell_length_a   7.49339000
_cell_length_b   5.36922236
_cell_length_c   8.18293100
_cell_angle_alpha   86.09439766
_cell_angle_beta   90.00000000
_cell_angle_gamma   90.00000000
_symmetry_Int_Tables_number   1
_chemical_formula_structural   DyY(SbO3)6
_chemical_formula_sum   'Dy1 Y1 Sb6 O18'
_cell_volume   328.46480903
_cell_formula_units_Z   1
loop_
 _symmetry_equiv_pos_site_id
 _symmetry_equiv_pos_as_xyz
  1  'x, y, z'
loop_
 _atom_site_type_symbol
 _atom_site_label
 _atom_site_symmetry_multiplicity
 _atom_site_fract_x
 _atom_site_fract_y
 _atom_site_fract_z
 _atom_site_occupancy
  Dy  Dy0  1  0.250000  0.966018  0.434406  1
  Y  Y1  1  0.750000  0.034072  0.565393  1
  Sb  Sb2  1  0.000021  0.000058  0.000032  1
  Sb  Sb3  1  0.499979  0.000058  0.000032  1
  Sb  Sb4  1  0.494889  0.529984  0.697555  1
  Sb  Sb5  1  0.005111  0.529984  0.697555  1
  Sb  Sb6  1  0.995084  0.469984  0.302343  1
  Sb  Sb7  1  0.504916  0.469984  0.302343  1
  O  O8  1  0.250000  0.880271  0.984205  1
  O  O9  1  0.937752  0.856937  0.778892  1
  O  O10  1  0.562248  0.856937  0.778892  1
  O  O11  1  0.959364  0.738157  0.472229  1
  O  O12  1  0.540636  0.738157  0.472229  1
  O  O13  1  0.250000  0.665425  0.654759  1
  O  O14  1  0.931524  0.675197  0.112059  1
  O  O15  1  0.568476  0.675197  0.112059  1
  O  O16  1  0.250000  0.594744  0.309895  1
  O  O17  1  0.750000  0.405767  0.690713  1
  O  O18  1  0.068504  0.324818  0.887931  1
  O  O19  1  0.431496  0.324818  0.887931  1
  O  O20  1  0.750000  0.334783  0.344748  1
  O  O21  1  0.040973  0.261670  0.527653  1
  O  O22  1  0.459027  0.261670  0.527653  1
  O  O23  1  0.062518  0.142765  0.221351  1
  O  O24  1  0.437482  0.142765  0.221351  1
  O  O25  1  0.750000  0.119783  0.015791  1
