# generated using pymatgen
data_Sm6B2(CI)3
_symmetry_space_group_name_H-M   'P 1'
_cell_length_a   8.73937956
_cell_length_b   3.85588800
_cell_length_c   10.42323192
_cell_angle_alpha   90.00000000
_cell_angle_beta   113.68804525
_cell_angle_gamma   90.00000000
_symmetry_Int_Tables_number   1
_chemical_formula_structural   Sm6B2(CI)3
_chemical_formula_sum   'Sm6 B2 C3 I3'
_cell_volume   321.64933086
_cell_formula_units_Z   1
loop_
 _symmetry_equiv_pos_site_id
 _symmetry_equiv_pos_as_xyz
  1  'x, y, z'
loop_
 _atom_site_type_symbol
 _atom_site_label
 _atom_site_symmetry_multiplicity
 _atom_site_fract_x
 _atom_site_fract_y
 _atom_site_fract_z
 _atom_site_occupancy
  Sm  Sm0  1  0.368832  0.500001  0.232786  1
  Sm  Sm1  1  0.631167  0.500001  0.767213  1
  Sm  Sm2  1  0.958014  0.500001  0.157961  1
  Sm  Sm3  1  0.041986  0.500001  0.842039  1
  Sm  Sm4  1  0.295445  0.000000  0.477743  1
  Sm  Sm5  1  0.704555  0.000000  0.522257  1
  B  B6  1  0.092955  0.000000  0.066767  1
  B  B7  1  0.907047  0.000000  0.933234  1
  C  C8  1  0.171144  0.000000  0.225969  1
  C  C9  1  0.828856  0.000000  0.774030  1
  C  C10  1  0.500000  0.500001  0.500000  1
  I  I11  1  0.649251  0.000000  0.187513  1
  I  I12  1  0.350750  0.000000  0.812488  1
  I  I13  1  0.000000  0.500001  0.500000  1
