# generated using pymatgen
data_Nd2LuHf(Al3Ir)6
_symmetry_space_group_name_H-M   'P 1'
_cell_length_a   7.54805484
_cell_length_b   7.54293680
_cell_length_c   9.45628700
_cell_angle_alpha   90.00000000
_cell_angle_beta   90.00000000
_cell_angle_gamma   119.48905898
_symmetry_Int_Tables_number   1
_chemical_formula_structural   Nd2LuHf(Al3Ir)6
_chemical_formula_sum   'Nd2 Lu1 Hf1 Al18 Ir6'
_cell_volume   468.64053061
_cell_formula_units_Z   1
loop_
 _symmetry_equiv_pos_site_id
 _symmetry_equiv_pos_as_xyz
  1  'x, y, z'
loop_
 _atom_site_type_symbol
 _atom_site_label
 _atom_site_symmetry_multiplicity
 _atom_site_fract_x
 _atom_site_fract_y
 _atom_site_fract_z
 _atom_site_occupancy
  Nd  Nd0  1  0.005071  0.327660  0.750000  1
  Nd  Nd1  1  0.329476  0.006359  0.750000  1
  Lu  Lu2  1  0.672346  0.996036  0.250000  1
  Hf  Hf3  1  0.997836  0.674426  0.250000  1
  Al  Al4  1  0.124926  0.123149  0.250000  1
  Al  Al5  1  0.867659  0.866664  0.750000  1
  Al  Al6  1  0.999240  0.338077  0.082615  1
  Al  Al7  1  0.997501  0.664911  0.933798  1
  Al  Al8  1  0.997501  0.664911  0.566202  1
  Al  Al9  1  0.333499  0.997753  0.417261  1
  Al  Al10  1  0.999240  0.338077  0.417385  1
  Al  Al11  1  0.664515  0.996286  0.569161  1
  Al  Al12  1  0.664515  0.996286  0.930839  1
  Al  Al13  1  0.333499  0.997753  0.082739  1
  Al  Al14  1  0.334579  0.334830  0.543240  1
  Al  Al15  1  0.669157  0.667405  0.439736  1
  Al  Al16  1  0.669157  0.667405  0.060264  1
  Al  Al17  1  0.334579  0.334830  0.956760  1
  Al  Al18  1  0.337461  0.551355  0.250000  1
  Al  Al19  1  0.660812  0.454791  0.750000  1
  Al  Al20  1  0.556580  0.344067  0.250000  1
  Al  Al21  1  0.453467  0.659818  0.750000  1
  Ir  Ir22  1  0.672909  0.328932  0.003412  1
  Ir  Ir23  1  0.328324  0.672603  0.004267  1
  Ir  Ir24  1  0.328324  0.672603  0.495733  1
  Ir  Ir25  1  0.672909  0.328932  0.496588  1
  Ir  Ir26  1  0.997461  0.997042  0.004270  1
  Ir  Ir27  1  0.997461  0.997042  0.495730  1
