# generated using pymatgen
data_NdTmV2(WO6)2
_symmetry_space_group_name_H-M   'P 1'
_cell_length_a   5.27803817
_cell_length_b   7.48100023
_cell_length_c   11.19773200
_cell_angle_alpha   90.00000000
_cell_angle_beta   90.00000000
_cell_angle_gamma   89.81079738
_symmetry_Int_Tables_number   1
_chemical_formula_structural   NdTmV2(WO6)2
_chemical_formula_sum   'Nd2 Tm2 V4 W4 O24'
_cell_volume   442.14009078
_cell_formula_units_Z   2
loop_
 _symmetry_equiv_pos_site_id
 _symmetry_equiv_pos_as_xyz
  1  'x, y, z'
loop_
 _atom_site_type_symbol
 _atom_site_label
 _atom_site_symmetry_multiplicity
 _atom_site_fract_x
 _atom_site_fract_y
 _atom_site_fract_z
 _atom_site_occupancy
  Nd  Nd0  1  0.539921  0.253417  0.044248  1
  Nd  Nd1  1  0.039923  0.753418  0.455752  1
  Tm  Tm2  1  0.949776  0.253293  0.547282  1
  Tm  Tm3  1  0.449777  0.753294  0.952718  1
  V  V4  1  0.049697  0.508172  0.132316  1
  V  V5  1  0.549698  0.008171  0.367684  1
  V  V6  1  0.448349  0.505428  0.635846  1
  V  V7  1  0.948348  0.005427  0.864154  1
  W  W8  1  0.054970  0.995028  0.141717  1
  W  W9  1  0.554969  0.495027  0.358282  1
  W  W10  1  0.443005  0.002319  0.645339  1
  W  W11  1  0.943003  0.502318  0.854660  1
  O  O12  1  0.758433  0.551348  0.018077  1
  O  O13  1  0.765091  0.952996  0.027631  1
  O  O14  1  0.183676  0.753295  0.115450  1
  O  O15  1  0.949330  0.245087  0.138760  1
  O  O16  1  0.367714  0.063921  0.209152  1
  O  O17  1  0.382526  0.437702  0.217806  1
  O  O18  1  0.882527  0.937703  0.282194  1
  O  O19  1  0.867713  0.563921  0.290847  1
  O  O20  1  0.449331  0.745086  0.361240  1
  O  O21  1  0.683675  0.253294  0.384549  1
  O  O22  1  0.265092  0.452995  0.472369  1
  O  O23  1  0.258432  0.051347  0.481923  1
  O  O24  1  0.741078  0.533398  0.522030  1
  O  O25  1  0.733432  0.967564  0.531867  1
  O  O26  1  0.335750  0.757653  0.618588  1
  O  O27  1  0.569982  0.246951  0.646753  1
  O  O28  1  0.122883  0.073773  0.704955  1
  O  O29  1  0.104386  0.438861  0.710864  1
  O  O30  1  0.604387  0.938862  0.789136  1
  O  O31  1  0.622882  0.573773  0.795045  1
  O  O32  1  0.069983  0.746950  0.853247  1
  O  O33  1  0.835749  0.257652  0.881412  1
  O  O34  1  0.233433  0.467563  0.968133  1
  O  O35  1  0.241077  0.033397  0.977970  1
