# generated using pymatgen
data_Ho9LuSi5Pb
_symmetry_space_group_name_H-M   'P 1'
_cell_length_a   8.48004413
_cell_length_b   8.50695012
_cell_length_c   6.35304117
_cell_angle_alpha   90.02546023
_cell_angle_beta   89.99379848
_cell_angle_gamma   119.87640797
_symmetry_Int_Tables_number   1
_chemical_formula_structural   Ho9LuSi5Pb
_chemical_formula_sum   'Ho9 Lu1 Si5 Pb1'
_cell_volume   397.39626002
_cell_formula_units_Z   1
loop_
 _symmetry_equiv_pos_site_id
 _symmetry_equiv_pos_as_xyz
  1  'x, y, z'
loop_
 _atom_site_type_symbol
 _atom_site_label
 _atom_site_symmetry_multiplicity
 _atom_site_fract_x
 _atom_site_fract_y
 _atom_site_fract_z
 _atom_site_occupancy
  Ho  Ho0  1  0.987946  0.747664  0.749690  1
  Ho  Ho1  1  0.998708  0.242659  0.250506  1
  Ho  Ho2  1  0.755789  0.757651  0.250420  1
  Ho  Ho3  1  0.766827  0.999789  0.749628  1
  Ho  Ho4  1  0.240068  0.252579  0.749464  1
  Ho  Ho5  1  0.240203  0.999767  0.250387  1
  Ho  Ho6  1  0.674889  0.343755  0.003878  1
  Ho  Ho7  1  0.674912  0.343633  0.496095  1
  Ho  Ho8  1  0.331274  0.656382  0.003861  1
  Lu  Lu9  1  0.331201  0.656138  0.496181  1
  Si  Si10  1  0.393321  0.392860  0.251224  1
  Si  Si11  1  0.002529  0.608109  0.251013  1
  Si  Si12  1  0.999372  0.395203  0.748919  1
  Si  Si13  1  0.603170  0.605711  0.748888  1
  Si  Si14  1  0.605144  0.999132  0.250880  1
  Pb  Pb15  1  0.394650  0.998967  0.748964  1
