# generated using pymatgen
data_SmTh5AlCd23
_symmetry_space_group_name_H-M   'P 1'
_cell_length_a   10.09325485
_cell_length_b   10.11382103
_cell_length_c   10.11383000
_cell_angle_alpha   60.14045460
_cell_angle_beta   60.27912853
_cell_angle_gamma   60.27917862
_symmetry_Int_Tables_number   1
_chemical_formula_structural   SmTh5AlCd23
_chemical_formula_sum   'Sm1 Th5 Al1 Cd23'
_cell_volume   733.88755990
_cell_formula_units_Z   1
loop_
 _symmetry_equiv_pos_site_id
 _symmetry_equiv_pos_as_xyz
  1  'x, y, z'
loop_
 _atom_site_type_symbol
 _atom_site_label
 _atom_site_symmetry_multiplicity
 _atom_site_fract_x
 _atom_site_fract_y
 _atom_site_fract_z
 _atom_site_occupancy
  Sm  Sm0  1  0.213132  0.785789  0.786091  1
  Th  Th1  1  0.789403  0.789495  0.212450  1
  Th  Th2  1  0.205877  0.793033  0.213333  1
  Th  Th3  1  0.797256  0.204053  0.203806  1
  Th  Th4  1  0.205735  0.213494  0.793060  1
  Th  Th5  1  0.789306  0.212468  0.789616  1
  Al  Al6  1  0.005764  0.993765  0.993761  1
  Cd  Cd7  1  0.837113  0.836934  0.486505  1
  Cd  Cd8  1  0.836965  0.487056  0.836635  1
  Cd  Cd9  1  0.471679  0.842075  0.841894  1
  Cd  Cd10  1  0.841448  0.839725  0.839643  1
  Cd  Cd11  1  0.161050  0.156718  0.524256  1
  Cd  Cd12  1  0.161123  0.523771  0.157033  1
  Cd  Cd13  1  0.514489  0.161296  0.161408  1
  Cd  Cd14  1  0.166352  0.164208  0.164276  1
  Cd  Cd15  1  0.622832  0.623430  0.128618  1
  Cd  Cd16  1  0.622812  0.128711  0.623272  1
  Cd  Cd17  1  0.131311  0.623733  0.623564  1
  Cd  Cd18  1  0.623490  0.624436  0.624464  1
  Cd  Cd19  1  0.377014  0.379380  0.868444  1
  Cd  Cd20  1  0.377045  0.868242  0.379611  1
  Cd  Cd21  1  0.871452  0.375908  0.376041  1
  Cd  Cd22  1  0.374602  0.375558  0.375534  1
  Cd  Cd23  1  0.998745  0.001015  0.499352  1
  Cd  Cd24  1  0.501065  0.000950  0.499340  1
  Cd  Cd25  1  0.000971  0.499322  0.499300  1
  Cd  Cd26  1  0.501007  0.499395  0.000954  1
  Cd  Cd27  1  0.998716  0.499364  0.001005  1
  Cd  Cd28  1  0.500764  0.998892  0.998881  1
  Cd  Cd29  1  0.501480  0.497784  0.497854  1
