# generated using pymatgen
data_Tb3Lu2PPb3
_symmetry_space_group_name_H-M   'P 1'
_cell_length_a   9.13349900
_cell_length_b   9.13349925
_cell_length_c   6.72591000
_cell_angle_alpha   90.00000000
_cell_angle_beta   90.00000000
_cell_angle_gamma   120.00001722
_symmetry_Int_Tables_number   1
_chemical_formula_structural   Tb3Lu2PPb3
_chemical_formula_sum   'Tb6 Lu4 P2 Pb6'
_cell_volume   485.91017223
_cell_formula_units_Z   2
loop_
 _symmetry_equiv_pos_site_id
 _symmetry_equiv_pos_as_xyz
  1  'x, y, z'
loop_
 _atom_site_type_symbol
 _atom_site_label
 _atom_site_symmetry_multiplicity
 _atom_site_fract_x
 _atom_site_fract_y
 _atom_site_fract_z
 _atom_site_occupancy
  Tb  Tb0  1  0.760355  0.760355  0.750000  1
  Tb  Tb1  1  0.239645  0.000000  0.750000  1
  Tb  Tb2  1  0.000000  0.239645  0.750000  1
  Tb  Tb3  1  0.239645  0.239645  0.250000  1
  Tb  Tb4  1  0.760355  0.000000  0.250000  1
  Tb  Tb5  1  0.000000  0.760355  0.250000  1
  Lu  Lu6  1  0.666667  0.333333  0.000000  1
  Lu  Lu7  1  0.333333  0.666667  0.000000  1
  Lu  Lu8  1  0.333333  0.666667  0.500000  1
  Lu  Lu9  1  0.666667  0.333333  0.500000  1
  P  P10  1  0.000000  0.000000  0.000000  1
  P  P11  1  0.000000  0.000000  0.500000  1
  Pb  Pb12  1  0.400303  0.400303  0.750000  1
  Pb  Pb13  1  0.599697  0.000000  0.750000  1
  Pb  Pb14  1  0.000000  0.599697  0.750000  1
  Pb  Pb15  1  0.599697  0.599697  0.250000  1
  Pb  Pb16  1  0.400303  0.000000  0.250000  1
  Pb  Pb17  1  0.000000  0.400303  0.250000  1
