# generated using pymatgen
data_Ho2LuZn3AgGe2
_symmetry_space_group_name_H-M   'P 1'
_cell_length_a   6.91281800
_cell_length_b   6.88447947
_cell_length_c   4.28923300
_cell_angle_alpha   90.00000000
_cell_angle_beta   90.00000000
_cell_angle_gamma   120.13625954
_symmetry_Int_Tables_number   1
_chemical_formula_structural   Ho2LuZn3AgGe2
_chemical_formula_sum   'Ho2 Lu1 Zn3 Ag1 Ge2'
_cell_volume   176.53814503
_cell_formula_units_Z   1
loop_
 _symmetry_equiv_pos_site_id
 _symmetry_equiv_pos_as_xyz
  1  'x, y, z'
loop_
 _atom_site_type_symbol
 _atom_site_label
 _atom_site_symmetry_multiplicity
 _atom_site_fract_x
 _atom_site_fract_y
 _atom_site_fract_z
 _atom_site_occupancy
  Ho  Ho0  1  0.000870  0.574621  0.000000  1
  Ho  Ho1  1  0.426250  0.425379  0.000000  1
  Lu  Lu2  1  0.574170  0.000000  0.000000  1
  Zn  Zn3  1  0.242676  0.000000  0.500000  1
  Zn  Zn4  1  0.000236  0.241963  0.500000  1
  Zn  Zn5  1  0.758274  0.758037  0.500000  1
  Ag  Ag6  1  0.996297  0.000000  0.000000  1
  Ge  Ge7  1  0.335556  0.669886  0.500000  1
  Ge  Ge8  1  0.665671  0.330114  0.500000  1
