# generated using pymatgen
data_Tm12TcNi4Sn
_symmetry_space_group_name_H-M   'P 1'
_cell_length_a   8.18400795
_cell_length_b   8.18400692
_cell_length_c   8.18400780
_cell_angle_alpha   111.96798658
_cell_angle_beta   109.92720782
_cell_angle_gamma   106.56395650
_symmetry_Int_Tables_number   1
_chemical_formula_structural   Tm12TcNi4Sn
_chemical_formula_sum   'Tm12 Tc1 Ni4 Sn1'
_cell_volume   421.01408892
_cell_formula_units_Z   1
loop_
 _symmetry_equiv_pos_site_id
 _symmetry_equiv_pos_as_xyz
  1  'x, y, z'
loop_
 _atom_site_type_symbol
 _atom_site_label
 _atom_site_symmetry_multiplicity
 _atom_site_fract_x
 _atom_site_fract_y
 _atom_site_fract_z
 _atom_site_occupancy
  Tm  Tm0  1  0.679517  0.872970  0.193453  1
  Tm  Tm1  1  0.320483  0.513935  0.193453  1
  Tm  Tm2  1  0.819609  0.780313  0.599923  1
  Tm  Tm3  1  0.180391  0.780313  0.960704  1
  Tm  Tm4  1  0.819609  0.219687  0.039296  1
  Tm  Tm5  1  0.180391  0.219687  0.400077  1
  Tm  Tm6  1  0.679517  0.486065  0.806547  1
  Tm  Tm7  1  0.320483  0.127030  0.806547  1
  Tm  Tm8  1  0.584931  0.276387  0.308543  1
  Tm  Tm9  1  0.415069  0.723613  0.691457  1
  Tm  Tm10  1  0.032157  0.723613  0.308543  1
  Tm  Tm11  1  0.967843  0.276387  0.691457  1
  Tc  Tc12  1  0.000000  0.500000  0.500000  1
  Ni  Ni13  1  0.354978  0.500000  0.854978  1
  Ni  Ni14  1  0.645022  0.500000  0.145022  1
  Ni  Ni15  1  0.879869  0.879869  0.000000  1
  Ni  Ni16  1  0.120131  0.120131  0.000000  1
  Sn  Sn17  1  0.500000  0.000000  0.500000  1
