# generated using pymatgen
data_Nd3Th5Zn7HgRh8
_symmetry_space_group_name_H-M   'P 1'
_cell_length_a   3.94315000
_cell_length_b   7.58876110
_cell_length_c   16.69489123
_cell_angle_alpha   90.16176371
_cell_angle_beta   90.00000000
_cell_angle_gamma   90.00000000
_symmetry_Int_Tables_number   1
_chemical_formula_structural   Nd3Th5Zn7HgRh8
_chemical_formula_sum   'Nd3 Th5 Zn7 Hg1 Rh8'
_cell_volume   499.56964580
_cell_formula_units_Z   1
loop_
 _symmetry_equiv_pos_site_id
 _symmetry_equiv_pos_as_xyz
  1  'x, y, z'
loop_
 _atom_site_type_symbol
 _atom_site_label
 _atom_site_symmetry_multiplicity
 _atom_site_fract_x
 _atom_site_fract_y
 _atom_site_fract_z
 _atom_site_occupancy
  Nd  Nd0  1  0.750000  0.436618  0.209033  1
  Nd  Nd1  1  0.250000  0.056367  0.715109  1
  Nd  Nd2  1  0.250000  0.556974  0.786554  1
  Th  Th3  1  0.250000  0.175373  0.937565  1
  Th  Th4  1  0.250000  0.673103  0.563987  1
  Th  Th5  1  0.750000  0.320860  0.440891  1
  Th  Th6  1  0.750000  0.945142  0.283919  1
  Th  Th7  1  0.750000  0.830071  0.058551  1
  Zn  Zn8  1  0.750000  0.009312  0.563939  1
  Zn  Zn9  1  0.750000  0.382705  0.656266  1
  Zn  Zn10  1  0.250000  0.497797  0.059640  1
  Zn  Zn11  1  0.750000  0.508662  0.938261  1
  Zn  Zn12  1  0.250000  0.993668  0.443780  1
  Zn  Zn13  1  0.250000  0.119804  0.150660  1
  Zn  Zn14  1  0.750000  0.883936  0.844921  1
  Hg  Hg15  1  0.250000  0.607529  0.342360  1
  Rh  Rh16  1  0.750000  0.751195  0.447706  1
  Rh  Rh17  1  0.250000  0.216481  0.318071  1
  Rh  Rh18  1  0.750000  0.250138  0.821001  1
  Rh  Rh19  1  0.750000  0.750019  0.680564  1
  Rh  Rh20  1  0.250000  0.263508  0.561138  1
  Rh  Rh21  1  0.250000  0.764602  0.179686  1
  Rh  Rh22  1  0.750000  0.243878  0.056345  1
  Rh  Rh23  1  0.250000  0.762260  0.940052  1
