# generated using pymatgen
data_LiLa3Nd5CdIr2
_symmetry_space_group_name_H-M   'P 1'
_cell_length_a   9.99024874
_cell_length_b   10.06965170
_cell_length_c   10.02819064
_cell_angle_alpha   59.61365962
_cell_angle_beta   60.39948758
_cell_angle_gamma   60.58703565
_symmetry_Int_Tables_number   1
_chemical_formula_structural   LiLa3Nd5CdIr2
_chemical_formula_sum   'Li2 La6 Nd10 Cd2 Ir4'
_cell_volume   716.45927710
_cell_formula_units_Z   2
loop_
 _symmetry_equiv_pos_site_id
 _symmetry_equiv_pos_as_xyz
  1  'x, y, z'
loop_
 _atom_site_type_symbol
 _atom_site_label
 _atom_site_symmetry_multiplicity
 _atom_site_fract_x
 _atom_site_fract_y
 _atom_site_fract_z
 _atom_site_occupancy
  Li  Li0  1  0.572900  0.570836  0.576466  1
  Li  Li1  1  0.570836  0.572900  0.279798  1
  La  La2  1  0.346325  0.348825  0.349460  1
  La  La3  1  0.348825  0.346325  0.955390  1
  La  La4  1  0.348009  0.960151  0.343941  1
  La  La5  1  0.960151  0.348009  0.347899  1
  La  La6  1  0.814511  0.186495  0.186325  1
  La  La7  1  0.186495  0.814511  0.812669  1
  Nd  Nd8  1  0.188288  0.811398  0.190752  1
  Nd  Nd9  1  0.811398  0.188288  0.809563  1
  Nd  Nd10  1  0.192049  0.192049  0.807951  1
  Nd  Nd11  1  0.814502  0.814502  0.185498  1
  Nd  Nd12  1  0.936112  0.564148  0.565730  1
  Nd  Nd13  1  0.564148  0.936112  0.934008  1
  Nd  Nd14  1  0.562770  0.937819  0.563389  1
  Nd  Nd15  1  0.937819  0.562770  0.936021  1
  Nd  Nd16  1  0.563135  0.563135  0.936865  1
  Nd  Nd17  1  0.937737  0.937737  0.562263  1
  Cd  Cd18  1  0.583052  0.254422  0.582412  1
  Cd  Cd19  1  0.254422  0.583052  0.580115  1
  Ir  Ir20  1  0.137823  0.145620  0.142061  1
  Ir  Ir21  1  0.145620  0.137823  0.574495  1
  Ir  Ir22  1  0.146653  0.576419  0.135034  1
  Ir  Ir23  1  0.576419  0.146653  0.141893  1
