# generated using pymatgen
data_LiSc3Ag2Sn3
_symmetry_space_group_name_H-M   'P 1'
_cell_length_a   8.35146835
_cell_length_b   8.35146834
_cell_length_c   8.35146808
_cell_angle_alpha   129.90438649
_cell_angle_beta   116.26081715
_cell_angle_gamma   85.18341211
_symmetry_Int_Tables_number   1
_chemical_formula_structural   LiSc3Ag2Sn3
_chemical_formula_sum   'Li2 Sc6 Ag4 Sn6'
_cell_volume   383.43319208
_cell_formula_units_Z   2
loop_
 _symmetry_equiv_pos_site_id
 _symmetry_equiv_pos_as_xyz
  1  'x, y, z'
loop_
 _atom_site_type_symbol
 _atom_site_label
 _atom_site_symmetry_multiplicity
 _atom_site_fract_x
 _atom_site_fract_y
 _atom_site_fract_z
 _atom_site_occupancy
  Li  Li0  1  0.000000  0.011635  0.011635  1
  Li  Li1  1  0.500000  0.011635  0.511635  1
  Sc  Sc2  1  0.038159  0.823505  0.285346  1
  Sc  Sc3  1  0.961841  0.247188  0.785346  1
  Sc  Sc4  1  0.482923  0.242450  0.259527  1
  Sc  Sc5  1  0.517077  0.776603  0.759527  1
  Sc  Sc6  1  0.748722  0.676220  0.427497  1
  Sc  Sc7  1  0.251278  0.678775  0.927497  1
  Ag  Ag8  1  0.641801  0.483958  0.883997  1
  Ag  Ag9  1  0.358199  0.242198  0.842159  1
  Ag  Ag10  1  0.900039  0.242198  0.383997  1
  Ag  Ag11  1  0.099961  0.483958  0.342159  1
  Sn  Sn12  1  0.270359  0.250201  0.479842  1
  Sn  Sn13  1  0.729641  0.209483  0.979842  1
  Sn  Sn14  1  0.841008  0.586852  0.752193  1
  Sn  Sn15  1  0.158992  0.911185  0.745844  1
  Sn  Sn16  1  0.665341  0.911185  0.252193  1
  Sn  Sn17  1  0.334659  0.586852  0.245844  1
