# generated using pymatgen
data_Tm4InIr
_symmetry_space_group_name_H-M   'P 1'
_cell_length_a   9.53001100
_cell_length_b   9.53001192
_cell_length_c   9.53001100
_cell_angle_alpha   120.00000027
_cell_angle_beta   90.00000000
_cell_angle_gamma   120.00000027
_symmetry_Int_Tables_number   1
_chemical_formula_structural   Tm4InIr
_chemical_formula_sum   'Tm16 In4 Ir4'
_cell_volume   612.01948123
_cell_formula_units_Z   4
loop_
 _symmetry_equiv_pos_site_id
 _symmetry_equiv_pos_as_xyz
  1  'x, y, z'
loop_
 _atom_site_type_symbol
 _atom_site_label
 _atom_site_symmetry_multiplicity
 _atom_site_fract_x
 _atom_site_fract_y
 _atom_site_fract_z
 _atom_site_occupancy
  Tm  Tm0  1  0.349606  0.699212  0.048820  1
  Tm  Tm1  1  0.939851  0.500000  0.060150  1
  Tm  Tm2  1  0.560151  0.120300  0.060150  1
  Tm  Tm3  1  0.560151  0.500000  0.060150  1
  Tm  Tm4  1  0.807967  0.000000  0.192033  1
  Tm  Tm5  1  0.192034  0.000000  0.192034  1
  Tm  Tm6  1  0.192034  0.384067  0.192034  1
  Tm  Tm7  1  0.560151  0.500000  0.439850  1
  Tm  Tm8  1  0.939851  0.500000  0.439850  1
  Tm  Tm9  1  0.939851  0.879701  0.439850  1
  Tm  Tm10  1  0.349606  0.300786  0.650392  1
  Tm  Tm11  1  0.349606  0.699212  0.650392  1
  Tm  Tm12  1  0.951179  0.300786  0.650393  1
  Tm  Tm13  1  0.192033  0.000000  0.807967  1
  Tm  Tm14  1  0.807967  0.000000  0.807967  1
  Tm  Tm15  1  0.807967  0.615934  0.807967  1
  In  In16  1  0.583433  0.166864  0.416569  1
  In  In17  1  0.249705  0.833138  0.416569  1
  In  In18  1  0.583433  0.833138  0.416569  1
  In  In19  1  0.583431  0.166864  0.750295  1
  Ir  Ir20  1  0.141150  0.282300  0.423450  1
  Ir  Ir21  1  0.141150  0.282300  0.858851  1
  Ir  Ir22  1  0.141150  0.717701  0.858851  1
  Ir  Ir23  1  0.576551  0.717701  0.858851  1
