# generated using pymatgen
data_NbSi8MoPt6
_symmetry_space_group_name_H-M   'P 1'
_cell_length_a   3.57240300
_cell_length_b   5.56295300
_cell_length_c   24.63324500
_cell_angle_alpha   90.00000000
_cell_angle_beta   90.00000000
_cell_angle_gamma   90.00000000
_symmetry_Int_Tables_number   1
_chemical_formula_structural   NbSi8MoPt6
_chemical_formula_sum   'Nb2 Si16 Mo2 Pt12'
_cell_volume   489.53918720
_cell_formula_units_Z   2
loop_
 _symmetry_equiv_pos_site_id
 _symmetry_equiv_pos_as_xyz
  1  'x, y, z'
loop_
 _atom_site_type_symbol
 _atom_site_label
 _atom_site_symmetry_multiplicity
 _atom_site_fract_x
 _atom_site_fract_y
 _atom_site_fract_z
 _atom_site_occupancy
  Nb  Nb0  1  0.250000  0.503563  0.711543  1
  Nb  Nb1  1  0.750000  0.996437  0.211543  1
  Si  Si2  1  0.250000  0.181048  0.520053  1
  Si  Si3  1  0.750000  0.318952  0.020053  1
  Si  Si4  1  0.250000  0.679132  0.979684  1
  Si  Si5  1  0.750000  0.820868  0.479684  1
  Si  Si6  1  0.750000  0.320356  0.645168  1
  Si  Si7  1  0.250000  0.179644  0.145168  1
  Si  Si8  1  0.750000  0.816289  0.853295  1
  Si  Si9  1  0.250000  0.683711  0.353295  1
  Si  Si10  1  0.250000  0.658052  0.608685  1
  Si  Si11  1  0.750000  0.841948  0.108685  1
  Si  Si12  1  0.250000  0.158676  0.890638  1
  Si  Si13  1  0.750000  0.341324  0.390638  1
  Si  Si14  1  0.750000  0.838369  0.725971  1
  Si  Si15  1  0.250000  0.661631  0.225971  1
  Si  Si16  1  0.750000  0.328628  0.776094  1
  Si  Si17  1  0.250000  0.171372  0.276094  1
  Mo  Mo18  1  0.250000  0.004510  0.790120  1
  Mo  Mo19  1  0.750000  0.495490  0.290120  1
  Pt  Pt20  1  0.750000  0.001777  0.573664  1
  Pt  Pt21  1  0.250000  0.498223  0.073664  1
  Pt  Pt22  1  0.750000  0.502416  0.926456  1
  Pt  Pt23  1  0.250000  0.997584  0.426456  1
  Pt  Pt24  1  0.250000  0.003629  0.669028  1
  Pt  Pt25  1  0.750000  0.496371  0.169028  1
  Pt  Pt26  1  0.250000  0.504037  0.831826  1
  Pt  Pt27  1  0.750000  0.995963  0.331826  1
  Pt  Pt28  1  0.750000  0.503316  0.546960  1
  Pt  Pt29  1  0.250000  0.996684  0.046960  1
  Pt  Pt30  1  0.750000  0.003732  0.950813  1
  Pt  Pt31  1  0.250000  0.496268  0.450813  1
