# generated using pymatgen
data_Sc12Al3I16
_symmetry_space_group_name_H-M   'P 1'
_cell_length_a   9.41699692
_cell_length_b   11.84580460
_cell_length_c   12.52551064
_cell_angle_alpha   116.94791402
_cell_angle_beta   101.66777610
_cell_angle_gamma   101.08403928
_symmetry_Int_Tables_number   1
_chemical_formula_structural   Sc12Al3I16
_chemical_formula_sum   'Sc12 Al3 I16'
_cell_volume   1153.49240780
_cell_formula_units_Z   1
loop_
 _symmetry_equiv_pos_site_id
 _symmetry_equiv_pos_as_xyz
  1  'x, y, z'
loop_
 _atom_site_type_symbol
 _atom_site_label
 _atom_site_symmetry_multiplicity
 _atom_site_fract_x
 _atom_site_fract_y
 _atom_site_fract_z
 _atom_site_occupancy
  Sc  Sc0  1  0.083821  0.260976  0.353236  1
  Sc  Sc1  1  0.916179  0.739024  0.646764  1
  Sc  Sc2  1  0.778015  0.537002  0.322232  1
  Sc  Sc3  1  0.221985  0.462998  0.677768  1
  Sc  Sc4  1  0.279728  0.740162  0.647065  1
  Sc  Sc5  1  0.720272  0.259838  0.352935  1
  Sc  Sc6  1  0.142186  0.537303  0.323428  1
  Sc  Sc7  1  0.857814  0.462697  0.676572  1
  Sc  Sc8  1  0.402747  0.354119  0.267997  1
  Sc  Sc9  1  0.597253  0.645881  0.732003  1
  Sc  Sc10  1  0.456987  0.302096  0.520150  1
  Sc  Sc11  1  0.543013  0.697904  0.479850  1
  Al  Al12  1  0.000000  0.500000  0.500000  1
  Al  Al13  1  0.347396  0.500052  0.499500  1
  Al  Al14  1  0.652605  0.499948  0.500500  1
  I  I15  1  0.397101  0.742080  0.886052  1
  I  I16  1  0.602899  0.257920  0.113948  1
  I  I17  1  0.190791  0.971949  0.786194  1
  I  I18  1  0.809209  0.028051  0.213806  1
  I  I19  1  0.335724  0.086865  0.246144  1
  I  I20  1  0.664276  0.913135  0.753856  1
  I  I21  1  0.555328  0.436322  0.803036  1
  I  I22  1  0.444672  0.563678  0.196964  1
  I  I23  1  0.308928  0.828709  0.462220  1
  I  I24  1  0.691072  0.171291  0.537780  1
  I  I25  1  0.166707  0.169632  0.533819  1
  I  I26  1  0.833293  0.830368  0.466181  1
  I  I27  1  0.925412  0.578803  0.156765  1
  I  I28  1  0.074588  0.421197  0.843235  1
  I  I29  1  0.924361  0.739955  0.885949  1
  I  I30  1  0.075639  0.260045  0.114051  1
