# generated using pymatgen
data_Pr6As13Rh20
_symmetry_space_group_name_H-M   'P 1'
_cell_length_a   13.98650700
_cell_length_b   13.98650643
_cell_length_c   4.07348100
_cell_angle_alpha   90.00000000
_cell_angle_beta   90.00000000
_cell_angle_gamma   119.99999899
_symmetry_Int_Tables_number   1
_chemical_formula_structural   Pr6As13Rh20
_chemical_formula_sum   'Pr6 As13 Rh20'
_cell_volume   690.10448097
_cell_formula_units_Z   1
loop_
 _symmetry_equiv_pos_site_id
 _symmetry_equiv_pos_as_xyz
  1  'x, y, z'
loop_
 _atom_site_type_symbol
 _atom_site_label
 _atom_site_symmetry_multiplicity
 _atom_site_fract_x
 _atom_site_fract_y
 _atom_site_fract_z
 _atom_site_occupancy
  Pr  Pr0  1  0.531967  0.719120  0.247605  1
  Pr  Pr1  1  0.280880  0.812847  0.247605  1
  Pr  Pr2  1  0.187153  0.468033  0.247605  1
  Pr  Pr3  1  0.468033  0.280880  0.752395  1
  Pr  Pr4  1  0.719120  0.187153  0.752395  1
  Pr  Pr5  1  0.812847  0.531967  0.752395  1
  As  As6  1  0.523814  0.136545  0.251028  1
  As  As7  1  0.863455  0.387270  0.251028  1
  As  As8  1  0.612730  0.476186  0.251028  1
  As  As9  1  0.948462  0.719500  0.251730  1
  As  As10  1  0.280500  0.228962  0.251730  1
  As  As11  1  0.771038  0.051538  0.251730  1
  As  As12  1  0.387270  0.523814  0.748972  1
  As  As13  1  0.476186  0.863455  0.748972  1
  As  As14  1  0.136545  0.612730  0.748972  1
  As  As15  1  0.719500  0.771038  0.748270  1
  As  As16  1  0.228962  0.948462  0.748270  1
  As  As17  1  0.051538  0.280500  0.748270  1
  As  As18  1  0.000000  0.000000  0.000000  1
  Rh  Rh19  1  0.333333  0.666667  0.752284  1
  Rh  Rh20  1  0.923910  0.250016  0.254430  1
  Rh  Rh21  1  0.749984  0.673894  0.254430  1
  Rh  Rh22  1  0.326106  0.076090  0.254430  1
  Rh  Rh23  1  0.439999  0.024380  0.751867  1
  Rh  Rh24  1  0.975620  0.415619  0.751867  1
  Rh  Rh25  1  0.584381  0.560001  0.751867  1
  Rh  Rh26  1  0.666667  0.333333  0.247716  1
  Rh  Rh27  1  0.090848  0.187935  0.250646  1
  Rh  Rh28  1  0.812065  0.902914  0.250646  1
  Rh  Rh29  1  0.097086  0.909152  0.250646  1
  Rh  Rh30  1  0.024380  0.584381  0.248133  1
  Rh  Rh31  1  0.415619  0.439999  0.248133  1
  Rh  Rh32  1  0.560001  0.975620  0.248133  1
  Rh  Rh33  1  0.673894  0.923910  0.745570  1
  Rh  Rh34  1  0.076090  0.749984  0.745570  1
  Rh  Rh35  1  0.250016  0.326106  0.745570  1
  Rh  Rh36  1  0.909152  0.812065  0.749354  1
  Rh  Rh37  1  0.187935  0.097086  0.749354  1
  Rh  Rh38  1  0.902914  0.090848  0.749354  1
