# generated using pymatgen
data_Y4Ga18RuPt3Rh2
_symmetry_space_group_name_H-M   'P 1'
_cell_length_a   7.64043002
_cell_length_b   7.64043013
_cell_length_c   9.51907643
_cell_angle_alpha   89.96016841
_cell_angle_beta   89.96016484
_cell_angle_gamma   119.84238201
_symmetry_Int_Tables_number   1
_chemical_formula_structural   Y4Ga18RuPt3Rh2
_chemical_formula_sum   'Y4 Ga18 Ru1 Pt3 Rh2'
_cell_volume   482.00131549
_cell_formula_units_Z   1
loop_
 _symmetry_equiv_pos_site_id
 _symmetry_equiv_pos_as_xyz
  1  'x, y, z'
loop_
 _atom_site_type_symbol
 _atom_site_label
 _atom_site_symmetry_multiplicity
 _atom_site_fract_x
 _atom_site_fract_y
 _atom_site_fract_z
 _atom_site_occupancy
  Y  Y0  1  0.997761  0.668553  0.250215  1
  Y  Y1  1  0.003352  0.332478  0.750081  1
  Y  Y2  1  0.667522  0.996648  0.249919  1
  Y  Y3  1  0.331447  0.002239  0.749785  1
  Ga  Ga4  1  0.333437  0.328042  0.564031  1
  Ga  Ga5  1  0.671958  0.666563  0.435969  1
  Ga  Ga6  1  0.670874  0.670995  0.068122  1
  Ga  Ga7  1  0.329005  0.329126  0.931878  1
  Ga  Ga8  1  0.338959  0.542420  0.250692  1
  Ga  Ga9  1  0.660159  0.452723  0.745679  1
  Ga  Ga10  1  0.547277  0.339841  0.254321  1
  Ga  Ga11  1  0.457580  0.661041  0.749308  1
  Ga  Ga12  1  0.000289  0.330427  0.081256  1
  Ga  Ga13  1  0.999484  0.670165  0.917879  1
  Ga  Ga14  1  0.994585  0.664036  0.578813  1
  Ga  Ga15  1  0.335964  0.005415  0.421187  1
  Ga  Ga16  1  0.994172  0.330248  0.421600  1
  Ga  Ga17  1  0.669752  0.005828  0.578400  1
  Ga  Ga18  1  0.669573  0.999711  0.918744  1
  Ga  Ga19  1  0.329835  0.000516  0.082121  1
  Ga  Ga20  1  0.123246  0.124785  0.250532  1
  Ga  Ga21  1  0.875215  0.876754  0.749468  1
  Ru  Ru22  1  0.671788  0.328212  0.500000  1
  Pt  Pt23  1  0.671345  0.328655  0.000000  1
  Pt  Pt24  1  0.328031  0.671969  0.000000  1
  Pt  Pt25  1  0.327312  0.672688  0.500000  1
  Rh  Rh26  1  0.000108  0.999892  0.000000  1
  Rh  Rh27  1  0.999968  0.000032  0.500000  1
