# generated using pymatgen
data_Tm6Lu5ScPb10
_symmetry_space_group_name_H-M   'P 1'
_cell_length_a   11.56359003
_cell_length_b   11.57843291
_cell_length_c   11.59175575
_cell_angle_alpha   147.41236090
_cell_angle_beta   132.59177726
_cell_angle_gamma   58.64603037
_symmetry_Int_Tables_number   1
_chemical_formula_structural   Tm6Lu5ScPb10
_chemical_formula_sum   'Tm6 Lu5 Sc1 Pb10'
_cell_volume   610.48450296
_cell_formula_units_Z   1
loop_
 _symmetry_equiv_pos_site_id
 _symmetry_equiv_pos_as_xyz
  1  'x, y, z'
loop_
 _atom_site_type_symbol
 _atom_site_label
 _atom_site_symmetry_multiplicity
 _atom_site_fract_x
 _atom_site_fract_y
 _atom_site_fract_z
 _atom_site_occupancy
  Tm  Tm0  1  0.694533  0.946142  0.248783  1
  Tm  Tm1  1  0.252299  0.639729  0.610369  1
  Tm  Tm2  1  0.676793  0.940335  0.735925  1
  Tm  Tm3  1  0.028223  0.140952  0.888925  1
  Tm  Tm4  1  0.971949  0.859634  0.112028  1
  Tm  Tm5  1  0.795181  0.560141  0.236980  1
  Lu  Lu6  1  0.208436  0.440974  0.768930  1
  Lu  Lu7  1  0.303057  0.053786  0.748944  1
  Lu  Lu8  1  0.323058  0.058723  0.263125  1
  Lu  Lu9  1  0.303505  0.554571  0.248725  1
  Lu  Lu10  1  0.748715  0.360253  0.389605  1
  Sc  Sc11  1  0.693477  0.444894  0.748852  1
  Pb  Pb12  1  0.478915  0.569160  0.895792  1
  Pb  Pb13  1  0.598292  0.786494  0.798351  1
  Pb  Pb14  1  0.672012  0.083635  0.603168  1
  Pb  Pb15  1  0.001912  0.746931  0.749329  1
  Pb  Pb16  1  0.986406  0.299612  0.698558  1
  Pb  Pb17  1  0.524611  0.423805  0.098903  1
  Pb  Pb18  1  0.007284  0.703247  0.298589  1
  Pb  Pb19  1  0.401764  0.208555  0.198878  1
  Pb  Pb20  1  0.328404  0.925956  0.403018  1
  Pb  Pb21  1  0.001176  0.252471  0.254221  1
