# generated using pymatgen
data_Gd6TcB14Os
_symmetry_space_group_name_H-M   'P 1'
_cell_length_a   3.54647100
_cell_length_b   8.15924492
_cell_length_c   9.38863000
_cell_angle_alpha   90.00000000
_cell_angle_beta   90.00000000
_cell_angle_gamma   102.55216793
_symmetry_Int_Tables_number   1
_chemical_formula_structural   Gd6TcB14Os
_chemical_formula_sum   'Gd6 Tc1 B14 Os1'
_cell_volume   265.18091636
_cell_formula_units_Z   1
loop_
 _symmetry_equiv_pos_site_id
 _symmetry_equiv_pos_as_xyz
  1  'x, y, z'
loop_
 _atom_site_type_symbol
 _atom_site_label
 _atom_site_symmetry_multiplicity
 _atom_site_fract_x
 _atom_site_fract_y
 _atom_site_fract_z
 _atom_site_occupancy
  Gd  Gd0  1  0.105588  0.211176  0.439307  1
  Gd  Gd1  1  0.894548  0.789094  0.562398  1
  Gd  Gd2  1  0.105588  0.211176  0.060693  1
  Gd  Gd3  1  0.894548  0.789094  0.937602  1
  Gd  Gd4  1  0.756215  0.512430  0.250000  1
  Gd  Gd5  1  0.243040  0.486081  0.750000  1
  Tc  Tc6  1  0.054246  0.108492  0.750000  1
  B  B7  1  0.273406  0.546813  0.466278  1
  B  B8  1  0.727302  0.454603  0.532226  1
  B  B9  1  0.273406  0.546813  0.033722  1
  B  B10  1  0.727302  0.454603  0.967774  1
  B  B11  1  0.367966  0.735931  0.151265  1
  B  B12  1  0.632361  0.264722  0.849149  1
  B  B13  1  0.367966  0.735931  0.348735  1
  B  B14  1  0.632361  0.264722  0.650851  1
  B  B15  1  0.478055  0.956107  0.096895  1
  B  B16  1  0.521777  0.043554  0.903789  1
  B  B17  1  0.478055  0.956107  0.403105  1
  B  B18  1  0.521777  0.043554  0.596211  1
  B  B19  1  0.540131  0.080263  0.250000  1
  B  B20  1  0.459506  0.919009  0.750000  1
  Os  Os21  1  0.944860  0.889719  0.250000  1
