# generated using pymatgen
data_Pr2Ir2I
_symmetry_space_group_name_H-M   'P 1'
_cell_length_a   4.34385500
_cell_length_b   4.34385581
_cell_length_c   17.62961300
_cell_angle_alpha   90.00000000
_cell_angle_beta   90.00000000
_cell_angle_gamma   119.99998624
_symmetry_Int_Tables_number   1
_chemical_formula_structural   Pr2Ir2I
_chemical_formula_sum   'Pr4 Ir4 I2'
_cell_volume   288.08735161
_cell_formula_units_Z   2
loop_
 _symmetry_equiv_pos_site_id
 _symmetry_equiv_pos_as_xyz
  1  'x, y, z'
loop_
 _atom_site_type_symbol
 _atom_site_label
 _atom_site_symmetry_multiplicity
 _atom_site_fract_x
 _atom_site_fract_y
 _atom_site_fract_z
 _atom_site_occupancy
  Pr  Pr0  1  0.000000  0.000000  0.106740  1
  Pr  Pr1  1  0.000000  0.000000  0.893260  1
  Pr  Pr2  1  0.000000  0.000000  0.606740  1
  Pr  Pr3  1  0.000000  0.000000  0.393260  1
  Ir  Ir4  1  0.333333  0.666667  0.501596  1
  Ir  Ir5  1  0.666667  0.333333  0.498404  1
  Ir  Ir6  1  0.666667  0.333333  0.001596  1
  Ir  Ir7  1  0.333333  0.666667  0.998404  1
  I  I8  1  0.333333  0.666667  0.250000  1
  I  I9  1  0.666667  0.333333  0.750000  1
