# generated using pymatgen
data_Ho7Er3Si16Pt
_symmetry_space_group_name_H-M   'P 1'
_cell_length_a   11.07071335
_cell_length_b   11.08494879
_cell_length_c   11.06995169
_cell_angle_alpha   144.75233877
_cell_angle_beta   136.54576429
_cell_angle_gamma   57.10051329
_symmetry_Int_Tables_number   1
_chemical_formula_structural   Ho7Er3Si16Pt
_chemical_formula_sum   'Ho7 Er3 Si16 Pt1'
_cell_volume   534.97575979
_cell_formula_units_Z   1
loop_
 _symmetry_equiv_pos_site_id
 _symmetry_equiv_pos_as_xyz
  1  'x, y, z'
loop_
 _atom_site_type_symbol
 _atom_site_label
 _atom_site_symmetry_multiplicity
 _atom_site_fract_x
 _atom_site_fract_y
 _atom_site_fract_z
 _atom_site_occupancy
  Ho  Ho0  1  0.451503  0.963212  0.014407  1
  Ho  Ho1  1  0.645678  0.165967  0.014576  1
  Ho  Ho2  1  0.948882  0.963276  0.511727  1
  Ho  Ho3  1  0.849431  0.371995  0.019643  1
  Ho  Ho4  1  0.548546  0.563867  0.512229  1
  Ho  Ho5  1  0.248687  0.762607  0.010300  1
  Ho  Ho6  1  0.752319  0.762620  0.513930  1
  Er  Er7  1  0.051641  0.563763  0.015258  1
  Er  Er8  1  0.352255  0.372031  0.522557  1
  Er  Er9  1  0.151212  0.166147  0.520315  1
  Si  Si10  1  0.117983  0.077242  0.959668  1
  Si  Si11  1  0.798053  0.185450  0.387847  1
  Si  Si12  1  0.299946  0.899088  0.598604  1
  Si  Si13  1  0.399537  0.500553  0.100330  1
  Si  Si14  1  0.886748  0.847352  0.961408  1
  Si  Si15  1  0.104289  0.708801  0.604789  1
  Si  Si16  1  0.200466  0.585957  0.385514  1
  Si  Si17  1  0.697259  0.293235  0.595919  1
  Si  Si18  1  0.000483  0.432989  0.433058  1
  Si  Si19  1  0.713410  0.665457  0.952293  1
  Si  Si20  1  0.600281  0.702957  0.102323  1
  Si  Si21  1  0.001485  0.087595  0.086492  1
  Si  Si22  1  0.500591  0.392353  0.890953  1
  Si  Si23  1  0.285858  0.241613  0.955132  1
  Si  Si24  1  0.582359  0.041551  0.458763  1
  Si  Si25  1  0.414104  0.869732  0.455058  1
  Pt  Pt26  1  0.896993  0.501510  0.605824  1
