# generated using pymatgen
data_Ce4TiSi3
_symmetry_space_group_name_H-M   'P 1'
_cell_length_a   5.54563454
_cell_length_b   8.44722289
_cell_length_c   8.44722315
_cell_angle_alpha   83.80759870
_cell_angle_beta   70.83835561
_cell_angle_gamma   70.83837000
_symmetry_Int_Tables_number   1
_chemical_formula_structural   Ce4TiSi3
_chemical_formula_sum   'Ce8 Ti2 Si6'
_cell_volume   353.07884031
_cell_formula_units_Z   2
loop_
 _symmetry_equiv_pos_site_id
 _symmetry_equiv_pos_as_xyz
  1  'x, y, z'
loop_
 _atom_site_type_symbol
 _atom_site_label
 _atom_site_symmetry_multiplicity
 _atom_site_fract_x
 _atom_site_fract_y
 _atom_site_fract_z
 _atom_site_occupancy
  Ce  Ce0  1  0.095365  0.133080  0.676083  1
  Ce  Ce1  1  0.904635  0.866920  0.323917  1
  Ce  Ce2  1  0.771421  0.323707  0.133155  1
  Ce  Ce3  1  0.404635  0.323917  0.866920  1
  Ce  Ce4  1  0.228579  0.676293  0.866845  1
  Ce  Ce5  1  0.595365  0.676083  0.133080  1
  Ce  Ce6  1  0.728579  0.866845  0.676293  1
  Ce  Ce7  1  0.271421  0.133155  0.323707  1
  Ti  Ti8  1  0.250000  0.499915  0.500085  1
  Ti  Ti9  1  0.750000  0.500085  0.499915  1
  Si  Si10  1  0.143178  0.499996  0.213679  1
  Si  Si11  1  0.856822  0.500004  0.786321  1
  Si  Si12  1  0.356822  0.786321  0.500004  1
  Si  Si13  1  0.643178  0.213679  0.499996  1
  Si  Si14  1  0.250000  0.999935  0.000065  1
  Si  Si15  1  0.750000  0.000065  0.999935  1
