# generated using pymatgen
data_Sr2NdCd(Ir2O7)2
_symmetry_space_group_name_H-M   'P 1'
_cell_length_a   7.41862550
_cell_length_b   7.33478853
_cell_length_c   7.45505982
_cell_angle_alpha   59.50615911
_cell_angle_beta   60.16153685
_cell_angle_gamma   59.62116727
_symmetry_Int_Tables_number   1
_chemical_formula_structural   Sr2NdCd(Ir2O7)2
_chemical_formula_sum   'Sr2 Nd1 Cd1 Ir4 O14'
_cell_volume   285.27950824
_cell_formula_units_Z   1
loop_
 _symmetry_equiv_pos_site_id
 _symmetry_equiv_pos_as_xyz
  1  'x, y, z'
loop_
 _atom_site_type_symbol
 _atom_site_label
 _atom_site_symmetry_multiplicity
 _atom_site_fract_x
 _atom_site_fract_y
 _atom_site_fract_z
 _atom_site_occupancy
  Sr  Sr0  1  0.625000  0.125000  0.125000  1
  Sr  Sr1  1  0.125000  0.125000  0.125000  1
  Nd  Nd2  1  0.125000  0.125000  0.625000  1
  Cd  Cd3  1  0.125000  0.625000  0.125000  1
  Ir  Ir4  1  0.125000  0.625000  0.625000  1
  Ir  Ir5  1  0.625000  0.125000  0.625000  1
  Ir  Ir6  1  0.625000  0.625000  0.125000  1
  Ir  Ir7  1  0.625000  0.625000  0.625000  1
  O  O8  1  0.696841  0.689713  0.307823  1
  O  O9  1  0.298504  0.297048  0.695546  1
  O  O10  1  0.708901  0.297048  0.695546  1
  O  O11  1  0.305623  0.689713  0.307823  1
  O  O12  1  0.304597  0.700805  0.690001  1
  O  O13  1  0.697853  0.300261  0.304031  1
  O  O14  1  0.553159  0.560287  0.942177  1
  O  O15  1  0.951496  0.952952  0.554454  1
  O  O16  1  0.541099  0.952952  0.554454  1
  O  O17  1  0.944377  0.560287  0.942177  1
  O  O18  1  0.945403  0.549195  0.559999  1
  O  O19  1  0.552147  0.949739  0.945969  1
  O  O20  1  0.234788  0.276531  0.253894  1
  O  O21  1  0.015212  0.973469  0.996106  1
