# generated using pymatgen
data_Pr7Er(GeO5)4
_symmetry_space_group_name_H-M   'P 1'
_cell_length_a   8.44805246
_cell_length_b   8.48722260
_cell_length_c   11.01665537
_cell_angle_alpha   61.57196999
_cell_angle_beta   61.24539500
_cell_angle_gamma   49.86436686
_symmetry_Int_Tables_number   1
_chemical_formula_structural   Pr7Er(GeO5)4
_chemical_formula_sum   'Pr7 Er1 Ge4 O20'
_cell_volume   512.93988316
_cell_formula_units_Z   1
loop_
 _symmetry_equiv_pos_site_id
 _symmetry_equiv_pos_as_xyz
  1  'x, y, z'
loop_
 _atom_site_type_symbol
 _atom_site_label
 _atom_site_symmetry_multiplicity
 _atom_site_fract_x
 _atom_site_fract_y
 _atom_site_fract_z
 _atom_site_occupancy
  Pr  Pr0  1  0.715286  0.211538  0.966290  1
  Pr  Pr1  1  0.789797  0.273682  0.538474  1
  Pr  Pr2  1  0.276224  0.795188  0.035799  1
  Pr  Pr3  1  0.208596  0.718612  0.462927  1
  Pr  Pr4  1  0.989485  0.732259  0.836272  1
  Pr  Pr5  1  0.270086  0.020498  0.656735  1
  Pr  Pr6  1  0.003627  0.269633  0.169206  1
  Er  Er7  1  0.747947  0.972731  0.336513  1
  Ge  Ge8  1  0.776320  0.594044  0.687016  1
  Ge  Ge9  1  0.406181  0.225378  0.810465  1
  Ge  Ge10  1  0.230048  0.405041  0.305195  1
  Ge  Ge11  1  0.590066  0.779089  0.196130  1
  O  O12  1  0.769463  0.640027  0.059492  1
  O  O13  1  0.394136  0.219969  0.426343  1
  O  O14  1  0.224706  0.364768  0.946216  1
  O  O15  1  0.641415  0.781271  0.549565  1
  O  O16  1  0.592166  0.580994  0.359637  1
  O  O17  1  0.397799  0.426169  0.129573  1
  O  O18  1  0.408505  0.415047  0.643249  1
  O  O19  1  0.585836  0.589926  0.855286  1
  O  O20  1  0.954400  0.645127  0.675662  1
  O  O21  1  0.347848  0.051310  0.825785  1
  O  O22  1  0.055296  0.338410  0.331485  1
  O  O23  1  0.650925  0.949017  0.185858  1
  O  O24  1  0.882235  0.068823  0.399514  1
  O  O25  1  0.911049  0.105894  0.115031  1
  O  O26  1  0.112030  0.922150  0.602336  1
  O  O27  1  0.075666  0.898202  0.893385  1
  O  O28  1  0.086202  0.672136  0.321282  1
  O  O29  1  0.323198  0.910699  0.185346  1
  O  O30  1  0.909872  0.329937  0.673912  1
  O  O31  1  0.673588  0.092430  0.820020  1
