# generated using pymatgen
data_Y3AgSn3IrRh
_symmetry_space_group_name_H-M   'P 1'
_cell_length_a   7.71630800
_cell_length_b   7.71630822
_cell_length_c   3.86346200
_cell_angle_alpha   90.00000000
_cell_angle_beta   90.00000000
_cell_angle_gamma   119.99999908
_symmetry_Int_Tables_number   1
_chemical_formula_structural   Y3AgSn3IrRh
_chemical_formula_sum   'Y3 Ag1 Sn3 Ir1 Rh1'
_cell_volume   199.21700267
_cell_formula_units_Z   1
loop_
 _symmetry_equiv_pos_site_id
 _symmetry_equiv_pos_as_xyz
  1  'x, y, z'
loop_
 _atom_site_type_symbol
 _atom_site_label
 _atom_site_symmetry_multiplicity
 _atom_site_fract_x
 _atom_site_fract_y
 _atom_site_fract_z
 _atom_site_occupancy
  Y  Y0  1  0.411363  0.022832  0.500000  1
  Y  Y1  1  0.977168  0.388531  0.500000  1
  Y  Y2  1  0.611469  0.588637  0.500000  1
  Ag  Ag3  1  0.333333  0.666667  0.000000  1
  Sn  Sn4  1  0.740432  0.997292  0.000000  1
  Sn  Sn5  1  0.002708  0.743139  0.000000  1
  Sn  Sn6  1  0.256861  0.259568  0.000000  1
  Ir  Ir7  1  0.666667  0.333333  0.000000  1
  Rh  Rh8  1  0.000000  0.000000  0.500000  1
