# generated using pymatgen
data_LaPr6Ho9(CdPt)4
_symmetry_space_group_name_H-M   'P 1'
_cell_length_a   9.82212161
_cell_length_b   9.82212105
_cell_length_c   9.82212032
_cell_angle_alpha   60.27455967
_cell_angle_beta   60.27455995
_cell_angle_gamma   60.27456038
_symmetry_Int_Tables_number   1
_chemical_formula_structural   LaPr6Ho9(CdPt)4
_chemical_formula_sum   'La1 Pr6 Ho9 Cd4 Pt4'
_cell_volume   674.20386527
_cell_formula_units_Z   1
loop_
 _symmetry_equiv_pos_site_id
 _symmetry_equiv_pos_as_xyz
  1  'x, y, z'
loop_
 _atom_site_type_symbol
 _atom_site_label
 _atom_site_symmetry_multiplicity
 _atom_site_fract_x
 _atom_site_fract_y
 _atom_site_fract_z
 _atom_site_occupancy
  La  La0  1  0.350566  0.350566  0.350566  1
  Pr  Pr1  1  0.939077  0.561824  0.561824  1
  Pr  Pr2  1  0.560907  0.938275  0.938275  1
  Pr  Pr3  1  0.561824  0.939077  0.561824  1
  Pr  Pr4  1  0.938275  0.560907  0.938275  1
  Pr  Pr5  1  0.561824  0.561824  0.939077  1
  Pr  Pr6  1  0.938275  0.938275  0.560907  1
  Ho  Ho7  1  0.350778  0.350778  0.946860  1
  Ho  Ho8  1  0.350778  0.946860  0.350778  1
  Ho  Ho9  1  0.946860  0.350778  0.350778  1
  Ho  Ho10  1  0.815328  0.186569  0.186569  1
  Ho  Ho11  1  0.187653  0.812449  0.812449  1
  Ho  Ho12  1  0.186569  0.815328  0.186569  1
  Ho  Ho13  1  0.812449  0.187653  0.812449  1
  Ho  Ho14  1  0.186569  0.186569  0.815328  1
  Ho  Ho15  1  0.812449  0.812449  0.187653  1
  Cd  Cd16  1  0.579499  0.579499  0.579499  1
  Cd  Cd17  1  0.580937  0.580937  0.261511  1
  Cd  Cd18  1  0.580937  0.261511  0.580937  1
  Cd  Cd19  1  0.261511  0.580937  0.580937  1
  Pt  Pt20  1  0.143116  0.143116  0.143116  1
  Pt  Pt21  1  0.139587  0.139587  0.574643  1
  Pt  Pt22  1  0.139587  0.574643  0.139587  1
  Pt  Pt23  1  0.574643  0.139587  0.139587  1
