# generated using pymatgen
data_Ho3ZnSn3IrRu
_symmetry_space_group_name_H-M   'P 1'
_cell_length_a   7.61487300
_cell_length_b   7.61487185
_cell_length_c   3.87587100
_cell_angle_alpha   90.00000000
_cell_angle_beta   90.00000000
_cell_angle_gamma   119.99999950
_symmetry_Int_Tables_number   1
_chemical_formula_structural   Ho3ZnSn3IrRu
_chemical_formula_sum   'Ho3 Zn1 Sn3 Ir1 Ru1'
_cell_volume   194.63691458
_cell_formula_units_Z   1
loop_
 _symmetry_equiv_pos_site_id
 _symmetry_equiv_pos_as_xyz
  1  'x, y, z'
loop_
 _atom_site_type_symbol
 _atom_site_label
 _atom_site_symmetry_multiplicity
 _atom_site_fract_x
 _atom_site_fract_y
 _atom_site_fract_z
 _atom_site_occupancy
  Ho  Ho0  1  0.390464  0.410602  0.500000  1
  Ho  Ho1  1  0.589398  0.979862  0.500000  1
  Ho  Ho2  1  0.020138  0.609536  0.500000  1
  Zn  Zn3  1  0.666667  0.333333  0.000000  1
  Sn  Sn4  1  0.742340  0.738559  0.000000  1
  Sn  Sn5  1  0.261441  0.003782  0.000000  1
  Sn  Sn6  1  0.996218  0.257660  0.000000  1
  Ir  Ir7  1  0.333333  0.666667  0.000000  1
  Ru  Ru8  1  0.000000  0.000000  0.500000  1
