# generated using pymatgen
data_La3GdSi2(SeO4)2
_symmetry_space_group_name_H-M   'P 1'
_cell_length_a   6.35593429
_cell_length_b   7.28666144
_cell_length_c   11.08474600
_cell_angle_alpha   90.00000000
_cell_angle_beta   90.00000000
_cell_angle_gamma   89.68151914
_symmetry_Int_Tables_number   1
_chemical_formula_structural   La3GdSi2(SeO4)2
_chemical_formula_sum   'La6 Gd2 Si4 Se4 O16'
_cell_volume   513.36591076
_cell_formula_units_Z   2
loop_
 _symmetry_equiv_pos_site_id
 _symmetry_equiv_pos_as_xyz
  1  'x, y, z'
loop_
 _atom_site_type_symbol
 _atom_site_label
 _atom_site_symmetry_multiplicity
 _atom_site_fract_x
 _atom_site_fract_y
 _atom_site_fract_z
 _atom_site_occupancy
  La  La0  1  0.607102  0.249539  0.998526  1
  La  La1  1  0.392898  0.750459  0.498526  1
  La  La2  1  0.392898  0.750459  0.001474  1
  La  La3  1  0.607102  0.249539  0.501474  1
  La  La4  1  0.121332  0.462535  0.750000  1
  La  La5  1  0.878669  0.537465  0.250000  1
  Gd  Gd6  1  0.137371  0.040230  0.250000  1
  Gd  Gd7  1  0.862630  0.959771  0.750000  1
  Si  Si8  1  0.111249  0.243461  0.999978  1
  Si  Si9  1  0.888753  0.756537  0.499978  1
  Si  Si10  1  0.888753  0.756537  0.000022  1
  Si  Si11  1  0.111249  0.243461  0.500022  1
  Se  Se12  1  0.416071  0.401117  0.250000  1
  Se  Se13  1  0.583931  0.598883  0.750000  1
  Se  Se14  1  0.431994  0.102255  0.750000  1
  Se  Se15  1  0.568008  0.897746  0.250000  1
  O  O16  1  0.273798  0.075949  0.035905  1
  O  O17  1  0.726201  0.924049  0.535904  1
  O  O18  1  0.258842  0.421932  0.966470  1
  O  O19  1  0.741157  0.578069  0.466470  1
  O  O20  1  0.726201  0.924049  0.964095  1
  O  O21  1  0.273798  0.075949  0.464095  1
  O  O22  1  0.741157  0.578069  0.033530  1
  O  O23  1  0.258842  0.421932  0.533529  1
  O  O24  1  0.044202  0.780482  0.118892  1
  O  O25  1  0.955799  0.219519  0.618892  1
  O  O26  1  0.046917  0.742934  0.881503  1
  O  O27  1  0.953084  0.257067  0.381502  1
  O  O28  1  0.955799  0.219519  0.881109  1
  O  O29  1  0.044202  0.780482  0.381108  1
  O  O30  1  0.953084  0.257067  0.118498  1
  O  O31  1  0.046917  0.742934  0.618498  1
