# generated using pymatgen
data_ScU2Fe2(Ni3B)6
_symmetry_space_group_name_H-M   'P 1'
_cell_length_a   7.52956562
_cell_length_b   7.61501760
_cell_length_c   7.61501800
_cell_angle_alpha   59.99999825
_cell_angle_beta   59.62386551
_cell_angle_gamma   59.62387195
_symmetry_Int_Tables_number   1
_chemical_formula_structural   ScU2Fe2(Ni3B)6
_chemical_formula_sum   'Sc1 U2 Fe2 Ni18 B6'
_cell_volume   306.97581811
_cell_formula_units_Z   1
loop_
 _symmetry_equiv_pos_site_id
 _symmetry_equiv_pos_as_xyz
  1  'x, y, z'
loop_
 _atom_site_type_symbol
 _atom_site_label
 _atom_site_symmetry_multiplicity
 _atom_site_fract_x
 _atom_site_fract_y
 _atom_site_fract_z
 _atom_site_occupancy
  Sc  Sc0  1  0.000000  0.000000  0.000000  1
  U  U1  1  0.236507  0.254498  0.254498  1
  U  U2  1  0.763493  0.745502  0.745502  1
  Fe  Fe3  1  0.880558  0.373147  0.373147  1
  Fe  Fe4  1  0.119442  0.626853  0.626853  1
  Ni  Ni5  1  0.349295  0.996306  0.996306  1
  Ni  Ni6  1  0.650705  0.003694  0.003694  1
  Ni  Ni7  1  0.000000  0.341818  0.658182  1
  Ni  Ni8  1  0.000000  0.658182  0.341818  1
  Ni  Ni9  1  0.000000  0.341818  0.000000  1
  Ni  Ni10  1  0.650705  0.003694  0.341906  1
  Ni  Ni11  1  0.000000  0.658182  0.000000  1
  Ni  Ni12  1  0.349295  0.996306  0.658094  1
  Ni  Ni13  1  0.000000  0.000000  0.341818  1
  Ni  Ni14  1  0.000000  0.000000  0.658182  1
  Ni  Ni15  1  0.650705  0.341906  0.003694  1
  Ni  Ni16  1  0.349295  0.658094  0.996306  1
  Ni  Ni17  1  0.382043  0.389705  0.389705  1
  Ni  Ni18  1  0.617957  0.610295  0.610295  1
  Ni  Ni19  1  0.382043  0.389705  0.838549  1
  Ni  Ni20  1  0.382043  0.838549  0.389705  1
  Ni  Ni21  1  0.617957  0.610295  0.161451  1
  Ni  Ni22  1  0.617957  0.161451  0.610295  1
  B  B23  1  0.732893  0.265167  0.265167  1
  B  B24  1  0.267107  0.734833  0.734833  1
  B  B25  1  0.267107  0.734833  0.263228  1
  B  B26  1  0.732893  0.265167  0.736772  1
  B  B27  1  0.267107  0.263228  0.734833  1
  B  B28  1  0.732893  0.736772  0.265167  1
