# generated using pymatgen
data_Dy17Er2Tm(CoBi2)4
_symmetry_space_group_name_H-M   'P 1'
_cell_length_a   8.00221649
_cell_length_b   8.87786551
_cell_length_c   12.42455172
_cell_angle_alpha   89.94188899
_cell_angle_beta   89.99034234
_cell_angle_gamma   89.99697419
_symmetry_Int_Tables_number   1
_chemical_formula_structural   Dy17Er2Tm(CoBi2)4
_chemical_formula_sum   'Dy17 Er2 Tm1 Co4 Bi8'
_cell_volume   882.67201207
_cell_formula_units_Z   1
loop_
 _symmetry_equiv_pos_site_id
 _symmetry_equiv_pos_as_xyz
  1  'x, y, z'
loop_
 _atom_site_type_symbol
 _atom_site_label
 _atom_site_symmetry_multiplicity
 _atom_site_fract_x
 _atom_site_fract_y
 _atom_site_fract_z
 _atom_site_occupancy
  Dy  Dy0  1  0.847994  0.750168  0.801423  1
  Dy  Dy1  1  0.152149  0.249947  0.198617  1
  Dy  Dy2  1  0.348042  0.249539  0.698566  1
  Dy  Dy3  1  0.651996  0.750409  0.301590  1
  Dy  Dy4  1  0.380952  0.750920  0.688459  1
  Dy  Dy5  1  0.619240  0.248887  0.311852  1
  Dy  Dy6  1  0.881945  0.249995  0.811275  1
  Dy  Dy7  1  0.119942  0.750253  0.188662  1
  Dy  Dy8  1  0.950213  0.751147  0.502546  1
  Dy  Dy9  1  0.049607  0.248870  0.497527  1
  Dy  Dy10  1  0.448672  0.249085  0.997477  1
  Dy  Dy11  1  0.547400  0.750580  0.002324  1
  Dy  Dy12  1  0.323759  0.535181  0.437055  1
  Dy  Dy13  1  0.824189  0.035449  0.063021  1
  Dy  Dy14  1  0.676447  0.464758  0.563114  1
  Dy  Dy15  1  0.823780  0.465002  0.062703  1
  Dy  Dy16  1  0.176353  0.535965  0.936540  1
  Er  Er17  1  0.674260  0.036413  0.563494  1
  Er  Er18  1  0.325731  0.964222  0.436827  1
  Tm  Tm19  1  0.172987  0.963635  0.936621  1
  Co  Co20  1  0.560815  0.751092  0.507621  1
  Co  Co21  1  0.439282  0.248901  0.492577  1
  Co  Co22  1  0.062759  0.249334  0.991952  1
  Co  Co23  1  0.940436  0.750871  0.007470  1
  Bi  Bi24  1  0.570780  0.491863  0.826187  1
  Bi  Bi25  1  0.429901  0.507674  0.174057  1
  Bi  Bi26  1  0.071020  0.508200  0.673414  1
  Bi  Bi27  1  0.429642  0.991964  0.174338  1
  Bi  Bi28  1  0.929415  0.491998  0.326224  1
  Bi  Bi29  1  0.569777  0.007968  0.826313  1
  Bi  Bi30  1  0.931167  0.007609  0.326085  1
  Bi  Bi31  1  0.069354  0.992102  0.674070  1
