# generated using pymatgen
data_PrYSn2Hg3Pb
_symmetry_space_group_name_H-M   'P 1'
_cell_length_a   4.82419800
_cell_length_b   4.72944600
_cell_length_c   9.22484100
_cell_angle_alpha   90.00000000
_cell_angle_beta   90.00000000
_cell_angle_gamma   90.00000000
_symmetry_Int_Tables_number   1
_chemical_formula_structural   PrYSn2Hg3Pb
_chemical_formula_sum   'Pr1 Y1 Sn2 Hg3 Pb1'
_cell_volume   210.47197908
_cell_formula_units_Z   1
loop_
 _symmetry_equiv_pos_site_id
 _symmetry_equiv_pos_as_xyz
  1  'x, y, z'
loop_
 _atom_site_type_symbol
 _atom_site_label
 _atom_site_symmetry_multiplicity
 _atom_site_fract_x
 _atom_site_fract_y
 _atom_site_fract_z
 _atom_site_occupancy
  Pr  Pr0  1  0.000000  0.000000  0.991061  1
  Y  Y1  1  0.000000  0.000000  0.509328  1
  Sn  Sn2  1  0.500000  0.000000  0.742791  1
  Sn  Sn3  1  0.000000  0.500000  0.744359  1
  Hg  Hg4  1  0.500000  0.500000  0.997457  1
  Hg  Hg5  1  0.500000  0.500000  0.502166  1
  Hg  Hg6  1  0.500000  0.000000  0.256609  1
  Pb  Pb7  1  0.000000  0.500000  0.256230  1
