# generated using pymatgen
data_Nb6V6Si9Ge
_symmetry_space_group_name_H-M   'P 1'
_cell_length_a   4.99155680
_cell_length_b   7.80336651
_cell_length_c   9.41272038
_cell_angle_alpha   65.16770631
_cell_angle_beta   74.62415953
_cell_angle_gamma   89.99999224
_symmetry_Int_Tables_number   1
_chemical_formula_structural   Nb6V6Si9Ge
_chemical_formula_sum   'Nb6 V6 Si9 Ge1'
_cell_volume   318.21799243
_cell_formula_units_Z   1
loop_
 _symmetry_equiv_pos_site_id
 _symmetry_equiv_pos_as_xyz
  1  'x, y, z'
loop_
 _atom_site_type_symbol
 _atom_site_label
 _atom_site_symmetry_multiplicity
 _atom_site_fract_x
 _atom_site_fract_y
 _atom_site_fract_z
 _atom_site_occupancy
  Nb  Nb0  1  0.356163  0.743420  0.287676  1
  Nb  Nb1  1  0.643321  0.258267  0.713357  1
  Nb  Nb2  1  0.143262  0.025552  0.713475  1
  Nb  Nb3  1  0.856690  0.974517  0.286620  1
  Nb  Nb4  1  0.063824  0.319600  0.872350  1
  Nb  Nb5  1  0.936349  0.682031  0.127303  1
  V  V6  1  0.941325  0.691893  0.617806  1
  V  V7  1  0.559676  0.305676  0.384680  1
  V  V8  1  0.055644  0.305676  0.384680  1
  V  V9  1  0.440868  0.691893  0.617806  1
  V  V10  1  0.438064  0.189171  0.123871  1
  V  V11  1  0.563903  0.811876  0.872194  1
  Si  Si12  1  0.565587  0.484094  0.868826  1
  Si  Si13  1  0.067444  0.653049  0.865113  1
  Si  Si14  1  0.932319  0.345778  0.135360  1
  Si  Si15  1  0.257080  0.000148  0.999740  1
  Si  Si16  1  0.743180  0.000148  0.999740  1
  Si  Si17  1  0.217145  0.422028  0.565711  1
  Si  Si18  1  0.782804  0.577831  0.434391  1
  Si  Si19  1  0.287198  0.992909  0.425604  1
  Si  Si20  1  0.712746  0.007325  0.574509  1
  Ge  Ge21  1  0.435407  0.517120  0.129187  1
