# generated using pymatgen
data_Rb3SrZr6BBr18
_symmetry_space_group_name_H-M   'P 1'
_cell_length_a   10.49401301
_cell_length_b   10.63344699
_cell_length_c   10.75458196
_cell_angle_alpha   118.29161679
_cell_angle_beta   100.64002846
_cell_angle_gamma   103.82353970
_symmetry_Int_Tables_number   1
_chemical_formula_structural   Rb3SrZr6BBr18
_chemical_formula_sum   'Rb3 Sr1 Zr6 B1 Br18'
_cell_volume   961.83344292
_cell_formula_units_Z   1
loop_
 _symmetry_equiv_pos_site_id
 _symmetry_equiv_pos_as_xyz
  1  'x, y, z'
loop_
 _atom_site_type_symbol
 _atom_site_label
 _atom_site_symmetry_multiplicity
 _atom_site_fract_x
 _atom_site_fract_y
 _atom_site_fract_z
 _atom_site_occupancy
  Rb  Rb0  1  0.839465  0.960798  0.769919  1
  Rb  Rb1  1  0.158123  0.036640  0.230566  1
  Rb  Rb2  1  0.800932  0.267568  0.430977  1
  Sr  Sr3  1  0.183194  0.729975  0.571531  1
  Zr  Zr4  1  0.350521  0.450667  0.776926  1
  Zr  Zr5  1  0.366252  0.619392  0.133459  1
  Zr  Zr6  1  0.642606  0.736729  0.046317  1
  Zr  Zr7  1  0.650851  0.552763  0.222914  1
  Zr  Zr8  1  0.357350  0.263555  0.950921  1
  Zr  Zr9  1  0.633402  0.375320  0.866118  1
  B  B10  1  0.500485  0.500099  0.999263  1
  Br  Br11  1  0.819439  0.416804  0.104495  1
  Br  Br12  1  0.522529  0.700615  0.412076  1
  Br  Br13  1  0.179912  0.960850  0.880217  1
  Br  Br14  1  0.177243  0.580342  0.897560  1
  Br  Br15  1  0.830746  0.833877  0.312182  1
  Br  Br16  1  0.505635  0.292730  0.207004  1
  Br  Br17  1  0.794700  0.227660  0.713205  1
  Br  Br18  1  0.166744  0.169555  0.684084  1
  Br  Br19  1  0.503772  0.907577  0.199765  1
  Br  Br20  1  0.814331  0.628628  0.901801  1
  Br  Br21  1  0.204766  0.769000  0.314418  1
  Br  Br22  1  0.166505  0.410791  0.502247  1
  Br  Br23  1  0.494023  0.711049  0.792703  1
  Br  Br24  1  0.823866  0.021774  0.102211  1
  Br  Br25  1  0.478023  0.298448  0.588580  1
  Br  Br26  1  0.182628  0.363930  0.093056  1
  Br  Br27  1  0.864592  0.629220  0.501671  1
  Br  Br28  1  0.487367  0.083645  0.793815  1
