# generated using pymatgen
data_Yb8Si12Pd3Au
_symmetry_space_group_name_H-M   'P 1'
_cell_length_a   8.26953400
_cell_length_b   8.26953268
_cell_length_c   8.35466500
_cell_angle_alpha   90.00000000
_cell_angle_beta   90.00000000
_cell_angle_gamma   120.00000527
_symmetry_Int_Tables_number   1
_chemical_formula_structural   Yb8Si12Pd3Au
_chemical_formula_sum   'Yb8 Si12 Pd3 Au1'
_cell_volume   494.79084366
_cell_formula_units_Z   1
loop_
 _symmetry_equiv_pos_site_id
 _symmetry_equiv_pos_as_xyz
  1  'x, y, z'
loop_
 _atom_site_type_symbol
 _atom_site_label
 _atom_site_symmetry_multiplicity
 _atom_site_fract_x
 _atom_site_fract_y
 _atom_site_fract_z
 _atom_site_occupancy
  Yb  Yb0  1  0.501737  0.003474  0.253504  1
  Yb  Yb1  1  0.500940  0.001881  0.746721  1
  Yb  Yb2  1  0.996526  0.498263  0.253504  1
  Yb  Yb3  1  0.998119  0.499060  0.746721  1
  Yb  Yb4  1  0.501737  0.498263  0.253504  1
  Yb  Yb5  1  0.500940  0.499060  0.746721  1
  Yb  Yb6  1  0.000000  0.000000  0.251579  1
  Yb  Yb7  1  0.000000  0.000000  0.747847  1
  Si  Si8  1  0.160816  0.321633  0.999572  1
  Si  Si9  1  0.833999  0.667999  0.999637  1
  Si  Si10  1  0.678367  0.839184  0.999572  1
  Si  Si11  1  0.835723  0.671448  0.501273  1
  Si  Si12  1  0.332001  0.166001  0.999637  1
  Si  Si13  1  0.164710  0.329420  0.498882  1
  Si  Si14  1  0.160816  0.839184  0.999572  1
  Si  Si15  1  0.328552  0.164277  0.501273  1
  Si  Si16  1  0.833999  0.166001  0.999637  1
  Si  Si17  1  0.670580  0.835290  0.498882  1
  Si  Si18  1  0.835723  0.164277  0.501273  1
  Si  Si19  1  0.164710  0.835290  0.498882  1
  Pd  Pd20  1  0.666667  0.333333  0.000795  1
  Pd  Pd21  1  0.666667  0.333333  0.500405  1
  Pd  Pd22  1  0.333333  0.666667  0.499287  1
  Au  Au23  1  0.333333  0.666667  0.001317  1
