# generated using pymatgen
data_CaSm3(Si5Os3)2
_symmetry_space_group_name_H-M   'P 1'
_cell_length_a   8.20564069
_cell_length_b   8.19686704
_cell_length_c   5.82891904
_cell_angle_alpha   70.49939193
_cell_angle_beta   70.34736366
_cell_angle_gamma   93.81532172
_symmetry_Int_Tables_number   1
_chemical_formula_structural   CaSm3(Si5Os3)2
_chemical_formula_sum   'Ca1 Sm3 Si10 Os6'
_cell_volume   340.90612490
_cell_formula_units_Z   1
loop_
 _symmetry_equiv_pos_site_id
 _symmetry_equiv_pos_as_xyz
  1  'x, y, z'
loop_
 _atom_site_type_symbol
 _atom_site_label
 _atom_site_symmetry_multiplicity
 _atom_site_fract_x
 _atom_site_fract_y
 _atom_site_fract_z
 _atom_site_occupancy
  Ca  Ca0  1  0.868063  0.602798  0.753888  1
  Sm  Sm1  1  0.397334  0.131753  0.746087  1
  Sm  Sm2  1  0.132011  0.398554  0.246830  1
  Sm  Sm3  1  0.603033  0.867012  0.253857  1
  Si  Si4  1  0.064681  0.260518  0.836413  1
  Si  Si5  1  0.738787  0.933992  0.666039  1
  Si  Si6  1  0.935545  0.739192  0.166954  1
  Si  Si7  1  0.262490  0.064325  0.334401  1
  Si  Si8  1  0.206406  0.790534  0.748247  1
  Si  Si9  1  0.789794  0.205994  0.256345  1
  Si  Si10  1  0.514688  0.490683  0.748059  1
  Si  Si11  1  0.488905  0.512077  0.246146  1
  Si  Si12  1  0.772141  0.226319  0.746807  1
  Si  Si13  1  0.225136  0.773848  0.253613  1
  Os  Os14  1  0.257156  0.540536  0.631228  1
  Os  Os15  1  0.455046  0.744179  0.870751  1
  Os  Os16  1  0.742309  0.459037  0.366874  1
  Os  Os17  1  0.544330  0.256273  0.128907  1
  Os  Os18  1  0.003610  0.998852  0.748862  1
  Os  Os19  1  0.998534  0.003524  0.249693  1
