# generated using pymatgen
data_Ti10ZnSi(Sn2Sb)2
_symmetry_space_group_name_H-M   'P 1'
_cell_length_a   8.24194927
_cell_length_b   8.22528217
_cell_length_c   5.54011541
_cell_angle_alpha   89.95451779
_cell_angle_beta   90.02269328
_cell_angle_gamma   119.93310825
_symmetry_Int_Tables_number   1
_chemical_formula_structural   Ti10ZnSi(Sn2Sb)2
_chemical_formula_sum   'Ti10 Zn1 Si1 Sn4 Sb2'
_cell_volume   325.47856261
_cell_formula_units_Z   1
loop_
 _symmetry_equiv_pos_site_id
 _symmetry_equiv_pos_as_xyz
  1  'x, y, z'
loop_
 _atom_site_type_symbol
 _atom_site_label
 _atom_site_symmetry_multiplicity
 _atom_site_fract_x
 _atom_site_fract_y
 _atom_site_fract_z
 _atom_site_occupancy
  Ti  Ti0  1  0.734313  0.735606  0.243408  1
  Ti  Ti1  1  0.734313  0.998707  0.756592  1
  Ti  Ti2  1  0.998598  0.262983  0.242728  1
  Ti  Ti3  1  0.998598  0.735614  0.757272  1
  Ti  Ti4  1  0.265203  0.265195  0.756521  1
  Ti  Ti5  1  0.265203  0.000008  0.243479  1
  Ti  Ti6  1  0.335948  0.667975  0.500000  1
  Ti  Ti7  1  0.666492  0.333245  0.000000  1
  Ti  Ti8  1  0.666324  0.333162  0.500000  1
  Ti  Ti9  1  0.335769  0.667885  0.000000  1
  Zn  Zn10  1  0.002198  0.001099  0.500000  1
  Si  Si11  1  0.001394  0.000697  0.000000  1
  Sn  Sn12  1  0.386977  0.999833  0.747520  1
  Sn  Sn13  1  0.386977  0.387144  0.252480  1
  Sn  Sn14  1  0.000920  0.611189  0.253485  1
  Sn  Sn15  1  0.000920  0.389731  0.746515  1
  Sb  Sb16  1  0.609926  0.608921  0.746841  1
  Sb  Sb17  1  0.609926  0.001006  0.253159  1
