# generated using pymatgen
data_Ho3Tm7Zn3Fe
_symmetry_space_group_name_H-M   'P 1'
_cell_length_a   9.22427100
_cell_length_b   9.22427073
_cell_length_c   9.44509300
_cell_angle_alpha   90.00000000
_cell_angle_beta   90.00000000
_cell_angle_gamma   119.99999736
_symmetry_Int_Tables_number   1
_chemical_formula_structural   Ho3Tm7Zn3Fe
_chemical_formula_sum   'Ho6 Tm14 Zn6 Fe2'
_cell_volume   695.98675766
_cell_formula_units_Z   2
loop_
 _symmetry_equiv_pos_site_id
 _symmetry_equiv_pos_as_xyz
  1  'x, y, z'
loop_
 _atom_site_type_symbol
 _atom_site_label
 _atom_site_symmetry_multiplicity
 _atom_site_fract_x
 _atom_site_fract_y
 _atom_site_fract_z
 _atom_site_occupancy
  Ho  Ho0  1  0.541083  0.458917  0.250000  1
  Ho  Ho1  1  0.541083  0.082167  0.250000  1
  Ho  Ho2  1  0.917833  0.458917  0.250000  1
  Ho  Ho3  1  0.458917  0.541083  0.750000  1
  Ho  Ho4  1  0.458917  0.917833  0.750000  1
  Ho  Ho5  1  0.082167  0.541083  0.750000  1
  Tm  Tm6  1  0.000000  0.000000  0.500000  1
  Tm  Tm7  1  0.000000  0.000000  0.000000  1
  Tm  Tm8  1  0.209932  0.790068  0.438115  1
  Tm  Tm9  1  0.209932  0.419865  0.438115  1
  Tm  Tm10  1  0.580135  0.790068  0.438115  1
  Tm  Tm11  1  0.790068  0.209932  0.561885  1
  Tm  Tm12  1  0.790068  0.580135  0.561885  1
  Tm  Tm13  1  0.419865  0.209932  0.561885  1
  Tm  Tm14  1  0.790068  0.209932  0.938115  1
  Tm  Tm15  1  0.790068  0.580135  0.938115  1
  Tm  Tm16  1  0.419865  0.209932  0.938115  1
  Tm  Tm17  1  0.209932  0.790068  0.061885  1
  Tm  Tm18  1  0.209932  0.419865  0.061885  1
  Tm  Tm19  1  0.580135  0.790068  0.061885  1
  Zn  Zn20  1  0.886927  0.113073  0.250000  1
  Zn  Zn21  1  0.886927  0.773855  0.250000  1
  Zn  Zn22  1  0.226145  0.113073  0.250000  1
  Zn  Zn23  1  0.113073  0.886927  0.750000  1
  Zn  Zn24  1  0.113073  0.226145  0.750000  1
  Zn  Zn25  1  0.773855  0.886927  0.750000  1
  Fe  Fe26  1  0.333333  0.666667  0.250000  1
  Fe  Fe27  1  0.666667  0.333333  0.750000  1
