# generated using pymatgen
data_Rb3Nb2SbSe11
_symmetry_space_group_name_H-M   'P 1'
_cell_length_a   10.47984136
_cell_length_b   10.47984035
_cell_length_c   10.22145805
_cell_angle_alpha   83.68606908
_cell_angle_beta   83.68606730
_cell_angle_gamma   83.15269725
_symmetry_Int_Tables_number   1
_chemical_formula_structural   Rb3Nb2SbSe11
_chemical_formula_sum   'Rb6 Nb4 Sb2 Se22'
_cell_volume   1102.47535425
_cell_formula_units_Z   2
loop_
 _symmetry_equiv_pos_site_id
 _symmetry_equiv_pos_as_xyz
  1  'x, y, z'
loop_
 _atom_site_type_symbol
 _atom_site_label
 _atom_site_symmetry_multiplicity
 _atom_site_fract_x
 _atom_site_fract_y
 _atom_site_fract_z
 _atom_site_occupancy
  Rb  Rb0  1  0.517543  0.356413  0.928911  1
  Rb  Rb1  1  0.984434  0.142038  0.020039  1
  Rb  Rb2  1  0.751304  0.886760  0.686025  1
  Rb  Rb3  1  0.356413  0.517543  0.428911  1
  Rb  Rb4  1  0.886760  0.751304  0.186025  1
  Rb  Rb5  1  0.142038  0.984434  0.520039  1
  Nb  Nb6  1  0.795705  0.249741  0.412026  1
  Nb  Nb7  1  0.249741  0.795705  0.912026  1
  Nb  Nb8  1  0.498513  0.908454  0.098731  1
  Nb  Nb9  1  0.908454  0.498513  0.598731  1
  Sb  Sb10  1  0.129687  0.449199  0.873391  1
  Sb  Sb11  1  0.449199  0.129687  0.373391  1
  Se  Se12  1  0.574970  0.665137  0.157893  1
  Se  Se13  1  0.399603  0.894795  0.711643  1
  Se  Se14  1  0.352407  0.020596  0.897863  1
  Se  Se15  1  0.287323  0.605194  0.753037  1
  Se  Se16  1  0.825415  0.235105  0.666591  1
  Se  Se17  1  0.892279  0.537722  0.853669  1
  Se  Se18  1  0.665137  0.574970  0.657893  1
  Se  Se19  1  0.537722  0.892279  0.353669  1
  Se  Se20  1  0.235105  0.825415  0.166591  1
  Se  Se21  1  0.037338  0.871951  0.855156  1
  Se  Se22  1  0.221161  0.610840  0.103633  1
  Se  Se23  1  0.679243  0.020047  0.014812  1
  Se  Se24  1  0.103970  0.316369  0.670739  1
  Se  Se25  1  0.727633  0.523472  0.436981  1
  Se  Se26  1  0.871951  0.037338  0.355156  1
  Se  Se27  1  0.523472  0.727633  0.936981  1
  Se  Se28  1  0.894795  0.399603  0.211643  1
  Se  Se29  1  0.610840  0.221161  0.603633  1
  Se  Se30  1  0.316369  0.103970  0.170739  1
  Se  Se31  1  0.020596  0.352407  0.397863  1
  Se  Se32  1  0.605194  0.287323  0.253037  1
  Se  Se33  1  0.020047  0.679243  0.514812  1
