# generated using pymatgen
data_Tb15Er5(Ir5Pt)2
_symmetry_space_group_name_H-M   'P 1'
_cell_length_a   10.95388975
_cell_length_b   10.95502516
_cell_length_c   6.34616708
_cell_angle_alpha   90.01725959
_cell_angle_beta   89.95527615
_cell_angle_gamma   89.99016356
_symmetry_Int_Tables_number   1
_chemical_formula_structural   Tb15Er5(Ir5Pt)2
_chemical_formula_sum   'Tb15 Er5 Ir10 Pt2'
_cell_volume   761.54064672
_cell_formula_units_Z   1
loop_
 _symmetry_equiv_pos_site_id
 _symmetry_equiv_pos_as_xyz
  1  'x, y, z'
loop_
 _atom_site_type_symbol
 _atom_site_label
 _atom_site_symmetry_multiplicity
 _atom_site_fract_x
 _atom_site_fract_y
 _atom_site_fract_z
 _atom_site_occupancy
  Tb  Tb0  1  0.290657  0.088249  0.375785  1
  Tb  Tb1  1  0.290782  0.911960  0.876004  1
  Tb  Tb2  1  0.706065  0.089757  0.874106  1
  Tb  Tb3  1  0.706063  0.910309  0.374129  1
  Tb  Tb4  1  0.584701  0.790389  0.878100  1
  Tb  Tb5  1  0.584711  0.209535  0.378140  1
  Tb  Tb6  1  0.411088  0.790864  0.377155  1
  Tb  Tb7  1  0.411082  0.209109  0.877265  1
  Tb  Tb8  1  0.209188  0.411554  0.622352  1
  Tb  Tb9  1  0.209275  0.587912  0.122451  1
  Tb  Tb10  1  0.790615  0.414485  0.122875  1
  Tb  Tb11  1  0.790385  0.585377  0.622717  1
  Tb  Tb12  1  0.913532  0.707668  0.126730  1
  Tb  Tb13  1  0.913722  0.292342  0.626579  1
  Tb  Tb14  1  0.091081  0.707541  0.622807  1
  Er  Er15  1  0.090969  0.293068  0.122376  1
  Er  Er16  1  0.002893  0.999793  0.500049  1
  Er  Er17  1  0.002960  0.000673  0.000199  1
  Er  Er18  1  0.499870  0.499571  0.999730  1
  Er  Er19  1  0.499823  0.500338  0.499994  1
  Ir  Ir20  1  0.151836  0.153286  0.751073  1
  Ir  Ir21  1  0.152069  0.847045  0.250164  1
  Ir  Ir22  1  0.654051  0.346561  0.749667  1
  Ir  Ir23  1  0.654077  0.653497  0.249641  1
  Ir  Ir24  1  0.346748  0.346874  0.249932  1
  Ir  Ir25  1  0.347270  0.653030  0.750245  1
  Ir  Ir26  1  0.500814  0.999851  0.122603  1
  Ir  Ir27  1  0.500830  0.000149  0.622749  1
  Ir  Ir28  1  0.999756  0.499641  0.877898  1
  Ir  Ir29  1  0.999760  0.499426  0.377200  1
  Pt  Pt30  1  0.846821  0.152909  0.249515  1
  Pt  Pt31  1  0.846507  0.847241  0.749767  1
