# generated using pymatgen
data_Zn2Ni3TeO8
_symmetry_space_group_name_H-M   'P 1'
_cell_length_a   6.16682406
_cell_length_b   6.16675738
_cell_length_c   6.16677649
_cell_angle_alpha   58.16783906
_cell_angle_beta   58.16846070
_cell_angle_gamma   58.16788079
_symmetry_Int_Tables_number   1
_chemical_formula_structural   Zn2Ni3TeO8
_chemical_formula_sum   'Zn2 Ni3 Te1 O8'
_cell_volume   158.86720534
_cell_formula_units_Z   1
loop_
 _symmetry_equiv_pos_site_id
 _symmetry_equiv_pos_as_xyz
  1  'x, y, z'
loop_
 _atom_site_type_symbol
 _atom_site_label
 _atom_site_symmetry_multiplicity
 _atom_site_fract_x
 _atom_site_fract_y
 _atom_site_fract_z
 _atom_site_occupancy
  Zn  Zn0  1  0.142376  0.142397  0.142391  1
  Zn  Zn1  1  0.857589  0.857607  0.857617  1
  Ni  Ni2  1  0.999999  0.500063  0.500064  1
  Ni  Ni3  1  0.500124  0.999993  0.500070  1
  Ni  Ni4  1  0.500107  0.500062  0.000015  1
  Te  Te5  1  0.499968  0.499940  0.499922  1
  O  O6  1  0.267438  0.267439  0.267436  1
  O  O7  1  0.270712  0.270715  0.725688  1
  O  O8  1  0.270702  0.725705  0.270708  1
  O  O9  1  0.725683  0.270717  0.270706  1
  O  O10  1  0.274251  0.729255  0.729238  1
  O  O11  1  0.729228  0.274279  0.729245  1
  O  O12  1  0.729233  0.729241  0.274289  1
  O  O13  1  0.732589  0.732583  0.732611  1
