# generated using pymatgen
data_YHo5Mn2(Co4P3)4
_symmetry_space_group_name_H-M   'P 1'
_cell_length_a   3.67821300
_cell_length_b   10.51198900
_cell_length_c   12.16623700
_cell_angle_alpha   90.00000000
_cell_angle_beta   90.00000000
_cell_angle_gamma   90.00000000
_symmetry_Int_Tables_number   1
_chemical_formula_structural   YHo5Mn2(Co4P3)4
_chemical_formula_sum   'Y1 Ho5 Mn2 Co16 P12'
_cell_volume   470.41162438
_cell_formula_units_Z   1
loop_
 _symmetry_equiv_pos_site_id
 _symmetry_equiv_pos_as_xyz
  1  'x, y, z'
loop_
 _atom_site_type_symbol
 _atom_site_label
 _atom_site_symmetry_multiplicity
 _atom_site_fract_x
 _atom_site_fract_y
 _atom_site_fract_z
 _atom_site_occupancy
  Y  Y0  1  0.500000  0.000000  0.477457  1
  Ho  Ho1  1  0.000000  0.500000  0.522762  1
  Ho  Ho2  1  0.500000  0.817872  0.205072  1
  Ho  Ho3  1  0.500000  0.182128  0.205072  1
  Ho  Ho4  1  0.000000  0.681959  0.794749  1
  Ho  Ho5  1  0.000000  0.318041  0.794749  1
  Mn  Mn6  1  0.500000  0.500000  0.158657  1
  Mn  Mn7  1  0.000000  0.000000  0.841486  1
  Co  Co8  1  0.500000  0.500000  0.702688  1
  Co  Co9  1  0.000000  0.000000  0.296740  1
  Co  Co10  1  0.000000  0.500000  0.986013  1
  Co  Co11  1  0.500000  0.000000  0.013966  1
  Co  Co12  1  0.500000  0.333019  0.993725  1
  Co  Co13  1  0.500000  0.666981  0.993725  1
  Co  Co14  1  0.000000  0.166917  0.006268  1
  Co  Co15  1  0.000000  0.833083  0.006268  1
  Co  Co16  1  0.500000  0.296878  0.430491  1
  Co  Co17  1  0.500000  0.703122  0.430491  1
  Co  Co18  1  0.000000  0.203651  0.569662  1
  Co  Co19  1  0.000000  0.796349  0.569662  1
  Co  Co20  1  0.500000  0.879312  0.709448  1
  Co  Co21  1  0.500000  0.120688  0.709448  1
  Co  Co22  1  0.000000  0.620514  0.290671  1
  Co  Co23  1  0.000000  0.379486  0.290671  1
  P  P24  1  0.500000  0.500000  0.882367  1
  P  P25  1  0.000000  0.000000  0.117383  1
  P  P26  1  0.500000  0.500000  0.345130  1
  P  P27  1  0.000000  0.000000  0.655408  1
  P  P28  1  0.500000  0.311398  0.616291  1
  P  P29  1  0.500000  0.688602  0.616291  1
  P  P30  1  0.000000  0.189100  0.383538  1
  P  P31  1  0.000000  0.810900  0.383538  1
  P  P32  1  0.500000  0.847358  0.892863  1
  P  P33  1  0.500000  0.152642  0.892863  1
  P  P34  1  0.000000  0.652643  0.107195  1
  P  P35  1  0.000000  0.347357  0.107195  1
