# generated using pymatgen
data_Ti8CrBi4P
_symmetry_space_group_name_H-M   'P 1'
_cell_length_a   7.84168762
_cell_length_b   7.84168814
_cell_length_c   7.84168868
_cell_angle_alpha   95.75125960
_cell_angle_beta   95.75125178
_cell_angle_gamma   143.09003508
_symmetry_Int_Tables_number   1
_chemical_formula_structural   Ti8CrBi4P
_chemical_formula_sum   'Ti8 Cr1 Bi4 P1'
_cell_volume   274.69782122
_cell_formula_units_Z   1
loop_
 _symmetry_equiv_pos_site_id
 _symmetry_equiv_pos_as_xyz
  1  'x, y, z'
loop_
 _atom_site_type_symbol
 _atom_site_label
 _atom_site_symmetry_multiplicity
 _atom_site_fract_x
 _atom_site_fract_y
 _atom_site_fract_z
 _atom_site_occupancy
  Ti  Ti0  1  0.080615  0.193303  0.273938  1
  Ti  Ti1  1  0.919365  0.806677  0.726062  1
  Ti  Ti2  1  0.806677  0.080615  0.887311  1
  Ti  Ti3  1  0.419385  0.693323  0.112689  1
  Ti  Ti4  1  0.193303  0.919365  0.112689  1
  Ti  Ti5  1  0.580635  0.306697  0.887311  1
  Ti  Ti6  1  0.693323  0.580635  0.273938  1
  Ti  Ti7  1  0.306697  0.419385  0.726062  1
  Cr  Cr8  1  0.750000  0.750000  0.000000  1
  Bi  Bi9  1  0.138890  0.638890  0.777778  1
  Bi  Bi10  1  0.861110  0.361110  0.222222  1
  Bi  Bi11  1  0.361110  0.138890  0.500000  1
  Bi  Bi12  1  0.638890  0.861110  0.500000  1
  P  P13  1  0.250000  0.250000  0.000000  1
