# generated using pymatgen
data_DyHo6Pu3(SiB4)4
_symmetry_space_group_name_H-M   'P 1'
_cell_length_a   7.21650652
_cell_length_b   7.21650667
_cell_length_c   8.08406461
_cell_angle_alpha   89.98498063
_cell_angle_beta   89.98498306
_cell_angle_gamma   89.83879538
_symmetry_Int_Tables_number   1
_chemical_formula_structural   DyHo6Pu3(SiB4)4
_chemical_formula_sum   'Dy1 Ho6 Pu3 Si4 B16'
_cell_volume   420.99995823
_cell_formula_units_Z   1
loop_
 _symmetry_equiv_pos_site_id
 _symmetry_equiv_pos_as_xyz
  1  'x, y, z'
loop_
 _atom_site_type_symbol
 _atom_site_label
 _atom_site_symmetry_multiplicity
 _atom_site_fract_x
 _atom_site_fract_y
 _atom_site_fract_z
 _atom_site_occupancy
  Dy  Dy0  1  0.681684  0.181684  0.775182  1
  Ho  Ho1  1  0.818028  0.681524  0.222096  1
  Ho  Ho2  1  0.818299  0.681496  0.777950  1
  Ho  Ho3  1  0.181496  0.318299  0.777950  1
  Ho  Ho4  1  0.181524  0.318028  0.222096  1
  Ho  Ho5  1  0.004987  0.998029  0.498575  1
  Ho  Ho6  1  0.498029  0.504987  0.498575  1
  Pu  Pu7  1  0.683983  0.183983  0.229943  1
  Pu  Pu8  1  0.315960  0.815960  0.770479  1
  Pu  Pu9  1  0.316534  0.816534  0.229686  1
  Si  Si10  1  0.113152  0.613152  0.500406  1
  Si  Si11  1  0.882197  0.382197  0.497507  1
  Si  Si12  1  0.386845  0.117271  0.497665  1
  Si  Si13  1  0.617271  0.886845  0.497665  1
  B  B14  1  0.174031  0.038333  0.999796  1
  B  B15  1  0.826849  0.960934  0.000567  1
  B  B16  1  0.959673  0.172388  0.000134  1
  B  B17  1  0.326702  0.541134  0.999747  1
  B  B18  1  0.041134  0.826702  0.999747  1
  B  B19  1  0.672388  0.459673  0.000134  1
  B  B20  1  0.538333  0.674031  0.999796  1
  B  B21  1  0.460934  0.326849  0.000567  1
  B  B22  1  0.089893  0.589893  0.000078  1
  B  B23  1  0.909247  0.409247  0.001519  1
  B  B24  1  0.410544  0.089702  0.000819  1
  B  B25  1  0.589702  0.910544  0.000819  1
  B  B26  1  0.000008  0.999683  0.162063  1
  B  B27  1  0.001735  0.999155  0.838190  1
  B  B28  1  0.499155  0.501735  0.838190  1
  B  B29  1  0.499683  0.500008  0.162063  1
