# generated using pymatgen
data_La2Si3Pt
_symmetry_space_group_name_H-M   'P 1'
_cell_length_a   8.30234500
_cell_length_b   8.30234503
_cell_length_c   8.81794100
_cell_angle_alpha   90.00000000
_cell_angle_beta   90.00000000
_cell_angle_gamma   119.99999591
_symmetry_Int_Tables_number   1
_chemical_formula_structural   La2Si3Pt
_chemical_formula_sum   'La8 Si12 Pt4'
_cell_volume   526.38001519
_cell_formula_units_Z   4
loop_
 _symmetry_equiv_pos_site_id
 _symmetry_equiv_pos_as_xyz
  1  'x, y, z'
loop_
 _atom_site_type_symbol
 _atom_site_label
 _atom_site_symmetry_multiplicity
 _atom_site_fract_x
 _atom_site_fract_y
 _atom_site_fract_z
 _atom_site_occupancy
  La  La0  1  0.000000  0.000000  0.250000  1
  La  La1  1  0.000000  0.000000  0.750000  1
  La  La2  1  0.500983  0.499017  0.250000  1
  La  La3  1  0.500983  0.001968  0.250000  1
  La  La4  1  0.998032  0.499017  0.250000  1
  La  La5  1  0.499017  0.500983  0.750000  1
  La  La6  1  0.499017  0.998032  0.750000  1
  La  La7  1  0.001968  0.500983  0.750000  1
  Si  Si8  1  0.165509  0.834491  0.500837  1
  Si  Si9  1  0.165509  0.331019  0.500837  1
  Si  Si10  1  0.668981  0.834491  0.500837  1
  Si  Si11  1  0.834491  0.165509  0.499163  1
  Si  Si12  1  0.834491  0.668981  0.499163  1
  Si  Si13  1  0.331019  0.165509  0.499163  1
  Si  Si14  1  0.834491  0.165509  0.000837  1
  Si  Si15  1  0.834491  0.668981  0.000837  1
  Si  Si16  1  0.331019  0.165509  0.000837  1
  Si  Si17  1  0.165509  0.834491  0.999163  1
  Si  Si18  1  0.165509  0.331019  0.999163  1
  Si  Si19  1  0.668981  0.834491  0.999163  1
  Pt  Pt20  1  0.333333  0.666667  0.495846  1
  Pt  Pt21  1  0.666667  0.333333  0.504154  1
  Pt  Pt22  1  0.666667  0.333333  0.995846  1
  Pt  Pt23  1  0.333333  0.666667  0.004154  1
