# generated using pymatgen
data_Pr6Al19Si5Os8
_symmetry_space_group_name_H-M   'P 1'
_cell_length_a   8.80575200
_cell_length_b   8.80283025
_cell_length_c   9.73759000
_cell_angle_alpha   90.00000000
_cell_angle_beta   90.00000000
_cell_angle_gamma   120.01098011
_symmetry_Int_Tables_number   1
_chemical_formula_structural   Pr6Al19Si5Os8
_chemical_formula_sum   'Pr6 Al19 Si5 Os8'
_cell_volume   653.61623578
_cell_formula_units_Z   1
loop_
 _symmetry_equiv_pos_site_id
 _symmetry_equiv_pos_as_xyz
  1  'x, y, z'
loop_
 _atom_site_type_symbol
 _atom_site_label
 _atom_site_symmetry_multiplicity
 _atom_site_fract_x
 _atom_site_fract_y
 _atom_site_fract_z
 _atom_site_occupancy
  Pr  Pr0  1  0.192748  0.385496  0.250000  1
  Pr  Pr1  1  0.808065  0.616130  0.750000  1
  Pr  Pr2  1  0.613802  0.809417  0.250000  1
  Pr  Pr3  1  0.384877  0.191729  0.750000  1
  Pr  Pr4  1  0.195615  0.809417  0.250000  1
  Pr  Pr5  1  0.806851  0.191729  0.750000  1
  Al  Al6  1  0.164961  0.329921  0.574045  1
  Al  Al7  1  0.834505  0.669011  0.425882  1
  Al  Al8  1  0.668652  0.834254  0.573271  1
  Al  Al9  1  0.834505  0.669011  0.074118  1
  Al  Al10  1  0.330423  0.166642  0.426108  1
  Al  Al11  1  0.164961  0.329921  0.925955  1
  Al  Al12  1  0.165603  0.834254  0.573271  1
  Al  Al13  1  0.330423  0.166642  0.073892  1
  Al  Al14  1  0.836218  0.166642  0.426108  1
  Al  Al15  1  0.668652  0.834254  0.926729  1
  Al  Al16  1  0.836218  0.166642  0.073892  1
  Al  Al17  1  0.165603  0.834254  0.926729  1
  Al  Al18  1  0.435378  0.870756  0.750000  1
  Al  Al19  1  0.870443  0.432219  0.250000  1
  Al  Al20  1  0.129174  0.564433  0.750000  1
  Al  Al21  1  0.561776  0.432219  0.250000  1
  Al  Al22  1  0.435259  0.564433  0.750000  1
  Al  Al23  1  0.000398  0.000796  0.250000  1
  Al  Al24  1  0.000029  0.000057  0.750000  1
  Si  Si25  1  0.332830  0.665661  0.031141  1
  Si  Si26  1  0.667237  0.334473  0.967041  1
  Si  Si27  1  0.667237  0.334473  0.532959  1
  Si  Si28  1  0.332830  0.665661  0.468859  1
  Si  Si29  1  0.565033  0.130067  0.250000  1
  Os  Os30  1  0.501078  0.002156  0.005657  1
  Os  Os31  1  0.998855  0.499006  0.000433  1
  Os  Os32  1  0.501078  0.002156  0.494343  1
  Os  Os33  1  0.500151  0.499006  0.000433  1
  Os  Os34  1  0.998855  0.499006  0.499567  1
  Os  Os35  1  0.500151  0.499006  0.499567  1
  Os  Os36  1  0.999763  0.999527  0.999954  1
  Os  Os37  1  0.999763  0.999527  0.500046  1
