# generated using pymatgen
data_K7Sr(USe5)2
_symmetry_space_group_name_H-M   'P 1'
_cell_length_a   8.03112125
_cell_length_b   12.01829987
_cell_length_c   7.77175124
_cell_angle_alpha   102.01473330
_cell_angle_beta   100.47554556
_cell_angle_gamma   109.93379594
_symmetry_Int_Tables_number   1
_chemical_formula_structural   K7Sr(USe5)2
_chemical_formula_sum   'K7 Sr1 U2 Se10'
_cell_volume   663.16487870
_cell_formula_units_Z   1
loop_
 _symmetry_equiv_pos_site_id
 _symmetry_equiv_pos_as_xyz
  1  'x, y, z'
loop_
 _atom_site_type_symbol
 _atom_site_label
 _atom_site_symmetry_multiplicity
 _atom_site_fract_x
 _atom_site_fract_y
 _atom_site_fract_z
 _atom_site_occupancy
  K  K0  1  0.000131  0.500060  0.000084  1
  K  K1  1  0.417815  0.905187  0.205393  1
  K  K2  1  0.596397  0.595344  0.294724  1
  K  K3  1  0.792733  0.302002  0.418480  1
  K  K4  1  0.207405  0.698079  0.581386  1
  K  K5  1  0.403524  0.404656  0.705278  1
  K  K6  1  0.582333  0.095059  0.794810  1
  Sr  Sr7  1  0.000019  0.000031  0.500011  1
  U  U8  1  0.189697  0.195410  0.099857  1
  U  U9  1  0.809393  0.803644  0.899666  1
  Se  Se10  1  0.521576  0.313780  0.059794  1
  Se  Se11  1  0.842806  0.038348  0.126643  1
  Se  Se12  1  0.984579  0.768608  0.209370  1
  Se  Se13  1  0.179480  0.400727  0.307603  1
  Se  Se14  1  0.355364  0.149785  0.403478  1
  Se  Se15  1  0.644594  0.850561  0.595855  1
  Se  Se16  1  0.820700  0.598406  0.691624  1
  Se  Se17  1  0.016059  0.231564  0.791568  1
  Se  Se18  1  0.158280  0.962894  0.873896  1
  Se  Se19  1  0.477118  0.685852  0.940481  1
