# generated using pymatgen
data_Ti15VAs11Se
_symmetry_space_group_name_H-M   'P 1'
_cell_length_a   7.32657510
_cell_length_b   7.32657613
_cell_length_c   18.78189256
_cell_angle_alpha   90.13521303
_cell_angle_beta   89.86478639
_cell_angle_gamma   152.22589186
_symmetry_Int_Tables_number   1
_chemical_formula_structural   Ti15VAs11Se
_chemical_formula_sum   'Ti15 V1 As11 Se1'
_cell_volume   469.80085629
_cell_formula_units_Z   1
loop_
 _symmetry_equiv_pos_site_id
 _symmetry_equiv_pos_as_xyz
  1  'x, y, z'
loop_
 _atom_site_type_symbol
 _atom_site_label
 _atom_site_symmetry_multiplicity
 _atom_site_fract_x
 _atom_site_fract_y
 _atom_site_fract_z
 _atom_site_occupancy
  Ti  Ti0  1  0.000118  0.999882  0.000066  1
  Ti  Ti1  1  0.061347  0.938653  0.749043  1
  Ti  Ti2  1  0.937763  0.062237  0.250993  1
  Ti  Ti3  1  0.731943  0.268057  0.163344  1
  Ti  Ti4  1  0.266950  0.733050  0.837407  1
  Ti  Ti5  1  0.266918  0.733082  0.659322  1
  Ti  Ti6  1  0.732003  0.267997  0.340035  1
  Ti  Ti7  1  0.535517  0.464483  0.120525  1
  Ti  Ti8  1  0.464790  0.535210  0.880169  1
  Ti  Ti9  1  0.466342  0.533658  0.613567  1
  Ti  Ti10  1  0.534344  0.465656  0.385490  1
  Ti  Ti11  1  0.664982  0.335018  0.972855  1
  Ti  Ti12  1  0.335498  0.664502  0.026895  1
  Ti  Ti13  1  0.336411  0.663589  0.473185  1
  Ti  Ti14  1  0.663896  0.336104  0.527045  1
  V  V15  1  0.999965  0.000035  0.500078  1
  As  As16  1  0.579856  0.420144  0.252135  1
  As  As17  1  0.699833  0.300167  0.748637  1
  As  As18  1  0.298789  0.701211  0.251376  1
  As  As19  1  0.901892  0.098108  0.117229  1
  As  As20  1  0.098194  0.901806  0.882779  1
  As  As21  1  0.097897  0.902103  0.615612  1
  As  As22  1  0.902262  0.097738  0.384468  1
  As  As23  1  0.840593  0.159407  0.924401  1
  As  As24  1  0.159594  0.840406  0.075599  1
  As  As25  1  0.159298  0.840702  0.426458  1
  As  As26  1  0.840852  0.159148  0.573675  1
  Se  Se27  1  0.422153  0.577847  0.747612  1
