# generated using pymatgen
data_Tb2ZnSiI2
_symmetry_space_group_name_H-M   'P 1'
_cell_length_a   4.13924100
_cell_length_b   4.13924137
_cell_length_c   12.06460200
_cell_angle_alpha   90.00000000
_cell_angle_beta   90.00000000
_cell_angle_gamma   120.00000501
_symmetry_Int_Tables_number   1
_chemical_formula_structural   Tb2ZnSiI2
_chemical_formula_sum   'Tb2 Zn1 Si1 I2'
_cell_volume   179.01320771
_cell_formula_units_Z   1
loop_
 _symmetry_equiv_pos_site_id
 _symmetry_equiv_pos_as_xyz
  1  'x, y, z'
loop_
 _atom_site_type_symbol
 _atom_site_label
 _atom_site_symmetry_multiplicity
 _atom_site_fract_x
 _atom_site_fract_y
 _atom_site_fract_z
 _atom_site_occupancy
  Tb  Tb0  1  0.000000  0.000000  0.163575  1
  Tb  Tb1  1  0.000000  0.000000  0.834933  1
  Zn  Zn2  1  0.333333  0.666667  0.021811  1
  Si  Si3  1  0.666667  0.333333  0.980324  1
  I  I4  1  0.333333  0.666667  0.667281  1
  I  I5  1  0.666667  0.333333  0.332075  1
