# generated using pymatgen
data_Tb2Nd3Bi3Cl
_symmetry_space_group_name_H-M   'P 1'
_cell_length_a   9.49540100
_cell_length_b   9.49540120
_cell_length_c   6.60033900
_cell_angle_alpha   90.00000000
_cell_angle_beta   90.00000000
_cell_angle_gamma   119.99999583
_symmetry_Int_Tables_number   1
_chemical_formula_structural   Tb2Nd3Bi3Cl
_chemical_formula_sum   'Tb4 Nd6 Bi6 Cl2'
_cell_volume   515.37520562
_cell_formula_units_Z   2
loop_
 _symmetry_equiv_pos_site_id
 _symmetry_equiv_pos_as_xyz
  1  'x, y, z'
loop_
 _atom_site_type_symbol
 _atom_site_label
 _atom_site_symmetry_multiplicity
 _atom_site_fract_x
 _atom_site_fract_y
 _atom_site_fract_z
 _atom_site_occupancy
  Tb  Tb0  1  0.666667  0.333333  0.000000  1
  Tb  Tb1  1  0.333333  0.666667  0.000000  1
  Tb  Tb2  1  0.333333  0.666667  0.500000  1
  Tb  Tb3  1  0.666667  0.333333  0.500000  1
  Nd  Nd4  1  0.733327  0.733327  0.750000  1
  Nd  Nd5  1  0.266673  0.000000  0.750000  1
  Nd  Nd6  1  0.000000  0.266673  0.750000  1
  Nd  Nd7  1  0.266673  0.266673  0.250000  1
  Nd  Nd8  1  0.733327  0.000000  0.250000  1
  Nd  Nd9  1  0.000000  0.733327  0.250000  1
  Bi  Bi10  1  0.387966  0.387966  0.750000  1
  Bi  Bi11  1  0.612034  0.000000  0.750000  1
  Bi  Bi12  1  0.000000  0.612034  0.750000  1
  Bi  Bi13  1  0.612034  0.612034  0.250000  1
  Bi  Bi14  1  0.387966  0.000000  0.250000  1
  Bi  Bi15  1  0.000000  0.387966  0.250000  1
  Cl  Cl16  1  0.000000  0.000000  0.000000  1
  Cl  Cl17  1  0.000000  0.000000  0.500000  1
