# generated using pymatgen
data_Dy6ZrCo17P12
_symmetry_space_group_name_H-M   'P 1'
_cell_length_a   3.71419700
_cell_length_b   10.60322000
_cell_length_c   12.32362300
_cell_angle_alpha   90.00000000
_cell_angle_beta   90.00000000
_cell_angle_gamma   90.00000000
_symmetry_Int_Tables_number   1
_chemical_formula_structural   Dy6ZrCo17P12
_chemical_formula_sum   'Dy6 Zr1 Co17 P12'
_cell_volume   485.33444091
_cell_formula_units_Z   1
loop_
 _symmetry_equiv_pos_site_id
 _symmetry_equiv_pos_as_xyz
  1  'x, y, z'
loop_
 _atom_site_type_symbol
 _atom_site_label
 _atom_site_symmetry_multiplicity
 _atom_site_fract_x
 _atom_site_fract_y
 _atom_site_fract_z
 _atom_site_occupancy
  Dy  Dy0  1  0.000000  0.500000  0.528866  1
  Dy  Dy1  1  0.500000  0.000000  0.477990  1
  Dy  Dy2  1  0.500000  0.821337  0.207394  1
  Dy  Dy3  1  0.500000  0.178663  0.207394  1
  Dy  Dy4  1  0.000000  0.683022  0.795886  1
  Dy  Dy5  1  0.000000  0.316978  0.795886  1
  Zr  Zr6  1  0.500000  0.500000  0.154011  1
  Co  Co7  1  0.000000  0.000000  0.837378  1
  Co  Co8  1  0.500000  0.500000  0.702694  1
  Co  Co9  1  0.000000  0.000000  0.296462  1
  Co  Co10  1  0.000000  0.500000  0.982973  1
  Co  Co11  1  0.500000  0.000000  0.013493  1
  Co  Co12  1  0.500000  0.326983  0.988086  1
  Co  Co13  1  0.500000  0.673017  0.988086  1
  Co  Co14  1  0.000000  0.161410  0.001625  1
  Co  Co15  1  0.000000  0.838590  0.001625  1
  Co  Co16  1  0.500000  0.294295  0.434477  1
  Co  Co17  1  0.500000  0.705705  0.434477  1
  Co  Co18  1  0.000000  0.202005  0.570371  1
  Co  Co19  1  0.000000  0.797995  0.570371  1
  Co  Co20  1  0.500000  0.880345  0.707801  1
  Co  Co21  1  0.500000  0.119655  0.707801  1
  Co  Co22  1  0.000000  0.622763  0.297676  1
  Co  Co23  1  0.000000  0.377237  0.297676  1
  P  P24  1  0.500000  0.500000  0.881381  1
  P  P25  1  0.000000  0.000000  0.116469  1
  P  P26  1  0.500000  0.500000  0.361492  1
  P  P27  1  0.000000  0.000000  0.655402  1
  P  P28  1  0.500000  0.308774  0.617754  1
  P  P29  1  0.500000  0.691226  0.617754  1
  P  P30  1  0.000000  0.188506  0.386573  1
  P  P31  1  0.000000  0.811494  0.386573  1
  P  P32  1  0.500000  0.852317  0.888724  1
  P  P33  1  0.500000  0.147683  0.888724  1
  P  P34  1  0.000000  0.665135  0.099328  1
  P  P35  1  0.000000  0.334865  0.099328  1
