# generated using pymatgen
data_MnTc5Te8
_symmetry_space_group_name_H-M   'P 1'
_cell_length_a   7.06520627
_cell_length_b   7.12712397
_cell_length_c   7.04755359
_cell_angle_alpha   94.44233825
_cell_angle_beta   93.75585808
_cell_angle_gamma   93.31255220
_symmetry_Int_Tables_number   1
_chemical_formula_structural   MnTc5Te8
_chemical_formula_sum   'Mn1 Tc5 Te8'
_cell_volume   352.34534244
_cell_formula_units_Z   1
loop_
 _symmetry_equiv_pos_site_id
 _symmetry_equiv_pos_as_xyz
  1  'x, y, z'
loop_
 _atom_site_type_symbol
 _atom_site_label
 _atom_site_symmetry_multiplicity
 _atom_site_fract_x
 _atom_site_fract_y
 _atom_site_fract_z
 _atom_site_occupancy
  Mn  Mn0  1  0.957718  0.237356  0.085827  1
  Tc  Tc1  1  0.909857  0.045454  0.746309  1
  Tc  Tc2  1  0.745859  0.915900  0.048270  1
  Tc  Tc3  1  0.046451  0.747068  0.912786  1
  Tc  Tc4  1  0.086130  0.957548  0.254212  1
  Tc  Tc5  1  0.250443  0.086160  0.951179  1
  Te  Te6  1  0.710009  0.711126  0.708177  1
  Te  Te7  1  0.284352  0.291634  0.289948  1
  Te  Te8  1  0.774981  0.130247  0.383589  1
  Te  Te9  1  0.382375  0.771293  0.122982  1
  Te  Te10  1  0.120935  0.379986  0.767995  1
  Te  Te11  1  0.229889  0.873634  0.617036  1
  Te  Te12  1  0.618423  0.230402  0.889393  1
  Te  Te13  1  0.882580  0.622191  0.222295  1
