# generated using pymatgen
data_Dy8Al2PdPt
_symmetry_space_group_name_H-M   'P 1'
_cell_length_a   9.56628086
_cell_length_b   9.56628265
_cell_length_c   9.54248100
_cell_angle_alpha   60.08226742
_cell_angle_beta   60.08226124
_cell_angle_gamma   60.12790163
_symmetry_Int_Tables_number   1
_chemical_formula_structural   Dy8Al2PdPt
_chemical_formula_sum   'Dy16 Al4 Pd2 Pt2'
_cell_volume   618.85744330
_cell_formula_units_Z   2
loop_
 _symmetry_equiv_pos_site_id
 _symmetry_equiv_pos_as_xyz
  1  'x, y, z'
loop_
 _atom_site_type_symbol
 _atom_site_label
 _atom_site_symmetry_multiplicity
 _atom_site_fract_x
 _atom_site_fract_y
 _atom_site_fract_z
 _atom_site_occupancy
  Dy  Dy0  1  0.604705  0.604705  0.602839  1
  Dy  Dy1  1  0.604705  0.604705  0.187751  1
  Dy  Dy2  1  0.606819  0.182779  0.605201  1
  Dy  Dy3  1  0.182779  0.606819  0.605201  1
  Dy  Dy4  1  0.055856  0.444477  0.442821  1
  Dy  Dy5  1  0.444477  0.055856  0.056847  1
  Dy  Dy6  1  0.444477  0.055856  0.442821  1
  Dy  Dy7  1  0.055856  0.444477  0.056847  1
  Dy  Dy8  1  0.443692  0.443692  0.056308  1
  Dy  Dy9  1  0.056675  0.056675  0.443325  1
  Dy  Dy10  1  0.185328  0.816433  0.814147  1
  Dy  Dy11  1  0.816433  0.185328  0.184090  1
  Dy  Dy12  1  0.816433  0.185328  0.814147  1
  Dy  Dy13  1  0.185328  0.816433  0.184090  1
  Dy  Dy14  1  0.815638  0.815638  0.184362  1
  Dy  Dy15  1  0.184277  0.184277  0.815723  1
  Al  Al16  1  0.826906  0.826906  0.828453  1
  Al  Al17  1  0.826906  0.826906  0.517736  1
  Al  Al18  1  0.826084  0.518609  0.827653  1
  Al  Al19  1  0.518609  0.826084  0.827653  1
  Pd  Pd20  1  0.393639  0.393639  0.396274  1
  Pd  Pd21  1  0.393639  0.393639  0.816445  1
  Pt  Pt22  1  0.391689  0.819043  0.394633  1
  Pt  Pt23  1  0.819043  0.391689  0.394633  1
