# generated using pymatgen
data_Ac3Nd2Sn3
_symmetry_space_group_name_H-M   'P 1'
_cell_length_a   9.71711100
_cell_length_b   9.71711077
_cell_length_c   6.98545400
_cell_angle_alpha   90.00000000
_cell_angle_beta   90.00000000
_cell_angle_gamma   119.99999738
_symmetry_Int_Tables_number   1
_chemical_formula_structural   Ac3Nd2Sn3
_chemical_formula_sum   'Ac6 Nd4 Sn6'
_cell_volume   571.21499225
_cell_formula_units_Z   2
loop_
 _symmetry_equiv_pos_site_id
 _symmetry_equiv_pos_as_xyz
  1  'x, y, z'
loop_
 _atom_site_type_symbol
 _atom_site_label
 _atom_site_symmetry_multiplicity
 _atom_site_fract_x
 _atom_site_fract_y
 _atom_site_fract_z
 _atom_site_occupancy
  Ac  Ac0  1  0.245730  0.000000  0.250000  1
  Ac  Ac1  1  0.245730  0.245730  0.750000  1
  Ac  Ac2  1  0.000000  0.754270  0.750000  1
  Ac  Ac3  1  0.000000  0.245730  0.250000  1
  Ac  Ac4  1  0.754270  0.754270  0.250000  1
  Ac  Ac5  1  0.754270  0.000000  0.750000  1
  Nd  Nd6  1  0.333333  0.666667  0.000000  1
  Nd  Nd7  1  0.666667  0.333333  0.500000  1
  Nd  Nd8  1  0.666667  0.333333  0.000000  1
  Nd  Nd9  1  0.333333  0.666667  0.500000  1
  Sn  Sn10  1  0.600034  0.000000  0.250000  1
  Sn  Sn11  1  0.600034  0.600034  0.750000  1
  Sn  Sn12  1  0.000000  0.399966  0.750000  1
  Sn  Sn13  1  0.000000  0.600034  0.250000  1
  Sn  Sn14  1  0.399966  0.399966  0.250000  1
  Sn  Sn15  1  0.399966  0.000000  0.750000  1
