# generated using pymatgen
data_Tb3Ho3(Er2Pb3)2
_symmetry_space_group_name_H-M   'P 1'
_cell_length_a   9.05959900
_cell_length_b   9.05959849
_cell_length_c   6.58688400
_cell_angle_alpha   90.00000000
_cell_angle_beta   90.00000000
_cell_angle_gamma   120.00000553
_symmetry_Int_Tables_number   1
_chemical_formula_structural   Tb3Ho3(Er2Pb3)2
_chemical_formula_sum   'Tb3 Ho3 Er4 Pb6'
_cell_volume   468.19691576
_cell_formula_units_Z   1
loop_
 _symmetry_equiv_pos_site_id
 _symmetry_equiv_pos_as_xyz
  1  'x, y, z'
loop_
 _atom_site_type_symbol
 _atom_site_label
 _atom_site_symmetry_multiplicity
 _atom_site_fract_x
 _atom_site_fract_y
 _atom_site_fract_z
 _atom_site_occupancy
  Tb  Tb0  1  0.238028  0.238028  0.250000  1
  Tb  Tb1  1  0.761972  0.000000  0.250000  1
  Tb  Tb2  1  0.000000  0.761972  0.250000  1
  Ho  Ho3  1  0.762088  0.762088  0.750000  1
  Ho  Ho4  1  0.237912  0.000000  0.750000  1
  Ho  Ho5  1  0.000000  0.237912  0.750000  1
  Er  Er6  1  0.666667  0.333333  0.000018  1
  Er  Er7  1  0.333333  0.666667  0.000018  1
  Er  Er8  1  0.333333  0.666667  0.499982  1
  Er  Er9  1  0.666667  0.333333  0.499982  1
  Pb  Pb10  1  0.394629  0.394629  0.750000  1
  Pb  Pb11  1  0.605371  0.000000  0.750000  1
  Pb  Pb12  1  0.000000  0.605371  0.750000  1
  Pb  Pb13  1  0.604951  0.604951  0.250000  1
  Pb  Pb14  1  0.395049  0.000000  0.250000  1
  Pb  Pb15  1  0.000000  0.395049  0.250000  1
