# generated using pymatgen
data_Hf6FeCo17P12
_symmetry_space_group_name_H-M   'P 1'
_cell_length_a   3.61527900
_cell_length_b   10.30665200
_cell_length_c   11.91346900
_cell_angle_alpha   90.00000000
_cell_angle_beta   90.00000000
_cell_angle_gamma   90.00000000
_symmetry_Int_Tables_number   1
_chemical_formula_structural   Hf6FeCo17P12
_chemical_formula_sum   'Hf6 Fe1 Co17 P12'
_cell_volume   443.91280228
_cell_formula_units_Z   1
loop_
 _symmetry_equiv_pos_site_id
 _symmetry_equiv_pos_as_xyz
  1  'x, y, z'
loop_
 _atom_site_type_symbol
 _atom_site_label
 _atom_site_symmetry_multiplicity
 _atom_site_fract_x
 _atom_site_fract_y
 _atom_site_fract_z
 _atom_site_occupancy
  Hf  Hf0  1  0.000000  0.500000  0.526370  1
  Hf  Hf1  1  0.500000  0.000000  0.472736  1
  Hf  Hf2  1  0.500000  0.820854  0.208172  1
  Hf  Hf3  1  0.500000  0.179146  0.208172  1
  Hf  Hf4  1  0.000000  0.678605  0.792669  1
  Hf  Hf5  1  0.000000  0.321395  0.792669  1
  Fe  Fe6  1  0.500000  0.500000  0.161398  1
  Co  Co7  1  0.000000  0.000000  0.835610  1
  Co  Co8  1  0.500000  0.500000  0.702956  1
  Co  Co9  1  0.000000  0.000000  0.297253  1
  Co  Co10  1  0.000000  0.500000  0.987891  1
  Co  Co11  1  0.500000  0.000000  0.013755  1
  Co  Co12  1  0.500000  0.332115  0.993350  1
  Co  Co13  1  0.500000  0.667885  0.993350  1
  Co  Co14  1  0.000000  0.167010  0.006487  1
  Co  Co15  1  0.000000  0.832990  0.006487  1
  Co  Co16  1  0.500000  0.300059  0.433040  1
  Co  Co17  1  0.500000  0.699941  0.433040  1
  Co  Co18  1  0.000000  0.199944  0.567357  1
  Co  Co19  1  0.000000  0.800056  0.567357  1
  Co  Co20  1  0.500000  0.875282  0.707328  1
  Co  Co21  1  0.500000  0.124718  0.707328  1
  Co  Co22  1  0.000000  0.625046  0.292811  1
  Co  Co23  1  0.000000  0.374954  0.292811  1
  P  P24  1  0.500000  0.500000  0.879058  1
  P  P25  1  0.000000  0.000000  0.121336  1
  P  P26  1  0.500000  0.500000  0.351166  1
  P  P27  1  0.000000  0.000000  0.647474  1
  P  P28  1  0.500000  0.317485  0.617573  1
  P  P29  1  0.500000  0.682515  0.617573  1
  P  P30  1  0.000000  0.182899  0.382649  1
  P  P31  1  0.000000  0.817101  0.382649  1
  P  P32  1  0.500000  0.845093  0.888801  1
  P  P33  1  0.500000  0.154907  0.888801  1
  P  P34  1  0.000000  0.656261  0.111263  1
  P  P35  1  0.000000  0.343739  0.111263  1
