# generated using pymatgen
data_Tm20Zn3Cd3Ni2
_symmetry_space_group_name_H-M   'P 1'
_cell_length_a   9.46191500
_cell_length_b   9.46191633
_cell_length_c   9.41157500
_cell_angle_alpha   90.00000000
_cell_angle_beta   90.00000000
_cell_angle_gamma   119.99999886
_symmetry_Int_Tables_number   1
_chemical_formula_structural   Tm20Zn3Cd3Ni2
_chemical_formula_sum   'Tm20 Zn3 Cd3 Ni2'
_cell_volume   729.71133012
_cell_formula_units_Z   1
loop_
 _symmetry_equiv_pos_site_id
 _symmetry_equiv_pos_as_xyz
  1  'x, y, z'
loop_
 _atom_site_type_symbol
 _atom_site_label
 _atom_site_symmetry_multiplicity
 _atom_site_fract_x
 _atom_site_fract_y
 _atom_site_fract_z
 _atom_site_occupancy
  Tm  Tm0  1  0.000000  0.000000  0.470450  1
  Tm  Tm1  1  0.000000  0.000000  0.029550  1
  Tm  Tm2  1  0.543986  0.456014  0.250000  1
  Tm  Tm3  1  0.543986  0.087972  0.250000  1
  Tm  Tm4  1  0.912028  0.456014  0.250000  1
  Tm  Tm5  1  0.456913  0.543087  0.750000  1
  Tm  Tm6  1  0.456913  0.913825  0.750000  1
  Tm  Tm7  1  0.086175  0.543087  0.750000  1
  Tm  Tm8  1  0.208766  0.791234  0.435164  1
  Tm  Tm9  1  0.208766  0.417533  0.435164  1
  Tm  Tm10  1  0.582467  0.791234  0.435164  1
  Tm  Tm11  1  0.790410  0.209590  0.559835  1
  Tm  Tm12  1  0.790410  0.580820  0.559835  1
  Tm  Tm13  1  0.419180  0.209590  0.559835  1
  Tm  Tm14  1  0.790410  0.209590  0.940165  1
  Tm  Tm15  1  0.790410  0.580820  0.940165  1
  Tm  Tm16  1  0.419180  0.209590  0.940165  1
  Tm  Tm17  1  0.208766  0.791234  0.064836  1
  Tm  Tm18  1  0.208766  0.417533  0.064836  1
  Tm  Tm19  1  0.582467  0.791234  0.064836  1
  Zn  Zn20  1  0.874708  0.125292  0.250000  1
  Zn  Zn21  1  0.874708  0.749415  0.250000  1
  Zn  Zn22  1  0.250585  0.125292  0.250000  1
  Cd  Cd23  1  0.110200  0.889800  0.750000  1
  Cd  Cd24  1  0.110200  0.220400  0.750000  1
  Cd  Cd25  1  0.779600  0.889800  0.750000  1
  Ni  Ni26  1  0.333333  0.666667  0.250000  1
  Ni  Ni27  1  0.666667  0.333333  0.750000  1
