# generated using pymatgen
data_Sc6BeP5Ru6
_symmetry_space_group_name_H-M   'P 1'
_cell_length_a   7.46518151
_cell_length_b   7.46707487
_cell_length_c   7.46518400
_cell_angle_alpha   127.62784284
_cell_angle_beta   123.90688485
_cell_angle_gamma   80.30013029
_symmetry_Int_Tables_number   1
_chemical_formula_structural   Sc6BeP5Ru6
_chemical_formula_sum   'Sc6 Be1 P5 Ru6'
_cell_volume   263.98706551
_cell_formula_units_Z   1
loop_
 _symmetry_equiv_pos_site_id
 _symmetry_equiv_pos_as_xyz
  1  'x, y, z'
loop_
 _atom_site_type_symbol
 _atom_site_label
 _atom_site_symmetry_multiplicity
 _atom_site_fract_x
 _atom_site_fract_y
 _atom_site_fract_z
 _atom_site_occupancy
  Sc  Sc0  1  0.449565  0.652896  0.703331  1
  Sc  Sc1  1  0.545663  0.253014  0.207352  1
  Sc  Sc2  1  0.749988  0.845339  0.595351  1
  Sc  Sc3  1  0.249996  0.853560  0.103563  1
  Sc  Sc4  1  0.050414  0.253758  0.703344  1
  Sc  Sc5  1  0.954274  0.661571  0.207297  1
  Be  Be6  1  0.250035  0.254746  0.504712  1
  P  P7  1  0.750013  0.252582  0.002570  1
  P  P8  1  0.332962  0.586432  0.252809  1
  P  P9  1  0.666406  0.919865  0.252842  1
  P  P10  1  0.167022  0.919865  0.753459  1
  P  P11  1  0.833624  0.586432  0.753470  1
  Ru  Ru12  1  0.501241  0.499196  0.000433  1
  Ru  Ru13  1  0.998764  0.499196  0.497955  1
  Ru  Ru14  1  0.123034  0.253200  0.130400  1
  Ru  Ru15  1  0.877249  0.007374  0.130420  1
  Ru  Ru16  1  0.376954  0.007374  0.630124  1
  Ru  Ru17  1  0.622800  0.253200  0.630166  1
