# generated using pymatgen
data_LiLaNiAsP
_symmetry_space_group_name_H-M   'P 1'
_cell_length_a   4.21198100
_cell_length_b   4.21198100
_cell_length_c   9.95549600
_cell_angle_alpha   90.00000000
_cell_angle_beta   90.00000000
_cell_angle_gamma   90.00000000
_symmetry_Int_Tables_number   1
_chemical_formula_structural   LiLaNiAsP
_chemical_formula_sum   'Li2 La2 Ni2 As2 P2'
_cell_volume   176.61830359
_cell_formula_units_Z   2
loop_
 _symmetry_equiv_pos_site_id
 _symmetry_equiv_pos_as_xyz
  1  'x, y, z'
loop_
 _atom_site_type_symbol
 _atom_site_label
 _atom_site_symmetry_multiplicity
 _atom_site_fract_x
 _atom_site_fract_y
 _atom_site_fract_z
 _atom_site_occupancy
  Li  Li0  1  0.000000  0.000000  0.500000  1
  Li  Li1  1  0.500000  0.500000  0.500000  1
  La  La2  1  0.000000  0.500000  0.773689  1
  La  La3  1  0.500000  0.000000  0.226311  1
  Ni  Ni4  1  0.000000  0.500000  0.092898  1
  Ni  Ni5  1  0.500000  0.000000  0.907102  1
  As  As6  1  0.000000  0.500000  0.343681  1
  As  As7  1  0.500000  0.000000  0.656319  1
  P  P8  1  0.000000  0.000000  0.000000  1
  P  P9  1  0.500000  0.500000  0.000000  1
