# generated using pymatgen
data_CsNb3CdCl9
_symmetry_space_group_name_H-M   'P 1'
_cell_length_a   10.32484915
_cell_length_b   10.22478401
_cell_length_c   10.00333577
_cell_angle_alpha   122.83237587
_cell_angle_beta   89.98860906
_cell_angle_gamma   110.54143107
_symmetry_Int_Tables_number   1
_chemical_formula_structural   CsNb3CdCl9
_chemical_formula_sum   'Cs2 Nb6 Cd2 Cl18'
_cell_volume   806.33294801
_cell_formula_units_Z   2
loop_
 _symmetry_equiv_pos_site_id
 _symmetry_equiv_pos_as_xyz
  1  'x, y, z'
loop_
 _atom_site_type_symbol
 _atom_site_label
 _atom_site_symmetry_multiplicity
 _atom_site_fract_x
 _atom_site_fract_y
 _atom_site_fract_z
 _atom_site_occupancy
  Cs  Cs0  1  0.672394  0.514071  0.731978  1
  Cs  Cs1  1  0.327645  0.485916  0.268000  1
  Nb  Nb2  1  0.126928  0.899704  0.348798  1
  Nb  Nb3  1  0.873060  0.100294  0.651213  1
  Nb  Nb4  1  0.118952  0.030774  0.692141  1
  Nb  Nb5  1  0.881026  0.969211  0.307864  1
  Nb  Nb6  1  0.137084  0.244247  0.574419  1
  Nb  Nb7  1  0.862900  0.755752  0.425595  1
  Cd  Cd8  1  0.402474  0.856564  0.972731  1
  Cd  Cd9  1  0.597552  0.143491  0.027252  1
  Cl  Cl10  1  0.264389  0.075288  0.933827  1
  Cl  Cl11  1  0.735596  0.924675  0.066164  1
  Cl  Cl12  1  0.320226  0.559517  0.671499  1
  Cl  Cl13  1  0.679781  0.440471  0.328501  1
  Cl  Cl14  1  0.988431  0.594486  0.236355  1
  Cl  Cl15  1  0.011564  0.405517  0.763651  1
  Cl  Cl16  1  0.020330  0.255253  0.365886  1
  Cl  Cl17  1  0.979686  0.744714  0.634088  1
  Cl  Cl18  1  0.694113  0.676327  0.190055  1
  Cl  Cl19  1  0.305885  0.323648  0.809931  1
  Cl  Cl20  1  0.289986  0.763975  0.156341  1
  Cl  Cl21  1  0.710027  0.236081  0.843662  1
  Cl  Cl22  1  0.290214  0.918180  0.546388  1
  Cl  Cl23  1  0.709783  0.081840  0.453627  1
  Cl  Cl24  1  0.988471  0.153376  0.902618  1
  Cl  Cl25  1  0.011523  0.846629  0.097402  1
  Cl  Cl26  1  0.311865  0.170677  0.406882  1
  Cl  Cl27  1  0.688111  0.829319  0.593136  1
