# generated using pymatgen
data_TbPr(Tc2P)4
_symmetry_space_group_name_H-M   'P 1'
_cell_length_a   7.46846149
_cell_length_b   7.46846149
_cell_length_c   3.96382100
_cell_angle_alpha   90.00000000
_cell_angle_beta   90.00000000
_cell_angle_gamma   90.50834371
_symmetry_Int_Tables_number   1
_chemical_formula_structural   TbPr(Tc2P)4
_chemical_formula_sum   'Tb1 Pr1 Tc8 P4'
_cell_volume   221.08497679
_cell_formula_units_Z   1
loop_
 _symmetry_equiv_pos_site_id
 _symmetry_equiv_pos_as_xyz
  1  'x, y, z'
loop_
 _atom_site_type_symbol
 _atom_site_label
 _atom_site_symmetry_multiplicity
 _atom_site_fract_x
 _atom_site_fract_y
 _atom_site_fract_z
 _atom_site_occupancy
  Tb  Tb0  1  0.500000  0.500000  0.000000  1
  Pr  Pr1  1  0.000000  0.000000  0.500000  1
  Tc  Tc2  1  0.083801  0.342522  0.000000  1
  Tc  Tc3  1  0.838388  0.419583  0.500000  1
  Tc  Tc4  1  0.161612  0.580417  0.500000  1
  Tc  Tc5  1  0.916199  0.657478  0.000000  1
  Tc  Tc6  1  0.419583  0.838388  0.500000  1
  Tc  Tc7  1  0.580417  0.161612  0.500000  1
  Tc  Tc8  1  0.342522  0.083801  0.000000  1
  Tc  Tc9  1  0.657478  0.916199  0.000000  1
  P  P10  1  0.783832  0.216168  0.000000  1
  P  P11  1  0.709632  0.709632  0.500000  1
  P  P12  1  0.290368  0.290368  0.500000  1
  P  P13  1  0.216168  0.783832  0.000000  1
