# generated using pymatgen
data_Gd2MgIr2
_symmetry_space_group_name_H-M   'P 1'
_cell_length_a   5.80500575
_cell_length_b   5.80500715
_cell_length_c   8.01801600
_cell_angle_alpha   103.37397378
_cell_angle_beta   103.37397707
_cell_angle_gamma   57.56888921
_symmetry_Int_Tables_number   1
_chemical_formula_structural   Gd2MgIr2
_chemical_formula_sum   'Gd4 Mg2 Ir4'
_cell_volume   219.96648435
_cell_formula_units_Z   2
loop_
 _symmetry_equiv_pos_site_id
 _symmetry_equiv_pos_as_xyz
  1  'x, y, z'
loop_
 _atom_site_type_symbol
 _atom_site_label
 _atom_site_symmetry_multiplicity
 _atom_site_fract_x
 _atom_site_fract_y
 _atom_site_fract_z
 _atom_site_occupancy
  Gd  Gd0  1  0.993115  0.297518  0.145961  1
  Gd  Gd1  1  0.702482  0.006886  0.354038  1
  Gd  Gd2  1  0.297518  0.993115  0.645962  1
  Gd  Gd3  1  0.006885  0.702482  0.854038  1
  Mg  Mg4  1  0.370465  0.629535  0.250000  1
  Mg  Mg5  1  0.629535  0.370465  0.749999  1
  Ir  Ir6  1  0.512149  0.209366  0.987649  1
  Ir  Ir7  1  0.790634  0.487851  0.512351  1
  Ir  Ir8  1  0.209366  0.512150  0.487650  1
  Ir  Ir9  1  0.487850  0.790634  0.012351  1
