# generated using pymatgen
data_Pr4HoRu2
_symmetry_space_group_name_H-M   'P 1'
_cell_length_a   6.58453567
_cell_length_b   7.35821923
_cell_length_c   8.88211679
_cell_angle_alpha   95.97812138
_cell_angle_beta   111.75649147
_cell_angle_gamma   90.00000447
_symmetry_Int_Tables_number   1
_chemical_formula_structural   Pr4HoRu2
_chemical_formula_sum   'Pr8 Ho2 Ru4'
_cell_volume   397.16735660
_cell_formula_units_Z   2
loop_
 _symmetry_equiv_pos_site_id
 _symmetry_equiv_pos_as_xyz
  1  'x, y, z'
loop_
 _atom_site_type_symbol
 _atom_site_label
 _atom_site_symmetry_multiplicity
 _atom_site_fract_x
 _atom_site_fract_y
 _atom_site_fract_z
 _atom_site_occupancy
  Pr  Pr0  1  0.977845  0.916223  0.182570  1
  Pr  Pr1  1  0.795275  0.583777  0.817430  1
  Pr  Pr2  1  0.022155  0.083777  0.817430  1
  Pr  Pr3  1  0.204725  0.416223  0.182570  1
  Pr  Pr4  1  0.637949  0.813006  0.429684  1
  Pr  Pr5  1  0.208265  0.686994  0.570316  1
  Pr  Pr6  1  0.362051  0.186994  0.570316  1
  Pr  Pr7  1  0.791735  0.313006  0.429684  1
  Ho  Ho8  1  0.429370  0.750000  0.000000  1
  Ho  Ho9  1  0.570630  0.250000  0.000000  1
  Ru  Ru10  1  0.812964  0.572759  0.213665  1
  Ru  Ru11  1  0.599298  0.927241  0.786335  1
  Ru  Ru12  1  0.187036  0.427241  0.786335  1
  Ru  Ru13  1  0.400702  0.072759  0.213665  1
