# generated using pymatgen
data_Zr3Sc13(CoAg)4
_symmetry_space_group_name_H-M   'P 1'
_cell_length_a   8.69602023
_cell_length_b   8.74639347
_cell_length_c   8.74594500
_cell_angle_alpha   59.99761526
_cell_angle_beta   59.80158284
_cell_angle_gamma   59.80726268
_symmetry_Int_Tables_number   1
_chemical_formula_structural   Zr3Sc13(CoAg)4
_chemical_formula_sum   'Zr3 Sc13 Co4 Ag4'
_cell_volume   468.96812842
_cell_formula_units_Z   1
loop_
 _symmetry_equiv_pos_site_id
 _symmetry_equiv_pos_as_xyz
  1  'x, y, z'
loop_
 _atom_site_type_symbol
 _atom_site_label
 _atom_site_symmetry_multiplicity
 _atom_site_fract_x
 _atom_site_fract_y
 _atom_site_fract_z
 _atom_site_occupancy
  Zr  Zr0  1  0.350324  0.349373  0.349406  1
  Zr  Zr1  1  0.350297  0.349349  0.950933  1
  Zr  Zr2  1  0.350282  0.950953  0.349361  1
  Sc  Sc3  1  0.948571  0.350298  0.350540  1
  Sc  Sc4  1  0.810736  0.188660  0.188666  1
  Sc  Sc5  1  0.186716  0.812692  0.812551  1
  Sc  Sc6  1  0.186715  0.812736  0.188023  1
  Sc  Sc7  1  0.810719  0.188648  0.811953  1
  Sc  Sc8  1  0.186693  0.188017  0.812670  1
  Sc  Sc9  1  0.810634  0.811980  0.188687  1
  Sc  Sc10  1  0.939205  0.562032  0.562052  1
  Sc  Sc11  1  0.563852  0.936959  0.936941  1
  Sc  Sc12  1  0.563816  0.936991  0.562232  1
  Sc  Sc13  1  0.939185  0.562051  0.936713  1
  Sc  Sc14  1  0.563865  0.562267  0.936939  1
  Sc  Sc15  1  0.939189  0.936718  0.562056  1
  Co  Co16  1  0.143700  0.142594  0.142604  1
  Co  Co17  1  0.143711  0.142567  0.571144  1
  Co  Co18  1  0.143679  0.571123  0.142606  1
  Co  Co19  1  0.571045  0.142985  0.142981  1
  Ag  Ag20  1  0.582354  0.583552  0.583534  1
  Ag  Ag21  1  0.582357  0.583545  0.250551  1
  Ag  Ag22  1  0.582356  0.250565  0.583530  1
  Ag  Ag23  1  0.249999  0.583341  0.583326  1
