# generated using pymatgen
data_Hf16MnNi4Mo3
_symmetry_space_group_name_H-M   'P 1'
_cell_length_a   8.66129608
_cell_length_b   8.66129632
_cell_length_c   8.66129686
_cell_angle_alpha   59.85640874
_cell_angle_beta   59.85640256
_cell_angle_gamma   59.85640879
_symmetry_Int_Tables_number   1
_chemical_formula_structural   Hf16MnNi4Mo3
_chemical_formula_sum   'Hf16 Mn1 Ni4 Mo3'
_cell_volume   457.94806474
_cell_formula_units_Z   1
loop_
 _symmetry_equiv_pos_site_id
 _symmetry_equiv_pos_as_xyz
  1  'x, y, z'
loop_
 _atom_site_type_symbol
 _atom_site_label
 _atom_site_symmetry_multiplicity
 _atom_site_fract_x
 _atom_site_fract_y
 _atom_site_fract_z
 _atom_site_occupancy
  Hf  Hf0  1  0.687694  0.104910  0.104910  1
  Hf  Hf1  1  0.104910  0.687694  0.104910  1
  Hf  Hf2  1  0.104910  0.104910  0.687694  1
  Hf  Hf3  1  0.103394  0.103394  0.103394  1
  Hf  Hf4  1  0.315287  0.315287  0.680207  1
  Hf  Hf5  1  0.684956  0.684956  0.315030  1
  Hf  Hf6  1  0.315287  0.680207  0.315287  1
  Hf  Hf7  1  0.684956  0.315030  0.684956  1
  Hf  Hf8  1  0.680207  0.315287  0.315287  1
  Hf  Hf9  1  0.315030  0.684956  0.684956  1
  Hf  Hf10  1  0.951315  0.951315  0.548712  1
  Hf  Hf11  1  0.546375  0.546375  0.954414  1
  Hf  Hf12  1  0.951315  0.548712  0.951315  1
  Hf  Hf13  1  0.546375  0.954414  0.546375  1
  Hf  Hf14  1  0.548712  0.951315  0.951315  1
  Hf  Hf15  1  0.954414  0.546375  0.546375  1
  Mn  Mn16  1  0.336026  0.336026  0.336026  1
  Ni  Ni17  1  0.323013  0.891951  0.891951  1
  Ni  Ni18  1  0.891951  0.323013  0.891951  1
  Ni  Ni19  1  0.891951  0.891951  0.323013  1
  Ni  Ni20  1  0.892138  0.892138  0.892138  1
  Mo  Mo21  1  0.002385  0.333697  0.333697  1
  Mo  Mo22  1  0.333697  0.002385  0.333697  1
  Mo  Mo23  1  0.333697  0.333697  0.002385  1
