# generated using pymatgen
data_NaAc3SnS7
_symmetry_space_group_name_H-M   'P 1'
_cell_length_a   10.81006100
_cell_length_b   10.81005580
_cell_length_c   6.16427200
_cell_angle_alpha   90.00000000
_cell_angle_beta   90.00000000
_cell_angle_gamma   119.99987210
_symmetry_Int_Tables_number   1
_chemical_formula_structural   NaAc3SnS7
_chemical_formula_sum   'Na2 Ac6 Sn2 S14'
_cell_volume   623.83403525
_cell_formula_units_Z   2
loop_
 _symmetry_equiv_pos_site_id
 _symmetry_equiv_pos_as_xyz
  1  'x, y, z'
loop_
 _atom_site_type_symbol
 _atom_site_label
 _atom_site_symmetry_multiplicity
 _atom_site_fract_x
 _atom_site_fract_y
 _atom_site_fract_z
 _atom_site_occupancy
  Na  Na0  1  0.000000  0.000001  0.831848  1
  Na  Na1  1  0.000000  0.999999  0.331847  1
  Ac  Ac2  1  0.641618  0.766173  0.094471  1
  Ac  Ac3  1  0.124563  0.358403  0.094468  1
  Ac  Ac4  1  0.233833  0.875440  0.094454  1
  Ac  Ac5  1  0.358382  0.233828  0.594473  1
  Ac  Ac6  1  0.766167  0.124560  0.594453  1
  Ac  Ac7  1  0.875437  0.641597  0.594467  1
  Sn  Sn8  1  0.666631  0.333316  0.170502  1
  Sn  Sn9  1  0.333368  0.666684  0.670502  1
  S  S10  1  0.836046  0.087994  0.081775  1
  S  S11  1  0.912013  0.748036  0.081777  1
  S  S12  1  0.251957  0.163974  0.081775  1
  S  S13  1  0.333350  0.666681  0.284209  1
  S  S14  1  0.515407  0.101138  0.335021  1
  S  S15  1  0.585709  0.484566  0.335023  1
  S  S16  1  0.898818  0.414260  0.334984  1
  S  S17  1  0.163956  0.912007  0.581774  1
  S  S18  1  0.087987  0.251964  0.581777  1
  S  S19  1  0.748043  0.836026  0.581774  1
  S  S20  1  0.666650  0.333319  0.784208  1
  S  S21  1  0.484594  0.898862  0.835020  1
  S  S22  1  0.414290  0.515434  0.835023  1
  S  S23  1  0.101182  0.585740  0.834984  1
