# generated using pymatgen
data_Ag7Ge(SO4)6
_symmetry_space_group_name_H-M   'P 1'
_cell_length_a   8.65489182
_cell_length_b   8.65489190
_cell_length_c   8.65489133
_cell_angle_alpha   108.15152359
_cell_angle_beta   108.15152924
_cell_angle_gamma   108.15154361
_symmetry_Int_Tables_number   1
_chemical_formula_structural   Ag7Ge(SO4)6
_chemical_formula_sum   'Ag7 Ge1 S6 O24'
_cell_volume   522.03337045
_cell_formula_units_Z   1
loop_
 _symmetry_equiv_pos_site_id
 _symmetry_equiv_pos_as_xyz
  1  'x, y, z'
loop_
 _atom_site_type_symbol
 _atom_site_label
 _atom_site_symmetry_multiplicity
 _atom_site_fract_x
 _atom_site_fract_y
 _atom_site_fract_z
 _atom_site_occupancy
  Ag  Ag0  1  0.500000  0.500000  0.500000  1
  Ag  Ag1  1  0.834028  0.337318  0.678651  1
  Ag  Ag2  1  0.337318  0.678651  0.834028  1
  Ag  Ag3  1  0.678651  0.834028  0.337318  1
  Ag  Ag4  1  0.165972  0.662682  0.321349  1
  Ag  Ag5  1  0.662682  0.321349  0.165972  1
  Ag  Ag6  1  0.321349  0.165972  0.662682  1
  Ge  Ge7  1  0.000000  0.000000  0.000000  1
  S  S8  1  0.971747  0.754200  0.615331  1
  S  S9  1  0.754200  0.615331  0.971747  1
  S  S10  1  0.615331  0.971747  0.754200  1
  S  S11  1  0.028253  0.245800  0.384669  1
  S  S12  1  0.245800  0.384669  0.028253  1
  S  S13  1  0.384669  0.028253  0.245800  1
  O  O14  1  0.452656  0.903559  0.165336  1
  O  O15  1  0.903559  0.165336  0.452656  1
  O  O16  1  0.165336  0.452656  0.903559  1
  O  O17  1  0.547344  0.096441  0.834664  1
  O  O18  1  0.096441  0.834664  0.547344  1
  O  O19  1  0.834664  0.547344  0.096441  1
  O  O20  1  0.308540  0.976279  0.363053  1
  O  O21  1  0.976279  0.363053  0.308540  1
  O  O22  1  0.363053  0.308540  0.976279  1
  O  O23  1  0.691460  0.023721  0.636947  1
  O  O24  1  0.023721  0.636947  0.691460  1
  O  O25  1  0.636947  0.691460  0.023721  1
  O  O26  1  0.760779  0.980832  0.918209  1
  O  O27  1  0.980832  0.918209  0.760779  1
  O  O28  1  0.650602  0.468748  0.778486  1
  O  O29  1  0.778486  0.650602  0.468748  1
  O  O30  1  0.468748  0.778486  0.650602  1
  O  O31  1  0.349398  0.531252  0.221514  1
  O  O32  1  0.221514  0.349398  0.531252  1
  O  O33  1  0.531252  0.221514  0.349398  1
  O  O34  1  0.081791  0.239221  0.019168  1
  O  O35  1  0.019168  0.081791  0.239221  1
  O  O36  1  0.239221  0.019168  0.081791  1
  O  O37  1  0.918209  0.760779  0.980832  1
