# generated using pymatgen
data_V13Pd3
_symmetry_space_group_name_H-M   'P 1'
_cell_length_a   4.80730800
_cell_length_b   4.80605200
_cell_length_c   9.59155800
_cell_angle_alpha   90.00000000
_cell_angle_beta   90.00000000
_cell_angle_gamma   90.00000000
_symmetry_Int_Tables_number   1
_chemical_formula_structural   V13Pd3
_chemical_formula_sum   'V13 Pd3'
_cell_volume   221.60500797
_cell_formula_units_Z   1
loop_
 _symmetry_equiv_pos_site_id
 _symmetry_equiv_pos_as_xyz
  1  'x, y, z'
loop_
 _atom_site_type_symbol
 _atom_site_label
 _atom_site_symmetry_multiplicity
 _atom_site_fract_x
 _atom_site_fract_y
 _atom_site_fract_z
 _atom_site_occupancy
  V  V0  1  0.500000  0.500000  0.500000  1
  V  V1  1  0.500000  0.000000  0.625210  1
  V  V2  1  0.500000  0.000000  0.122207  1
  V  V3  1  0.746664  0.500000  0.255786  1
  V  V4  1  0.746664  0.500000  0.744214  1
  V  V5  1  0.000000  0.744617  0.500000  1
  V  V6  1  0.000000  0.751575  0.000000  1
  V  V7  1  0.500000  0.000000  0.374790  1
  V  V8  1  0.500000  0.000000  0.877793  1
  V  V9  1  0.253336  0.500000  0.255786  1
  V  V10  1  0.253336  0.500000  0.744214  1
  V  V11  1  0.000000  0.255383  0.500000  1
  V  V12  1  0.000000  0.248425  0.000000  1
  Pd  Pd13  1  0.500000  0.500000  0.000000  1
  Pd  Pd14  1  0.000000  0.000000  0.248999  1
  Pd  Pd15  1  0.000000  0.000000  0.751001  1
