# generated using pymatgen
data_Nd3Sm(Si5Pt3)2
_symmetry_space_group_name_H-M   'P 1'
_cell_length_a   8.25944390
_cell_length_b   8.25463534
_cell_length_c   8.25463503
_cell_angle_alpha   136.42428089
_cell_angle_beta   105.45816993
_cell_angle_gamma   90.50654277
_symmetry_Int_Tables_number   1
_chemical_formula_structural   Nd3Sm(Si5Pt3)2
_chemical_formula_sum   'Nd3 Sm1 Si10 Pt6'
_cell_volume   356.21498540
_cell_formula_units_Z   1
loop_
 _symmetry_equiv_pos_site_id
 _symmetry_equiv_pos_as_xyz
  1  'x, y, z'
loop_
 _atom_site_type_symbol
 _atom_site_label
 _atom_site_symmetry_multiplicity
 _atom_site_fract_x
 _atom_site_fract_y
 _atom_site_fract_z
 _atom_site_occupancy
  Nd  Nd0  1  0.639301  0.370621  0.268679  1
  Nd  Nd1  1  0.360617  0.629356  0.731261  1
  Nd  Nd2  1  0.101806  0.870562  0.231244  1
  Sm  Sm3  1  0.898883  0.129506  0.769377  1
  Si  Si4  1  0.271192  0.521381  0.249445  1
  Si  Si5  1  0.728313  0.477986  0.750071  1
  Si  Si6  1  0.728313  0.978243  0.250327  1
  Si  Si7  1  0.271192  0.021746  0.749811  1
  Si  Si8  1  0.461728  0.112170  0.349557  1
  Si  Si9  1  0.539267  0.888686  0.650582  1
  Si  Si10  1  0.762534  0.612169  0.150365  1
  Si  Si11  1  0.236993  0.387256  0.849737  1
  Si  Si12  1  0.999918  0.250204  0.249759  1
  Si  Si13  1  0.999918  0.750159  0.749714  1
  Pt  Pt14  1  0.246052  0.136691  0.109361  1
  Pt  Pt15  1  0.754000  0.863717  0.890283  1
  Pt  Pt16  1  0.026587  0.636714  0.389873  1
  Pt  Pt17  1  0.972591  0.362612  0.609978  1
  Pt  Pt18  1  0.500399  0.249991  0.750167  1
  Pt  Pt19  1  0.500399  0.750232  0.250408  1
