# generated using pymatgen
data_Ho3Al12FeRu3
_symmetry_space_group_name_H-M   'P 1'
_cell_length_a   8.75871700
_cell_length_b   8.75871775
_cell_length_c   9.50523700
_cell_angle_alpha   90.00000000
_cell_angle_beta   90.00000000
_cell_angle_gamma   120.00000096
_symmetry_Int_Tables_number   1
_chemical_formula_structural   Ho3Al12FeRu3
_chemical_formula_sum   'Ho6 Al24 Fe2 Ru6'
_cell_volume   631.50181463
_cell_formula_units_Z   2
loop_
 _symmetry_equiv_pos_site_id
 _symmetry_equiv_pos_as_xyz
  1  'x, y, z'
loop_
 _atom_site_type_symbol
 _atom_site_label
 _atom_site_symmetry_multiplicity
 _atom_site_fract_x
 _atom_site_fract_y
 _atom_site_fract_z
 _atom_site_occupancy
  Ho  Ho0  1  0.193654  0.387306  0.250000  1
  Ho  Ho1  1  0.806346  0.612694  0.750000  1
  Ho  Ho2  1  0.612694  0.806346  0.250000  1
  Ho  Ho3  1  0.387306  0.193654  0.750000  1
  Ho  Ho4  1  0.193654  0.806346  0.250000  1
  Ho  Ho5  1  0.806346  0.193654  0.750000  1
  Al  Al6  1  0.333333  0.666667  0.016437  1
  Al  Al7  1  0.666667  0.333333  0.983563  1
  Al  Al8  1  0.666667  0.333333  0.516437  1
  Al  Al9  1  0.333333  0.666667  0.483563  1
  Al  Al10  1  0.159368  0.318736  0.575633  1
  Al  Al11  1  0.840632  0.681264  0.424367  1
  Al  Al12  1  0.681264  0.840632  0.575633  1
  Al  Al13  1  0.840632  0.681264  0.075633  1
  Al  Al14  1  0.318736  0.159368  0.424367  1
  Al  Al15  1  0.159368  0.318736  0.924367  1
  Al  Al16  1  0.159368  0.840632  0.575633  1
  Al  Al17  1  0.318736  0.159368  0.075633  1
  Al  Al18  1  0.840632  0.159368  0.424367  1
  Al  Al19  1  0.681264  0.840632  0.924367  1
  Al  Al20  1  0.840632  0.159368  0.075633  1
  Al  Al21  1  0.159368  0.840632  0.924367  1
  Al  Al22  1  0.561469  0.122940  0.250000  1
  Al  Al23  1  0.438531  0.877060  0.750000  1
  Al  Al24  1  0.877060  0.438531  0.250000  1
  Al  Al25  1  0.122940  0.561469  0.750000  1
  Al  Al26  1  0.561469  0.438531  0.250000  1
  Al  Al27  1  0.438531  0.561469  0.750000  1
  Al  Al28  1  0.000000  0.000000  0.250000  1
  Al  Al29  1  0.000000  0.000000  0.750000  1
  Fe  Fe30  1  0.000000  0.000000  0.000000  1
  Fe  Fe31  1  0.000000  0.000000  0.500000  1
  Ru  Ru32  1  0.500000  0.000000  0.000000  1
  Ru  Ru33  1  0.000000  0.500000  0.000000  1
  Ru  Ru34  1  0.500000  0.000000  0.500000  1
  Ru  Ru35  1  0.500000  0.500000  0.000000  1
  Ru  Ru36  1  0.000000  0.500000  0.500000  1
  Ru  Ru37  1  0.500000  0.500000  0.500000  1
