# generated using pymatgen
data_YbHo7(Sn11Ru3)2
_symmetry_space_group_name_H-M   'P 1'
_cell_length_a   9.82797700
_cell_length_b   9.82797610
_cell_length_c   10.11920900
_cell_angle_alpha   90.00000000
_cell_angle_beta   90.00000000
_cell_angle_gamma   119.99999966
_symmetry_Int_Tables_number   1
_chemical_formula_structural   YbHo7(Sn11Ru3)2
_chemical_formula_sum   'Yb1 Ho7 Sn22 Ru6'
_cell_volume   846.45801605
_cell_formula_units_Z   1
loop_
 _symmetry_equiv_pos_site_id
 _symmetry_equiv_pos_as_xyz
  1  'x, y, z'
loop_
 _atom_site_type_symbol
 _atom_site_label
 _atom_site_symmetry_multiplicity
 _atom_site_fract_x
 _atom_site_fract_y
 _atom_site_fract_z
 _atom_site_occupancy
  Yb  Yb0  1  0.000000  0.000000  0.500000  1
  Ho  Ho1  1  0.000000  0.000000  0.000000  1
  Ho  Ho2  1  0.516296  0.483704  0.693473  1
  Ho  Ho3  1  0.516296  0.032590  0.693473  1
  Ho  Ho4  1  0.967410  0.483704  0.693473  1
  Ho  Ho5  1  0.032590  0.516296  0.306527  1
  Ho  Ho6  1  0.483704  0.967410  0.306527  1
  Ho  Ho7  1  0.483704  0.516296  0.306527  1
  Sn  Sn8  1  0.666667  0.333333  0.177725  1
  Sn  Sn9  1  0.666667  0.333333  0.872002  1
  Sn  Sn10  1  0.333333  0.666667  0.127998  1
  Sn  Sn11  1  0.348616  0.348616  0.000000  1
  Sn  Sn12  1  0.000000  0.651384  0.000000  1
  Sn  Sn13  1  0.651384  0.000000  0.000000  1
  Sn  Sn14  1  0.651384  0.651384  0.000000  1
  Sn  Sn15  1  0.333333  0.666667  0.822275  1
  Sn  Sn16  1  0.439877  0.219940  0.462019  1
  Sn  Sn17  1  0.219940  0.780060  0.537981  1
  Sn  Sn18  1  0.219940  0.439877  0.537981  1
  Sn  Sn19  1  0.560123  0.780060  0.537981  1
  Sn  Sn20  1  0.126025  0.873975  0.262360  1
  Sn  Sn21  1  0.780060  0.560123  0.462019  1
  Sn  Sn22  1  0.780060  0.219940  0.462019  1
  Sn  Sn23  1  0.348616  0.000000  0.000000  1
  Sn  Sn24  1  0.126025  0.252048  0.262360  1
  Sn  Sn25  1  0.747952  0.873975  0.262360  1
  Sn  Sn26  1  0.252048  0.126025  0.737640  1
  Sn  Sn27  1  0.873975  0.747952  0.737640  1
  Sn  Sn28  1  0.873975  0.126025  0.737640  1
  Sn  Sn29  1  0.000000  0.348616  0.000000  1
  Ru  Ru30  1  0.168509  0.831491  0.795757  1
  Ru  Ru31  1  0.168509  0.337018  0.795757  1
  Ru  Ru32  1  0.662982  0.831491  0.795757  1
  Ru  Ru33  1  0.337018  0.168509  0.204243  1
  Ru  Ru34  1  0.831491  0.662982  0.204243  1
  Ru  Ru35  1  0.831491  0.168509  0.204243  1
