# generated using pymatgen
data_Y4Al16Ga2PdRh5
_symmetry_space_group_name_H-M   'P 1'
_cell_length_a   7.55596282
_cell_length_b   7.55596278
_cell_length_c   9.51887315
_cell_angle_alpha   89.96706910
_cell_angle_beta   89.96706963
_cell_angle_gamma   119.32673514
_symmetry_Int_Tables_number   1
_chemical_formula_structural   Y4Al16Ga2PdRh5
_chemical_formula_sum   'Y4 Al16 Ga2 Pd1 Rh5'
_cell_volume   473.80766403
_cell_formula_units_Z   1
loop_
 _symmetry_equiv_pos_site_id
 _symmetry_equiv_pos_as_xyz
  1  'x, y, z'
loop_
 _atom_site_type_symbol
 _atom_site_label
 _atom_site_symmetry_multiplicity
 _atom_site_fract_x
 _atom_site_fract_y
 _atom_site_fract_z
 _atom_site_occupancy
  Y  Y0  1  0.993662  0.673037  0.250475  1
  Y  Y1  1  0.004425  0.325334  0.749687  1
  Y  Y2  1  0.674666  0.995575  0.250313  1
  Y  Y3  1  0.326963  0.006338  0.749525  1
  Al  Al4  1  0.006046  0.336194  0.076128  1
  Al  Al5  1  0.001716  0.667709  0.924437  1
  Al  Al6  1  0.999728  0.664210  0.573610  1
  Al  Al7  1  0.335790  0.000272  0.426390  1
  Al  Al8  1  0.001497  0.335922  0.425538  1
  Al  Al9  1  0.664078  0.998503  0.574462  1
  Al  Al10  1  0.663806  0.993954  0.923872  1
  Al  Al11  1  0.332291  0.998284  0.075563  1
  Al  Al12  1  0.333428  0.333504  0.551168  1
  Al  Al13  1  0.666496  0.666572  0.448832  1
  Al  Al14  1  0.665521  0.668653  0.055051  1
  Al  Al15  1  0.331347  0.334479  0.944949  1
  Al  Al16  1  0.338866  0.551641  0.250720  1
  Al  Al17  1  0.661766  0.452384  0.746484  1
  Al  Al18  1  0.547616  0.338234  0.253516  1
  Al  Al19  1  0.448359  0.661134  0.749280  1
  Ga  Ga20  1  0.133248  0.132121  0.250481  1
  Ga  Ga21  1  0.867879  0.866752  0.749519  1
  Pd  Pd22  1  0.671685  0.328315  0.000000  1
  Rh  Rh23  1  0.328772  0.671228  0.000000  1
  Rh  Rh24  1  0.328848  0.671152  0.500000  1
  Rh  Rh25  1  0.671622  0.328378  0.500000  1
  Rh  Rh26  1  0.999887  0.000113  0.000000  1
  Rh  Rh27  1  0.999992  0.000008  0.500000  1
