# generated using pymatgen
data_Y3Ho2Sc5(In2Pt)4
_symmetry_space_group_name_H-M   'P 1'
_cell_length_a   3.59805800
_cell_length_b   7.91897682
_cell_length_c   17.80017004
_cell_angle_alpha   90.19789844
_cell_angle_beta   90.00000000
_cell_angle_gamma   90.00000000
_symmetry_Int_Tables_number   1
_chemical_formula_structural   Y3Ho2Sc5(In2Pt)4
_chemical_formula_sum   'Y3 Ho2 Sc5 In8 Pt4'
_cell_volume   507.17611398
_cell_formula_units_Z   1
loop_
 _symmetry_equiv_pos_site_id
 _symmetry_equiv_pos_as_xyz
  1  'x, y, z'
loop_
 _atom_site_type_symbol
 _atom_site_label
 _atom_site_symmetry_multiplicity
 _atom_site_fract_x
 _atom_site_fract_y
 _atom_site_fract_z
 _atom_site_occupancy
  Y  Y0  1  0.000000  0.241687  0.217299  1
  Y  Y1  1  0.000000  0.758313  0.782701  1
  Y  Y2  1  0.000000  0.500000  0.500000  1
  Ho  Ho3  1  0.000000  0.256836  0.720029  1
  Ho  Ho4  1  0.000000  0.743164  0.279971  1
  Sc  Sc5  1  0.000000  0.116437  0.414475  1
  Sc  Sc6  1  0.000000  0.883563  0.585525  1
  Sc  Sc7  1  0.000000  0.384030  0.916136  1
  Sc  Sc8  1  0.000000  0.615970  0.083864  1
  Sc  Sc9  1  0.000000  0.000000  0.000000  1
  In  In10  1  0.500000  0.415676  0.351116  1
  In  In11  1  0.500000  0.584324  0.648884  1
  In  In12  1  0.500000  0.082652  0.856130  1
  In  In13  1  0.500000  0.917348  0.143870  1
  In  In14  1  0.500000  0.295038  0.059891  1
  In  In15  1  0.500000  0.704962  0.940109  1
  In  In16  1  0.500000  0.196158  0.561751  1
  In  In17  1  0.500000  0.803842  0.438249  1
  Pt  Pt18  1  0.500000  0.028199  0.308105  1
  Pt  Pt19  1  0.500000  0.971801  0.691895  1
  Pt  Pt20  1  0.500000  0.467376  0.809586  1
  Pt  Pt21  1  0.500000  0.532624  0.190414  1
