# generated using pymatgen
data_Ac8SmPd6
_symmetry_space_group_name_H-M   'P 1'
_cell_length_a   8.11458404
_cell_length_b   8.11458444
_cell_length_c   8.11458444
_cell_angle_alpha   72.59631276
_cell_angle_beta   72.59630831
_cell_angle_gamma   72.59631810
_symmetry_Int_Tables_number   1
_chemical_formula_structural   Ac8SmPd6
_chemical_formula_sum   'Ac8 Sm1 Pd6'
_cell_volume   473.44516908
_cell_formula_units_Z   1
loop_
 _symmetry_equiv_pos_site_id
 _symmetry_equiv_pos_as_xyz
  1  'x, y, z'
loop_
 _atom_site_type_symbol
 _atom_site_label
 _atom_site_symmetry_multiplicity
 _atom_site_fract_x
 _atom_site_fract_y
 _atom_site_fract_z
 _atom_site_occupancy
  Ac  Ac0  1  0.295921  0.295921  0.295921  1
  Ac  Ac1  1  0.704079  0.704079  0.704079  1
  Ac  Ac2  1  0.825401  0.330743  0.122897  1
  Ac  Ac3  1  0.330743  0.122897  0.825401  1
  Ac  Ac4  1  0.122897  0.825401  0.330743  1
  Ac  Ac5  1  0.174599  0.669257  0.877103  1
  Ac  Ac6  1  0.669257  0.877103  0.174599  1
  Ac  Ac7  1  0.877103  0.174599  0.669257  1
  Sm  Sm8  1  0.500000  0.500000  0.500000  1
  Pd  Pd9  1  0.464140  0.642401  0.099829  1
  Pd  Pd10  1  0.642401  0.099829  0.464140  1
  Pd  Pd11  1  0.099829  0.464140  0.642401  1
  Pd  Pd12  1  0.535860  0.357599  0.900171  1
  Pd  Pd13  1  0.357599  0.900171  0.535860  1
  Pd  Pd14  1  0.900171  0.535860  0.357599  1
