# generated using pymatgen
data_MnBi6(IO9)2
_symmetry_space_group_name_H-M   'P 1'
_cell_length_a   9.17710400
_cell_length_b   9.17710333
_cell_length_c   5.25316900
_cell_angle_alpha   90.00000000
_cell_angle_beta   90.00000000
_cell_angle_gamma   119.99999521
_symmetry_Int_Tables_number   1
_chemical_formula_structural   MnBi6(IO9)2
_chemical_formula_sum   'Mn1 Bi6 I2 O18'
_cell_volume   383.14512177
_cell_formula_units_Z   1
loop_
 _symmetry_equiv_pos_site_id
 _symmetry_equiv_pos_as_xyz
  1  'x, y, z'
loop_
 _atom_site_type_symbol
 _atom_site_label
 _atom_site_symmetry_multiplicity
 _atom_site_fract_x
 _atom_site_fract_y
 _atom_site_fract_z
 _atom_site_occupancy
  Mn  Mn0  1  0.666667  0.333333  0.927125  1
  Bi  Bi1  1  0.957121  0.368933  0.503892  1
  Bi  Bi2  1  0.309246  0.293254  0.009200  1
  Bi  Bi3  1  0.984007  0.690754  0.009200  1
  Bi  Bi4  1  0.631067  0.588188  0.503892  1
  Bi  Bi5  1  0.411812  0.042879  0.503892  1
  Bi  Bi6  1  0.706746  0.015993  0.009200  1
  I  I7  1  0.000000  0.000000  0.566542  1
  I  I8  1  0.333333  0.666667  0.021642  1
  O  O9  1  0.060721  0.193433  0.775987  1
  O  O10  1  0.233068  0.469171  0.229236  1
  O  O11  1  0.144835  0.604039  0.805132  1
  O  O12  1  0.395961  0.540797  0.805132  1
  O  O13  1  0.236105  0.766932  0.229236  1
  O  O14  1  0.132711  0.939279  0.775987  1
  O  O15  1  0.530829  0.763895  0.229236  1
  O  O16  1  0.195657  0.096576  0.360565  1
  O  O17  1  0.459203  0.855165  0.805132  1
  O  O18  1  0.806567  0.867289  0.775987  1
  O  O19  1  0.484171  0.294693  0.687010  1
  O  O20  1  0.530132  0.137625  0.123876  1
  O  O21  1  0.607494  0.469868  0.123876  1
  O  O22  1  0.705307  0.189478  0.687010  1
  O  O23  1  0.903424  0.099080  0.360565  1
  O  O24  1  0.810522  0.515829  0.687010  1
  O  O25  1  0.862375  0.392506  0.123876  1
  O  O26  1  0.900920  0.804343  0.360565  1
