# generated using pymatgen
data_Nd8Zn3Si12Os
_symmetry_space_group_name_H-M   'P 1'
_cell_length_a   8.24308900
_cell_length_b   8.24308920
_cell_length_c   8.51318300
_cell_angle_alpha   90.00000000
_cell_angle_beta   90.00000000
_cell_angle_gamma   119.99999518
_symmetry_Int_Tables_number   1
_chemical_formula_structural   Nd8Zn3Si12Os
_chemical_formula_sum   'Nd8 Zn3 Si12 Os1'
_cell_volume   500.95949249
_cell_formula_units_Z   1
loop_
 _symmetry_equiv_pos_site_id
 _symmetry_equiv_pos_as_xyz
  1  'x, y, z'
loop_
 _atom_site_type_symbol
 _atom_site_label
 _atom_site_symmetry_multiplicity
 _atom_site_fract_x
 _atom_site_fract_y
 _atom_site_fract_z
 _atom_site_occupancy
  Nd  Nd0  1  0.501312  0.498688  0.747127  1
  Nd  Nd1  1  0.502324  0.497676  0.252765  1
  Nd  Nd2  1  0.997377  0.498688  0.747127  1
  Nd  Nd3  1  0.995352  0.497676  0.252765  1
  Nd  Nd4  1  0.501312  0.002623  0.747127  1
  Nd  Nd5  1  0.502324  0.004648  0.252765  1
  Nd  Nd6  1  0.000000  0.000000  0.751577  1
  Nd  Nd7  1  0.000000  0.000000  0.248621  1
  Zn  Zn8  1  0.666667  0.333333  0.996232  1
  Zn  Zn9  1  0.333333  0.666667  0.003122  1
  Zn  Zn10  1  0.333333  0.666667  0.498202  1
  Si  Si11  1  0.833336  0.166664  0.000887  1
  Si  Si12  1  0.165538  0.834462  0.999366  1
  Si  Si13  1  0.333327  0.166664  0.000887  1
  Si  Si14  1  0.162928  0.837072  0.499775  1
  Si  Si15  1  0.668924  0.834462  0.999366  1
  Si  Si16  1  0.830372  0.169628  0.500282  1
  Si  Si17  1  0.833336  0.666673  0.000887  1
  Si  Si18  1  0.674144  0.837072  0.499775  1
  Si  Si19  1  0.165538  0.331076  0.999366  1
  Si  Si20  1  0.339257  0.169628  0.500282  1
  Si  Si21  1  0.162928  0.325856  0.499775  1
  Si  Si22  1  0.830372  0.660743  0.500282  1
  Os  Os23  1  0.666667  0.333333  0.501630  1
