# generated using pymatgen
data_Tm4Th6IrOs5
_symmetry_space_group_name_H-M   'P 1'
_cell_length_a   8.36350545
_cell_length_b   8.36350603
_cell_length_c   6.31704800
_cell_angle_alpha   90.00000000
_cell_angle_beta   90.00000000
_cell_angle_gamma   119.96230471
_symmetry_Int_Tables_number   1
_chemical_formula_structural   Tm4Th6IrOs5
_chemical_formula_sum   'Tm4 Th6 Ir1 Os5'
_cell_volume   382.81272506
_cell_formula_units_Z   1
loop_
 _symmetry_equiv_pos_site_id
 _symmetry_equiv_pos_as_xyz
  1  'x, y, z'
loop_
 _atom_site_type_symbol
 _atom_site_label
 _atom_site_symmetry_multiplicity
 _atom_site_fract_x
 _atom_site_fract_y
 _atom_site_fract_z
 _atom_site_occupancy
  Tm  Tm0  1  0.332735  0.666725  0.000961  1
  Tm  Tm1  1  0.666725  0.332735  0.000961  1
  Tm  Tm2  1  0.666725  0.332735  0.499039  1
  Tm  Tm3  1  0.332735  0.666725  0.499039  1
  Th  Th4  1  0.255467  0.000316  0.250000  1
  Th  Th5  1  0.745028  0.003925  0.750000  1
  Th  Th6  1  0.000316  0.255467  0.250000  1
  Th  Th7  1  0.003925  0.745028  0.750000  1
  Th  Th8  1  0.744378  0.744378  0.250000  1
  Th  Th9  1  0.253881  0.253881  0.750000  1
  Ir  Ir10  1  0.613383  0.613383  0.750000  1
  Os  Os11  1  0.615610  0.998727  0.250000  1
  Os  Os12  1  0.386378  0.000809  0.750000  1
  Os  Os13  1  0.998727  0.615610  0.250000  1
  Os  Os14  1  0.000809  0.386378  0.750000  1
  Os  Os15  1  0.383179  0.383179  0.250000  1
