# generated using pymatgen
data_Ca2Nb3Fe4P12WO48
_symmetry_space_group_name_H-M   'P 1'
_cell_length_a   8.71223800
_cell_length_b   8.97431414
_cell_length_c   12.51122600
_cell_angle_alpha   88.10845112
_cell_angle_beta   90.00000000
_cell_angle_gamma   90.00000000
_symmetry_Int_Tables_number   1
_chemical_formula_structural   Ca2Nb3Fe4P12WO48
_chemical_formula_sum   'Ca2 Nb3 Fe4 P12 W1 O48'
_cell_volume   977.67419945
_cell_formula_units_Z   1
loop_
 _symmetry_equiv_pos_site_id
 _symmetry_equiv_pos_as_xyz
  1  'x, y, z'
loop_
 _atom_site_type_symbol
 _atom_site_label
 _atom_site_symmetry_multiplicity
 _atom_site_fract_x
 _atom_site_fract_y
 _atom_site_fract_z
 _atom_site_occupancy
  Ca  Ca0  1  0.000154  0.000096  0.500094  1
  Ca  Ca1  1  0.499573  0.500001  0.500125  1
  Nb  Nb2  1  0.999120  0.279920  0.144888  1
  Nb  Nb3  1  0.500937  0.779570  0.145458  1
  Nb  Nb4  1  0.001470  0.717893  0.854274  1
  Fe  Fe5  1  0.501729  0.794611  0.642559  1
  Fe  Fe6  1  0.002446  0.704396  0.357743  1
  Fe  Fe7  1  0.497248  0.204700  0.356929  1
  Fe  Fe8  1  0.998157  0.295915  0.642640  1
  P  P9  1  0.352722  0.856453  0.397672  1
  P  P10  1  0.287414  0.496499  0.738355  1
  P  P11  1  0.147092  0.356053  0.397484  1
  P  P12  1  0.858045  0.356790  0.889867  1
  P  P13  1  0.361037  0.141964  0.108265  1
  P  P14  1  0.785418  0.001119  0.262549  1
  P  P15  1  0.213787  0.999027  0.738086  1
  P  P16  1  0.640445  0.858020  0.890591  1
  P  P17  1  0.139292  0.642263  0.109834  1
  P  P18  1  0.852661  0.643711  0.602151  1
  P  P19  1  0.714732  0.500902  0.262552  1
  P  P20  1  0.647024  0.144406  0.602409  1
  W  W21  1  0.499580  0.215386  0.853243  1
  O  O22  1  0.307763  0.896171  0.669399  1
  O  O23  1  0.176502  0.841308  0.404913  1
  O  O24  1  0.433157  0.759863  0.485368  1
  O  O25  1  0.411465  0.790211  0.290227  1
  O  O26  1  0.396682  0.586935  0.664897  1
  O  O27  1  0.110677  0.522082  0.401451  1
  O  O28  1  0.193862  0.394211  0.668564  1
  O  O29  1  0.386426  0.404394  0.821067  1
  O  O30  1  0.109749  0.472807  0.107968  1
  O  O31  1  0.817789  0.399322  0.194879  1
  O  O32  1  0.323449  0.340839  0.404554  1
  O  O33  1  0.066645  0.259476  0.485176  1
  O  O34  1  0.088583  0.289943  0.289927  1
  O  O35  1  0.681280  0.336965  0.894795  1
  O  O36  1  0.922443  0.284652  0.995728  1
  O  O37  1  0.931304  0.285763  0.794504  1
  O  O38  1  0.433349  0.214139  0.203495  1
  O  O39  1  0.424279  0.214430  0.001998  1
  O  O40  1  0.184186  0.165647  0.103887  1
  O  O41  1  0.883303  0.096796  0.179919  1
  O  O42  1  0.389533  0.022452  0.401277  1
  O  O43  1  0.103341  0.087116  0.664557  1
  O  O44  1  0.312756  0.102866  0.806961  1
  O  O45  1  0.614006  0.028251  0.895675  1
  O  O46  1  0.390372  0.972598  0.107215  1
  O  O47  1  0.682237  0.899458  0.194937  1
  O  O48  1  0.896377  0.912608  0.335351  1
  O  O49  1  0.609249  0.978924  0.600371  1
  O  O50  1  0.116730  0.902189  0.820176  1
  O  O51  1  0.817152  0.834685  0.894308  1
  O  O52  1  0.576148  0.784467  0.995594  1
  O  O53  1  0.567455  0.788756  0.794646  1
  O  O54  1  0.067782  0.713773  0.205544  1
  O  O55  1  0.076016  0.715318  0.004405  1
  O  O56  1  0.316511  0.664889  0.105475  1
  O  O57  1  0.911650  0.709778  0.709538  1
  O  O58  1  0.933127  0.740490  0.514543  1
  O  O59  1  0.676431  0.659211  0.595038  1
  O  O60  1  0.182760  0.598666  0.805426  1
  O  O61  1  0.889661  0.526425  0.891625  1
  O  O62  1  0.616889  0.596716  0.179957  1
  O  O63  1  0.806814  0.605064  0.331426  1
  O  O64  1  0.889146  0.477716  0.598354  1
  O  O65  1  0.603527  0.412329  0.335229  1
  O  O66  1  0.589161  0.214766  0.709822  1
  O  O67  1  0.566232  0.240532  0.514924  1
  O  O68  1  0.823027  0.159075  0.595801  1
  O  O69  1  0.692935  0.105231  0.331344  1
