# generated using pymatgen
data_Ti6Fe7Co3B4
_symmetry_space_group_name_H-M   'P 1'
_cell_length_a   8.65682678
_cell_length_b   8.66416780
_cell_length_c   2.89476000
_cell_angle_alpha   90.00000000
_cell_angle_beta   90.00000000
_cell_angle_gamma   90.04899620
_symmetry_Int_Tables_number   1
_chemical_formula_structural   Ti6Fe7Co3B4
_chemical_formula_sum   'Ti6 Fe7 Co3 B4'
_cell_volume   217.11907822
_cell_formula_units_Z   1
loop_
 _symmetry_equiv_pos_site_id
 _symmetry_equiv_pos_as_xyz
  1  'x, y, z'
loop_
 _atom_site_type_symbol
 _atom_site_label
 _atom_site_symmetry_multiplicity
 _atom_site_fract_x
 _atom_site_fract_y
 _atom_site_fract_z
 _atom_site_occupancy
  Ti  Ti0  1  0.999101  0.999015  0.000000  1
  Ti  Ti1  1  0.499630  0.502303  0.000000  1
  Ti  Ti2  1  0.831086  0.321361  0.000000  1
  Ti  Ti3  1  0.320892  0.168220  0.000000  1
  Ti  Ti4  1  0.674707  0.828490  0.000000  1
  Ti  Ti5  1  0.173510  0.679064  0.000000  1
  Fe  Fe6  1  0.499598  0.002073  0.500000  1
  Fe  Fe7  1  0.000381  0.499960  0.500000  1
  Fe  Fe8  1  0.071922  0.219408  0.500000  1
  Fe  Fe9  1  0.218403  0.929540  0.500000  1
  Fe  Fe10  1  0.780380  0.073413  0.500000  1
  Fe  Fe11  1  0.927328  0.780762  0.500000  1
  Fe  Fe12  1  0.431588  0.718680  0.500000  1
  Co  Co13  1  0.569324  0.281603  0.500000  1
  Co  Co14  1  0.720659  0.568076  0.500000  1
  Co  Co15  1  0.280465  0.429998  0.500000  1
  B  B16  1  0.622888  0.119994  0.000000  1
  B  B17  1  0.119642  0.376279  0.000000  1
  B  B18  1  0.881282  0.623986  0.000000  1
  B  B19  1  0.377215  0.877776  0.000000  1
