# generated using pymatgen
data_YbCeThCu3Sb4
_symmetry_space_group_name_H-M   'P 1'
_cell_length_a   8.44595763
_cell_length_b   8.45751664
_cell_length_c   8.44595791
_cell_angle_alpha   109.00631959
_cell_angle_beta   109.61827830
_cell_angle_gamma   109.73484843
_symmetry_Int_Tables_number   1
_chemical_formula_structural   YbCeThCu3Sb4
_chemical_formula_sum   'Yb2 Ce2 Th2 Cu6 Sb8'
_cell_volume   464.72266335
_cell_formula_units_Z   2
loop_
 _symmetry_equiv_pos_site_id
 _symmetry_equiv_pos_as_xyz
  1  'x, y, z'
loop_
 _atom_site_type_symbol
 _atom_site_label
 _atom_site_symmetry_multiplicity
 _atom_site_fract_x
 _atom_site_fract_y
 _atom_site_fract_z
 _atom_site_occupancy
  Yb  Yb0  1  0.249919  0.124514  0.874549  1
  Yb  Yb1  1  0.750035  0.375486  0.625405  1
  Ce  Ce2  1  0.127960  0.877804  0.249752  1
  Ce  Ce3  1  0.371948  0.622196  0.750157  1
  Th  Th4  1  0.872734  0.250000  0.122734  1
  Th  Th5  1  0.627538  0.750000  0.377538  1
  Cu  Cu6  1  0.381818  0.250000  0.631818  1
  Cu  Cu7  1  0.118331  0.750000  0.868331  1
  Cu  Cu8  1  0.249838  0.626440  0.376233  1
  Cu  Cu9  1  0.749793  0.873560  0.123399  1
  Cu  Cu10  1  0.617210  0.367077  0.249957  1
  Cu  Cu11  1  0.882878  0.132923  0.750133  1
  Sb  Sb12  1  0.658911  0.496955  0.001706  1
  Sb  Sb13  1  0.504751  0.003045  0.661957  1
  Sb  Sb14  1  0.995136  0.657124  0.498497  1
  Sb  Sb15  1  0.841372  0.842876  0.838010  1
  Sb  Sb16  1  0.496150  0.995944  0.156380  1
  Sb  Sb17  1  0.160437  0.504056  0.000206  1
  Sb  Sb18  1  0.003364  0.159845  0.499719  1
  Sb  Sb19  1  0.339873  0.340155  0.343519  1
