# generated using pymatgen
data_Rb7TaGa3As5
_symmetry_space_group_name_H-M   'P 1'
_cell_length_a   8.60337041
_cell_length_b   9.39827238
_cell_length_c   14.42428388
_cell_angle_alpha   85.23714813
_cell_angle_beta   81.92467121
_cell_angle_gamma   86.28024119
_symmetry_Int_Tables_number   1
_chemical_formula_structural   Rb7TaGa3As5
_chemical_formula_sum   'Rb14 Ta2 Ga6 As10'
_cell_volume   1149.07474191
_cell_formula_units_Z   2
loop_
 _symmetry_equiv_pos_site_id
 _symmetry_equiv_pos_as_xyz
  1  'x, y, z'
loop_
 _atom_site_type_symbol
 _atom_site_label
 _atom_site_symmetry_multiplicity
 _atom_site_fract_x
 _atom_site_fract_y
 _atom_site_fract_z
 _atom_site_occupancy
  Rb  Rb0  1  0.843636  0.365579  0.638943  1
  Rb  Rb1  1  0.820282  0.820116  0.129339  1
  Rb  Rb2  1  0.245231  0.006090  0.469019  1
  Rb  Rb3  1  0.272712  0.251385  0.256288  1
  Rb  Rb4  1  0.744527  0.497676  0.973264  1
  Rb  Rb5  1  0.255473  0.502324  0.026736  1
  Rb  Rb6  1  0.690317  0.075626  0.883926  1
  Rb  Rb7  1  0.754769  0.993910  0.530981  1
  Rb  Rb8  1  0.727288  0.748615  0.743712  1
  Rb  Rb9  1  0.333256  0.327728  0.610058  1
  Rb  Rb10  1  0.156364  0.634421  0.361057  1
  Rb  Rb11  1  0.179718  0.179884  0.870661  1
  Rb  Rb12  1  0.309683  0.924374  0.116074  1
  Rb  Rb13  1  0.666744  0.672272  0.389942  1
  Ta  Ta14  1  0.351475  0.604820  0.772511  1
  Ta  Ta15  1  0.648525  0.395180  0.227489  1
  Ga  Ga16  1  0.049525  0.815866  0.859269  1
  Ga  Ga17  1  0.950475  0.184134  0.140731  1
  Ga  Ga18  1  0.353610  0.947742  0.699615  1
  Ga  Ga19  1  0.098800  0.727141  0.628074  1
  Ga  Ga20  1  0.901200  0.272859  0.371926  1
  Ga  Ga21  1  0.646390  0.052258  0.300385  1
  As  As22  1  0.931360  0.447311  0.211947  1
  As  As23  1  0.642495  0.185782  0.128755  1
  As  As24  1  0.068640  0.552689  0.788053  1
  As  As25  1  0.587332  0.290384  0.394133  1
  As  As26  1  0.412668  0.709616  0.605867  1
  As  As27  1  0.030783  0.996961  0.698391  1
  As  As28  1  0.518647  0.395323  0.811261  1
  As  As29  1  0.481353  0.604677  0.188739  1
  As  As30  1  0.357505  0.814218  0.871245  1
  As  As31  1  0.969217  0.003039  0.301609  1
