# generated using pymatgen
data_Zr4Fe5Si2Os
_symmetry_space_group_name_H-M   'P 1'
_cell_length_a   5.07188068
_cell_length_b   5.07188107
_cell_length_c   8.10245700
_cell_angle_alpha   90.00000000
_cell_angle_beta   90.00000000
_cell_angle_gamma   120.80990811
_symmetry_Int_Tables_number   1
_chemical_formula_structural   Zr4Fe5Si2Os
_chemical_formula_sum   'Zr4 Fe5 Si2 Os1'
_cell_volume   179.01232514
_cell_formula_units_Z   1
loop_
 _symmetry_equiv_pos_site_id
 _symmetry_equiv_pos_as_xyz
  1  'x, y, z'
loop_
 _atom_site_type_symbol
 _atom_site_label
 _atom_site_symmetry_multiplicity
 _atom_site_fract_x
 _atom_site_fract_y
 _atom_site_fract_z
 _atom_site_occupancy
  Zr  Zr0  1  0.665787  0.334213  0.937936  1
  Zr  Zr1  1  0.333412  0.666588  0.435090  1
  Zr  Zr2  1  0.665787  0.334213  0.562064  1
  Zr  Zr3  1  0.333412  0.666588  0.064910  1
  Fe  Fe4  1  0.662998  0.829776  0.750000  1
  Fe  Fe5  1  0.829376  0.170624  0.250000  1
  Fe  Fe6  1  0.170224  0.337002  0.750000  1
  Fe  Fe7  1  0.830393  0.658368  0.250000  1
  Fe  Fe8  1  0.341632  0.169607  0.250000  1
  Si  Si9  1  0.998053  0.001947  0.495099  1
  Si  Si10  1  0.998053  0.001947  0.004901  1
  Os  Os11  1  0.170875  0.829125  0.750000  1
