# generated using pymatgen
data_HfZr4Sc
_symmetry_space_group_name_H-M   'P 1'
_cell_length_a   5.00934600
_cell_length_b   5.00934919
_cell_length_c   6.32422600
_cell_angle_alpha   90.00000000
_cell_angle_beta   90.00000000
_cell_angle_gamma   119.99999213
_symmetry_Int_Tables_number   1
_chemical_formula_structural   HfZr4Sc
_chemical_formula_sum   'Hf1 Zr4 Sc1'
_cell_volume   137.43596108
_cell_formula_units_Z   1
loop_
 _symmetry_equiv_pos_site_id
 _symmetry_equiv_pos_as_xyz
  1  'x, y, z'
loop_
 _atom_site_type_symbol
 _atom_site_label
 _atom_site_symmetry_multiplicity
 _atom_site_fract_x
 _atom_site_fract_y
 _atom_site_fract_z
 _atom_site_occupancy
  Hf  Hf0  1  0.000000  0.000000  0.000000  1
  Zr  Zr1  1  0.666667  0.333334  0.247380  1
  Zr  Zr2  1  0.333334  0.666667  0.247380  1
  Zr  Zr3  1  0.666667  0.333334  0.752620  1
  Zr  Zr4  1  0.333334  0.666667  0.752620  1
  Sc  Sc5  1  0.000000  0.000000  0.500001  1
