# generated using pymatgen
data_CsTa(AgSe2)2
_symmetry_space_group_name_H-M   'P 1'
_cell_length_a   10.66553655
_cell_length_b   10.66553611
_cell_length_c   8.51303700
_cell_angle_alpha   90.00000000
_cell_angle_beta   90.00000000
_cell_angle_gamma   146.00885552
_symmetry_Int_Tables_number   1
_chemical_formula_structural   CsTa(AgSe2)2
_chemical_formula_sum   'Cs2 Ta2 Ag4 Se8'
_cell_volume   541.39225608
_cell_formula_units_Z   2
loop_
 _symmetry_equiv_pos_site_id
 _symmetry_equiv_pos_as_xyz
  1  'x, y, z'
loop_
 _atom_site_type_symbol
 _atom_site_label
 _atom_site_symmetry_multiplicity
 _atom_site_fract_x
 _atom_site_fract_y
 _atom_site_fract_z
 _atom_site_occupancy
  Cs  Cs0  1  0.457256  0.822261  0.750000  1
  Cs  Cs1  1  0.822261  0.457256  0.250000  1
  Ta  Ta2  1  0.520645  0.298737  0.750000  1
  Ta  Ta3  1  0.298737  0.520645  0.250000  1
  Ag  Ag4  1  0.375961  0.375961  0.000000  1
  Ag  Ag5  1  0.375961  0.375961  0.500000  1
  Ag  Ag6  1  0.022795  0.795601  0.750000  1
  Ag  Ag7  1  0.795601  0.022795  0.250000  1
  Se  Se8  1  0.648739  0.626410  0.750000  1
  Se  Se9  1  0.626410  0.648739  0.250000  1
  Se  Se10  1  0.304466  0.070685  0.988221  1
  Se  Se11  1  0.070685  0.304466  0.488221  1
  Se  Se12  1  0.414536  0.834216  0.250000  1
  Se  Se13  1  0.070685  0.304466  0.011779  1
  Se  Se14  1  0.304466  0.070685  0.511779  1
  Se  Se15  1  0.834216  0.414536  0.750000  1
