# generated using pymatgen
data_Er7Cd(Co3Sn11)2
_symmetry_space_group_name_H-M   'P 1'
_cell_length_a   9.63967900
_cell_length_b   9.63967934
_cell_length_c   9.98814200
_cell_angle_alpha   90.00000000
_cell_angle_beta   90.00000000
_cell_angle_gamma   120.00000227
_symmetry_Int_Tables_number   1
_chemical_formula_structural   Er7Cd(Co3Sn11)2
_chemical_formula_sum   'Er7 Cd1 Co6 Sn22'
_cell_volume   803.78609594
_cell_formula_units_Z   1
loop_
 _symmetry_equiv_pos_site_id
 _symmetry_equiv_pos_as_xyz
  1  'x, y, z'
loop_
 _atom_site_type_symbol
 _atom_site_label
 _atom_site_symmetry_multiplicity
 _atom_site_fract_x
 _atom_site_fract_y
 _atom_site_fract_z
 _atom_site_occupancy
  Er  Er0  1  0.479395  0.520605  0.305945  1
  Er  Er1  1  0.520605  0.479395  0.694055  1
  Er  Er2  1  0.479395  0.958792  0.305945  1
  Er  Er3  1  0.520605  0.041208  0.694055  1
  Er  Er4  1  0.041208  0.520605  0.305945  1
  Er  Er5  1  0.958792  0.479395  0.694055  1
  Er  Er6  1  0.000000  0.000000  0.000000  1
  Cd  Cd7  1  0.000000  0.000000  0.500000  1
  Co  Co8  1  0.831939  0.168061  0.197251  1
  Co  Co9  1  0.168061  0.831939  0.802749  1
  Co  Co10  1  0.831939  0.663880  0.197251  1
  Co  Co11  1  0.168061  0.336120  0.802749  1
  Co  Co12  1  0.336120  0.168061  0.197251  1
  Co  Co13  1  0.663880  0.831939  0.802749  1
  Sn  Sn14  1  0.116955  0.883045  0.271915  1
  Sn  Sn15  1  0.883045  0.116955  0.728085  1
  Sn  Sn16  1  0.116955  0.233911  0.271915  1
  Sn  Sn17  1  0.883045  0.766089  0.728085  1
  Sn  Sn18  1  0.766089  0.883045  0.271915  1
  Sn  Sn19  1  0.233911  0.116955  0.728085  1
  Sn  Sn20  1  0.781820  0.218180  0.453677  1
  Sn  Sn21  1  0.218180  0.781820  0.546323  1
  Sn  Sn22  1  0.781820  0.563639  0.453677  1
  Sn  Sn23  1  0.218180  0.436361  0.546323  1
  Sn  Sn24  1  0.436361  0.218180  0.453677  1
  Sn  Sn25  1  0.563639  0.781820  0.546323  1
  Sn  Sn26  1  0.346146  0.000000  0.000000  1
  Sn  Sn27  1  0.653854  0.000000  0.000000  1
  Sn  Sn28  1  0.000000  0.346146  0.000000  1
  Sn  Sn29  1  0.000000  0.653854  0.000000  1
  Sn  Sn30  1  0.653854  0.653854  0.000000  1
  Sn  Sn31  1  0.346146  0.346146  0.000000  1
  Sn  Sn32  1  0.333333  0.666667  0.120696  1
  Sn  Sn33  1  0.666667  0.333333  0.879304  1
  Sn  Sn34  1  0.333333  0.666667  0.818557  1
  Sn  Sn35  1  0.666667  0.333333  0.181443  1
