# generated using pymatgen
data_Tb2Sc2BiPb
_symmetry_space_group_name_H-M   'P 1'
_cell_length_a   4.45745400
_cell_length_b   4.45745400
_cell_length_c   8.32277500
_cell_angle_alpha   90.00000000
_cell_angle_beta   90.00000000
_cell_angle_gamma   90.00000000
_symmetry_Int_Tables_number   1
_chemical_formula_structural   Tb2Sc2BiPb
_chemical_formula_sum   'Tb2 Sc2 Bi1 Pb1'
_cell_volume   165.36435226
_cell_formula_units_Z   1
loop_
 _symmetry_equiv_pos_site_id
 _symmetry_equiv_pos_as_xyz
  1  'x, y, z'
loop_
 _atom_site_type_symbol
 _atom_site_label
 _atom_site_symmetry_multiplicity
 _atom_site_fract_x
 _atom_site_fract_y
 _atom_site_fract_z
 _atom_site_occupancy
  Tb  Tb0  1  0.000000  0.500000  0.337444  1
  Tb  Tb1  1  0.500000  0.000000  0.654114  1
  Sc  Sc2  1  0.000000  0.000000  0.004464  1
  Sc  Sc3  1  0.500000  0.500000  0.004464  1
  Bi  Bi4  1  0.000000  0.500000  0.732860  1
  Pb  Pb5  1  0.500000  0.000000  0.266654  1
