# generated using pymatgen
data_Sr2GaAuI
_symmetry_space_group_name_H-M   'P 1'
_cell_length_a   4.58501400
_cell_length_b   4.58501348
_cell_length_c   18.00778800
_cell_angle_alpha   90.00000000
_cell_angle_beta   90.00000000
_cell_angle_gamma   120.00000375
_symmetry_Int_Tables_number   1
_chemical_formula_structural   Sr2GaAuI
_chemical_formula_sum   'Sr4 Ga2 Au2 I2'
_cell_volume   327.84779523
_cell_formula_units_Z   2
loop_
 _symmetry_equiv_pos_site_id
 _symmetry_equiv_pos_as_xyz
  1  'x, y, z'
loop_
 _atom_site_type_symbol
 _atom_site_label
 _atom_site_symmetry_multiplicity
 _atom_site_fract_x
 _atom_site_fract_y
 _atom_site_fract_z
 _atom_site_occupancy
  Sr  Sr0  1  0.000000  0.000000  0.109789  1
  Sr  Sr1  1  0.000000  0.000000  0.390211  1
  Sr  Sr2  1  0.000000  0.000000  0.610909  1
  Sr  Sr3  1  0.000000  0.000000  0.889091  1
  Ga  Ga4  1  0.666667  0.333334  0.501048  1
  Ga  Ga5  1  0.666667  0.333334  0.998952  1
  Au  Au6  1  0.333333  0.666665  0.000998  1
  Au  Au7  1  0.333333  0.666665  0.499002  1
  I  I8  1  0.666667  0.333334  0.250000  1
  I  I9  1  0.333333  0.666665  0.750000  1
