# generated using pymatgen
data_YbY2ThPt4
_symmetry_space_group_name_H-M   'P 1'
_cell_length_a   4.51343200
_cell_length_b   5.68163717
_cell_length_c   7.18322124
_cell_angle_alpha   88.92084462
_cell_angle_beta   90.00000000
_cell_angle_gamma   90.00000000
_symmetry_Int_Tables_number   1
_chemical_formula_structural   YbY2ThPt4
_chemical_formula_sum   'Yb1 Y2 Th1 Pt4'
_cell_volume   184.17157638
_cell_formula_units_Z   1
loop_
 _symmetry_equiv_pos_site_id
 _symmetry_equiv_pos_as_xyz
  1  'x, y, z'
loop_
 _atom_site_type_symbol
 _atom_site_label
 _atom_site_symmetry_multiplicity
 _atom_site_fract_x
 _atom_site_fract_y
 _atom_site_fract_z
 _atom_site_occupancy
  Yb  Yb0  1  0.250000  0.358396  0.683001  1
  Y  Y1  1  0.750000  0.640741  0.322484  1
  Y  Y2  1  0.750000  0.857340  0.814628  1
  Th  Th3  1  0.250000  0.141498  0.181927  1
  Pt  Pt4  1  0.750000  0.152378  0.450491  1
  Pt  Pt5  1  0.250000  0.847843  0.541575  1
  Pt  Pt6  1  0.250000  0.661698  0.045180  1
  Pt  Pt7  1  0.750000  0.340106  0.960714  1
