# generated using pymatgen
data_Sc2SnSbRu4
_symmetry_space_group_name_H-M   'P 1'
_cell_length_a   4.52042500
_cell_length_b   6.42083700
_cell_length_c   13.59411200
_cell_angle_alpha   90.00000000
_cell_angle_beta   90.00143907
_cell_angle_gamma   90.00000000
_symmetry_Int_Tables_number   1
_chemical_formula_structural   Sc2SnSbRu4
_chemical_formula_sum   'Sc6 Sn3 Sb3 Ru12'
_cell_volume   394.56790576
_cell_formula_units_Z   3
loop_
 _symmetry_equiv_pos_site_id
 _symmetry_equiv_pos_as_xyz
  1  'x, y, z'
loop_
 _atom_site_type_symbol
 _atom_site_label
 _atom_site_symmetry_multiplicity
 _atom_site_fract_x
 _atom_site_fract_y
 _atom_site_fract_z
 _atom_site_occupancy
  Sc  Sc0  1  0.000004  0.000000  0.001072  1
  Sc  Sc1  1  0.499826  0.500000  0.166659  1
  Sc  Sc2  1  0.999839  0.000000  0.332252  1
  Sc  Sc3  1  0.499990  0.500000  0.499074  1
  Sc  Sc4  1  0.000171  0.000000  0.666691  1
  Sc  Sc5  1  0.500167  0.500000  0.834254  1
  Sn  Sn6  1  0.000010  0.500000  0.000291  1
  Sn  Sn7  1  0.499858  0.000000  0.166671  1
  Sn  Sn8  1  0.999835  0.500000  0.333053  1
  Sb  Sb9  1  0.500001  0.000000  0.499328  1
  Sb  Sb10  1  0.000123  0.500000  0.666666  1
  Sb  Sb11  1  0.500146  0.000000  0.833990  1
  Ru  Ru12  1  0.500006  0.249045  0.998134  1
  Ru  Ru13  1  0.500006  0.750956  0.998134  1
  Ru  Ru14  1  0.999854  0.249608  0.166676  1
  Ru  Ru15  1  0.999854  0.750392  0.166676  1
  Ru  Ru16  1  0.499832  0.249088  0.335192  1
  Ru  Ru17  1  0.499832  0.750913  0.335192  1
  Ru  Ru18  1  0.000008  0.249174  0.502056  1
  Ru  Ru19  1  0.000008  0.750825  0.502056  1
  Ru  Ru20  1  0.500169  0.249252  0.666668  1
  Ru  Ru21  1  0.500169  0.750749  0.666668  1
  Ru  Ru22  1  0.000149  0.249181  0.831275  1
  Ru  Ru23  1  0.000149  0.750819  0.831275  1
