# generated using pymatgen
data_Sm8Ho8Sc4Si15Ru
_symmetry_space_group_name_H-M   'P 1'
_cell_length_a   7.28436617
_cell_length_b   7.74592106
_cell_length_c   14.50672900
_cell_angle_alpha   90.00000000
_cell_angle_beta   90.00000000
_cell_angle_gamma   90.14193252
_symmetry_Int_Tables_number   1
_chemical_formula_structural   Sm8Ho8Sc4Si15Ru
_chemical_formula_sum   'Sm8 Ho8 Sc4 Si15 Ru1'
_cell_volume   818.52698299
_cell_formula_units_Z   1
loop_
 _symmetry_equiv_pos_site_id
 _symmetry_equiv_pos_as_xyz
  1  'x, y, z'
loop_
 _atom_site_type_symbol
 _atom_site_label
 _atom_site_symmetry_multiplicity
 _atom_site_fract_x
 _atom_site_fract_y
 _atom_site_fract_z
 _atom_site_occupancy
  Sm  Sm0  1  0.016245  0.183118  0.096425  1
  Sm  Sm1  1  0.986122  0.824660  0.902858  1
  Sm  Sm2  1  0.484936  0.680123  0.903923  1
  Sm  Sm3  1  0.986122  0.824660  0.597142  1
  Sm  Sm4  1  0.515938  0.319823  0.096714  1
  Sm  Sm5  1  0.016245  0.183118  0.403575  1
  Sm  Sm6  1  0.515938  0.319823  0.403286  1
  Sm  Sm7  1  0.484936  0.680123  0.596077  1
  Ho  Ho8  1  0.311198  0.172397  0.628976  1
  Ho  Ho9  1  0.677139  0.824830  0.373804  1
  Ho  Ho10  1  0.176560  0.679120  0.374092  1
  Ho  Ho11  1  0.677139  0.824830  0.126196  1
  Ho  Ho12  1  0.832138  0.316788  0.628072  1
  Ho  Ho13  1  0.311198  0.172397  0.871024  1
  Ho  Ho14  1  0.832138  0.316788  0.871928  1
  Ho  Ho15  1  0.176560  0.679120  0.125908  1
  Sc  Sc16  1  0.156450  0.513677  0.750000  1
  Sc  Sc17  1  0.841486  0.485551  0.250000  1
  Sc  Sc18  1  0.341558  0.016367  0.250000  1
  Sc  Sc19  1  0.670404  0.987967  0.750000  1
  Si  Si20  1  0.978581  0.901731  0.250000  1
  Si  Si21  1  0.479243  0.599232  0.250000  1
  Si  Si22  1  0.520393  0.401105  0.750000  1
  Si  Si23  1  0.282072  0.862080  0.750000  1
  Si  Si24  1  0.717054  0.133214  0.250000  1
  Si  Si25  1  0.218390  0.368497  0.250000  1
  Si  Si26  1  0.775763  0.627334  0.750000  1
  Si  Si27  1  0.154837  0.471913  0.538953  1
  Si  Si28  1  0.848700  0.532279  0.460860  1
  Si  Si29  1  0.348139  0.969544  0.459925  1
  Si  Si30  1  0.848700  0.532279  0.039140  1
  Si  Si31  1  0.648843  0.031992  0.539346  1
  Si  Si32  1  0.154837  0.471913  0.961047  1
  Si  Si33  1  0.648843  0.031992  0.960654  1
  Si  Si34  1  0.348139  0.969544  0.040075  1
  Ru  Ru35  1  0.017015  0.090067  0.750000  1
