# generated using pymatgen
data_Lu3Sn3IrRhAu
_symmetry_space_group_name_H-M   'P 1'
_cell_length_a   7.62932500
_cell_length_b   7.62932475
_cell_length_c   3.77111500
_cell_angle_alpha   90.00000000
_cell_angle_beta   90.00000000
_cell_angle_gamma   119.99999325
_symmetry_Int_Tables_number   1
_chemical_formula_structural   Lu3Sn3IrRhAu
_chemical_formula_sum   'Lu3 Sn3 Ir1 Rh1 Au1'
_cell_volume   190.09585840
_cell_formula_units_Z   1
loop_
 _symmetry_equiv_pos_site_id
 _symmetry_equiv_pos_as_xyz
  1  'x, y, z'
loop_
 _atom_site_type_symbol
 _atom_site_label
 _atom_site_symmetry_multiplicity
 _atom_site_fract_x
 _atom_site_fract_y
 _atom_site_fract_z
 _atom_site_occupancy
  Lu  Lu0  1  0.388641  0.410591  0.500000  1
  Lu  Lu1  1  0.589409  0.978050  0.500000  1
  Lu  Lu2  1  0.021950  0.611359  0.500000  1
  Sn  Sn3  1  0.739754  0.738926  0.000000  1
  Sn  Sn4  1  0.261074  0.000828  0.000000  1
  Sn  Sn5  1  0.999172  0.260246  0.000000  1
  Ir  Ir6  1  0.333333  0.666667  0.000000  1
  Rh  Rh7  1  0.000000  0.000000  0.500000  1
  Au  Au8  1  0.666667  0.333333  0.000000  1
