# generated using pymatgen
data_Ce2SnPdRh
_symmetry_space_group_name_H-M   'P 1'
_cell_length_a   7.73591313
_cell_length_b   7.73591313
_cell_length_c   3.78576500
_cell_angle_alpha   90.00000000
_cell_angle_beta   90.00000000
_cell_angle_gamma   90.62787891
_symmetry_Int_Tables_number   1
_chemical_formula_structural   Ce2SnPdRh
_chemical_formula_sum   'Ce4 Sn2 Pd2 Rh2'
_cell_volume   226.54304936
_cell_formula_units_Z   2
loop_
 _symmetry_equiv_pos_site_id
 _symmetry_equiv_pos_as_xyz
  1  'x, y, z'
loop_
 _atom_site_type_symbol
 _atom_site_label
 _atom_site_symmetry_multiplicity
 _atom_site_fract_x
 _atom_site_fract_y
 _atom_site_fract_z
 _atom_site_occupancy
  Ce  Ce0  1  0.682176  0.182176  0.500000  1
  Ce  Ce1  1  0.317824  0.817824  0.500000  1
  Ce  Ce2  1  0.170264  0.329736  0.500000  1
  Ce  Ce3  1  0.829736  0.670264  0.500000  1
  Sn  Sn4  1  0.000000  0.000000  0.000000  1
  Sn  Sn5  1  0.500000  0.500000  0.000000  1
  Pd  Pd6  1  0.628091  0.871909  0.000000  1
  Pd  Pd7  1  0.371909  0.128091  0.000000  1
  Rh  Rh8  1  0.133841  0.633841  0.000000  1
  Rh  Rh9  1  0.866159  0.366159  0.000000  1
