# generated using pymatgen
data_Ce2B10Os
_symmetry_space_group_name_H-M   'P 1'
_cell_length_a   4.19243800
_cell_length_b   5.72452700
_cell_length_c   11.41417400
_cell_angle_alpha   90.00000000
_cell_angle_beta   90.00000000
_cell_angle_gamma   90.00000000
_symmetry_Int_Tables_number   1
_chemical_formula_structural   Ce2B10Os
_chemical_formula_sum   'Ce4 B20 Os2'
_cell_volume   273.93703170
_cell_formula_units_Z   2
loop_
 _symmetry_equiv_pos_site_id
 _symmetry_equiv_pos_as_xyz
  1  'x, y, z'
loop_
 _atom_site_type_symbol
 _atom_site_label
 _atom_site_symmetry_multiplicity
 _atom_site_fract_x
 _atom_site_fract_y
 _atom_site_fract_z
 _atom_site_occupancy
  Ce  Ce0  1  0.500000  0.281620  0.869326  1
  Ce  Ce1  1  0.500000  0.718380  0.130674  1
  Ce  Ce2  1  0.500000  0.781620  0.630674  1
  Ce  Ce3  1  0.500000  0.218380  0.369326  1
  B  B4  1  0.000000  0.118587  0.542592  1
  B  B5  1  0.000000  0.881413  0.457408  1
  B  B6  1  0.000000  0.618587  0.957408  1
  B  B7  1  0.000000  0.381413  0.042592  1
  B  B8  1  0.000000  0.133975  0.697412  1
  B  B9  1  0.000000  0.866025  0.302588  1
  B  B10  1  0.301179  0.221251  0.118758  1
  B  B11  1  0.301179  0.778749  0.881242  1
  B  B12  1  0.698821  0.721251  0.381242  1
  B  B13  1  0.698821  0.278749  0.618758  1
  B  B14  1  0.698821  0.778749  0.881242  1
  B  B15  1  0.698821  0.221251  0.118758  1
  B  B16  1  0.301179  0.278749  0.618758  1
  B  B17  1  0.301179  0.721251  0.381242  1
  B  B18  1  0.000000  0.057332  0.192952  1
  B  B19  1  0.000000  0.942668  0.807048  1
  B  B20  1  0.000000  0.557332  0.307048  1
  B  B21  1  0.000000  0.442668  0.692952  1
  B  B22  1  0.000000  0.366025  0.197412  1
  B  B23  1  0.000000  0.633975  0.802588  1
  Os  Os24  1  0.000000  0.500000  0.500000  1
  Os  Os25  1  0.000000  0.000000  0.000000  1
