# generated using pymatgen
data_Hf6Al9(FeSi)7
_symmetry_space_group_name_H-M   'P 1'
_cell_length_a   8.33461396
_cell_length_b   8.36946532
_cell_length_c   8.36946600
_cell_angle_alpha   59.99999732
_cell_angle_beta   59.86157703
_cell_angle_gamma   59.86158066
_symmetry_Int_Tables_number   1
_chemical_formula_structural   Hf6Al9(FeSi)7
_chemical_formula_sum   'Hf6 Al9 Fe7 Si7'
_cell_volume   411.95912241
_cell_formula_units_Z   1
loop_
 _symmetry_equiv_pos_site_id
 _symmetry_equiv_pos_as_xyz
  1  'x, y, z'
loop_
 _atom_site_type_symbol
 _atom_site_label
 _atom_site_symmetry_multiplicity
 _atom_site_fract_x
 _atom_site_fract_y
 _atom_site_fract_z
 _atom_site_occupancy
  Hf  Hf0  1  0.696472  0.303481  0.303481  1
  Hf  Hf1  1  0.304599  0.696901  0.696901  1
  Hf  Hf2  1  0.304599  0.696901  0.301598  1
  Hf  Hf3  1  0.696472  0.303481  0.696565  1
  Hf  Hf4  1  0.304599  0.301598  0.696901  1
  Hf  Hf5  1  0.696472  0.696565  0.303481  1
  Al  Al6  1  0.002007  0.665998  0.665998  1
  Al  Al7  1  0.121035  0.120519  0.120519  1
  Al  Al8  1  0.881135  0.880689  0.880689  1
  Al  Al9  1  0.121035  0.120519  0.637928  1
  Al  Al10  1  0.121035  0.637928  0.120519  1
  Al  Al11  1  0.881135  0.880689  0.357487  1
  Al  Al12  1  0.881135  0.357487  0.880689  1
  Al  Al13  1  0.636624  0.121125  0.121125  1
  Al  Al14  1  0.362709  0.879097  0.879097  1
  Fe  Fe15  1  0.500143  0.999996  0.999996  1
  Fe  Fe16  1  0.999926  0.496360  0.496360  1
  Fe  Fe17  1  0.999926  0.496360  0.007354  1
  Fe  Fe18  1  0.500143  0.999996  0.499866  1
  Fe  Fe19  1  0.999926  0.007354  0.496360  1
  Fe  Fe20  1  0.500143  0.499866  0.999996  1
  Fe  Fe21  1  0.000760  0.999746  0.999746  1
  Si  Si22  1  0.339508  0.340781  0.340781  1
  Si  Si23  1  0.663371  0.659116  0.659116  1
  Si  Si24  1  0.339508  0.340781  0.978930  1
  Si  Si25  1  0.339508  0.978930  0.340781  1
  Si  Si26  1  0.663371  0.659116  0.018398  1
  Si  Si27  1  0.663371  0.018398  0.659116  1
  Si  Si28  1  0.979332  0.340222  0.340222  1
