# generated using pymatgen
data_Ce2Co2P6Ru5Rh3
_symmetry_space_group_name_H-M   'P 1'
_cell_length_a   3.85649500
_cell_length_b   10.81697100
_cell_length_c   12.28569500
_cell_angle_alpha   90.00000000
_cell_angle_beta   90.00000000
_cell_angle_gamma   90.00000000
_symmetry_Int_Tables_number   1
_chemical_formula_structural   Ce2Co2P6Ru5Rh3
_chemical_formula_sum   'Ce4 Co4 P12 Ru10 Rh6'
_cell_volume   512.50507171
_cell_formula_units_Z   2
loop_
 _symmetry_equiv_pos_site_id
 _symmetry_equiv_pos_as_xyz
  1  'x, y, z'
loop_
 _atom_site_type_symbol
 _atom_site_label
 _atom_site_symmetry_multiplicity
 _atom_site_fract_x
 _atom_site_fract_y
 _atom_site_fract_z
 _atom_site_occupancy
  Ce  Ce0  1  0.250000  0.585549  0.704798  1
  Ce  Ce1  1  0.250000  0.914451  0.204798  1
  Ce  Ce2  1  0.750000  0.412230  0.293738  1
  Ce  Ce3  1  0.750000  0.087770  0.793738  1
  Co  Co4  1  0.250000  0.465078  0.934855  1
  Co  Co5  1  0.250000  0.034922  0.434855  1
  Co  Co6  1  0.750000  0.535459  0.067143  1
  Co  Co7  1  0.750000  0.964541  0.567143  1
  P  P8  1  0.250000  0.420256  0.106463  1
  P  P9  1  0.250000  0.079744  0.606463  1
  P  P10  1  0.750000  0.577150  0.895074  1
  P  P11  1  0.750000  0.922850  0.395074  1
  P  P12  1  0.250000  0.273518  0.873675  1
  P  P13  1  0.250000  0.226482  0.373675  1
  P  P14  1  0.750000  0.727289  0.122418  1
  P  P15  1  0.750000  0.772711  0.622418  1
  P  P16  1  0.250000  0.596710  0.395248  1
  P  P17  1  0.250000  0.903290  0.895248  1
  P  P18  1  0.750000  0.397511  0.605926  1
  P  P19  1  0.750000  0.102489  0.105926  1
  Ru  Ru20  1  0.250000  0.714710  0.988701  1
  Ru  Ru21  1  0.250000  0.785290  0.488701  1
  Ru  Ru22  1  0.750000  0.289909  0.012364  1
  Ru  Ru23  1  0.750000  0.210091  0.512364  1
  Ru  Ru24  1  0.250000  0.402825  0.486852  1
  Ru  Ru25  1  0.250000  0.097175  0.986852  1
  Ru  Ru26  1  0.750000  0.593822  0.512457  1
  Ru  Ru27  1  0.750000  0.906178  0.012457  1
  Ru  Ru28  1  0.250000  0.227133  0.178928  1
  Ru  Ru29  1  0.250000  0.272867  0.678928  1
  Rh  Rh30  1  0.750000  0.770586  0.820293  1
  Rh  Rh31  1  0.750000  0.729414  0.320293  1
  Rh  Rh32  1  0.250000  0.890133  0.700969  1
  Rh  Rh33  1  0.250000  0.609867  0.200969  1
  Rh  Rh34  1  0.750000  0.108691  0.300097  1
  Rh  Rh35  1  0.750000  0.391309  0.800097  1
