# generated using pymatgen
data_LaPa(Be11Cu2)2
_symmetry_space_group_name_H-M   'P 1'
_cell_length_a   7.41553882
_cell_length_b   7.42991798
_cell_length_c   7.38927830
_cell_angle_alpha   60.05230500
_cell_angle_beta   60.24572249
_cell_angle_gamma   59.70197746
_symmetry_Int_Tables_number   1
_chemical_formula_structural   LaPa(Be11Cu2)2
_chemical_formula_sum   'La1 Pa1 Be22 Cu4'
_cell_volume   287.86820792
_cell_formula_units_Z   1
loop_
 _symmetry_equiv_pos_site_id
 _symmetry_equiv_pos_as_xyz
  1  'x, y, z'
loop_
 _atom_site_type_symbol
 _atom_site_label
 _atom_site_symmetry_multiplicity
 _atom_site_fract_x
 _atom_site_fract_y
 _atom_site_fract_z
 _atom_site_occupancy
  La  La0  1  0.500000  0.500000  0.500000  1
  Pa  Pa1  1  0.000000  0.000000  0.000000  1
  Be  Be2  1  0.026598  0.684993  0.468622  1
  Be  Be3  1  0.468622  0.819787  0.026598  1
  Be  Be4  1  0.684993  0.026598  0.819787  1
  Be  Be5  1  0.819787  0.468622  0.684993  1
  Be  Be6  1  0.953030  0.551206  0.306373  1
  Be  Be7  1  0.551206  0.953030  0.189391  1
  Be  Be8  1  0.189391  0.306373  0.551206  1
  Be  Be9  1  0.306373  0.189391  0.953030  1
  Be  Be10  1  0.461743  0.032495  0.688838  1
  Be  Be11  1  0.032495  0.461743  0.816925  1
  Be  Be12  1  0.816925  0.688838  0.032495  1
  Be  Be13  1  0.688838  0.816925  0.461743  1
  Be  Be14  1  0.314405  0.959115  0.546155  1
  Be  Be15  1  0.180326  0.546155  0.959115  1
  Be  Be16  1  0.546155  0.180326  0.314405  1
  Be  Be17  1  0.959115  0.314405  0.180326  1
  Be  Be18  1  0.693143  0.459846  0.034435  1
  Be  Be19  1  0.812576  0.034435  0.459846  1
  Be  Be20  1  0.034435  0.812576  0.693143  1
  Be  Be21  1  0.459846  0.693143  0.812576  1
  Be  Be22  1  0.250000  0.250000  0.250000  1
  Be  Be23  1  0.750000  0.750000  0.750000  1
  Cu  Cu24  1  0.555827  0.303943  0.948813  1
  Cu  Cu25  1  0.948813  0.191417  0.555827  1
  Cu  Cu26  1  0.303943  0.555827  0.191417  1
  Cu  Cu27  1  0.191417  0.948813  0.303943  1
