# generated using pymatgen
data_LiHo7(Si4W3)4
_symmetry_space_group_name_H-M   'P 1'
_cell_length_a   6.71359381
_cell_length_b   6.89549180
_cell_length_c   12.88387860
_cell_angle_alpha   90.00278727
_cell_angle_beta   89.87438223
_cell_angle_gamma   89.90864628
_symmetry_Int_Tables_number   1
_chemical_formula_structural   LiHo7(Si4W3)4
_chemical_formula_sum   'Li1 Ho7 Si16 W12'
_cell_volume   596.43804181
_cell_formula_units_Z   1
loop_
 _symmetry_equiv_pos_site_id
 _symmetry_equiv_pos_as_xyz
  1  'x, y, z'
loop_
 _atom_site_type_symbol
 _atom_site_label
 _atom_site_symmetry_multiplicity
 _atom_site_fract_x
 _atom_site_fract_y
 _atom_site_fract_z
 _atom_site_occupancy
  Li  Li0  1  0.984667  0.829906  0.593159  1
  Ho  Ho1  1  0.497362  0.669241  0.593608  1
  Ho  Ho2  1  0.997326  0.830615  0.906786  1
  Ho  Ho3  1  0.505236  0.331568  0.093190  1
  Ho  Ho4  1  0.003055  0.164938  0.411920  1
  Ho  Ho5  1  0.502710  0.331321  0.409392  1
  Ho  Ho6  1  0.004953  0.168313  0.093436  1
  Ho  Ho7  1  0.495985  0.670231  0.903503  1
  Si  Si8  1  0.662662  0.956306  0.456973  1
  Si  Si9  1  0.164120  0.543356  0.044615  1
  Si  Si10  1  0.337264  0.043785  0.953853  1
  Si  Si11  1  0.843034  0.467867  0.548332  1
  Si  Si12  1  0.326675  0.034025  0.547796  1
  Si  Si13  1  0.836593  0.455893  0.954547  1
  Si  Si14  1  0.664142  0.956698  0.044745  1
  Si  Si15  1  0.159903  0.548447  0.456663  1
  Si  Si16  1  0.465275  0.373486  0.750256  1
  Si  Si17  1  0.967937  0.120848  0.745779  1
  Si  Si18  1  0.535481  0.626993  0.250475  1
  Si  Si19  1  0.035427  0.871722  0.251375  1
  Si  Si20  1  0.707703  0.864612  0.744472  1
  Si  Si21  1  0.188775  0.643726  0.742879  1
  Si  Si22  1  0.301842  0.135372  0.251065  1
  Si  Si23  1  0.804072  0.364009  0.252203  1
  W  W24  1  0.666371  0.165981  0.624046  1
  W  W25  1  0.168108  0.338033  0.873832  1
  W  W26  1  0.332757  0.837627  0.125310  1
  W  W27  1  0.830096  0.663023  0.375226  1
  W  W28  1  0.334144  0.837413  0.374341  1
  W  W29  1  0.831423  0.661853  0.125526  1
  W  W30  1  0.669930  0.161266  0.873020  1
  W  W31  1  0.170477  0.334612  0.626397  1
  W  W32  1  0.836660  0.494436  0.750981  1
  W  W33  1  0.337473  0.002213  0.750128  1
  W  W34  1  0.165496  0.502336  0.250148  1
  W  W35  1  0.664864  0.997927  0.250022  1
