# generated using pymatgen
data_Nd3Sc3ReTe2
_symmetry_space_group_name_H-M   'P 1'
_cell_length_a   8.07143200
_cell_length_b   8.07143186
_cell_length_c   4.23921400
_cell_angle_alpha   90.00000000
_cell_angle_beta   90.00000000
_cell_angle_gamma   120.00000056
_symmetry_Int_Tables_number   1
_chemical_formula_structural   Nd3Sc3ReTe2
_chemical_formula_sum   'Nd3 Sc3 Re1 Te2'
_cell_volume   239.17575154
_cell_formula_units_Z   1
loop_
 _symmetry_equiv_pos_site_id
 _symmetry_equiv_pos_as_xyz
  1  'x, y, z'
loop_
 _atom_site_type_symbol
 _atom_site_label
 _atom_site_symmetry_multiplicity
 _atom_site_fract_x
 _atom_site_fract_y
 _atom_site_fract_z
 _atom_site_occupancy
  Nd  Nd0  1  0.392652  0.000000  0.500000  1
  Nd  Nd1  1  0.000000  0.392651  0.500000  1
  Nd  Nd2  1  0.607349  0.607349  0.500000  1
  Sc  Sc3  1  0.779558  0.000000  0.000000  1
  Sc  Sc4  1  0.220442  0.220442  0.000000  1
  Sc  Sc5  1  0.000000  0.779558  0.000000  1
  Re  Re6  1  0.000000  0.000000  0.500000  1
  Te  Te7  1  0.666667  0.333333  0.000000  1
  Te  Te8  1  0.333334  0.666667  0.000000  1
