# generated using pymatgen
data_Ta4Nb2SnCl18
_symmetry_space_group_name_H-M   'P 1'
_cell_length_a   10.32204206
_cell_length_b   10.31921960
_cell_length_c   10.32439953
_cell_angle_alpha   55.80609382
_cell_angle_beta   55.77670654
_cell_angle_gamma   55.80158942
_symmetry_Int_Tables_number   1
_chemical_formula_structural   Ta4Nb2SnCl18
_chemical_formula_sum   'Ta4 Nb2 Sn1 Cl18'
_cell_volume   701.78454612
_cell_formula_units_Z   1
loop_
 _symmetry_equiv_pos_site_id
 _symmetry_equiv_pos_as_xyz
  1  'x, y, z'
loop_
 _atom_site_type_symbol
 _atom_site_label
 _atom_site_symmetry_multiplicity
 _atom_site_fract_x
 _atom_site_fract_y
 _atom_site_fract_z
 _atom_site_occupancy
  Ta  Ta0  1  0.412036  0.298523  0.648479  1
  Ta  Ta1  1  0.351362  0.588417  0.701175  1
  Ta  Ta2  1  0.702260  0.350955  0.588041  1
  Ta  Ta3  1  0.298396  0.649404  0.410957  1
  Nb  Nb4  1  0.649870  0.411304  0.297261  1
  Nb  Nb5  1  0.589193  0.702416  0.349950  1
  Sn  Sn6  1  0.996809  0.001831  0.001360  1
  Cl  Cl7  1  0.568227  0.166991  0.442242  1
  Cl  Cl8  1  0.229102  0.369928  0.900893  1
  Cl  Cl9  1  0.902208  0.227906  0.371824  1
  Cl  Cl10  1  0.367656  0.901580  0.229174  1
  Cl  Cl11  1  0.772048  0.630427  0.097261  1
  Cl  Cl12  1  0.098903  0.770701  0.630314  1
  Cl  Cl13  1  0.688677  0.954122  0.169208  1
  Cl  Cl14  1  0.949681  0.171705  0.687277  1
  Cl  Cl15  1  0.172528  0.685470  0.949653  1
  Cl  Cl16  1  0.313656  0.050732  0.827829  1
  Cl  Cl17  1  0.049501  0.827576  0.314437  1
  Cl  Cl18  1  0.831122  0.310565  0.046275  1
  Cl  Cl19  1  0.560172  0.429975  0.831598  1
  Cl  Cl20  1  0.168393  0.439643  0.570203  1
  Cl  Cl21  1  0.437139  0.571469  0.168759  1
  Cl  Cl22  1  0.428253  0.831309  0.562885  1
  Cl  Cl23  1  0.832914  0.557997  0.431831  1
  Cl  Cl24  1  0.629893  0.099053  0.771114  1
