# generated using pymatgen
data_Hf5Co16(ReP4)3
_symmetry_space_group_name_H-M   'P 1'
_cell_length_a   3.63687300
_cell_length_b   11.80993275
_cell_length_c   11.80993200
_cell_angle_alpha   119.99999789
_cell_angle_beta   90.00000000
_cell_angle_gamma   90.00000000
_symmetry_Int_Tables_number   1
_chemical_formula_structural   Hf5Co16(ReP4)3
_chemical_formula_sum   'Hf5 Co16 Re3 P12'
_cell_volume   439.29230757
_cell_formula_units_Z   1
loop_
 _symmetry_equiv_pos_site_id
 _symmetry_equiv_pos_as_xyz
  1  'x, y, z'
loop_
 _atom_site_type_symbol
 _atom_site_label
 _atom_site_symmetry_multiplicity
 _atom_site_fract_x
 _atom_site_fract_y
 _atom_site_fract_z
 _atom_site_occupancy
  Hf  Hf0  1  0.000000  0.666667  0.333333  1
  Hf  Hf1  1  0.000000  0.333333  0.666667  1
  Hf  Hf2  1  0.500000  0.821372  0.821372  1
  Hf  Hf3  1  0.500000  0.178628  0.000000  1
  Hf  Hf4  1  0.500000  0.000000  0.178628  1
  Co  Co5  1  0.000000  0.194169  0.373101  1
  Co  Co6  1  0.000000  0.178932  0.805831  1
  Co  Co7  1  0.000000  0.821068  0.626899  1
  Co  Co8  1  0.000000  0.805831  0.178932  1
  Co  Co9  1  0.000000  0.373101  0.194169  1
  Co  Co10  1  0.500000  0.129462  0.484887  1
  Co  Co11  1  0.500000  0.355425  0.870538  1
  Co  Co12  1  0.500000  0.515113  0.644575  1
  Co  Co13  1  0.500000  0.644575  0.515113  1
  Co  Co14  1  0.500000  0.870538  0.355425  1
  Co  Co15  1  0.500000  0.484887  0.129462  1
  Co  Co16  1  0.000000  0.000000  0.000000  1
  Co  Co17  1  0.500000  0.718894  0.000000  1
  Co  Co18  1  0.500000  0.000000  0.718894  1
  Co  Co19  1  0.000000  0.626899  0.821068  1
  Co  Co20  1  0.500000  0.281106  0.281106  1
  Re  Re21  1  0.000000  0.447857  0.447857  1
  Re  Re22  1  0.000000  0.552143  0.000000  1
  Re  Re23  1  0.000000  0.000000  0.552143  1
  P  P24  1  0.000000  0.643286  0.643286  1
  P  P25  1  0.000000  0.356714  0.000000  1
  P  P26  1  0.000000  0.000000  0.356714  1
  P  P27  1  0.500000  0.481964  0.314949  1
  P  P28  1  0.500000  0.685051  0.167015  1
  P  P29  1  0.500000  0.832985  0.518036  1
  P  P30  1  0.500000  0.518036  0.832985  1
  P  P31  1  0.500000  0.167015  0.685051  1
  P  P32  1  0.000000  0.824447  0.000000  1
  P  P33  1  0.000000  0.000000  0.824447  1
  P  P34  1  0.500000  0.314949  0.481964  1
  P  P35  1  0.000000  0.175553  0.175553  1
