# generated using pymatgen
data_Hf8Nb(NiP2)2
_symmetry_space_group_name_H-M   'P 1'
_cell_length_a   11.87523800
_cell_length_b   11.87523800
_cell_length_c   3.64619300
_cell_angle_alpha   90.00000000
_cell_angle_beta   90.00000000
_cell_angle_gamma   90.00000000
_symmetry_Int_Tables_number   1
_chemical_formula_structural   Hf8Nb(NiP2)2
_chemical_formula_sum   'Hf16 Nb2 Ni4 P8'
_cell_volume   514.19079508
_cell_formula_units_Z   2
loop_
 _symmetry_equiv_pos_site_id
 _symmetry_equiv_pos_as_xyz
  1  'x, y, z'
loop_
 _atom_site_type_symbol
 _atom_site_label
 _atom_site_symmetry_multiplicity
 _atom_site_fract_x
 _atom_site_fract_y
 _atom_site_fract_z
 _atom_site_occupancy
  Hf  Hf0  1  0.099296  0.178667  0.500000  1
  Hf  Hf1  1  0.178667  0.900704  0.500000  1
  Hf  Hf2  1  0.821333  0.099296  0.500000  1
  Hf  Hf3  1  0.900704  0.821333  0.500000  1
  Hf  Hf4  1  0.400704  0.678667  0.500000  1
  Hf  Hf5  1  0.599296  0.321333  0.500000  1
  Hf  Hf6  1  0.678667  0.599296  0.500000  1
  Hf  Hf7  1  0.321333  0.400704  0.500000  1
  Hf  Hf8  1  0.095608  0.404392  0.000000  1
  Hf  Hf9  1  0.404392  0.904392  0.000000  1
  Hf  Hf10  1  0.595608  0.095608  0.000000  1
  Hf  Hf11  1  0.904392  0.595608  0.000000  1
  Hf  Hf12  1  0.379648  0.120352  0.500000  1
  Hf  Hf13  1  0.120352  0.620352  0.500000  1
  Hf  Hf14  1  0.879648  0.379648  0.500000  1
  Hf  Hf15  1  0.620352  0.879648  0.500000  1
  Nb  Nb16  1  0.000000  0.000000  0.000000  1
  Nb  Nb17  1  0.500000  0.500000  0.000000  1
  Ni  Ni18  1  0.252207  0.247793  0.000000  1
  Ni  Ni19  1  0.247793  0.747793  0.000000  1
  Ni  Ni20  1  0.752207  0.252207  0.000000  1
  Ni  Ni21  1  0.747793  0.752207  0.000000  1
  P  P22  1  0.222698  0.056923  0.000000  1
  P  P23  1  0.056923  0.777302  0.000000  1
  P  P24  1  0.943077  0.222698  0.000000  1
  P  P25  1  0.777302  0.943077  0.000000  1
  P  P26  1  0.277302  0.556923  0.000000  1
  P  P27  1  0.722698  0.443077  0.000000  1
  P  P28  1  0.556923  0.722698  0.000000  1
  P  P29  1  0.443077  0.277302  0.000000  1
