# generated using pymatgen
data_Pr2In2PdRh
_symmetry_space_group_name_H-M   'P 1'
_cell_length_a   4.60695700
_cell_length_b   7.26026188
_cell_length_c   8.43619951
_cell_angle_alpha   89.78060192
_cell_angle_beta   90.00000000
_cell_angle_gamma   90.00000000
_symmetry_Int_Tables_number   1
_chemical_formula_structural   Pr2In2PdRh
_chemical_formula_sum   'Pr4 In4 Pd2 Rh2'
_cell_volume   282.16952241
_cell_formula_units_Z   2
loop_
 _symmetry_equiv_pos_site_id
 _symmetry_equiv_pos_as_xyz
  1  'x, y, z'
loop_
 _atom_site_type_symbol
 _atom_site_label
 _atom_site_symmetry_multiplicity
 _atom_site_fract_x
 _atom_site_fract_y
 _atom_site_fract_z
 _atom_site_occupancy
  Pr  Pr0  1  0.250000  0.541447  0.183354  1
  Pr  Pr1  1  0.750000  0.458553  0.816646  1
  Pr  Pr2  1  0.750000  0.966535  0.675350  1
  Pr  Pr3  1  0.250000  0.033465  0.324650  1
  In  In4  1  0.250000  0.640743  0.564156  1
  In  In5  1  0.750000  0.359257  0.435844  1
  In  In6  1  0.750000  0.852611  0.063852  1
  In  In7  1  0.250000  0.147389  0.936148  1
  Pd  Pd8  1  0.250000  0.761138  0.879794  1
  Pd  Pd9  1  0.750000  0.238862  0.120206  1
  Rh  Rh10  1  0.750000  0.748192  0.384652  1
  Rh  Rh11  1  0.250000  0.251808  0.615348  1
