# generated using pymatgen
data_Li5Pr5(SiN3)4
_symmetry_space_group_name_H-M   'P 1'
_cell_length_a   11.00942200
_cell_length_b   11.00942200
_cell_length_c   5.57829200
_cell_angle_alpha   90.00000000
_cell_angle_beta   90.00000000
_cell_angle_gamma   90.00000000
_symmetry_Int_Tables_number   1
_chemical_formula_structural   Li5Pr5(SiN3)4
_chemical_formula_sum   'Li10 Pr10 Si8 N24'
_cell_volume   676.13011789
_cell_formula_units_Z   2
loop_
 _symmetry_equiv_pos_site_id
 _symmetry_equiv_pos_as_xyz
  1  'x, y, z'
loop_
 _atom_site_type_symbol
 _atom_site_label
 _atom_site_symmetry_multiplicity
 _atom_site_fract_x
 _atom_site_fract_y
 _atom_site_fract_z
 _atom_site_occupancy
  Li  Li0  1  0.500000  0.000000  0.000000  1
  Li  Li1  1  0.000000  0.500000  0.000000  1
  Li  Li2  1  0.385228  0.207873  0.145455  1
  Li  Li3  1  0.885229  0.292127  0.145455  1
  Li  Li4  1  0.114772  0.707873  0.145455  1
  Li  Li5  1  0.614771  0.792127  0.145455  1
  Li  Li6  1  0.292127  0.114772  0.854545  1
  Li  Li7  1  0.792127  0.385228  0.854545  1
  Li  Li8  1  0.207873  0.614771  0.854545  1
  Li  Li9  1  0.707873  0.885229  0.854545  1
  Pr  Pr10  1  0.117598  0.122367  0.269546  1
  Pr  Pr11  1  0.617598  0.377633  0.269546  1
  Pr  Pr12  1  0.382402  0.622367  0.269546  1
  Pr  Pr13  1  0.882402  0.877633  0.269546  1
  Pr  Pr14  1  0.500000  0.000000  0.500001  1
  Pr  Pr15  1  0.000000  0.500000  0.500001  1
  Pr  Pr16  1  0.877633  0.117598  0.730455  1
  Pr  Pr17  1  0.377633  0.382402  0.730455  1
  Pr  Pr18  1  0.622367  0.617598  0.730455  1
  Pr  Pr19  1  0.122367  0.882402  0.730455  1
  Si  Si20  1  0.732512  0.109743  0.237120  1
  Si  Si21  1  0.232512  0.390257  0.237120  1
  Si  Si22  1  0.767488  0.609743  0.237120  1
  Si  Si23  1  0.267488  0.890257  0.237120  1
  Si  Si24  1  0.609743  0.232512  0.762879  1
  Si  Si25  1  0.109743  0.267488  0.762879  1
  Si  Si26  1  0.890257  0.732512  0.762879  1
  Si  Si27  1  0.390257  0.767488  0.762879  1
  N  N28  1  0.713216  0.213216  0.000000  1
  N  N29  1  0.213216  0.286784  0.000000  1
  N  N30  1  0.786784  0.713216  0.000000  1
  N  N31  1  0.286784  0.786784  0.000000  1
  N  N32  1  0.333038  0.031939  0.197301  1
  N  N33  1  0.833039  0.468062  0.197301  1
  N  N34  1  0.166962  0.531939  0.197301  1
  N  N35  1  0.666962  0.968062  0.197301  1
  N  N36  1  0.892730  0.105822  0.267051  1
  N  N37  1  0.392729  0.394178  0.267051  1
  N  N38  1  0.607271  0.605822  0.267051  1
  N  N39  1  0.107271  0.894178  0.267051  1
  N  N40  1  0.672379  0.172379  0.500001  1
  N  N41  1  0.172379  0.327621  0.500001  1
  N  N42  1  0.827622  0.672379  0.500001  1
  N  N43  1  0.327621  0.827622  0.500001  1
  N  N44  1  0.105822  0.107271  0.732950  1
  N  N45  1  0.605822  0.392729  0.732950  1
  N  N46  1  0.394178  0.607271  0.732950  1
  N  N47  1  0.894178  0.892730  0.732950  1
  N  N48  1  0.468062  0.166962  0.802699  1
  N  N49  1  0.968062  0.333038  0.802699  1
  N  N50  1  0.031939  0.666962  0.802699  1
  N  N51  1  0.531939  0.833039  0.802699  1
