# generated using pymatgen
data_YbErAl20IrOs3
_symmetry_space_group_name_H-M   'P 1'
_cell_length_a   6.86231422
_cell_length_b   6.86139928
_cell_length_c   9.15186601
_cell_angle_alpha   90.22465401
_cell_angle_beta   90.08026158
_cell_angle_gamma   96.39605077
_symmetry_Int_Tables_number   1
_chemical_formula_structural   YbErAl20IrOs3
_chemical_formula_sum   'Yb1 Er1 Al20 Ir1 Os3'
_cell_volume   428.23010427
_cell_formula_units_Z   1
loop_
 _symmetry_equiv_pos_site_id
 _symmetry_equiv_pos_as_xyz
  1  'x, y, z'
loop_
 _atom_site_type_symbol
 _atom_site_label
 _atom_site_symmetry_multiplicity
 _atom_site_fract_x
 _atom_site_fract_y
 _atom_site_fract_z
 _atom_site_occupancy
  Yb  Yb0  1  0.372140  0.625693  0.250117  1
  Er  Er1  1  0.630415  0.373171  0.749780  1
  Al  Al2  1  0.280583  0.018870  0.747846  1
  Al  Al3  1  0.019664  0.282435  0.249256  1
  Al  Al4  1  0.719125  0.980174  0.252154  1
  Al  Al5  1  0.981498  0.718762  0.750527  1
  Al  Al6  1  0.879046  0.123802  0.947618  1
  Al  Al7  1  0.120815  0.875941  0.047194  1
  Al  Al8  1  0.876876  0.123382  0.550619  1
  Al  Al9  1  0.123440  0.875953  0.454189  1
  Al  Al10  1  0.645459  0.916407  0.749252  1
  Al  Al11  1  0.916329  0.646483  0.250307  1
  Al  Al12  1  0.352598  0.083573  0.251102  1
  Al  Al13  1  0.084760  0.355784  0.749579  1
  Al  Al14  1  0.342607  0.655023  0.897190  1
  Al  Al15  1  0.660271  0.341412  0.102886  1
  Al  Al16  1  0.344775  0.656151  0.600544  1
  Al  Al17  1  0.658603  0.340119  0.399136  1
  Al  Al18  1  0.723189  0.723349  0.999157  1
  Al  Al19  1  0.722192  0.723490  0.500381  1
  Al  Al20  1  0.275508  0.278724  0.001262  1
  Al  Al21  1  0.275817  0.278013  0.499488  1
  Ir  Ir22  1  0.499170  0.001148  0.999541  1
  Os  Os23  1  0.997711  0.500117  0.998844  1
  Os  Os24  1  0.499710  0.001981  0.501029  1
  Os  Os25  1  0.997704  0.500041  0.500999  1
