# generated using pymatgen
data_Ho6Tm4In3Hg5Pd4
_symmetry_space_group_name_H-M   'P 1'
_cell_length_a   3.61222500
_cell_length_b   7.92366994
_cell_length_c   18.22436704
_cell_angle_alpha   89.70899639
_cell_angle_beta   90.00000000
_cell_angle_gamma   90.00000000
_symmetry_Int_Tables_number   1
_chemical_formula_structural   Ho6Tm4In3Hg5Pd4
_chemical_formula_sum   'Ho6 Tm4 In3 Hg5 Pd4'
_cell_volume   521.61253898
_cell_formula_units_Z   1
loop_
 _symmetry_equiv_pos_site_id
 _symmetry_equiv_pos_as_xyz
  1  'x, y, z'
loop_
 _atom_site_type_symbol
 _atom_site_label
 _atom_site_symmetry_multiplicity
 _atom_site_fract_x
 _atom_site_fract_y
 _atom_site_fract_z
 _atom_site_occupancy
  Ho  Ho0  1  0.000000  0.497546  0.501627  1
  Ho  Ho1  1  0.000000  0.000884  0.000522  1
  Ho  Ho2  1  0.000000  0.745623  0.284776  1
  Ho  Ho3  1  0.000000  0.265470  0.712129  1
  Ho  Ho4  1  0.000000  0.753100  0.782863  1
  Ho  Ho5  1  0.000000  0.246595  0.216077  1
  Tm  Tm6  1  0.000000  0.611374  0.083483  1
  Tm  Tm7  1  0.000000  0.387912  0.916318  1
  Tm  Tm8  1  0.000000  0.883390  0.585419  1
  Tm  Tm9  1  0.000000  0.107851  0.417068  1
  In  In10  1  0.500000  0.419362  0.351702  1
  In  In11  1  0.500000  0.920942  0.149580  1
  In  In12  1  0.500000  0.079940  0.849429  1
  Hg  Hg13  1  0.500000  0.711989  0.934569  1
  Hg  Hg14  1  0.500000  0.288965  0.066063  1
  Hg  Hg15  1  0.500000  0.785670  0.434503  1
  Hg  Hg16  1  0.500000  0.204433  0.563770  1
  Hg  Hg17  1  0.500000  0.581767  0.647882  1
  Pd  Pd18  1  0.500000  0.535596  0.197363  1
  Pd  Pd19  1  0.500000  0.465049  0.804272  1
  Pd  Pd20  1  0.500000  0.972149  0.697423  1
  Pd  Pd21  1  0.500000  0.034395  0.303164  1
