# generated using pymatgen
data_Tm6MoP12Rh17
_symmetry_space_group_name_H-M   'P 1'
_cell_length_a   3.90720500
_cell_length_b   11.16256900
_cell_length_c   12.73039700
_cell_angle_alpha   90.00000000
_cell_angle_beta   90.00000000
_cell_angle_gamma   90.00000000
_symmetry_Int_Tables_number   1
_chemical_formula_structural   Tm6MoP12Rh17
_chemical_formula_sum   'Tm6 Mo1 P12 Rh17'
_cell_volume   555.22920500
_cell_formula_units_Z   1
loop_
 _symmetry_equiv_pos_site_id
 _symmetry_equiv_pos_as_xyz
  1  'x, y, z'
loop_
 _atom_site_type_symbol
 _atom_site_label
 _atom_site_symmetry_multiplicity
 _atom_site_fract_x
 _atom_site_fract_y
 _atom_site_fract_z
 _atom_site_occupancy
  Tm  Tm0  1  0.000000  0.500000  0.520757  1
  Tm  Tm1  1  0.500000  0.000000  0.476968  1
  Tm  Tm2  1  0.500000  0.813049  0.206241  1
  Tm  Tm3  1  0.500000  0.186951  0.206241  1
  Tm  Tm4  1  0.000000  0.682508  0.796561  1
  Tm  Tm5  1  0.000000  0.317492  0.796561  1
  Mo  Mo6  1  0.500000  0.500000  0.157340  1
  P  P7  1  0.500000  0.500000  0.874210  1
  P  P8  1  0.000000  0.000000  0.124503  1
  P  P9  1  0.500000  0.500000  0.347853  1
  P  P10  1  0.000000  0.000000  0.648316  1
  P  P11  1  0.500000  0.315992  0.619479  1
  P  P12  1  0.500000  0.684008  0.619479  1
  P  P13  1  0.000000  0.185242  0.381243  1
  P  P14  1  0.000000  0.814758  0.381243  1
  P  P15  1  0.500000  0.849255  0.890681  1
  P  P16  1  0.500000  0.150745  0.890681  1
  P  P17  1  0.000000  0.653863  0.110278  1
  P  P18  1  0.000000  0.346137  0.110278  1
  Rh  Rh19  1  0.000000  0.000000  0.832886  1
  Rh  Rh20  1  0.500000  0.500000  0.697491  1
  Rh  Rh21  1  0.000000  0.000000  0.300904  1
  Rh  Rh22  1  0.000000  0.500000  0.986628  1
  Rh  Rh23  1  0.500000  0.000000  0.024018  1
  Rh  Rh24  1  0.500000  0.332105  0.984596  1
  Rh  Rh25  1  0.500000  0.667895  0.984596  1
  Rh  Rh26  1  0.000000  0.167074  0.012382  1
  Rh  Rh27  1  0.000000  0.832926  0.012382  1
  Rh  Rh28  1  0.500000  0.293873  0.432793  1
  Rh  Rh29  1  0.500000  0.706127  0.432793  1
  Rh  Rh30  1  0.000000  0.201598  0.568684  1
  Rh  Rh31  1  0.000000  0.798402  0.568684  1
  Rh  Rh32  1  0.500000  0.872815  0.710407  1
  Rh  Rh33  1  0.500000  0.127185  0.710407  1
  Rh  Rh34  1  0.000000  0.625815  0.290718  1
  Rh  Rh35  1  0.000000  0.374185  0.290718  1
