# generated using pymatgen
data_Ba3TmInWO9
_symmetry_space_group_name_H-M   'P 1'
_cell_length_a   10.43042361
_cell_length_b   10.43042445
_cell_length_c   10.43042381
_cell_angle_alpha   146.39591296
_cell_angle_beta   132.16524909
_cell_angle_gamma   59.72485700
_symmetry_Int_Tables_number   1
_chemical_formula_structural   Ba3TmInWO9
_chemical_formula_sum   'Ba6 Tm2 In2 W2 O18'
_cell_volume   461.31515018
_cell_formula_units_Z   2
loop_
 _symmetry_equiv_pos_site_id
 _symmetry_equiv_pos_as_xyz
  1  'x, y, z'
loop_
 _atom_site_type_symbol
 _atom_site_label
 _atom_site_symmetry_multiplicity
 _atom_site_fract_x
 _atom_site_fract_y
 _atom_site_fract_z
 _atom_site_occupancy
  Ba  Ba0  1  0.582901  0.840115  0.742785  1
  Ba  Ba1  1  0.263826  0.500000  0.763826  1
  Ba  Ba2  1  0.902669  0.159885  0.742785  1
  Ba  Ba3  1  0.097331  0.840115  0.257215  1
  Ba  Ba4  1  0.736174  0.500000  0.236174  1
  Ba  Ba5  1  0.417099  0.159885  0.257215  1
  Tm  Tm6  1  0.331143  0.331143  0.000000  1
  Tm  Tm7  1  0.668857  0.668857  0.000000  1
  In  In8  1  0.000000  0.000000  0.000000  1
  In  In9  1  0.500000  0.000000  0.500000  1
  W  W10  1  0.167015  0.667015  0.500000  1
  W  W11  1  0.832985  0.332985  0.500000  1
  O  O12  1  0.596985  0.329803  0.267181  1
  O  O13  1  0.240605  0.000000  0.240605  1
  O  O14  1  0.937377  0.670197  0.267181  1
  O  O15  1  0.909334  0.639061  0.729727  1
  O  O16  1  0.586205  0.335840  0.749635  1
  O  O17  1  0.243131  0.974970  0.731839  1
  O  O18  1  0.756869  0.488710  0.731839  1
  O  O19  1  0.413795  0.163430  0.749635  1
  O  O20  1  0.090666  0.820392  0.729727  1
  O  O21  1  0.062623  0.329803  0.732819  1
  O  O22  1  0.759395  0.000000  0.759395  1
  O  O23  1  0.403015  0.670197  0.732819  1
  O  O24  1  0.756869  0.025030  0.268161  1
  O  O25  1  0.413795  0.664160  0.250365  1
  O  O26  1  0.090666  0.360939  0.270273  1
  O  O27  1  0.909334  0.179608  0.270273  1
  O  O28  1  0.586205  0.836570  0.250365  1
  O  O29  1  0.243131  0.511290  0.268161  1
