# generated using pymatgen
data_Nd3YAl18(Pd2Ru)2
_symmetry_space_group_name_H-M   'P 1'
_cell_length_a   7.65499813
_cell_length_b   7.66305579
_cell_length_c   9.59490900
_cell_angle_alpha   90.00000000
_cell_angle_beta   90.00000000
_cell_angle_gamma   119.50257892
_symmetry_Int_Tables_number   1
_chemical_formula_structural   Nd3YAl18(Pd2Ru)2
_chemical_formula_sum   'Nd3 Y1 Al18 Pd4 Ru2'
_cell_volume   489.86188824
_cell_formula_units_Z   1
loop_
 _symmetry_equiv_pos_site_id
 _symmetry_equiv_pos_as_xyz
  1  'x, y, z'
loop_
 _atom_site_type_symbol
 _atom_site_label
 _atom_site_symmetry_multiplicity
 _atom_site_fract_x
 _atom_site_fract_y
 _atom_site_fract_z
 _atom_site_occupancy
  Nd  Nd0  1  0.995219  0.667644  0.250000  1
  Nd  Nd1  1  0.005389  0.332024  0.750000  1
  Nd  Nd2  1  0.667581  0.994667  0.250000  1
  Y  Y3  1  0.331006  0.005480  0.750000  1
  Al  Al4  1  0.125993  0.125200  0.250000  1
  Al  Al5  1  0.876035  0.875054  0.750000  1
  Al  Al6  1  0.002343  0.328530  0.074634  1
  Al  Al7  1  0.999848  0.673018  0.923630  1
  Al  Al8  1  0.999848  0.673018  0.576370  1
  Al  Al9  1  0.328599  0.001899  0.427381  1
  Al  Al10  1  0.002343  0.328530  0.425366  1
  Al  Al11  1  0.669473  0.997949  0.576351  1
  Al  Al12  1  0.669473  0.997949  0.923649  1
  Al  Al13  1  0.328599  0.001899  0.072619  1
  Al  Al14  1  0.329479  0.328143  0.552545  1
  Al  Al15  1  0.671034  0.670960  0.450581  1
  Al  Al16  1  0.671034  0.670960  0.049419  1
  Al  Al17  1  0.329479  0.328143  0.947455  1
  Al  Al18  1  0.342277  0.544235  0.250000  1
  Al  Al19  1  0.655722  0.453303  0.750000  1
  Al  Al20  1  0.543795  0.341319  0.250000  1
  Al  Al21  1  0.455031  0.659241  0.750000  1
  Pd  Pd22  1  0.671227  0.328026  0.999282  1
  Pd  Pd23  1  0.328326  0.671889  0.999351  1
  Pd  Pd24  1  0.328326  0.671889  0.500649  1
  Pd  Pd25  1  0.671227  0.328026  0.500718  1
  Ru  Ru26  1  0.000647  0.000502  0.998858  1
  Ru  Ru27  1  0.000647  0.000502  0.501142  1
