# generated using pymatgen
data_Er12Tc2OsPd
_symmetry_space_group_name_H-M   'P 1'
_cell_length_a   6.28856910
_cell_length_b   7.32195677
_cell_length_c   9.06660900
_cell_angle_alpha   90.00000000
_cell_angle_beta   90.00000000
_cell_angle_gamma   90.22917366
_symmetry_Int_Tables_number   1
_chemical_formula_structural   Er12Tc2OsPd
_chemical_formula_sum   'Er12 Tc2 Os1 Pd1'
_cell_volume   417.46532695
_cell_formula_units_Z   1
loop_
 _symmetry_equiv_pos_site_id
 _symmetry_equiv_pos_as_xyz
  1  'x, y, z'
loop_
 _atom_site_type_symbol
 _atom_site_label
 _atom_site_symmetry_multiplicity
 _atom_site_fract_x
 _atom_site_fract_y
 _atom_site_fract_z
 _atom_site_occupancy
  Er  Er0  1  0.337688  0.670801  0.057536  1
  Er  Er1  1  0.168082  0.184607  0.442464  1
  Er  Er2  1  0.668638  0.322356  0.563087  1
  Er  Er3  1  0.824868  0.822369  0.931815  1
  Er  Er4  1  0.668638  0.322356  0.936913  1
  Er  Er5  1  0.824868  0.822369  0.568185  1
  Er  Er6  1  0.337688  0.670801  0.442464  1
  Er  Er7  1  0.168082  0.184607  0.057536  1
  Er  Er8  1  0.873155  0.533118  0.250000  1
  Er  Er9  1  0.624914  0.040923  0.250000  1
  Er  Er10  1  0.125197  0.463483  0.750000  1
  Er  Er11  1  0.369973  0.960191  0.750000  1
  Tc  Tc12  1  0.462229  0.385640  0.250000  1
  Tc  Tc13  1  0.963944  0.112994  0.750000  1
  Os  Os14  1  0.535286  0.615514  0.750000  1
  Pd  Pd15  1  0.046749  0.887871  0.250000  1
