# generated using pymatgen
data_Li2La8Pr8AlCdIr4
_symmetry_space_group_name_H-M   'P 1'
_cell_length_a   10.09071203
_cell_length_b   10.09071206
_cell_length_c   10.10663200
_cell_angle_alpha   59.94780352
_cell_angle_beta   59.94780340
_cell_angle_gamma   60.60858256
_symmetry_Int_Tables_number   1
_chemical_formula_structural   Li2La8Pr8AlCdIr4
_chemical_formula_sum   'Li2 La8 Pr8 Al1 Cd1 Ir4'
_cell_volume   730.37606950
_cell_formula_units_Z   1
loop_
 _symmetry_equiv_pos_site_id
 _symmetry_equiv_pos_as_xyz
  1  'x, y, z'
loop_
 _atom_site_type_symbol
 _atom_site_label
 _atom_site_symmetry_multiplicity
 _atom_site_fract_x
 _atom_site_fract_y
 _atom_site_fract_z
 _atom_site_occupancy
  Li  Li0  1  0.572104  0.569973  0.575460  1
  Li  Li1  1  0.572104  0.569973  0.282462  1
  La  La2  1  0.347397  0.345459  0.349689  1
  La  La3  1  0.347397  0.345459  0.957456  1
  La  La4  1  0.348064  0.962854  0.344540  1
  La  La5  1  0.960028  0.348234  0.345869  1
  La  La6  1  0.810327  0.189355  0.191927  1
  La  La7  1  0.187552  0.812803  0.811104  1
  La  La8  1  0.187552  0.812803  0.188541  1
  La  La9  1  0.810327  0.189355  0.808392  1
  Pr  Pr10  1  0.198746  0.195290  0.802982  1
  Pr  Pr11  1  0.812275  0.812947  0.187389  1
  Pr  Pr12  1  0.937242  0.562983  0.564831  1
  Pr  Pr13  1  0.563305  0.940095  0.932039  1
  Pr  Pr14  1  0.563305  0.940095  0.564561  1
  Pr  Pr15  1  0.937242  0.562983  0.934944  1
  Pr  Pr16  1  0.561893  0.561128  0.938489  1
  Pr  Pr17  1  0.937251  0.941021  0.560864  1
  Al  Al18  1  0.581897  0.249961  0.584071  1
  Cd  Cd19  1  0.257569  0.580260  0.581085  1
  Ir  Ir20  1  0.139746  0.139958  0.144941  1
  Ir  Ir21  1  0.139746  0.139958  0.575354  1
  Ir  Ir22  1  0.149100  0.578081  0.136410  1
  Ir  Ir23  1  0.577828  0.148972  0.136600  1
