# generated using pymatgen
data_Ta6MoH16
_symmetry_space_group_name_H-M   'P 1'
_cell_length_a   6.32776231
_cell_length_b   6.32776263
_cell_length_c   6.32776400
_cell_angle_alpha   60.00000328
_cell_angle_beta   60.00000162
_cell_angle_gamma   60.00000878
_symmetry_Int_Tables_number   1
_chemical_formula_structural   Ta6MoH16
_chemical_formula_sum   'Ta6 Mo1 H16'
_cell_volume   179.15777369
_cell_formula_units_Z   1
loop_
 _symmetry_equiv_pos_site_id
 _symmetry_equiv_pos_as_xyz
  1  'x, y, z'
loop_
 _atom_site_type_symbol
 _atom_site_label
 _atom_site_symmetry_multiplicity
 _atom_site_fract_x
 _atom_site_fract_y
 _atom_site_fract_z
 _atom_site_occupancy
  Ta  Ta0  1  0.000000  0.000000  0.500000  1
  Ta  Ta1  1  0.500000  0.000000  0.500000  1
  Ta  Ta2  1  0.000000  0.500000  0.500000  1
  Ta  Ta3  1  0.500000  0.500000  0.000000  1
  Ta  Ta4  1  0.000000  0.500000  0.000000  1
  Ta  Ta5  1  0.500000  0.000000  0.000000  1
  Mo  Mo6  1  0.000000  0.000000  0.000000  1
  H  H7  1  0.877411  0.877411  0.367766  1
  H  H8  1  0.877411  0.367766  0.877411  1
  H  H9  1  0.367766  0.877411  0.877411  1
  H  H10  1  0.877411  0.877411  0.877411  1
  H  H11  1  0.122589  0.122589  0.632234  1
  H  H12  1  0.122589  0.632234  0.122589  1
  H  H13  1  0.632234  0.122589  0.122589  1
  H  H14  1  0.122589  0.122589  0.122589  1
  H  H15  1  0.619379  0.619379  0.141863  1
  H  H16  1  0.619379  0.141863  0.619379  1
  H  H17  1  0.141863  0.619379  0.619379  1
  H  H18  1  0.619379  0.619379  0.619379  1
  H  H19  1  0.380621  0.380621  0.858137  1
  H  H20  1  0.380621  0.858137  0.380621  1
  H  H21  1  0.858137  0.380621  0.380621  1
  H  H22  1  0.380621  0.380621  0.380621  1
