# generated using pymatgen
data_K2YbOsO6
_symmetry_space_group_name_H-M   'P 1'
_cell_length_a   5.90263600
_cell_length_b   5.90263654
_cell_length_c   5.90263600
_cell_angle_alpha   120.00000818
_cell_angle_beta   89.99999029
_cell_angle_gamma   120.00000257
_symmetry_Int_Tables_number   1
_chemical_formula_structural   K2YbOsO6
_chemical_formula_sum   'K2 Yb1 Os1 O6'
_cell_volume   145.41962317
_cell_formula_units_Z   1
loop_
 _symmetry_equiv_pos_site_id
 _symmetry_equiv_pos_as_xyz
  1  'x, y, z'
loop_
 _atom_site_type_symbol
 _atom_site_label
 _atom_site_symmetry_multiplicity
 _atom_site_fract_x
 _atom_site_fract_y
 _atom_site_fract_z
 _atom_site_occupancy
  K  K0  1  0.749997  0.499998  0.249999  1
  K  K1  1  0.249999  0.499998  0.750000  1
  Yb  Yb2  1  0.500000  0.000000  0.500000  1
  Os  Os3  1  0.000000  0.000000  0.000000  1
  O  O4  1  0.224618  0.000000  0.224618  1
  O  O5  1  0.224620  0.449238  0.224620  1
  O  O6  1  0.775380  0.000000  0.224620  1
  O  O7  1  0.775380  0.550761  0.775380  1
  O  O8  1  0.224620  0.000000  0.775380  1
  O  O9  1  0.775382  0.000000  0.775382  1
