# generated using pymatgen
data_Pr2Mg3CdIr18
_symmetry_space_group_name_H-M   'P 1'
_cell_length_a   8.93986205
_cell_length_b   8.93986205
_cell_length_c   5.09481300
_cell_angle_alpha   90.00000000
_cell_angle_beta   90.00000000
_cell_angle_gamma   89.98732295
_symmetry_Int_Tables_number   1
_chemical_formula_structural   Pr2Mg3CdIr18
_chemical_formula_sum   'Pr2 Mg3 Cd1 Ir18'
_cell_volume   407.18322026
_cell_formula_units_Z   1
loop_
 _symmetry_equiv_pos_site_id
 _symmetry_equiv_pos_as_xyz
  1  'x, y, z'
loop_
 _atom_site_type_symbol
 _atom_site_label
 _atom_site_symmetry_multiplicity
 _atom_site_fract_x
 _atom_site_fract_y
 _atom_site_fract_z
 _atom_site_occupancy
  Pr  Pr0  1  0.500068  0.500333  0.000000  1
  Pr  Pr1  1  0.999667  0.999932  0.000000  1
  Mg  Mg2  1  0.116905  0.616949  0.000000  1
  Mg  Mg3  1  0.883051  0.383095  0.000000  1
  Mg  Mg4  1  0.383099  0.116901  0.000000  1
  Cd  Cd5  1  0.616415  0.883585  0.000000  1
  Ir  Ir6  1  0.316778  0.818050  0.760267  1
  Ir  Ir7  1  0.681950  0.183222  0.760267  1
  Ir  Ir8  1  0.181784  0.318216  0.760976  1
  Ir  Ir9  1  0.819677  0.680323  0.760010  1
  Ir  Ir10  1  0.681950  0.183222  0.239733  1
  Ir  Ir11  1  0.316778  0.818050  0.239733  1
  Ir  Ir12  1  0.819677  0.680323  0.239990  1
  Ir  Ir13  1  0.181784  0.318216  0.239024  1
  Ir  Ir14  1  0.556286  0.704258  0.500000  1
  Ir  Ir15  1  0.443077  0.294527  0.500000  1
  Ir  Ir16  1  0.943474  0.206181  0.500000  1
  Ir  Ir17  1  0.057227  0.794099  0.500000  1
  Ir  Ir18  1  0.705901  0.442773  0.500000  1
  Ir  Ir19  1  0.293819  0.556526  0.500000  1
  Ir  Ir20  1  0.205473  0.056923  0.500000  1
  Ir  Ir21  1  0.795742  0.943714  0.500000  1
  Ir  Ir22  1  0.000136  0.499864  0.500000  1
  Ir  Ir23  1  0.499281  0.000719  0.500000  1
