# generated using pymatgen
data_Dy18Ho2Si15Ir
_symmetry_space_group_name_H-M   'P 1'
_cell_length_a   7.42825858
_cell_length_b   7.67103152
_cell_length_c   14.57907317
_cell_angle_alpha   89.77847722
_cell_angle_beta   89.69922632
_cell_angle_gamma   90.20806126
_symmetry_Int_Tables_number   1
_chemical_formula_structural   Dy18Ho2Si15Ir
_chemical_formula_sum   'Dy18 Ho2 Si15 Ir1'
_cell_volume   830.72746816
_cell_formula_units_Z   1
loop_
 _symmetry_equiv_pos_site_id
 _symmetry_equiv_pos_as_xyz
  1  'x, y, z'
loop_
 _atom_site_type_symbol
 _atom_site_label
 _atom_site_symmetry_multiplicity
 _atom_site_fract_x
 _atom_site_fract_y
 _atom_site_fract_z
 _atom_site_occupancy
  Dy  Dy0  1  0.847663  0.488343  0.758828  1
  Dy  Dy1  1  0.352815  0.010737  0.752578  1
  Dy  Dy2  1  0.972867  0.814429  0.097028  1
  Dy  Dy3  1  0.471116  0.682831  0.401314  1
  Dy  Dy4  1  0.530965  0.323944  0.901448  1
  Dy  Dy5  1  0.029631  0.184739  0.599450  1
  Dy  Dy6  1  0.027705  0.186942  0.902494  1
  Dy  Dy7  1  0.530021  0.317842  0.598770  1
  Dy  Dy8  1  0.475375  0.681024  0.098613  1
  Dy  Dy9  1  0.970084  0.817029  0.400598  1
  Dy  Dy10  1  0.684251  0.811702  0.882676  1
  Dy  Dy11  1  0.178810  0.681806  0.621728  1
  Dy  Dy12  1  0.817585  0.332895  0.118871  1
  Dy  Dy13  1  0.316254  0.178143  0.376066  1
  Dy  Dy14  1  0.320333  0.178566  0.123544  1
  Dy  Dy15  1  0.819280  0.319031  0.377205  1
  Dy  Dy16  1  0.175781  0.675650  0.878476  1
  Dy  Dy17  1  0.682689  0.818957  0.622394  1
  Ho  Ho18  1  0.648500  0.992571  0.248473  1
  Ho  Ho19  1  0.148062  0.511198  0.247583  1
  Si  Si20  1  0.764276  0.629342  0.252118  1
  Si  Si21  1  0.265920  0.872232  0.250706  1
  Si  Si22  1  0.733338  0.123501  0.748217  1
  Si  Si23  1  0.235896  0.373736  0.746325  1
  Si  Si24  1  0.019734  0.104909  0.249085  1
  Si  Si25  1  0.522426  0.396799  0.251380  1
  Si  Si26  1  0.471599  0.606049  0.746019  1
  Si  Si27  1  0.977119  0.898352  0.748078  1
  Si  Si28  1  0.354388  0.972027  0.539702  1
  Si  Si29  1  0.645708  0.026690  0.042298  1
  Si  Si30  1  0.147254  0.470465  0.459969  1
  Si  Si31  1  0.155160  0.472435  0.041354  1
  Si  Si32  1  0.643784  0.028362  0.459514  1
  Si  Si33  1  0.353594  0.969294  0.961473  1
  Si  Si34  1  0.854552  0.528763  0.538704  1
  Ir  Ir35  1  0.855468  0.518665  0.956921  1
