# generated using pymatgen
data_Zr6Ti4Al12Ir6Os
_symmetry_space_group_name_H-M   'P 1'
_cell_length_a   8.80427735
_cell_length_b   8.77515399
_cell_length_c   8.80427803
_cell_angle_alpha   60.10936673
_cell_angle_beta   59.72826565
_cell_angle_gamma   60.10936828
_symmetry_Int_Tables_number   1
_chemical_formula_structural   Zr6Ti4Al12Ir6Os
_chemical_formula_sum   'Zr6 Ti4 Al12 Ir6 Os1'
_cell_volume   480.77338859
_cell_formula_units_Z   1
loop_
 _symmetry_equiv_pos_site_id
 _symmetry_equiv_pos_as_xyz
  1  'x, y, z'
loop_
 _atom_site_type_symbol
 _atom_site_label
 _atom_site_symmetry_multiplicity
 _atom_site_fract_x
 _atom_site_fract_y
 _atom_site_fract_z
 _atom_site_occupancy
  Zr  Zr0  1  0.688775  0.687126  0.310923  1
  Zr  Zr1  1  0.302766  0.697234  0.302766  1
  Zr  Zr2  1  0.688775  0.313176  0.310923  1
  Zr  Zr3  1  0.310923  0.313176  0.688775  1
  Zr  Zr4  1  0.698557  0.301443  0.698557  1
  Zr  Zr5  1  0.310923  0.687126  0.688775  1
  Ti  Ti6  1  0.878141  0.880818  0.360224  1
  Ti  Ti7  1  0.881403  0.361112  0.881403  1
  Ti  Ti8  1  0.360224  0.880818  0.878141  1
  Ti  Ti9  1  0.881403  0.876083  0.881403  1
  Al  Al10  1  0.120690  0.119552  0.640205  1
  Al  Al11  1  0.119057  0.639727  0.119057  1
  Al  Al12  1  0.640205  0.119552  0.120690  1
  Al  Al13  1  0.119057  0.122157  0.119057  1
  Al  Al14  1  0.661966  0.664315  0.009405  1
  Al  Al15  1  0.662958  0.012849  0.662958  1
  Al  Al16  1  0.009405  0.664315  0.661966  1
  Al  Al17  1  0.662958  0.661232  0.662958  1
  Al  Al18  1  0.336177  0.334906  0.994010  1
  Al  Al19  1  0.336239  0.990605  0.336239  1
  Al  Al20  1  0.994010  0.334906  0.336177  1
  Al  Al21  1  0.336239  0.336918  0.336239  1
  Ir  Ir22  1  0.000303  0.999697  0.000303  1
  Ir  Ir23  1  0.998503  0.998341  0.501039  1
  Ir  Ir24  1  0.502010  0.997990  0.502010  1
  Ir  Ir25  1  0.998503  0.502118  0.501039  1
  Ir  Ir26  1  0.501039  0.502118  0.998503  1
  Ir  Ir27  1  0.501039  0.998341  0.998503  1
  Os  Os28  1  0.997752  0.502248  0.997752  1
