# generated using pymatgen
data_Sr(NiH3)2
_symmetry_space_group_name_H-M   'P 1'
_cell_length_a   4.49217116
_cell_length_b   4.47609771
_cell_length_c   4.29125300
_cell_angle_alpha   89.41351446
_cell_angle_beta   90.40848180
_cell_angle_gamma   119.92241808
_symmetry_Int_Tables_number   1
_chemical_formula_structural   Sr(NiH3)2
_chemical_formula_sum   'Sr1 Ni2 H6'
_cell_volume   74.78003354
_cell_formula_units_Z   1
loop_
 _symmetry_equiv_pos_site_id
 _symmetry_equiv_pos_as_xyz
  1  'x, y, z'
loop_
 _atom_site_type_symbol
 _atom_site_label
 _atom_site_symmetry_multiplicity
 _atom_site_fract_x
 _atom_site_fract_y
 _atom_site_fract_z
 _atom_site_occupancy
  Sr  Sr0  1  0.474827  0.394315  0.507241  1
  Ni  Ni1  1  0.143590  0.727797  0.008723  1
  Ni  Ni2  1  0.806031  0.060388  0.007836  1
  H  H3  1  0.972551  0.391402  0.235789  1
  H  H4  1  0.474168  0.889882  0.778146  1
  H  H5  1  0.977272  0.894239  0.233243  1
  H  H6  1  0.976245  0.898145  0.782881  1
  H  H7  1  0.475396  0.895004  0.238074  1
  H  H8  1  0.973056  0.396715  0.780340  1
