# generated using pymatgen
data_Nd3Hf3Sn6IrRh5
_symmetry_space_group_name_H-M   'P 1'
_cell_length_a   7.50473100
_cell_length_b   7.50473151
_cell_length_c   7.71116700
_cell_angle_alpha   90.00000000
_cell_angle_beta   90.00000000
_cell_angle_gamma   120.00000214
_symmetry_Int_Tables_number   1
_chemical_formula_structural   Nd3Hf3Sn6IrRh5
_chemical_formula_sum   'Nd3 Hf3 Sn6 Ir1 Rh5'
_cell_volume   376.11531760
_cell_formula_units_Z   1
loop_
 _symmetry_equiv_pos_site_id
 _symmetry_equiv_pos_as_xyz
  1  'x, y, z'
loop_
 _atom_site_type_symbol
 _atom_site_label
 _atom_site_symmetry_multiplicity
 _atom_site_fract_x
 _atom_site_fract_y
 _atom_site_fract_z
 _atom_site_occupancy
  Nd  Nd0  1  0.000603  0.409150  0.749679  1
  Nd  Nd1  1  0.590850  0.591454  0.749679  1
  Nd  Nd2  1  0.408546  0.999397  0.749679  1
  Hf  Hf3  1  0.999984  0.394414  0.250313  1
  Hf  Hf4  1  0.605586  0.605571  0.250313  1
  Hf  Hf5  1  0.394429  0.000016  0.250313  1
  Sn  Sn6  1  0.264414  0.264042  0.487451  1
  Sn  Sn7  1  0.999628  0.735586  0.487451  1
  Sn  Sn8  1  0.000631  0.735827  0.012449  1
  Sn  Sn9  1  0.735958  0.000372  0.487451  1
  Sn  Sn10  1  0.735196  0.999369  0.012449  1
  Sn  Sn11  1  0.264173  0.264804  0.012449  1
  Ir  Ir12  1  0.333333  0.666667  0.451143  1
  Rh  Rh13  1  0.666667  0.333333  0.452348  1
  Rh  Rh14  1  0.333333  0.666667  0.049291  1
  Rh  Rh15  1  0.000000  0.000000  0.749837  1
  Rh  Rh16  1  0.000000  0.000000  0.250305  1
  Rh  Rh17  1  0.666667  0.333333  0.047399  1
