# generated using pymatgen
data_DyTmLu2CdPt
_symmetry_space_group_name_H-M   'P 1'
_cell_length_a   9.56079165
_cell_length_b   9.54621579
_cell_length_c   9.54621508
_cell_angle_alpha   60.10104562
_cell_angle_beta   59.94948314
_cell_angle_gamma   59.94948319
_symmetry_Int_Tables_number   1
_chemical_formula_structural   DyTmLu2CdPt
_chemical_formula_sum   'Dy4 Tm4 Lu8 Cd4 Pt4'
_cell_volume   616.08314874
_cell_formula_units_Z   4
loop_
 _symmetry_equiv_pos_site_id
 _symmetry_equiv_pos_as_xyz
  1  'x, y, z'
loop_
 _atom_site_type_symbol
 _atom_site_label
 _atom_site_symmetry_multiplicity
 _atom_site_fract_x
 _atom_site_fract_y
 _atom_site_fract_z
 _atom_site_occupancy
  Dy  Dy0  1  0.565138  0.934862  0.565138  1
  Dy  Dy1  1  0.934862  0.565137  0.934862  1
  Dy  Dy2  1  0.565138  0.565138  0.934862  1
  Dy  Dy3  1  0.934862  0.934862  0.565137  1
  Tm  Tm4  1  0.353370  0.352500  0.352500  1
  Tm  Tm5  1  0.352500  0.353370  0.941630  1
  Tm  Tm6  1  0.352500  0.941630  0.353370  1
  Tm  Tm7  1  0.941630  0.352500  0.352500  1
  Lu  Lu8  1  0.811480  0.188520  0.188520  1
  Lu  Lu9  1  0.188520  0.811480  0.811480  1
  Lu  Lu10  1  0.188356  0.811644  0.188356  1
  Lu  Lu11  1  0.811644  0.188356  0.811644  1
  Lu  Lu12  1  0.188356  0.188356  0.811644  1
  Lu  Lu13  1  0.811644  0.811644  0.188356  1
  Lu  Lu14  1  0.938600  0.561400  0.561400  1
  Lu  Lu15  1  0.561400  0.938600  0.938600  1
  Cd  Cd16  1  0.583255  0.581126  0.581126  1
  Cd  Cd17  1  0.581126  0.583255  0.254493  1
  Cd  Cd18  1  0.581126  0.254493  0.583255  1
  Cd  Cd19  1  0.254493  0.581126  0.581126  1
  Pt  Pt20  1  0.144201  0.142195  0.142195  1
  Pt  Pt21  1  0.142195  0.144201  0.571408  1
  Pt  Pt22  1  0.142195  0.571408  0.144201  1
  Pt  Pt23  1  0.571408  0.142195  0.142195  1
