# generated using pymatgen
data_Sm3Ag5Ir
_symmetry_space_group_name_H-M   'P 1'
_cell_length_a   7.96044900
_cell_length_b   7.96045006
_cell_length_c   3.73933100
_cell_angle_alpha   90.00000000
_cell_angle_beta   90.00000000
_cell_angle_gamma   119.99999973
_symmetry_Int_Tables_number   1
_chemical_formula_structural   Sm3Ag5Ir
_chemical_formula_sum   'Sm3 Ag5 Ir1'
_cell_volume   205.21057134
_cell_formula_units_Z   1
loop_
 _symmetry_equiv_pos_site_id
 _symmetry_equiv_pos_as_xyz
  1  'x, y, z'
loop_
 _atom_site_type_symbol
 _atom_site_label
 _atom_site_symmetry_multiplicity
 _atom_site_fract_x
 _atom_site_fract_y
 _atom_site_fract_z
 _atom_site_occupancy
  Sm  Sm0  1  0.585101  0.617350  0.000000  1
  Sm  Sm1  1  0.382650  0.967752  0.000000  1
  Sm  Sm2  1  0.032248  0.414899  0.000000  1
  Ag  Ag3  1  0.991816  0.723484  0.500000  1
  Ag  Ag4  1  0.276516  0.268333  0.500000  1
  Ag  Ag5  1  0.731667  0.008184  0.500000  1
  Ag  Ag6  1  0.000000  0.000000  0.000000  1
  Ag  Ag7  1  0.666667  0.333333  0.500000  1
  Ir  Ir8  1  0.333333  0.666667  0.500000  1
