# generated using pymatgen
data_TiNb3Al2(B2Ru5)2
_symmetry_space_group_name_H-M   'P 1'
_cell_length_a   9.31294801
_cell_length_b   9.31294801
_cell_length_c   2.98268900
_cell_angle_alpha   90.00000000
_cell_angle_beta   90.00000000
_cell_angle_gamma   89.60974839
_symmetry_Int_Tables_number   1
_chemical_formula_structural   TiNb3Al2(B2Ru5)2
_chemical_formula_sum   'Ti1 Nb3 Al2 B4 Ru10'
_cell_volume   258.68560073
_cell_formula_units_Z   1
loop_
 _symmetry_equiv_pos_site_id
 _symmetry_equiv_pos_as_xyz
  1  'x, y, z'
loop_
 _atom_site_type_symbol
 _atom_site_label
 _atom_site_symmetry_multiplicity
 _atom_site_fract_x
 _atom_site_fract_y
 _atom_site_fract_z
 _atom_site_occupancy
  Ti  Ti0  1  0.823959  0.676041  0.000000  1
  Nb  Nb1  1  0.174923  0.325077  0.000000  1
  Nb  Nb2  1  0.324336  0.823060  0.000000  1
  Nb  Nb3  1  0.676940  0.175664  0.000000  1
  Al  Al4  1  0.499063  0.499902  0.000000  1
  Al  Al5  1  0.000098  0.000937  0.000000  1
  B  B6  1  0.626719  0.873281  0.000000  1
  B  B7  1  0.375084  0.124916  0.000000  1
  B  B8  1  0.123308  0.624991  0.000000  1
  B  B9  1  0.875009  0.376692  0.000000  1
  Ru  Ru10  1  0.571083  0.712847  0.500000  1
  Ru  Ru11  1  0.432113  0.285160  0.500000  1
  Ru  Ru12  1  0.068444  0.786632  0.500000  1
  Ru  Ru13  1  0.931770  0.215210  0.500000  1
  Ru  Ru14  1  0.284790  0.568230  0.500000  1
  Ru  Ru15  1  0.713368  0.431556  0.500000  1
  Ru  Ru16  1  0.214840  0.067887  0.500000  1
  Ru  Ru17  1  0.787153  0.928917  0.500000  1
  Ru  Ru18  1  0.500996  0.999004  0.500000  1
  Ru  Ru19  1  0.996003  0.503997  0.500000  1
