# generated using pymatgen
data_Th8Ni3Ir3Os2
_symmetry_space_group_name_H-M   'P 1'
_cell_length_a   4.29742300
_cell_length_b   5.86707403
_cell_length_c   14.58371999
_cell_angle_alpha   90.40669024
_cell_angle_beta   90.00000000
_cell_angle_gamma   90.00000000
_symmetry_Int_Tables_number   1
_chemical_formula_structural   Th8Ni3Ir3Os2
_chemical_formula_sum   'Th8 Ni3 Ir3 Os2'
_cell_volume   367.69442777
_cell_formula_units_Z   1
loop_
 _symmetry_equiv_pos_site_id
 _symmetry_equiv_pos_as_xyz
  1  'x, y, z'
loop_
 _atom_site_type_symbol
 _atom_site_label
 _atom_site_symmetry_multiplicity
 _atom_site_fract_x
 _atom_site_fract_y
 _atom_site_fract_z
 _atom_site_occupancy
  Th  Th0  1  0.250000  0.546979  0.285281  1
  Th  Th1  1  0.750000  0.452452  0.717039  1
  Th  Th2  1  0.250000  0.956195  0.787461  1
  Th  Th3  1  0.250000  0.755873  0.536444  1
  Th  Th4  1  0.250000  0.745209  0.032711  1
  Th  Th5  1  0.750000  0.258816  0.964197  1
  Th  Th6  1  0.750000  0.045767  0.213907  1
  Th  Th7  1  0.750000  0.241402  0.462369  1
  Ni  Ni8  1  0.750000  0.766826  0.902035  1
  Ni  Ni9  1  0.250000  0.232494  0.098345  1
  Ni  Ni10  1  0.250000  0.263706  0.602152  1
  Ir  Ir11  1  0.750000  0.552377  0.141179  1
  Ir  Ir12  1  0.750000  0.722233  0.404241  1
  Ir  Ir13  1  0.750000  0.945412  0.652289  1
  Os  Os14  1  0.250000  0.067028  0.346852  1
  Os  Os15  1  0.250000  0.447234  0.853499  1
