# generated using pymatgen
data_CsCd12Au
_symmetry_space_group_name_H-M   'P 1'
_cell_length_a   9.98943297
_cell_length_b   9.98943205
_cell_length_c   9.98943400
_cell_angle_alpha   60.00000016
_cell_angle_beta   60.00000321
_cell_angle_gamma   59.99999909
_symmetry_Int_Tables_number   1
_chemical_formula_structural   CsCd12Au
_chemical_formula_sum   'Cs2 Cd24 Au2'
_cell_volume   704.86756408
_cell_formula_units_Z   2
loop_
 _symmetry_equiv_pos_site_id
 _symmetry_equiv_pos_as_xyz
  1  'x, y, z'
loop_
 _atom_site_type_symbol
 _atom_site_label
 _atom_site_symmetry_multiplicity
 _atom_site_fract_x
 _atom_site_fract_y
 _atom_site_fract_z
 _atom_site_occupancy
  Cs  Cs0  1  0.250000  0.250000  0.250000  1
  Cs  Cs1  1  0.750000  0.750000  0.750000  1
  Cd  Cd2  1  0.441444  0.202080  0.797920  1
  Cd  Cd3  1  0.941444  0.702080  0.058556  1
  Cd  Cd4  1  0.702080  0.941444  0.297920  1
  Cd  Cd5  1  0.297920  0.702080  0.941444  1
  Cd  Cd6  1  0.941444  0.058556  0.297920  1
  Cd  Cd7  1  0.702080  0.058556  0.941444  1
  Cd  Cd8  1  0.297920  0.941444  0.058556  1
  Cd  Cd9  1  0.797920  0.441444  0.202080  1
  Cd  Cd10  1  0.202080  0.797920  0.441444  1
  Cd  Cd11  1  0.441444  0.558556  0.202080  1
  Cd  Cd12  1  0.441444  0.797920  0.558556  1
  Cd  Cd13  1  0.202080  0.558556  0.797920  1
  Cd  Cd14  1  0.558556  0.441444  0.797920  1
  Cd  Cd15  1  0.558556  0.202080  0.441444  1
  Cd  Cd16  1  0.797920  0.202080  0.558556  1
  Cd  Cd17  1  0.058556  0.941444  0.702080  1
  Cd  Cd18  1  0.058556  0.297920  0.941444  1
  Cd  Cd19  1  0.941444  0.297920  0.702080  1
  Cd  Cd20  1  0.058556  0.702080  0.297920  1
  Cd  Cd21  1  0.297920  0.058556  0.702080  1
  Cd  Cd22  1  0.702080  0.297920  0.058556  1
  Cd  Cd23  1  0.202080  0.441444  0.558556  1
  Cd  Cd24  1  0.797920  0.558556  0.441444  1
  Cd  Cd25  1  0.558556  0.797920  0.202080  1
  Au  Au26  1  0.000000  0.000000  0.000000  1
  Au  Au27  1  0.500000  0.500000  0.500000  1
