# generated using pymatgen
data_Ta9Be4Nb7Te16
_symmetry_space_group_name_H-M   'P 1'
_cell_length_a   4.78473100
_cell_length_b   11.12661913
_cell_length_c   19.25412122
_cell_angle_alpha   90.01727128
_cell_angle_beta   90.00000000
_cell_angle_gamma   90.00000000
_symmetry_Int_Tables_number   1
_chemical_formula_structural   Ta9Be4Nb7Te16
_chemical_formula_sum   'Ta9 Be4 Nb7 Te16'
_cell_volume   1025.04853796
_cell_formula_units_Z   1
loop_
 _symmetry_equiv_pos_site_id
 _symmetry_equiv_pos_as_xyz
  1  'x, y, z'
loop_
 _atom_site_type_symbol
 _atom_site_label
 _atom_site_symmetry_multiplicity
 _atom_site_fract_x
 _atom_site_fract_y
 _atom_site_fract_z
 _atom_site_occupancy
  Ta  Ta0  1  0.500000  0.560198  0.387930  1
  Ta  Ta1  1  0.500000  0.439812  0.612044  1
  Ta  Ta2  1  0.500000  0.059976  0.111915  1
  Ta  Ta3  1  0.500000  0.940013  0.888440  1
  Ta  Ta4  1  0.500000  0.694280  0.534916  1
  Ta  Ta5  1  0.500000  0.305695  0.465077  1
  Ta  Ta6  1  0.500000  0.193413  0.965265  1
  Ta  Ta7  1  0.500000  0.806105  0.034928  1
  Ta  Ta8  1  0.000000  0.094146  0.896623  1
  Be  Be9  1  0.250979  0.500009  0.500016  1
  Be  Be10  1  0.749727  0.000050  0.999954  1
  Be  Be11  1  0.749021  0.500009  0.500016  1
  Be  Be12  1  0.250273  0.000050  0.999954  1
  Nb  Nb13  1  0.000000  0.680122  0.445005  1
  Nb  Nb14  1  0.000000  0.319893  0.554976  1
  Nb  Nb15  1  0.000000  0.180533  0.054976  1
  Nb  Nb16  1  0.000000  0.819703  0.944803  1
  Nb  Nb17  1  0.000000  0.405350  0.396108  1
  Nb  Nb18  1  0.000000  0.594638  0.603877  1
  Nb  Nb19  1  0.000000  0.905219  0.104041  1
  Te  Te20  1  0.000000  0.840393  0.560789  1
  Te  Te21  1  0.000000  0.159616  0.439206  1
  Te  Te22  1  0.000000  0.340035  0.938817  1
  Te  Te23  1  0.000000  0.659730  0.060602  1
  Te  Te24  1  0.500000  0.334774  0.318306  1
  Te  Te25  1  0.500000  0.665237  0.681701  1
  Te  Te26  1  0.500000  0.834746  0.181727  1
  Te  Te27  1  0.500000  0.165355  0.818162  1
  Te  Te28  1  0.500000  0.814696  0.404482  1
  Te  Te29  1  0.500000  0.185297  0.595504  1
  Te  Te30  1  0.500000  0.314644  0.095563  1
  Te  Te31  1  0.500000  0.685279  0.904497  1
  Te  Te32  1  0.000000  0.605242  0.303394  1
  Te  Te33  1  0.000000  0.394785  0.696613  1
  Te  Te34  1  0.000000  0.105492  0.196460  1
  Te  Te35  1  0.000000  0.895464  0.803312  1
