# generated using pymatgen
data_Ca2Co2Cl
_symmetry_space_group_name_H-M   'P 1'
_cell_length_a   3.89130600
_cell_length_b   3.89130476
_cell_length_c   16.29608200
_cell_angle_alpha   90.00000000
_cell_angle_beta   90.00000000
_cell_angle_gamma   119.99999351
_symmetry_Int_Tables_number   1
_chemical_formula_structural   Ca2Co2Cl
_chemical_formula_sum   'Ca4 Co4 Cl2'
_cell_volume   213.69998460
_cell_formula_units_Z   2
loop_
 _symmetry_equiv_pos_site_id
 _symmetry_equiv_pos_as_xyz
  1  'x, y, z'
loop_
 _atom_site_type_symbol
 _atom_site_label
 _atom_site_symmetry_multiplicity
 _atom_site_fract_x
 _atom_site_fract_y
 _atom_site_fract_z
 _atom_site_occupancy
  Ca  Ca0  1  0.000000  0.000000  0.119899  1
  Ca  Ca1  1  0.000000  0.000000  0.380101  1
  Ca  Ca2  1  0.000000  0.000000  0.619899  1
  Ca  Ca3  1  0.000000  0.000000  0.880101  1
  Co  Co4  1  0.666666  0.333334  0.997931  1
  Co  Co5  1  0.333334  0.666667  0.002069  1
  Co  Co6  1  0.666666  0.333334  0.502069  1
  Co  Co7  1  0.333334  0.666667  0.497931  1
  Cl  Cl8  1  0.666666  0.333334  0.250000  1
  Cl  Cl9  1  0.333334  0.666667  0.750000  1
