# generated using pymatgen
data_Y4Co6P12Ir9Rh5
_symmetry_space_group_name_H-M   'P 1'
_cell_length_a   3.87711200
_cell_length_b   10.64347023
_cell_length_c   12.33671515
_cell_angle_alpha   90.15934638
_cell_angle_beta   90.00000000
_cell_angle_gamma   90.00000000
_symmetry_Int_Tables_number   1
_chemical_formula_structural   Y4Co6P12Ir9Rh5
_chemical_formula_sum   'Y4 Co6 P12 Ir9 Rh5'
_cell_volume   509.08400745
_cell_formula_units_Z   1
loop_
 _symmetry_equiv_pos_site_id
 _symmetry_equiv_pos_as_xyz
  1  'x, y, z'
loop_
 _atom_site_type_symbol
 _atom_site_label
 _atom_site_symmetry_multiplicity
 _atom_site_fract_x
 _atom_site_fract_y
 _atom_site_fract_z
 _atom_site_occupancy
  Y  Y0  1  0.250000  0.919399  0.210722  1
  Y  Y1  1  0.750000  0.081119  0.789216  1
  Y  Y2  1  0.750000  0.412820  0.290952  1
  Y  Y3  1  0.250000  0.587370  0.709008  1
  Co  Co4  1  0.750000  0.117212  0.303844  1
  Co  Co5  1  0.250000  0.882579  0.696242  1
  Co  Co6  1  0.250000  0.037168  0.433986  1
  Co  Co7  1  0.750000  0.962894  0.566447  1
  Co  Co8  1  0.750000  0.536759  0.065620  1
  Co  Co9  1  0.250000  0.463349  0.934094  1
  P  P10  1  0.250000  0.065099  0.610139  1
  P  P11  1  0.750000  0.934924  0.390254  1
  P  P12  1  0.750000  0.577985  0.893924  1
  P  P13  1  0.250000  0.421658  0.105963  1
  P  P14  1  0.250000  0.224969  0.370665  1
  P  P15  1  0.750000  0.774868  0.629450  1
  P  P16  1  0.750000  0.729730  0.129098  1
  P  P17  1  0.250000  0.270114  0.871505  1
  P  P18  1  0.250000  0.902850  0.877913  1
  P  P19  1  0.750000  0.097367  0.121755  1
  P  P20  1  0.750000  0.400650  0.613636  1
  P  P21  1  0.250000  0.599492  0.386330  1
  Ir  Ir22  1  0.750000  0.908737  0.023499  1
  Ir  Ir23  1  0.750000  0.592175  0.522310  1
  Ir  Ir24  1  0.250000  0.407764  0.477692  1
  Ir  Ir25  1  0.250000  0.267569  0.677003  1
  Ir  Ir26  1  0.750000  0.732538  0.323081  1
  Ir  Ir27  1  0.750000  0.777327  0.819200  1
  Ir  Ir28  1  0.250000  0.222452  0.181269  1
  Ir  Ir29  1  0.250000  0.614406  0.197661  1
  Ir  Ir30  1  0.750000  0.386085  0.802035  1
  Rh  Rh31  1  0.250000  0.781473  0.489161  1
  Rh  Rh32  1  0.750000  0.218567  0.510661  1
  Rh  Rh33  1  0.750000  0.280830  0.017704  1
  Rh  Rh34  1  0.250000  0.719463  0.981217  1
  Rh  Rh35  1  0.250000  0.090238  0.976747  1
