# generated using pymatgen
data_Nd5Tl3
_symmetry_space_group_name_H-M   'P 1'
_cell_length_a   6.25812520
_cell_length_b   9.48419089
_cell_length_c   9.48419100
_cell_angle_alpha   96.24902020
_cell_angle_beta   70.73583441
_cell_angle_gamma   109.26416827
_symmetry_Int_Tables_number   1
_chemical_formula_structural   Nd5Tl3
_chemical_formula_sum   'Nd10 Tl6'
_cell_volume   501.64407794
_cell_formula_units_Z   2
loop_
 _symmetry_equiv_pos_site_id
 _symmetry_equiv_pos_as_xyz
  1  'x, y, z'
loop_
 _atom_site_type_symbol
 _atom_site_label
 _atom_site_symmetry_multiplicity
 _atom_site_fract_x
 _atom_site_fract_y
 _atom_site_fract_z
 _atom_site_occupancy
  Nd  Nd0  1  0.780651  0.695106  0.133803  1
  Nd  Nd1  1  0.585545  0.304894  0.133803  1
  Nd  Nd2  1  0.280651  0.866197  0.304894  1
  Nd  Nd3  1  0.914455  0.133803  0.304894  1
  Nd  Nd4  1  0.250000  0.500000  0.500000  1
  Nd  Nd5  1  0.749999  0.500000  0.500000  1
  Nd  Nd6  1  0.719349  0.133803  0.695106  1
  Nd  Nd7  1  0.085546  0.866197  0.695106  1
  Nd  Nd8  1  0.219348  0.304894  0.866197  1
  Nd  Nd9  1  0.414454  0.695106  0.866197  1
  Tl  Tl10  1  0.250000  0.000000  0.000000  1
  Tl  Tl11  1  0.749999  0.000000  0.000000  1
  Tl  Tl12  1  0.160585  0.500000  0.178829  1
  Tl  Tl13  1  0.339414  0.178829  0.500000  1
  Tl  Tl14  1  0.660585  0.821171  0.500000  1
  Tl  Tl15  1  0.839415  0.500000  0.821171  1
