# generated using pymatgen
data_CaPr4Ga2Ge
_symmetry_space_group_name_H-M   'P 1'
_cell_length_a   7.99481000
_cell_length_b   9.06794365
_cell_length_c   7.99481000
_cell_angle_alpha   116.15674058
_cell_angle_beta   90.00000000
_cell_angle_gamma   116.15674058
_symmetry_Int_Tables_number   1
_chemical_formula_structural   CaPr4Ga2Ge
_chemical_formula_sum   'Ca2 Pr8 Ga4 Ge2'
_cell_volume   453.17591157
_cell_formula_units_Z   2
loop_
 _symmetry_equiv_pos_site_id
 _symmetry_equiv_pos_as_xyz
  1  'x, y, z'
loop_
 _atom_site_type_symbol
 _atom_site_label
 _atom_site_symmetry_multiplicity
 _atom_site_fract_x
 _atom_site_fract_y
 _atom_site_fract_z
 _atom_site_occupancy
  Ca  Ca0  1  0.000000  0.000000  0.000000  1
  Ca  Ca1  1  0.500000  0.000000  0.500000  1
  Pr  Pr2  1  0.524176  0.701860  0.677684  1
  Pr  Pr3  1  0.177684  0.701860  0.024176  1
  Pr  Pr4  1  0.677684  0.701860  0.177684  1
  Pr  Pr5  1  0.024176  0.701860  0.524176  1
  Pr  Pr6  1  0.475824  0.298140  0.322316  1
  Pr  Pr7  1  0.822316  0.298140  0.975824  1
  Pr  Pr8  1  0.322316  0.298140  0.822316  1
  Pr  Pr9  1  0.975824  0.298140  0.475824  1
  Ga  Ga10  1  0.883122  0.000000  0.616878  1
  Ga  Ga11  1  0.116878  0.000000  0.383122  1
  Ga  Ga12  1  0.616878  0.000000  0.116878  1
  Ga  Ga13  1  0.383122  0.000000  0.883122  1
  Ge  Ge14  1  0.750000  0.500000  0.750000  1
  Ge  Ge15  1  0.250000  0.500000  0.250000  1
