# generated using pymatgen
data_Y6Ho4Sn5Sb
_symmetry_space_group_name_H-M   'P 1'
_cell_length_a   8.96500700
_cell_length_b   8.96255308
_cell_length_c   6.51921300
_cell_angle_alpha   90.00000000
_cell_angle_beta   90.00000000
_cell_angle_gamma   120.00904648
_symmetry_Int_Tables_number   1
_chemical_formula_structural   Y6Ho4Sn5Sb
_chemical_formula_sum   'Y6 Ho4 Sn5 Sb1'
_cell_volume   453.59533506
_cell_formula_units_Z   1
loop_
 _symmetry_equiv_pos_site_id
 _symmetry_equiv_pos_as_xyz
  1  'x, y, z'
loop_
 _atom_site_type_symbol
 _atom_site_label
 _atom_site_symmetry_multiplicity
 _atom_site_fract_x
 _atom_site_fract_y
 _atom_site_fract_z
 _atom_site_occupancy
  Y  Y0  1  0.997884  0.759042  0.750000  1
  Y  Y1  1  0.000785  0.239999  0.250000  1
  Y  Y2  1  0.760787  0.760001  0.250000  1
  Y  Y3  1  0.760638  0.000000  0.750000  1
  Y  Y4  1  0.238841  0.240958  0.750000  1
  Y  Y5  1  0.240275  0.000000  0.250000  1
  Ho  Ho6  1  0.333223  0.665716  0.499643  1
  Ho  Ho7  1  0.667508  0.334284  0.000357  1
  Ho  Ho8  1  0.667508  0.334284  0.499643  1
  Ho  Ho9  1  0.333223  0.665716  0.000357  1
  Sn  Sn10  1  0.395933  0.395102  0.250000  1
  Sn  Sn11  1  0.000832  0.604898  0.250000  1
  Sn  Sn12  1  0.999730  0.395925  0.750000  1
  Sn  Sn13  1  0.603805  0.604075  0.750000  1
  Sn  Sn14  1  0.605246  0.000000  0.250000  1
  Sb  Sb15  1  0.393779  0.000000  0.750000  1
