# generated using pymatgen
data_Y2Ho5C3I6N
_symmetry_space_group_name_H-M   'P 1'
_cell_length_a   3.84911400
_cell_length_b   11.46972800
_cell_length_c   22.54759693
_cell_angle_alpha   89.93232160
_cell_angle_beta   90.00000000
_cell_angle_gamma   90.00000000
_symmetry_Int_Tables_number   1
_chemical_formula_structural   Y2Ho5C3I6N
_chemical_formula_sum   'Y4 Ho10 C6 I12 N2'
_cell_volume   995.43716777
_cell_formula_units_Z   2
loop_
 _symmetry_equiv_pos_site_id
 _symmetry_equiv_pos_as_xyz
  1  'x, y, z'
loop_
 _atom_site_type_symbol
 _atom_site_label
 _atom_site_symmetry_multiplicity
 _atom_site_fract_x
 _atom_site_fract_y
 _atom_site_fract_z
 _atom_site_occupancy
  Y  Y0  1  0.500000  0.361002  0.469277  1
  Y  Y1  1  0.500000  0.638757  0.530926  1
  Y  Y2  1  0.500000  0.361396  0.030739  1
  Y  Y3  1  0.000000  0.558727  0.392461  1
  Ho  Ho4  1  0.500000  0.638018  0.968975  1
  Ho  Ho5  1  0.000000  0.701888  0.669002  1
  Ho  Ho6  1  0.500000  0.509335  0.749942  1
  Ho  Ho7  1  0.000000  0.442007  0.607128  1
  Ho  Ho8  1  0.000000  0.298119  0.168960  1
  Ho  Ho9  1  0.500000  0.490477  0.249839  1
  Ho  Ho10  1  0.000000  0.442395  0.892969  1
  Ho  Ho11  1  0.000000  0.558137  0.106917  1
  Ho  Ho12  1  0.000000  0.701936  0.831129  1
  Ho  Ho13  1  0.000000  0.297733  0.330969  1
  C  C14  1  0.500000  0.424579  0.133345  1
  C  C15  1  0.500000  0.575472  0.633510  1
  C  C16  1  0.000000  0.501073  0.999754  1
  C  C17  1  0.500000  0.575725  0.867173  1
  C  C18  1  0.000000  0.499678  0.500554  1
  C  C19  1  0.500000  0.423453  0.366406  1
  I  I20  1  0.500000  0.122027  0.249956  1
  I  I21  1  0.000000  0.702364  0.249959  1
  I  I22  1  0.000000  0.144948  0.057055  1
  I  I23  1  0.500000  0.231240  0.906442  1
  I  I24  1  0.500000  0.770051  0.406535  1
  I  I25  1  0.000000  0.854207  0.943109  1
  I  I26  1  0.000000  0.144778  0.442950  1
  I  I27  1  0.500000  0.768604  0.093296  1
  I  I28  1  0.000000  0.855169  0.557078  1
  I  I29  1  0.000000  0.297704  0.750001  1
  I  I30  1  0.500000  0.231105  0.593586  1
  I  I31  1  0.500000  0.877918  0.749997  1
  N  N32  1  0.000000  0.604519  0.750110  1
  N  N33  1  0.000000  0.395458  0.249951  1
