# generated using pymatgen
data_Tb(YbAs)3
_symmetry_space_group_name_H-M   'P 1'
_cell_length_a   7.66445922
_cell_length_b   7.71171124
_cell_length_c   7.66445915
_cell_angle_alpha   109.53822234
_cell_angle_beta   109.19667930
_cell_angle_gamma   109.53821604
_symmetry_Int_Tables_number   1
_chemical_formula_structural   Tb(YbAs)3
_chemical_formula_sum   'Tb2 Yb6 As6'
_cell_volume   349.33254583
_cell_formula_units_Z   2
loop_
 _symmetry_equiv_pos_site_id
 _symmetry_equiv_pos_as_xyz
  1  'x, y, z'
loop_
 _atom_site_type_symbol
 _atom_site_label
 _atom_site_symmetry_multiplicity
 _atom_site_fract_x
 _atom_site_fract_y
 _atom_site_fract_z
 _atom_site_occupancy
  Tb  Tb0  1  0.136077  0.499618  0.000258  1
  Tb  Tb1  1  0.500258  0.999618  0.636077  1
  Yb  Yb2  1  0.363880  0.359525  0.365084  1
  Yb  Yb3  1  0.999080  0.135011  0.494520  1
  Yb  Yb4  1  0.865084  0.859525  0.863880  1
  Yb  Yb5  1  0.994520  0.635011  0.499080  1
  Yb  Yb6  1  0.636635  0.505839  0.004351  1
  Yb  Yb7  1  0.504351  0.005839  0.136635  1
  As  As8  1  0.876126  0.249602  0.116207  1
  As  As9  1  0.131437  0.871052  0.252596  1
  As  As10  1  0.372254  0.629354  0.751496  1
  As  As11  1  0.251496  0.129354  0.872254  1
  As  As12  1  0.752596  0.371052  0.631437  1
  As  As13  1  0.616207  0.749602  0.376126  1
