# generated using pymatgen
data_TcTe12IrBr6
_symmetry_space_group_name_H-M   'P 1'
_cell_length_a   9.59528550
_cell_length_b   9.59528583
_cell_length_c   9.59528635
_cell_angle_alpha   108.66907760
_cell_angle_beta   108.66908064
_cell_angle_gamma   108.66907358
_symmetry_Int_Tables_number   1
_chemical_formula_structural   TcTe12IrBr6
_chemical_formula_sum   'Tc1 Te12 Ir1 Br6'
_cell_volume   699.53532130
_cell_formula_units_Z   1
loop_
 _symmetry_equiv_pos_site_id
 _symmetry_equiv_pos_as_xyz
  1  'x, y, z'
loop_
 _atom_site_type_symbol
 _atom_site_label
 _atom_site_symmetry_multiplicity
 _atom_site_fract_x
 _atom_site_fract_y
 _atom_site_fract_z
 _atom_site_occupancy
  Tc  Tc0  1  0.250000  0.250000  0.250000  1
  Te  Te1  1  0.925128  0.170278  0.185450  1
  Te  Te2  1  0.185450  0.925128  0.170278  1
  Te  Te3  1  0.170278  0.185450  0.925128  1
  Te  Te4  1  0.684047  0.670134  0.432563  1
  Te  Te5  1  0.432563  0.684047  0.670134  1
  Te  Te6  1  0.670134  0.432563  0.684047  1
  Te  Te7  1  0.067437  0.829866  0.815953  1
  Te  Te8  1  0.815953  0.067437  0.829866  1
  Te  Te9  1  0.829866  0.815953  0.067437  1
  Te  Te10  1  0.314550  0.329722  0.574872  1
  Te  Te11  1  0.574872  0.314550  0.329722  1
  Te  Te12  1  0.329722  0.574872  0.314550  1
  Ir  Ir13  1  0.750000  0.750000  0.750000  1
  Br  Br14  1  0.987767  0.512233  0.250000  1
  Br  Br15  1  0.250000  0.987767  0.512233  1
  Br  Br16  1  0.512233  0.250000  0.987767  1
  Br  Br17  1  0.750000  0.009864  0.490136  1
  Br  Br18  1  0.490136  0.750000  0.009864  1
  Br  Br19  1  0.009864  0.490136  0.750000  1
