# generated using pymatgen
data_Y4Zn11In
_symmetry_space_group_name_H-M   'P 1'
_cell_length_a   4.41343500
_cell_length_b   6.86152799
_cell_length_c   10.09239426
_cell_angle_alpha   90.14457000
_cell_angle_beta   90.00000000
_cell_angle_gamma   90.00000000
_symmetry_Int_Tables_number   1
_chemical_formula_structural   Y4Zn11In
_chemical_formula_sum   'Y4 Zn11 In1'
_cell_volume   305.62607188
_cell_formula_units_Z   1
loop_
 _symmetry_equiv_pos_site_id
 _symmetry_equiv_pos_as_xyz
  1  'x, y, z'
loop_
 _atom_site_type_symbol
 _atom_site_label
 _atom_site_symmetry_multiplicity
 _atom_site_fract_x
 _atom_site_fract_y
 _atom_site_fract_z
 _atom_site_occupancy
  Y  Y0  1  0.250000  0.286874  0.664342  1
  Y  Y1  1  0.750000  0.715526  0.337727  1
  Y  Y2  1  0.250000  0.790073  0.829442  1
  Y  Y3  1  0.750000  0.207363  0.167165  1
  Zn  Zn4  1  0.750000  0.463921  0.893878  1
  Zn  Zn5  1  0.250000  0.036167  0.398731  1
  Zn  Zn6  1  0.750000  0.963426  0.602736  1
  Zn  Zn7  1  0.750000  0.282347  0.460942  1
  Zn  Zn8  1  0.250000  0.714421  0.539901  1
  Zn  Zn9  1  0.750000  0.799372  0.037607  1
  Zn  Zn10  1  0.250000  0.195469  0.955769  1
  Zn  Zn11  1  0.750000  0.585754  0.648154  1
  Zn  Zn12  1  0.250000  0.414593  0.362857  1
  Zn  Zn13  1  0.750000  0.085889  0.848285  1
  Zn  Zn14  1  0.250000  0.925742  0.150518  1
  In  In15  1  0.250000  0.533063  0.101946  1
