# generated using pymatgen
data_Y4Ho3Cd(Co3Sn11)2
_symmetry_space_group_name_H-M   'P 1'
_cell_length_a   9.67482700
_cell_length_b   9.67482542
_cell_length_c   10.00784600
_cell_angle_alpha   90.00000000
_cell_angle_beta   90.00000000
_cell_angle_gamma   119.99999515
_symmetry_Int_Tables_number   1
_chemical_formula_structural   Y4Ho3Cd(Co3Sn11)2
_chemical_formula_sum   'Y4 Ho3 Cd1 Co6 Sn22'
_cell_volume   811.25542068
_cell_formula_units_Z   1
loop_
 _symmetry_equiv_pos_site_id
 _symmetry_equiv_pos_as_xyz
  1  'x, y, z'
loop_
 _atom_site_type_symbol
 _atom_site_label
 _atom_site_symmetry_multiplicity
 _atom_site_fract_x
 _atom_site_fract_y
 _atom_site_fract_z
 _atom_site_occupancy
  Y  Y0  1  0.000000  0.000000  0.000037  1
  Y  Y1  1  0.521193  0.478807  0.693548  1
  Y  Y2  1  0.521193  0.042386  0.693548  1
  Y  Y3  1  0.957614  0.478807  0.693548  1
  Ho  Ho4  1  0.041904  0.520953  0.306251  1
  Ho  Ho5  1  0.479047  0.958096  0.306251  1
  Ho  Ho6  1  0.479047  0.520953  0.306251  1
  Cd  Cd7  1  0.000000  0.000000  0.499950  1
  Co  Co8  1  0.167924  0.832076  0.803283  1
  Co  Co9  1  0.167924  0.335847  0.803283  1
  Co  Co10  1  0.664153  0.832076  0.803283  1
  Co  Co11  1  0.336130  0.168065  0.196907  1
  Co  Co12  1  0.831935  0.663870  0.196907  1
  Co  Co13  1  0.831935  0.168065  0.196907  1
  Sn  Sn14  1  0.666667  0.333333  0.181370  1
  Sn  Sn15  1  0.666667  0.333333  0.881319  1
  Sn  Sn16  1  0.333333  0.666667  0.119356  1
  Sn  Sn17  1  0.346160  0.346185  0.000115  1
  Sn  Sn18  1  0.000025  0.653840  0.000115  1
  Sn  Sn19  1  0.653815  0.999975  0.000115  1
  Sn  Sn20  1  0.653815  0.653840  0.000115  1
  Sn  Sn21  1  0.333333  0.666667  0.818630  1
  Sn  Sn22  1  0.435146  0.217573  0.452652  1
  Sn  Sn23  1  0.217623  0.782377  0.546754  1
  Sn  Sn24  1  0.217623  0.435246  0.546754  1
  Sn  Sn25  1  0.564754  0.782377  0.546754  1
  Sn  Sn26  1  0.116625  0.883375  0.271111  1
  Sn  Sn27  1  0.782427  0.564854  0.452652  1
  Sn  Sn28  1  0.782427  0.217573  0.452652  1
  Sn  Sn29  1  0.346160  0.999975  0.000115  1
  Sn  Sn30  1  0.116625  0.233250  0.271111  1
  Sn  Sn31  1  0.766750  0.883375  0.271111  1
  Sn  Sn32  1  0.232845  0.116423  0.729044  1
  Sn  Sn33  1  0.883577  0.767155  0.729044  1
  Sn  Sn34  1  0.883577  0.116423  0.729044  1
  Sn  Sn35  1  0.000025  0.346185  0.000115  1
