# generated using pymatgen
data_Pr4Al2Ga5(SiPt2)3
_symmetry_space_group_name_H-M   'P 1'
_cell_length_a   8.50111023
_cell_length_b   8.51913082
_cell_length_c   8.51913142
_cell_angle_alpha   137.67743336
_cell_angle_beta   105.30593841
_cell_angle_gamma   89.84035709
_symmetry_Int_Tables_number   1
_chemical_formula_structural   Pr4Al2Ga5(SiPt2)3
_chemical_formula_sum   'Pr4 Al2 Ga5 Si3 Pt6'
_cell_volume   382.69052080
_cell_formula_units_Z   1
loop_
 _symmetry_equiv_pos_site_id
 _symmetry_equiv_pos_as_xyz
  1  'x, y, z'
loop_
 _atom_site_type_symbol
 _atom_site_label
 _atom_site_symmetry_multiplicity
 _atom_site_fract_x
 _atom_site_fract_y
 _atom_site_fract_z
 _atom_site_occupancy
  Pr  Pr0  1  0.874749  0.630079  0.244671  1
  Pr  Pr1  1  0.129068  0.369545  0.759522  1
  Pr  Pr2  1  0.386674  0.129728  0.256946  1
  Pr  Pr3  1  0.613559  0.869919  0.743640  1
  Al  Al4  1  0.501881  0.750526  0.249251  1
  Al  Al5  1  0.501881  0.252630  0.751353  1
  Ga  Ga6  1  0.238918  0.988603  0.752412  1
  Ga  Ga7  1  0.758743  0.504370  0.742483  1
  Ga  Ga8  1  0.758743  0.016261  0.254373  1
  Ga  Ga9  1  0.238918  0.486507  0.250316  1
  Ga  Ga10  1  0.031015  0.888944  0.142071  1
  Si  Si11  1  0.966613  0.108574  0.858039  1
  Si  Si12  1  0.743729  0.388597  0.355133  1
  Si  Si13  1  0.252342  0.608830  0.643512  1
  Pt  Pt14  1  0.997034  0.745259  0.735565  1
  Pt  Pt15  1  0.997034  0.261469  0.251775  1
  Pt  Pt16  1  0.251528  0.870319  0.381210  1
  Pt  Pt17  1  0.757516  0.128388  0.629126  1
  Pt  Pt18  1  0.497621  0.371086  0.126534  1
  Pt  Pt19  1  0.502436  0.630366  0.872069  1
