# generated using pymatgen
data_Sn2PtRh2
_symmetry_space_group_name_H-M   'P 1'
_cell_length_a   5.61485100
_cell_length_b   7.46762500
_cell_length_c   8.71468400
_cell_angle_alpha   90.00000000
_cell_angle_beta   90.00000000
_cell_angle_gamma   90.00000000
_symmetry_Int_Tables_number   1
_chemical_formula_structural   Sn2PtRh2
_chemical_formula_sum   'Sn8 Pt4 Rh8'
_cell_volume   365.40322905
_cell_formula_units_Z   4
loop_
 _symmetry_equiv_pos_site_id
 _symmetry_equiv_pos_as_xyz
  1  'x, y, z'
loop_
 _atom_site_type_symbol
 _atom_site_label
 _atom_site_symmetry_multiplicity
 _atom_site_fract_x
 _atom_site_fract_y
 _atom_site_fract_z
 _atom_site_occupancy
  Sn  Sn0  1  0.757107  0.904430  0.859008  1
  Sn  Sn1  1  0.742893  0.404430  0.640992  1
  Sn  Sn2  1  0.257107  0.095570  0.140992  1
  Sn  Sn3  1  0.242893  0.595570  0.359008  1
  Sn  Sn4  1  0.752163  0.938147  0.404464  1
  Sn  Sn5  1  0.747837  0.438147  0.095536  1
  Sn  Sn6  1  0.252163  0.061853  0.595536  1
  Sn  Sn7  1  0.247837  0.561853  0.904464  1
  Pt  Pt8  1  0.999006  0.255803  0.378409  1
  Pt  Pt9  1  0.500994  0.755803  0.121591  1
  Pt  Pt10  1  0.499006  0.744197  0.621591  1
  Pt  Pt11  1  0.000994  0.244197  0.878409  1
  Rh  Rh12  1  0.742943  0.589561  0.370497  1
  Rh  Rh13  1  0.757057  0.089561  0.129503  1
  Rh  Rh14  1  0.242943  0.410439  0.629503  1
  Rh  Rh15  1  0.257057  0.910439  0.870497  1
  Rh  Rh16  1  0.000293  0.753508  0.617389  1
  Rh  Rh17  1  0.499707  0.253508  0.882611  1
  Rh  Rh18  1  0.500293  0.246492  0.382611  1
  Rh  Rh19  1  0.999707  0.746492  0.117389  1
