# generated using pymatgen
data_NdCu2Bi2(SeO2)2
_symmetry_space_group_name_H-M   'P 1'
_cell_length_a   12.93479564
_cell_length_b   3.95522226
_cell_length_c   3.95522200
_cell_angle_alpha   90.00000000
_cell_angle_beta   98.79448887
_cell_angle_gamma   98.79448465
_symmetry_Int_Tables_number   1
_chemical_formula_structural   NdCu2Bi2(SeO2)2
_chemical_formula_sum   'Nd1 Cu2 Bi2 Se2 O4'
_cell_volume   197.56248153
_cell_formula_units_Z   1
loop_
 _symmetry_equiv_pos_site_id
 _symmetry_equiv_pos_as_xyz
  1  'x, y, z'
loop_
 _atom_site_type_symbol
 _atom_site_label
 _atom_site_symmetry_multiplicity
 _atom_site_fract_x
 _atom_site_fract_y
 _atom_site_fract_z
 _atom_site_occupancy
  Nd  Nd0  1  0.000000  0.000000  0.000000  1
  Cu  Cu1  1  0.500000  0.750000  0.250000  1
  Cu  Cu2  1  0.500000  0.250000  0.750000  1
  Bi  Bi3  1  0.795714  0.397856  0.397856  1
  Bi  Bi4  1  0.204287  0.602143  0.602143  1
  Se  Se5  1  0.381384  0.190691  0.190691  1
  Se  Se6  1  0.618616  0.809308  0.809308  1
  O  O7  1  0.116775  0.558386  0.058387  1
  O  O8  1  0.883225  0.941613  0.441613  1
  O  O9  1  0.116775  0.058387  0.558386  1
  O  O10  1  0.883225  0.441613  0.941613  1
