# generated using pymatgen
data_Lu4Mg4IrPd3
_symmetry_space_group_name_H-M   'P 1'
_cell_length_a   4.12029000
_cell_length_b   6.95121474
_cell_length_c   8.56150300
_cell_angle_alpha   89.50183834
_cell_angle_beta   90.00000000
_cell_angle_gamma   90.00000000
_symmetry_Int_Tables_number   1
_chemical_formula_structural   Lu4Mg4IrPd3
_chemical_formula_sum   'Lu4 Mg4 Ir1 Pd3'
_cell_volume   245.20091524
_cell_formula_units_Z   1
loop_
 _symmetry_equiv_pos_site_id
 _symmetry_equiv_pos_as_xyz
  1  'x, y, z'
loop_
 _atom_site_type_symbol
 _atom_site_label
 _atom_site_symmetry_multiplicity
 _atom_site_fract_x
 _atom_site_fract_y
 _atom_site_fract_z
 _atom_site_occupancy
  Lu  Lu0  1  0.250000  0.544919  0.166809  1
  Lu  Lu1  1  0.750000  0.472843  0.828189  1
  Lu  Lu2  1  0.750000  0.950409  0.682135  1
  Lu  Lu3  1  0.250000  0.039356  0.326670  1
  Mg  Mg4  1  0.250000  0.633630  0.561002  1
  Mg  Mg5  1  0.750000  0.363718  0.440087  1
  Mg  Mg6  1  0.750000  0.864948  0.057769  1
  Mg  Mg7  1  0.250000  0.135763  0.940320  1
  Ir  Ir8  1  0.250000  0.745857  0.870381  1
  Pd  Pd9  1  0.750000  0.253312  0.130420  1
  Pd  Pd10  1  0.750000  0.753964  0.370446  1
  Pd  Pd11  1  0.250000  0.241284  0.625772  1
