# generated using pymatgen
data_La9Yb7(CdIr)4
_symmetry_space_group_name_H-M   'P 1'
_cell_length_a   10.07096253
_cell_length_b   10.07096256
_cell_length_c   10.04719400
_cell_angle_alpha   60.07804109
_cell_angle_beta   60.07804099
_cell_angle_gamma   60.57565691
_symmetry_Int_Tables_number   1
_chemical_formula_structural   La9Yb7(CdIr)4
_chemical_formula_sum   'La9 Yb7 Cd4 Ir4'
_cell_volume   724.50499271
_cell_formula_units_Z   1
loop_
 _symmetry_equiv_pos_site_id
 _symmetry_equiv_pos_as_xyz
  1  'x, y, z'
loop_
 _atom_site_type_symbol
 _atom_site_label
 _atom_site_symmetry_multiplicity
 _atom_site_fract_x
 _atom_site_fract_y
 _atom_site_fract_z
 _atom_site_occupancy
  La  La0  1  0.346512  0.346512  0.347122  1
  La  La1  1  0.346512  0.346512  0.959854  1
  La  La2  1  0.348608  0.962055  0.344669  1
  La  La3  1  0.962055  0.348608  0.344669  1
  La  La4  1  0.806128  0.189752  0.193115  1
  La  La5  1  0.189752  0.806128  0.811005  1
  La  La6  1  0.189752  0.806128  0.193115  1
  La  La7  1  0.806128  0.189752  0.811005  1
  La  La8  1  0.191534  0.191534  0.808466  1
  Yb  Yb9  1  0.805924  0.805924  0.194076  1
  Yb  Yb10  1  0.939828  0.558674  0.560297  1
  Yb  Yb11  1  0.558674  0.939828  0.941201  1
  Yb  Yb12  1  0.558674  0.939828  0.560297  1
  Yb  Yb13  1  0.939828  0.558674  0.941201  1
  Yb  Yb14  1  0.557565  0.557565  0.942435  1
  Yb  Yb15  1  0.942912  0.942912  0.557088  1
  Cd  Cd16  1  0.580577  0.580577  0.578243  1
  Cd  Cd17  1  0.580577  0.580577  0.260603  1
  Cd  Cd18  1  0.581659  0.259775  0.579282  1
  Cd  Cd19  1  0.259775  0.581659  0.579282  1
  Ir  Ir20  1  0.139324  0.139324  0.140687  1
  Ir  Ir21  1  0.139324  0.139324  0.580666  1
  Ir  Ir22  1  0.148734  0.579645  0.135810  1
  Ir  Ir23  1  0.579645  0.148734  0.135810  1
