# generated using pymatgen
data_SmEuCd2(Ga3Ni)2
_symmetry_space_group_name_H-M   'P 1'
_cell_length_a   4.24901470
_cell_length_b   6.61243400
_cell_length_c   8.24380809
_cell_angle_alpha   90.00000000
_cell_angle_beta   104.93419720
_cell_angle_gamma   90.00000000
_symmetry_Int_Tables_number   1
_chemical_formula_structural   SmEuCd2(Ga3Ni)2
_chemical_formula_sum   'Sm1 Eu1 Cd2 Ga6 Ni2'
_cell_volume   223.79716216
_cell_formula_units_Z   1
loop_
 _symmetry_equiv_pos_site_id
 _symmetry_equiv_pos_as_xyz
  1  'x, y, z'
loop_
 _atom_site_type_symbol
 _atom_site_label
 _atom_site_symmetry_multiplicity
 _atom_site_fract_x
 _atom_site_fract_y
 _atom_site_fract_z
 _atom_site_occupancy
  Sm  Sm0  1  0.125977  0.250000  0.251955  1
  Eu  Eu1  1  0.875114  0.750000  0.750227  1
  Cd  Cd2  1  0.500538  0.499695  0.001076  1
  Cd  Cd3  1  0.500538  0.000305  0.001076  1
  Ga  Ga4  1  0.073352  0.750000  0.146706  1
  Ga  Ga5  1  0.926597  0.250000  0.853191  1
  Ga  Ga6  1  0.688853  0.551539  0.377704  1
  Ga  Ga7  1  0.310594  0.448266  0.621189  1
  Ga  Ga8  1  0.688853  0.948461  0.377704  1
  Ga  Ga9  1  0.310594  0.051734  0.621189  1
  Ni  Ni10  1  0.221348  0.750000  0.442695  1
  Ni  Ni11  1  0.777643  0.250000  0.555286  1
