# generated using pymatgen
data_Lu6Te2WO18
_symmetry_space_group_name_H-M   'P 1'
_cell_length_a   9.05127800
_cell_length_b   9.05127691
_cell_length_c   5.05190500
_cell_angle_alpha   90.00000000
_cell_angle_beta   90.00000000
_cell_angle_gamma   119.99999669
_symmetry_Int_Tables_number   1
_chemical_formula_structural   Lu6Te2WO18
_chemical_formula_sum   'Lu6 Te2 W1 O18'
_cell_volume   358.43101069
_cell_formula_units_Z   1
loop_
 _symmetry_equiv_pos_site_id
 _symmetry_equiv_pos_as_xyz
  1  'x, y, z'
loop_
 _atom_site_type_symbol
 _atom_site_label
 _atom_site_symmetry_multiplicity
 _atom_site_fract_x
 _atom_site_fract_y
 _atom_site_fract_z
 _atom_site_occupancy
  Lu  Lu0  1  0.998996  0.625855  0.000108  1
  Lu  Lu1  1  0.001766  0.290606  0.499556  1
  Lu  Lu2  1  0.374145  0.373141  0.000108  1
  Lu  Lu3  1  0.288840  0.998234  0.499556  1
  Lu  Lu4  1  0.709394  0.711160  0.499556  1
  Lu  Lu5  1  0.626859  0.001004  0.000108  1
  Te  Te6  1  0.000000  0.000000  0.000475  1
  Te  Te7  1  0.666667  0.333333  0.496038  1
  W  W8  1  0.333333  0.666667  0.505709  1
  O  O9  1  0.084309  0.879957  0.786027  1
  O  O10  1  0.221843  0.760693  0.285810  1
  O  O11  1  0.129302  0.541658  0.724076  1
  O  O12  1  0.412356  0.870698  0.724076  1
  O  O13  1  0.239307  0.461150  0.285810  1
  O  O14  1  0.120043  0.204352  0.786027  1
  O  O15  1  0.204582  0.118986  0.213957  1
  O  O16  1  0.538850  0.778157  0.285810  1
  O  O17  1  0.458342  0.587644  0.724076  1
  O  O18  1  0.795648  0.915691  0.786027  1
  O  O19  1  0.460179  0.239756  0.711722  1
  O  O20  1  0.586746  0.457506  0.278002  1
  O  O21  1  0.542494  0.129240  0.278002  1
  O  O22  1  0.779577  0.539821  0.711722  1
  O  O23  1  0.914403  0.795418  0.213957  1
  O  O24  1  0.760244  0.220423  0.711722  1
  O  O25  1  0.870760  0.413254  0.278002  1
  O  O26  1  0.881014  0.085597  0.213957  1
