# generated using pymatgen
data_Lu12Co5Sb
_symmetry_space_group_name_H-M   'P 1'
_cell_length_a   8.11510086
_cell_length_b   8.11510192
_cell_length_c   8.11510126
_cell_angle_alpha   106.49348257
_cell_angle_beta   111.01283623
_cell_angle_gamma   110.94775976
_symmetry_Int_Tables_number   1
_chemical_formula_structural   Lu12Co5Sb
_chemical_formula_sum   'Lu12 Co5 Sb1'
_cell_volume   410.56787502
_cell_formula_units_Z   1
loop_
 _symmetry_equiv_pos_site_id
 _symmetry_equiv_pos_as_xyz
  1  'x, y, z'
loop_
 _atom_site_type_symbol
 _atom_site_label
 _atom_site_symmetry_multiplicity
 _atom_site_fract_x
 _atom_site_fract_y
 _atom_site_fract_z
 _atom_site_occupancy
  Lu  Lu0  1  0.470090  0.285806  0.184283  1
  Lu  Lu1  1  0.101522  0.285806  0.815717  1
  Lu  Lu2  1  0.898478  0.714194  0.184283  1
  Lu  Lu3  1  0.529910  0.714194  0.815717  1
  Lu  Lu4  1  0.307156  0.620015  0.312859  1
  Lu  Lu5  1  0.307156  0.994298  0.687141  1
  Lu  Lu6  1  0.692844  0.379985  0.687141  1
  Lu  Lu7  1  0.692844  0.005702  0.312859  1
  Lu  Lu8  1  0.195357  0.212573  0.407931  1
  Lu  Lu9  1  0.804643  0.787427  0.592069  1
  Lu  Lu10  1  0.195357  0.787427  0.982782  1
  Lu  Lu11  1  0.804643  0.212573  0.017218  1
  Co  Co12  1  0.500000  0.613168  0.113168  1
  Co  Co13  1  0.500000  0.386832  0.886832  1
  Co  Co14  1  0.372566  0.000000  0.372566  1
  Co  Co15  1  0.627434  0.000000  0.627434  1
  Co  Co16  1  0.000000  0.000000  0.000000  1
  Sb  Sb17  1  0.000000  0.500000  0.500000  1
