# generated using pymatgen
data_HoTm3(PbAu2)2
_symmetry_space_group_name_H-M   'P 1'
_cell_length_a   8.05875623
_cell_length_b   8.05875623
_cell_length_c   3.68659000
_cell_angle_alpha   90.00000000
_cell_angle_beta   90.00000000
_cell_angle_gamma   90.28102044
_symmetry_Int_Tables_number   1
_chemical_formula_structural   HoTm3(PbAu2)2
_chemical_formula_sum   'Ho1 Tm3 Pb2 Au4'
_cell_volume   239.41736967
_cell_formula_units_Z   1
loop_
 _symmetry_equiv_pos_site_id
 _symmetry_equiv_pos_as_xyz
  1  'x, y, z'
loop_
 _atom_site_type_symbol
 _atom_site_label
 _atom_site_symmetry_multiplicity
 _atom_site_fract_x
 _atom_site_fract_y
 _atom_site_fract_z
 _atom_site_occupancy
  Ho  Ho0  1  0.332220  0.167781  0.500000  1
  Tm  Tm1  1  0.832751  0.332912  0.500000  1
  Tm  Tm2  1  0.167089  0.667249  0.500000  1
  Tm  Tm3  1  0.667508  0.832492  0.500000  1
  Pb  Pb4  1  0.999824  0.999799  0.000000  1
  Pb  Pb5  1  0.500201  0.500176  0.000000  1
  Au  Au6  1  0.628557  0.126395  0.000000  1
  Au  Au7  1  0.125595  0.374405  0.000000  1
  Au  Au8  1  0.872651  0.627349  0.000000  1
  Au  Au9  1  0.373605  0.871443  0.000000  1
