# generated using pymatgen
data_NdY3(Al8Ni3)3
_symmetry_space_group_name_H-M   'P 1'
_cell_length_a   7.32398190
_cell_length_b   7.35598490
_cell_length_c   12.81491100
_cell_angle_alpha   84.57261895
_cell_angle_beta   79.08842886
_cell_angle_gamma   59.96361929
_symmetry_Int_Tables_number   1
_chemical_formula_structural   NdY3(Al8Ni3)3
_chemical_formula_sum   'Nd1 Y3 Al24 Ni9'
_cell_volume   586.88270423
_cell_formula_units_Z   1
loop_
 _symmetry_equiv_pos_site_id
 _symmetry_equiv_pos_as_xyz
  1  'x, y, z'
loop_
 _atom_site_type_symbol
 _atom_site_label
 _atom_site_symmetry_multiplicity
 _atom_site_fract_x
 _atom_site_fract_y
 _atom_site_fract_z
 _atom_site_occupancy
  Nd  Nd0  1  0.265498  0.502411  0.194116  1
  Y  Y1  1  0.394411  0.168295  0.804448  1
  Y  Y2  1  0.605383  0.831417  0.195204  1
  Y  Y3  1  0.735365  0.497854  0.804507  1
  Al  Al4  1  0.680985  0.833461  0.947704  1
  Al  Al5  1  0.319332  0.164943  0.050037  1
  Al  Al6  1  0.145918  0.833420  0.560112  1
  Al  Al7  1  0.853483  0.166878  0.441469  1
  Al  Al8  1  0.480914  0.166341  0.557721  1
  Al  Al9  1  0.518911  0.833438  0.443399  1
  Al  Al10  1  0.213817  0.164331  0.339354  1
  Al  Al11  1  0.785607  0.834381  0.662718  1
  Al  Al12  1  0.439457  0.506658  0.662571  1
  Al  Al13  1  0.561212  0.493368  0.339498  1
  Al  Al14  1  0.111829  0.159188  0.661439  1
  Al  Al15  1  0.886062  0.842304  0.340704  1
  Al  Al16  1  0.354146  0.497135  0.946691  1
  Al  Al17  1  0.648914  0.502471  0.049851  1
  Al  Al18  1  0.013297  0.169058  0.960300  1
  Al  Al19  1  0.986528  0.832148  0.036706  1
  Al  Al20  1  0.185855  0.499648  0.443761  1
  Al  Al21  1  0.813461  0.500476  0.557614  1
  Al  Al22  1  0.732577  0.160219  0.185052  1
  Al  Al23  1  0.270601  0.836205  0.814558  1
  Al  Al24  1  0.061772  0.627038  0.813235  1
  Al  Al25  1  0.934334  0.373425  0.186258  1
  Al  Al26  1  0.851675  0.045713  0.814897  1
  Al  Al27  1  0.148399  0.958094  0.185144  1
  Ni  Ni28  1  0.120132  0.493015  0.637294  1
  Ni  Ni29  1  0.879701  0.506453  0.363379  1
  Ni  Ni30  1  0.659744  0.169988  0.999535  1
  Ni  Ni31  1  0.340836  0.829959  0.999310  1
  Ni  Ni32  1  0.538922  0.166587  0.363736  1
  Ni  Ni33  1  0.461624  0.832952  0.637400  1
  Ni  Ni34  1  0.778991  0.174155  0.637429  1
  Ni  Ni35  1  0.220228  0.826852  0.363576  1
  Ni  Ni36  1  0.000082  0.499722  0.999274  1
