# generated using pymatgen
data_BaYbSiS4
_symmetry_space_group_name_H-M   'P 1'
_cell_length_a   6.73451100
_cell_length_b   6.53963222
_cell_length_c   8.39664079
_cell_angle_alpha   72.19195331
_cell_angle_beta   90.00000000
_cell_angle_gamma   90.00000000
_symmetry_Int_Tables_number   1
_chemical_formula_structural   BaYbSiS4
_chemical_formula_sum   'Ba2 Yb2 Si2 S8'
_cell_volume   352.07999613
_cell_formula_units_Z   2
loop_
 _symmetry_equiv_pos_site_id
 _symmetry_equiv_pos_as_xyz
  1  'x, y, z'
loop_
 _atom_site_type_symbol
 _atom_site_label
 _atom_site_symmetry_multiplicity
 _atom_site_fract_x
 _atom_site_fract_y
 _atom_site_fract_z
 _atom_site_occupancy
  Ba  Ba0  1  0.980421  0.734719  0.069045  1
  Ba  Ba1  1  0.480421  0.265281  0.930955  1
  Yb  Yb2  1  0.500813  0.230646  0.449018  1
  Yb  Yb3  1  0.000813  0.769354  0.550982  1
  Si  Si4  1  0.462247  0.781515  0.319231  1
  Si  Si5  1  0.962247  0.218485  0.680769  1
  S  S6  1  0.462315  0.594001  0.149340  1
  S  S7  1  0.227464  0.012469  0.261422  1
  S  S8  1  0.722314  0.976472  0.281465  1
  S  S9  1  0.911427  0.413951  0.432708  1
  S  S10  1  0.411427  0.586049  0.567292  1
  S  S11  1  0.222314  0.023528  0.718535  1
  S  S12  1  0.727464  0.987531  0.738578  1
  S  S13  1  0.962315  0.405999  0.850660  1
