# generated using pymatgen
data_HfTa(NiTe)4
_symmetry_space_group_name_H-M   'P 1'
_cell_length_a   3.63770600
_cell_length_b   6.45679706
_cell_length_c   18.01084179
_cell_angle_alpha   90.09169938
_cell_angle_beta   90.00000000
_cell_angle_gamma   90.00000000
_symmetry_Int_Tables_number   1
_chemical_formula_structural   HfTa(NiTe)4
_chemical_formula_sum   'Hf2 Ta2 Ni8 Te8'
_cell_volume   423.03683865
_cell_formula_units_Z   2
loop_
 _symmetry_equiv_pos_site_id
 _symmetry_equiv_pos_as_xyz
  1  'x, y, z'
loop_
 _atom_site_type_symbol
 _atom_site_label
 _atom_site_symmetry_multiplicity
 _atom_site_fract_x
 _atom_site_fract_y
 _atom_site_fract_z
 _atom_site_occupancy
  Hf  Hf0  1  0.250000  0.905868  0.722370  1
  Hf  Hf1  1  0.750000  0.094132  0.277630  1
  Ta  Ta2  1  0.250000  0.406033  0.775871  1
  Ta  Ta3  1  0.750000  0.593967  0.224129  1
  Ni  Ni4  1  0.250000  0.290799  0.184296  1
  Ni  Ni5  1  0.750000  0.709201  0.815704  1
  Ni  Ni6  1  0.750000  0.212142  0.685229  1
  Ni  Ni7  1  0.250000  0.787858  0.314771  1
  Ni  Ni8  1  0.250000  0.895539  0.185085  1
  Ni  Ni9  1  0.750000  0.104461  0.814915  1
  Ni  Ni10  1  0.250000  0.399893  0.313888  1
  Ni  Ni11  1  0.750000  0.600107  0.686112  1
  Te  Te12  1  0.250000  0.593577  0.096340  1
  Te  Te13  1  0.750000  0.406423  0.903660  1
  Te  Te14  1  0.750000  0.905217  0.593178  1
  Te  Te15  1  0.250000  0.094783  0.406822  1
  Te  Te16  1  0.750000  0.592460  0.386759  1
  Te  Te17  1  0.250000  0.407540  0.613241  1
  Te  Te18  1  0.750000  0.091692  0.111136  1
  Te  Te19  1  0.250000  0.908308  0.888864  1
