# generated using pymatgen
data_Ho2Pa2TlInPd4
_symmetry_space_group_name_H-M   'P 1'
_cell_length_a   7.92229434
_cell_length_b   7.77718933
_cell_length_c   3.63907000
_cell_angle_alpha   90.00000000
_cell_angle_beta   90.00000000
_cell_angle_gamma   89.96648962
_symmetry_Int_Tables_number   1
_chemical_formula_structural   Ho2Pa2TlInPd4
_chemical_formula_sum   'Ho2 Pa2 Tl1 In1 Pd4'
_cell_volume   224.21464759
_cell_formula_units_Z   1
loop_
 _symmetry_equiv_pos_site_id
 _symmetry_equiv_pos_as_xyz
  1  'x, y, z'
loop_
 _atom_site_type_symbol
 _atom_site_label
 _atom_site_symmetry_multiplicity
 _atom_site_fract_x
 _atom_site_fract_y
 _atom_site_fract_z
 _atom_site_occupancy
  Ho  Ho0  1  0.174706  0.327424  0.500000  1
  Ho  Ho1  1  0.672280  0.174568  0.500000  1
  Pa  Pa2  1  0.330149  0.831105  0.500000  1
  Pa  Pa3  1  0.827681  0.666676  0.500000  1
  Tl  Tl4  1  0.996540  0.008444  0.000000  1
  In  In5  1  0.496512  0.492222  0.000000  1
  Pd  Pd6  1  0.374578  0.115643  0.000000  1
  Pd  Pd7  1  0.870890  0.387586  0.000000  1
  Pd  Pd8  1  0.130048  0.639732  0.000000  1
  Pd  Pd9  1  0.626616  0.856601  0.000000  1
