# generated using pymatgen
data_BeCu15Si3Ni
_symmetry_space_group_name_H-M   'P 1'
_cell_length_a   6.22715109
_cell_length_b   6.22715116
_cell_length_c   6.22715100
_cell_angle_alpha   89.91355693
_cell_angle_beta   89.91354773
_cell_angle_gamma   89.91353701
_symmetry_Int_Tables_number   1
_chemical_formula_structural   BeCu15Si3Ni
_chemical_formula_sum   'Be1 Cu15 Si3 Ni1'
_cell_volume   241.47197050
_cell_formula_units_Z   1
loop_
 _symmetry_equiv_pos_site_id
 _symmetry_equiv_pos_as_xyz
  1  'x, y, z'
loop_
 _atom_site_type_symbol
 _atom_site_label
 _atom_site_symmetry_multiplicity
 _atom_site_fract_x
 _atom_site_fract_y
 _atom_site_fract_z
 _atom_site_occupancy
  Be  Be0  1  0.061061  0.061061  0.061061  1
  Cu  Cu1  1  0.817716  0.310065  0.184707  1
  Cu  Cu2  1  0.310065  0.184707  0.817716  1
  Cu  Cu3  1  0.184707  0.817716  0.310065  1
  Cu  Cu4  1  0.046951  0.882746  0.710645  1
  Cu  Cu5  1  0.291924  0.548015  0.620988  1
  Cu  Cu6  1  0.374517  0.797844  0.951876  1
  Cu  Cu7  1  0.548015  0.620988  0.291924  1
  Cu  Cu8  1  0.797844  0.951876  0.374517  1
  Cu  Cu9  1  0.882746  0.710645  0.046951  1
  Cu  Cu10  1  0.951876  0.374517  0.797844  1
  Cu  Cu11  1  0.710645  0.046951  0.882746  1
  Cu  Cu12  1  0.620988  0.291924  0.548015  1
  Cu  Cu13  1  0.448625  0.119529  0.206227  1
  Cu  Cu14  1  0.206227  0.448625  0.119529  1
  Cu  Cu15  1  0.119529  0.206227  0.448625  1
  Si  Si16  1  0.444777  0.935325  0.563482  1
  Si  Si17  1  0.935325  0.563482  0.444777  1
  Si  Si18  1  0.563482  0.444777  0.935325  1
  Ni  Ni19  1  0.682975  0.682975  0.682975  1
