# generated using pymatgen
data_Ho2ErNiSn3Rh2
_symmetry_space_group_name_H-M   'P 1'
_cell_length_a   7.51060700
_cell_length_b   7.50866950
_cell_length_c   3.79065300
_cell_angle_alpha   90.00000000
_cell_angle_beta   90.00000000
_cell_angle_gamma   120.00852287
_symmetry_Int_Tables_number   1
_chemical_formula_structural   Ho2ErNiSn3Rh2
_chemical_formula_sum   'Ho2 Er1 Ni1 Sn3 Rh2'
_cell_volume   185.11660824
_cell_formula_units_Z   1
loop_
 _symmetry_equiv_pos_site_id
 _symmetry_equiv_pos_as_xyz
  1  'x, y, z'
loop_
 _atom_site_type_symbol
 _atom_site_label
 _atom_site_symmetry_multiplicity
 _atom_site_fract_x
 _atom_site_fract_y
 _atom_site_fract_z
 _atom_site_occupancy
  Ho  Ho0  1  0.407353  0.407125  0.000000  1
  Ho  Ho1  1  0.000228  0.592875  0.000000  1
  Er  Er2  1  0.593074  0.000000  0.000000  1
  Ni  Ni3  1  0.998792  0.000000  0.000000  1
  Sn  Sn4  1  0.745584  0.745827  0.500000  1
  Sn  Sn5  1  0.999757  0.254173  0.500000  1
  Sn  Sn6  1  0.254385  0.000000  0.500000  1
  Rh  Rh7  1  0.666579  0.332330  0.500000  1
  Rh  Rh8  1  0.334248  0.667670  0.500000  1
