# generated using pymatgen
data_Ac7Dy(Sc3Pb4)4
_symmetry_space_group_name_H-M   'P 1'
_cell_length_a   8.22625221
_cell_length_b   15.60749774
_cell_length_c   8.28870100
_cell_angle_alpha   89.89690607
_cell_angle_beta   90.01281559
_cell_angle_gamma   90.16598375
_symmetry_Int_Tables_number   1
_chemical_formula_structural   Ac7Dy(Sc3Pb4)4
_chemical_formula_sum   'Ac7 Dy1 Sc12 Pb16'
_cell_volume   1064.19015946
_cell_formula_units_Z   1
loop_
 _symmetry_equiv_pos_site_id
 _symmetry_equiv_pos_as_xyz
  1  'x, y, z'
loop_
 _atom_site_type_symbol
 _atom_site_label
 _atom_site_symmetry_multiplicity
 _atom_site_fract_x
 _atom_site_fract_y
 _atom_site_fract_z
 _atom_site_occupancy
  Ac  Ac0  1  0.481623  0.594115  0.673838  1
  Ac  Ac1  1  0.983444  0.906536  0.828271  1
  Ac  Ac2  1  0.519038  0.093460  0.328593  1
  Ac  Ac3  1  0.019350  0.408257  0.170939  1
  Ac  Ac4  1  0.514941  0.409354  0.325440  1
  Ac  Ac5  1  0.018097  0.093396  0.172782  1
  Ac  Ac6  1  0.479449  0.902775  0.672987  1
  Dy  Dy7  1  0.973896  0.596989  0.823341  1
  Sc  Sc8  1  0.643894  0.625374  0.151944  1
  Sc  Sc9  1  0.142800  0.868811  0.346606  1
  Sc  Sc10  1  0.356418  0.127346  0.842985  1
  Sc  Sc11  1  0.856376  0.374908  0.658854  1
  Sc  Sc12  1  0.360202  0.375721  0.845771  1
  Sc  Sc13  1  0.856253  0.127580  0.654789  1
  Sc  Sc14  1  0.645607  0.871204  0.155416  1
  Sc  Sc15  1  0.145343  0.626983  0.344274  1
  Sc  Sc16  1  0.810229  0.747976  0.491722  1
  Sc  Sc17  1  0.307493  0.747607  0.006498  1
  Sc  Sc18  1  0.191464  0.250749  0.510639  1
  Sc  Sc19  1  0.693679  0.251717  0.990663  1
  Pb  Pb20  1  0.695744  0.457518  0.944738  1
  Pb  Pb21  1  0.185086  0.047653  0.553736  1
  Pb  Pb22  1  0.317103  0.950075  0.056048  1
  Pb  Pb23  1  0.819565  0.548557  0.455247  1
  Pb  Pb24  1  0.301470  0.551002  0.043012  1
  Pb  Pb25  1  0.815151  0.950039  0.446412  1
  Pb  Pb26  1  0.683591  0.048629  0.945062  1
  Pb  Pb27  1  0.180220  0.454804  0.558087  1
  Pb  Pb28  1  0.450313  0.748227  0.355722  1
  Pb  Pb29  1  0.949650  0.746875  0.139735  1
  Pb  Pb30  1  0.550459  0.252156  0.643148  1
  Pb  Pb31  1  0.051605  0.250358  0.856718  1
  Pb  Pb32  1  0.676026  0.747548  0.859211  1
  Pb  Pb33  1  0.160788  0.744074  0.647783  1
  Pb  Pb34  1  0.332737  0.250583  0.138526  1
  Pb  Pb35  1  0.830894  0.251042  0.360465  1
