# generated using pymatgen
data_Na3Ca(SnPt)4
_symmetry_space_group_name_H-M   'P 1'
_cell_length_a   4.53849000
_cell_length_b   7.54535724
_cell_length_c   7.85938567
_cell_angle_alpha   90.78760216
_cell_angle_beta   90.00000000
_cell_angle_gamma   90.00000000
_symmetry_Int_Tables_number   1
_chemical_formula_structural   Na3Ca(SnPt)4
_chemical_formula_sum   'Na3 Ca1 Sn4 Pt4'
_cell_volume   269.11552764
_cell_formula_units_Z   1
loop_
 _symmetry_equiv_pos_site_id
 _symmetry_equiv_pos_as_xyz
  1  'x, y, z'
loop_
 _atom_site_type_symbol
 _atom_site_label
 _atom_site_symmetry_multiplicity
 _atom_site_fract_x
 _atom_site_fract_y
 _atom_site_fract_z
 _atom_site_occupancy
  Na  Na0  1  0.250000  0.984089  0.325166  1
  Na  Na1  1  0.250000  0.487850  0.181812  1
  Na  Na2  1  0.750000  0.013594  0.673423  1
  Ca  Ca3  1  0.750000  0.516034  0.823021  1
  Sn  Sn4  1  0.250000  0.326721  0.573442  1
  Sn  Sn5  1  0.250000  0.843124  0.922637  1
  Sn  Sn6  1  0.750000  0.665994  0.419480  1
  Sn  Sn7  1  0.750000  0.163039  0.078415  1
  Pt  Pt8  1  0.250000  0.205288  0.894005  1
  Pt  Pt9  1  0.250000  0.690964  0.609913  1
  Pt  Pt10  1  0.750000  0.799873  0.104093  1
  Pt  Pt11  1  0.750000  0.303430  0.394591  1
