# generated using pymatgen
data_CeH6Ir
_symmetry_space_group_name_H-M   'P 1'
_cell_length_a   4.76469061
_cell_length_b   4.76469123
_cell_length_c   4.77414269
_cell_angle_alpha   58.05990347
_cell_angle_beta   58.05990334
_cell_angle_gamma   58.00043078
_symmetry_Int_Tables_number   1
_chemical_formula_structural   CeH6Ir
_chemical_formula_sum   'Ce1 H6 Ir1'
_cell_volume   73.19413311
_cell_formula_units_Z   1
loop_
 _symmetry_equiv_pos_site_id
 _symmetry_equiv_pos_as_xyz
  1  'x, y, z'
loop_
 _atom_site_type_symbol
 _atom_site_label
 _atom_site_symmetry_multiplicity
 _atom_site_fract_x
 _atom_site_fract_y
 _atom_site_fract_z
 _atom_site_occupancy
  Ce  Ce0  1  0.500000  0.500000  0.500000  1
  H  H1  1  0.573051  0.097554  0.097916  1
  H  H2  1  0.097554  0.573051  0.097916  1
  H  H3  1  0.902738  0.902738  0.425368  1
  H  H4  1  0.097262  0.097262  0.574631  1
  H  H5  1  0.902446  0.426948  0.902084  1
  H  H6  1  0.426948  0.902446  0.902084  1
  Ir  Ir7  1  0.000000  0.000000  0.000000  1
