# generated using pymatgen
data_Li28Sc2Si7Pb
_symmetry_space_group_name_H-M   'P 1'
_cell_length_a   9.30746466
_cell_length_b   9.28818429
_cell_length_c   9.30321903
_cell_angle_alpha   109.29292600
_cell_angle_beta   109.61867648
_cell_angle_gamma   109.39443117
_symmetry_Int_Tables_number   1
_chemical_formula_structural   Li28Sc2Si7Pb
_chemical_formula_sum   'Li28 Sc2 Si7 Pb1'
_cell_volume   619.93526380
_cell_formula_units_Z   1
loop_
 _symmetry_equiv_pos_site_id
 _symmetry_equiv_pos_as_xyz
  1  'x, y, z'
loop_
 _atom_site_type_symbol
 _atom_site_label
 _atom_site_symmetry_multiplicity
 _atom_site_fract_x
 _atom_site_fract_y
 _atom_site_fract_z
 _atom_site_occupancy
  Li  Li0  1  0.062020  0.542889  0.285138  1
  Li  Li1  1  0.264118  0.793670  0.719837  1
  Li  Li2  1  0.177533  0.956568  0.970512  1
  Li  Li3  1  0.977604  0.199683  0.025486  1
  Li  Li4  1  0.042828  0.014388  0.221514  1
  Li  Li5  1  0.793594  0.821890  0.778388  1
  Li  Li6  1  0.462417  0.742683  0.539172  1
  Li  Li7  1  0.207764  0.927275  0.470374  1
  Li  Li8  1  0.723404  0.340466  0.062138  1
  Li  Li9  1  0.958894  0.402768  0.872587  1
  Li  Li10  1  0.281450  0.664428  0.931268  1
  Li  Li11  1  0.527163  0.087106  0.119096  1
  Li  Li12  1  0.692579  0.866407  0.094686  1
  Li  Li13  1  0.484638  0.895266  0.333784  1
  Li  Li14  1  0.557591  0.151865  0.674132  1
  Li  Li15  1  0.775835  0.600928  0.905002  1
  Li  Li16  1  0.845862  0.522740  0.405696  1
  Li  Li17  1  0.407563  0.300277  0.173963  1
  Li  Li18  1  0.130603  0.221813  0.819308  1
  Li  Li19  1  0.116393  0.442456  0.594364  1
  Li  Li20  1  0.910370  0.030802  0.437023  1
  Li  Li21  1  0.339214  0.275061  0.618189  1
  Li  Li22  1  0.591930  0.473845  0.561715  1
  Li  Li23  1  0.665955  0.724711  0.384745  1
  Li  Li24  1  0.004122  0.874568  0.628059  1
  Li  Li25  1  0.245678  0.371296  0.376849  1
  Li  Li26  1  0.122798  0.756495  0.127428  1
  Li  Li27  1  0.624282  0.997148  0.873102  1
  Sc  Sc28  1  0.507609  0.498216  0.994520  1
  Sc  Sc29  1  0.750058  0.251534  0.499719  1
  Si  Si30  1  0.375350  0.132702  0.837970  1
  Si  Si31  1  0.954629  0.616340  0.738147  1
  Si  Si32  1  0.873851  0.213696  0.260534  1
  Si  Si33  1  0.384703  0.125330  0.340104  1
  Si  Si34  1  0.785280  0.045752  0.660496  1
  Si  Si35  1  0.465613  0.625700  0.760311  1
  Si  Si36  1  0.866524  0.705407  0.239612  1
  Pb  Pb37  1  0.292179  0.535828  0.165035  1
