# generated using pymatgen
data_DyY3(Ni7P4)2
_symmetry_space_group_name_H-M   'P 1'
_cell_length_a   3.70551700
_cell_length_b   9.16422607
_cell_length_c   10.27124308
_cell_angle_alpha   89.98549445
_cell_angle_beta   90.00000000
_cell_angle_gamma   90.00000000
_symmetry_Int_Tables_number   1
_chemical_formula_structural   DyY3(Ni7P4)2
_chemical_formula_sum   'Dy1 Y3 Ni14 P8'
_cell_volume   348.79286951
_cell_formula_units_Z   1
loop_
 _symmetry_equiv_pos_site_id
 _symmetry_equiv_pos_as_xyz
  1  'x, y, z'
loop_
 _atom_site_type_symbol
 _atom_site_label
 _atom_site_symmetry_multiplicity
 _atom_site_fract_x
 _atom_site_fract_y
 _atom_site_fract_z
 _atom_site_occupancy
  Dy  Dy0  1  0.000000  0.058005  0.395381  1
  Y  Y1  1  0.500000  0.941855  0.895450  1
  Y  Y2  1  0.000000  0.435306  0.178534  1
  Y  Y3  1  0.500000  0.564694  0.678496  1
  Ni  Ni4  1  0.000000  0.056644  0.698643  1
  Ni  Ni5  1  0.500000  0.943674  0.199493  1
  Ni  Ni6  1  0.000000  0.726360  0.509636  1
  Ni  Ni7  1  0.500000  0.273807  0.009865  1
  Ni  Ni8  1  0.000000  0.097234  0.093765  1
  Ni  Ni9  1  0.500000  0.903009  0.593188  1
  Ni  Ni10  1  0.000000  0.745828  0.274009  1
  Ni  Ni11  1  0.500000  0.254410  0.773824  1
  Ni  Ni12  1  0.000000  0.306534  0.602760  1
  Ni  Ni13  1  0.500000  0.693429  0.103082  1
  Ni  Ni14  1  0.000000  0.685894  0.911988  1
  Ni  Ni15  1  0.500000  0.313410  0.411915  1
  Ni  Ni16  1  0.000000  0.417363  0.870047  1
  Ni  Ni17  1  0.500000  0.582658  0.370008  1
  P  P18  1  0.000000  0.180276  0.889327  1
  P  P19  1  0.500000  0.819920  0.389332  1
  P  P20  1  0.000000  0.844914  0.084402  1
  P  P21  1  0.500000  0.154862  0.584113  1
  P  P22  1  0.000000  0.809661  0.714128  1
  P  P23  1  0.500000  0.190307  0.214348  1
  P  P24  1  0.000000  0.480227  0.461243  1
  P  P25  1  0.500000  0.519718  0.961217  1
