# generated using pymatgen
data_Tb9Pr6Y(CdIr)4
_symmetry_space_group_name_H-M   'P 1'
_cell_length_a   9.80547459
_cell_length_b   9.80547382
_cell_length_c   9.80937900
_cell_angle_alpha   59.98682798
_cell_angle_beta   59.98683060
_cell_angle_gamma   60.05510227
_symmetry_Int_Tables_number   1
_chemical_formula_structural   Tb9Pr6Y(CdIr)4
_chemical_formula_sum   'Tb9 Pr6 Y1 Cd4 Ir4'
_cell_volume   667.04892852
_cell_formula_units_Z   1
loop_
 _symmetry_equiv_pos_site_id
 _symmetry_equiv_pos_as_xyz
  1  'x, y, z'
loop_
 _atom_site_type_symbol
 _atom_site_label
 _atom_site_symmetry_multiplicity
 _atom_site_fract_x
 _atom_site_fract_y
 _atom_site_fract_z
 _atom_site_occupancy
  Tb  Tb0  1  0.347495  0.347495  0.347260  1
  Tb  Tb1  1  0.347495  0.347495  0.957750  1
  Tb  Tb2  1  0.348296  0.957356  0.347174  1
  Tb  Tb3  1  0.957356  0.348296  0.347174  1
  Tb  Tb4  1  0.811712  0.187177  0.188503  1
  Tb  Tb5  1  0.187177  0.811712  0.812608  1
  Tb  Tb6  1  0.187177  0.811712  0.188503  1
  Tb  Tb7  1  0.811712  0.187177  0.812608  1
  Tb  Tb8  1  0.187948  0.187948  0.812052  1
  Pr  Pr9  1  0.941189  0.558416  0.559287  1
  Pr  Pr10  1  0.558416  0.941189  0.941108  1
  Pr  Pr11  1  0.558416  0.941189  0.559287  1
  Pr  Pr12  1  0.941189  0.558416  0.941108  1
  Pr  Pr13  1  0.558996  0.558996  0.941004  1
  Pr  Pr14  1  0.941737  0.941737  0.558263  1
  Y  Y15  1  0.811694  0.811694  0.188306  1
  Cd  Cd16  1  0.579432  0.579432  0.578982  1
  Cd  Cd17  1  0.579432  0.579432  0.262153  1
  Cd  Cd18  1  0.579494  0.261824  0.579341  1
  Cd  Cd19  1  0.261824  0.579494  0.579341  1
  Ir  Ir20  1  0.141613  0.141613  0.140767  1
  Ir  Ir21  1  0.141613  0.141613  0.576008  1
  Ir  Ir22  1  0.142638  0.575951  0.140706  1
  Ir  Ir23  1  0.575951  0.142638  0.140706  1
