# generated using pymatgen
data_Nb4Tc2P4IrRh
_symmetry_space_group_name_H-M   'P 1'
_cell_length_a   3.76954000
_cell_length_b   6.41200233
_cell_length_c   7.26100962
_cell_angle_alpha   90.19573470
_cell_angle_beta   90.00000000
_cell_angle_gamma   90.00000000
_symmetry_Int_Tables_number   1
_chemical_formula_structural   Nb4Tc2P4IrRh
_chemical_formula_sum   'Nb4 Tc2 P4 Ir1 Rh1'
_cell_volume   175.49975137
_cell_formula_units_Z   1
loop_
 _symmetry_equiv_pos_site_id
 _symmetry_equiv_pos_as_xyz
  1  'x, y, z'
loop_
 _atom_site_type_symbol
 _atom_site_label
 _atom_site_symmetry_multiplicity
 _atom_site_fract_x
 _atom_site_fract_y
 _atom_site_fract_z
 _atom_site_occupancy
  Nb  Nb0  1  0.250000  0.025943  0.827640  1
  Nb  Nb1  1  0.250000  0.526871  0.671507  1
  Nb  Nb2  1  0.750000  0.977134  0.171109  1
  Nb  Nb3  1  0.750000  0.475470  0.329979  1
  Tc  Tc4  1  0.250000  0.141090  0.442933  1
  Tc  Tc5  1  0.250000  0.640947  0.057930  1
  P  P6  1  0.250000  0.771324  0.368265  1
  P  P7  1  0.250000  0.271422  0.130411  1
  P  P8  1  0.750000  0.235713  0.621413  1
  P  P9  1  0.750000  0.735424  0.879938  1
  Ir  Ir10  1  0.750000  0.849126  0.564938  1
  Rh  Rh11  1  0.750000  0.349536  0.933937  1
