# generated using pymatgen
data_HoLu3ReB12Ir
_symmetry_space_group_name_H-M   'P 1'
_cell_length_a   3.62015200
_cell_length_b   9.05953575
_cell_length_c   11.44644000
_cell_angle_alpha   90.29444932
_cell_angle_beta   90.00000000
_cell_angle_gamma   90.00000000
_symmetry_Int_Tables_number   1
_chemical_formula_structural   HoLu3ReB12Ir
_chemical_formula_sum   'Ho2 Lu6 Re2 B24 Ir2'
_cell_volume   375.40275038
_cell_formula_units_Z   2
loop_
 _symmetry_equiv_pos_site_id
 _symmetry_equiv_pos_as_xyz
  1  'x, y, z'
loop_
 _atom_site_type_symbol
 _atom_site_label
 _atom_site_symmetry_multiplicity
 _atom_site_fract_x
 _atom_site_fract_y
 _atom_site_fract_z
 _atom_site_occupancy
  Ho  Ho0  1  0.000000  0.316531  0.410031  1
  Ho  Ho1  1  0.000000  0.683469  0.589969  1
  Lu  Lu2  1  0.000000  0.826072  0.081666  1
  Lu  Lu3  1  0.000000  0.173928  0.918334  1
  Lu  Lu4  1  0.000000  0.946535  0.372212  1
  Lu  Lu5  1  0.000000  0.053465  0.627788  1
  Lu  Lu6  1  0.000000  0.441661  0.125292  1
  Lu  Lu7  1  0.000000  0.558339  0.874708  1
  Re  Re8  1  0.000000  0.138094  0.179700  1
  Re  Re9  1  0.000000  0.861906  0.820300  1
  B  B10  1  0.500000  0.554488  0.433962  1
  B  B11  1  0.500000  0.445512  0.566038  1
  B  B12  1  0.500000  0.052964  0.066386  1
  B  B13  1  0.500000  0.947036  0.933614  1
  B  B14  1  0.500000  0.751026  0.420954  1
  B  B15  1  0.500000  0.248974  0.579046  1
  B  B16  1  0.500000  0.248993  0.079748  1
  B  B17  1  0.500000  0.751007  0.920252  1
  B  B18  1  0.500000  0.792371  0.264882  1
  B  B19  1  0.500000  0.207629  0.735118  1
  B  B20  1  0.500000  0.293194  0.234165  1
  B  B21  1  0.500000  0.706806  0.765835  1
  B  B22  1  0.500000  0.631671  0.182721  1
  B  B23  1  0.500000  0.368329  0.817279  1
  B  B24  1  0.500000  0.130742  0.315193  1
  B  B25  1  0.500000  0.869258  0.684807  1
  B  B26  1  0.500000  0.981139  0.212939  1
  B  B27  1  0.500000  0.018861  0.787061  1
  B  B28  1  0.500000  0.481960  0.286484  1
  B  B29  1  0.500000  0.518040  0.713516  1
  B  B30  1  0.500000  0.605202  0.029409  1
  B  B31  1  0.500000  0.394798  0.970591  1
  B  B32  1  0.500000  0.104207  0.471827  1
  B  B33  1  0.500000  0.895793  0.528173  1
  Ir  Ir34  1  0.000000  0.637534  0.320975  1
  Ir  Ir35  1  0.000000  0.362466  0.679025  1
