# generated using pymatgen
data_HoEr3(B6Ru)2
_symmetry_space_group_name_H-M   'P 1'
_cell_length_a   3.63553700
_cell_length_b   9.10458900
_cell_length_c   11.47982300
_cell_angle_alpha   90.00115792
_cell_angle_beta   90.00000000
_cell_angle_gamma   90.00000000
_symmetry_Int_Tables_number   1
_chemical_formula_structural   HoEr3(B6Ru)2
_chemical_formula_sum   'Ho2 Er6 B24 Ru4'
_cell_volume   379.98294691
_cell_formula_units_Z   2
loop_
 _symmetry_equiv_pos_site_id
 _symmetry_equiv_pos_as_xyz
  1  'x, y, z'
loop_
 _atom_site_type_symbol
 _atom_site_label
 _atom_site_symmetry_multiplicity
 _atom_site_fract_x
 _atom_site_fract_y
 _atom_site_fract_z
 _atom_site_occupancy
  Ho  Ho0  1  0.000000  0.322549  0.414098  1
  Ho  Ho1  1  0.000000  0.677451  0.585902  1
  Er  Er2  1  0.000000  0.822587  0.085774  1
  Er  Er3  1  0.000000  0.177413  0.914226  1
  Er  Er4  1  0.000000  0.944066  0.372262  1
  Er  Er5  1  0.000000  0.055934  0.627738  1
  Er  Er6  1  0.000000  0.444056  0.127509  1
  Er  Er7  1  0.000000  0.555944  0.872491  1
  B  B8  1  0.500000  0.554258  0.433193  1
  B  B9  1  0.500000  0.445742  0.566807  1
  B  B10  1  0.500000  0.054084  0.066529  1
  B  B11  1  0.500000  0.945916  0.933471  1
  B  B12  1  0.500000  0.748688  0.419801  1
  B  B13  1  0.500000  0.251312  0.580199  1
  B  B14  1  0.500000  0.248504  0.079883  1
  B  B15  1  0.500000  0.751496  0.920117  1
  B  B16  1  0.500000  0.792091  0.265769  1
  B  B17  1  0.500000  0.207909  0.734231  1
  B  B18  1  0.500000  0.291892  0.233870  1
  B  B19  1  0.500000  0.708108  0.766130  1
  B  B20  1  0.500000  0.632305  0.184749  1
  B  B21  1  0.500000  0.367695  0.815251  1
  B  B22  1  0.500000  0.132071  0.314996  1
  B  B23  1  0.500000  0.867929  0.685004  1
  B  B24  1  0.500000  0.983328  0.212757  1
  B  B25  1  0.500000  0.016672  0.787243  1
  B  B26  1  0.500000  0.483606  0.286959  1
  B  B27  1  0.500000  0.516394  0.713041  1
  B  B28  1  0.500000  0.607640  0.029669  1
  B  B29  1  0.500000  0.392360  0.970331  1
  B  B30  1  0.500000  0.107088  0.470457  1
  B  B31  1  0.500000  0.892912  0.529543  1
  Ru  Ru32  1  0.000000  0.638577  0.320837  1
  Ru  Ru33  1  0.000000  0.361423  0.679163  1
  Ru  Ru34  1  0.000000  0.138266  0.178821  1
  Ru  Ru35  1  0.000000  0.861734  0.821179  1
