# generated using pymatgen
data_Ho5Tm5(CoBi2)2
_symmetry_space_group_name_H-M   'P 1'
_cell_length_a   7.89898631
_cell_length_b   8.85812700
_cell_length_c   12.33011740
_cell_angle_alpha   90.00000000
_cell_angle_beta   90.07445669
_cell_angle_gamma   90.00000000
_symmetry_Int_Tables_number   1
_chemical_formula_structural   Ho5Tm5(CoBi2)2
_chemical_formula_sum   'Ho10 Tm10 Co4 Bi8'
_cell_volume   862.74034685
_cell_formula_units_Z   2
loop_
 _symmetry_equiv_pos_site_id
 _symmetry_equiv_pos_as_xyz
  1  'x, y, z'
loop_
 _atom_site_type_symbol
 _atom_site_label
 _atom_site_symmetry_multiplicity
 _atom_site_fract_x
 _atom_site_fract_y
 _atom_site_fract_z
 _atom_site_occupancy
  Ho  Ho0  1  0.847393  0.250000  0.800058  1
  Ho  Ho1  1  0.152607  0.750000  0.199942  1
  Ho  Ho2  1  0.885124  0.750000  0.811618  1
  Ho  Ho3  1  0.114876  0.250000  0.188382  1
  Ho  Ho4  1  0.384677  0.250000  0.688434  1
  Ho  Ho5  1  0.615323  0.750000  0.311566  1
  Ho  Ho6  1  0.053889  0.750000  0.497997  1
  Ho  Ho7  1  0.946111  0.250000  0.502003  1
  Ho  Ho8  1  0.553393  0.250000  0.002214  1
  Ho  Ho9  1  0.446607  0.750000  0.997786  1
  Tm  Tm10  1  0.347905  0.750000  0.699216  1
  Tm  Tm11  1  0.652095  0.250000  0.300784  1
  Tm  Tm12  1  0.673669  0.538236  0.562964  1
  Tm  Tm13  1  0.326331  0.461764  0.437036  1
  Tm  Tm14  1  0.173886  0.462034  0.937157  1
  Tm  Tm15  1  0.326331  0.038236  0.437036  1
  Tm  Tm16  1  0.826114  0.537966  0.062843  1
  Tm  Tm17  1  0.673669  0.961764  0.562964  1
  Tm  Tm18  1  0.826114  0.962034  0.062843  1
  Tm  Tm19  1  0.173886  0.037966  0.937157  1
  Co  Co20  1  0.065229  0.750000  0.992317  1
  Co  Co21  1  0.934771  0.250000  0.007683  1
  Co  Co22  1  0.565195  0.250000  0.507529  1
  Co  Co23  1  0.434805  0.750000  0.492471  1
  Bi  Bi24  1  0.570638  0.509787  0.826580  1
  Bi  Bi25  1  0.429362  0.490213  0.173420  1
  Bi  Bi26  1  0.071832  0.490931  0.673290  1
  Bi  Bi27  1  0.429362  0.009787  0.173420  1
  Bi  Bi28  1  0.928168  0.509069  0.326710  1
  Bi  Bi29  1  0.570638  0.990213  0.826580  1
  Bi  Bi30  1  0.928168  0.990931  0.326710  1
  Bi  Bi31  1  0.071832  0.009069  0.673290  1
