# generated using pymatgen
data_CaGaSiRh2
_symmetry_space_group_name_H-M   'P 1'
_cell_length_a   5.89982692
_cell_length_b   5.89982686
_cell_length_c   5.89982727
_cell_angle_alpha   138.56098356
_cell_angle_beta   138.56097692
_cell_angle_gamma   60.04491153
_symmetry_Int_Tables_number   1
_chemical_formula_structural   CaGaSiRh2
_chemical_formula_sum   'Ca1 Ga1 Si1 Rh2'
_cell_volume   89.02448711
_cell_formula_units_Z   1
loop_
 _symmetry_equiv_pos_site_id
 _symmetry_equiv_pos_as_xyz
  1  'x, y, z'
loop_
 _atom_site_type_symbol
 _atom_site_label
 _atom_site_symmetry_multiplicity
 _atom_site_fract_x
 _atom_site_fract_y
 _atom_site_fract_z
 _atom_site_occupancy
  Ca  Ca0  1  0.998288  0.998288  0.000000  1
  Ga  Ga1  1  0.621520  0.621520  0.000000  1
  Si  Si2  1  0.365644  0.365644  0.000000  1
  Rh  Rh3  1  0.757274  0.257274  0.500000  1
  Rh  Rh4  1  0.257274  0.757274  0.500000  1
