# generated using pymatgen
data_Tm10Cd3Re
_symmetry_space_group_name_H-M   'P 1'
_cell_length_a   9.38580900
_cell_length_b   9.38581009
_cell_length_c   9.88789300
_cell_angle_alpha   90.00000000
_cell_angle_beta   90.00000000
_cell_angle_gamma   119.99999968
_symmetry_Int_Tables_number   1
_chemical_formula_structural   Tm10Cd3Re
_chemical_formula_sum   'Tm20 Cd6 Re2'
_cell_volume   754.35863495
_cell_formula_units_Z   2
loop_
 _symmetry_equiv_pos_site_id
 _symmetry_equiv_pos_as_xyz
  1  'x, y, z'
loop_
 _atom_site_type_symbol
 _atom_site_label
 _atom_site_symmetry_multiplicity
 _atom_site_fract_x
 _atom_site_fract_y
 _atom_site_fract_z
 _atom_site_occupancy
  Tm  Tm0  1  0.000000  0.000000  0.500000  1
  Tm  Tm1  1  0.000000  0.000000  0.000000  1
  Tm  Tm2  1  0.210266  0.789734  0.444777  1
  Tm  Tm3  1  0.210266  0.420533  0.444777  1
  Tm  Tm4  1  0.579467  0.789734  0.444777  1
  Tm  Tm5  1  0.789734  0.210266  0.555223  1
  Tm  Tm6  1  0.789734  0.579467  0.555223  1
  Tm  Tm7  1  0.420533  0.210266  0.555223  1
  Tm  Tm8  1  0.789734  0.210266  0.944777  1
  Tm  Tm9  1  0.789734  0.579467  0.944777  1
  Tm  Tm10  1  0.420533  0.210266  0.944777  1
  Tm  Tm11  1  0.210266  0.789734  0.055223  1
  Tm  Tm12  1  0.210266  0.420533  0.055223  1
  Tm  Tm13  1  0.579467  0.789734  0.055223  1
  Tm  Tm14  1  0.536371  0.463629  0.250000  1
  Tm  Tm15  1  0.536371  0.072741  0.250000  1
  Tm  Tm16  1  0.927259  0.463629  0.250000  1
  Tm  Tm17  1  0.463629  0.536371  0.750000  1
  Tm  Tm18  1  0.463629  0.927259  0.750000  1
  Tm  Tm19  1  0.072741  0.536371  0.750000  1
  Cd  Cd20  1  0.886651  0.113349  0.250000  1
  Cd  Cd21  1  0.886651  0.773303  0.250000  1
  Cd  Cd22  1  0.226697  0.113349  0.250000  1
  Cd  Cd23  1  0.113349  0.886651  0.750000  1
  Cd  Cd24  1  0.113349  0.226697  0.750000  1
  Cd  Cd25  1  0.773303  0.886651  0.750000  1
  Re  Re26  1  0.333333  0.666667  0.250000  1
  Re  Re27  1  0.666667  0.333333  0.750000  1
