# generated using pymatgen
data_Ce6NdThF30
_symmetry_space_group_name_H-M   'P 1'
_cell_length_a   8.77484613
_cell_length_b   8.77484701
_cell_length_c   8.74955400
_cell_angle_alpha   79.60661784
_cell_angle_beta   79.60661014
_cell_angle_gamma   100.38132251
_symmetry_Int_Tables_number   1
_chemical_formula_structural   Ce6NdThF30
_chemical_formula_sum   'Ce6 Nd1 Th1 F30'
_cell_volume   635.81725583
_cell_formula_units_Z   1
loop_
 _symmetry_equiv_pos_site_id
 _symmetry_equiv_pos_as_xyz
  1  'x, y, z'
loop_
 _atom_site_type_symbol
 _atom_site_label
 _atom_site_symmetry_multiplicity
 _atom_site_fract_x
 _atom_site_fract_y
 _atom_site_fract_z
 _atom_site_occupancy
  Ce  Ce0  1  0.751080  0.248920  0.250000  1
  Ce  Ce1  1  0.248968  0.751032  0.750000  1
  Ce  Ce2  1  0.748019  0.676380  0.678141  1
  Ce  Ce3  1  0.323620  0.251981  0.821859  1
  Ce  Ce4  1  0.251149  0.322432  0.324433  1
  Ce  Ce5  1  0.677568  0.748851  0.175567  1
  Nd  Nd6  1  0.822733  0.177267  0.750000  1
  Th  Th7  1  0.177674  0.822326  0.250000  1
  F  F8  1  0.463062  0.536938  0.250000  1
  F  F9  1  0.748411  0.956268  0.970960  1
  F  F10  1  0.043732  0.251589  0.529040  1
  F  F11  1  0.248950  0.036305  0.035167  1
  F  F12  1  0.963695  0.751050  0.464833  1
  F  F13  1  0.531479  0.468521  0.750000  1
  F  F14  1  0.223910  0.496053  0.777452  1
  F  F15  1  0.223111  0.722319  0.010267  1
  F  F16  1  0.993607  0.723683  0.777377  1
  F  F17  1  0.722969  0.991891  0.277366  1
  F  F18  1  0.725383  0.222651  0.505167  1
  F  F19  1  0.492930  0.224189  0.278753  1
  F  F20  1  0.775812  0.507070  0.221247  1
  F  F21  1  0.777349  0.274617  0.994833  1
  F  F22  1  0.008109  0.277031  0.222634  1
  F  F23  1  0.276317  0.006393  0.722623  1
  F  F24  1  0.277681  0.776889  0.489733  1
  F  F25  1  0.503947  0.776090  0.722548  1
  F  F26  1  0.543795  0.159720  0.816619  1
  F  F27  1  0.186776  0.053878  0.346125  1
  F  F28  1  0.657542  0.685737  0.444204  1
  F  F29  1  0.683642  0.652272  0.947146  1
  F  F30  1  0.063247  0.189120  0.843594  1
  F  F31  1  0.154826  0.550365  0.316202  1
  F  F32  1  0.449635  0.845174  0.183798  1
  F  F33  1  0.810880  0.936753  0.656406  1
  F  F34  1  0.347728  0.316358  0.552854  1
  F  F35  1  0.314263  0.342458  0.055796  1
  F  F36  1  0.946122  0.813224  0.153875  1
  F  F37  1  0.840280  0.456205  0.683381  1
