# generated using pymatgen
data_CsThZrTe5
_symmetry_space_group_name_H-M   'P 1'
_cell_length_a   6.48038400
_cell_length_b   8.64983600
_cell_length_c   10.89321400
_cell_angle_alpha   90.00000000
_cell_angle_beta   90.00000000
_cell_angle_gamma   90.00000000
_symmetry_Int_Tables_number   1
_chemical_formula_structural   CsThZrTe5
_chemical_formula_sum   'Cs2 Th2 Zr2 Te10'
_cell_volume   610.61103691
_cell_formula_units_Z   2
loop_
 _symmetry_equiv_pos_site_id
 _symmetry_equiv_pos_as_xyz
  1  'x, y, z'
loop_
 _atom_site_type_symbol
 _atom_site_label
 _atom_site_symmetry_multiplicity
 _atom_site_fract_x
 _atom_site_fract_y
 _atom_site_fract_z
 _atom_site_occupancy
  Cs  Cs0  1  0.749999  0.500000  0.215051  1
  Cs  Cs1  1  0.249999  0.500000  0.784949  1
  Th  Th2  1  0.249999  0.000000  0.340739  1
  Th  Th3  1  0.749999  0.000000  0.659260  1
  Zr  Zr4  1  0.000000  0.000000  0.000000  1
  Zr  Zr5  1  0.500001  0.000000  0.000000  1
  Te  Te6  1  0.249999  0.242095  0.116101  1
  Te  Te7  1  0.249999  0.757904  0.116101  1
  Te  Te8  1  0.749999  0.000000  0.224542  1
  Te  Te9  1  0.000000  0.245516  0.500000  1
  Te  Te10  1  0.500001  0.245516  0.500000  1
  Te  Te11  1  0.000000  0.754484  0.500000  1
  Te  Te12  1  0.500001  0.754484  0.500000  1
  Te  Te13  1  0.249999  0.000000  0.775458  1
  Te  Te14  1  0.749999  0.242095  0.883900  1
  Te  Te15  1  0.749999  0.757904  0.883900  1
