# generated using pymatgen
data_Th8CoSe17
_symmetry_space_group_name_H-M   'P 1'
_cell_length_a   8.46193044
_cell_length_b   8.46193030
_cell_length_c   11.10408632
_cell_angle_alpha   80.17228367
_cell_angle_beta   80.17228227
_cell_angle_gamma   64.50556396
_symmetry_Int_Tables_number   1
_chemical_formula_structural   Th8CoSe17
_chemical_formula_sum   'Th8 Co1 Se17'
_cell_volume   702.90965056
_cell_formula_units_Z   1
loop_
 _symmetry_equiv_pos_site_id
 _symmetry_equiv_pos_as_xyz
  1  'x, y, z'
loop_
 _atom_site_type_symbol
 _atom_site_label
 _atom_site_symmetry_multiplicity
 _atom_site_fract_x
 _atom_site_fract_y
 _atom_site_fract_z
 _atom_site_occupancy
  Th  Th0  1  0.183588  0.697151  0.707098  1
  Th  Th1  1  0.697151  0.183588  0.707098  1
  Th  Th2  1  0.816412  0.302849  0.292902  1
  Th  Th3  1  0.302849  0.816412  0.292902  1
  Th  Th4  1  0.202153  0.202153  0.548215  1
  Th  Th5  1  0.797847  0.797847  0.451785  1
  Th  Th6  1  0.683163  0.683163  0.978978  1
  Th  Th7  1  0.316837  0.316837  0.021022  1
  Co  Co8  1  0.000000  0.000000  0.000000  1
  Se  Se9  1  0.821939  0.432371  0.532956  1
  Se  Se10  1  0.432371  0.821939  0.532956  1
  Se  Se11  1  0.178061  0.567629  0.467044  1
  Se  Se12  1  0.567629  0.178061  0.467044  1
  Se  Se13  1  0.053134  0.680215  0.973860  1
  Se  Se14  1  0.680215  0.053134  0.973860  1
  Se  Se15  1  0.946866  0.319785  0.026140  1
  Se  Se16  1  0.319785  0.946866  0.026140  1
  Se  Se17  1  0.052963  0.052963  0.782801  1
  Se  Se18  1  0.947037  0.947037  0.217199  1
  Se  Se19  1  0.211258  0.211258  0.280221  1
  Se  Se20  1  0.788742  0.788742  0.719779  1
  Se  Se21  1  0.301147  0.301147  0.756171  1
  Se  Se22  1  0.698853  0.698853  0.243829  1
  Se  Se23  1  0.520027  0.520027  0.831180  1
  Se  Se24  1  0.479973  0.479973  0.168820  1
  Se  Se25  1  0.000000  0.000000  0.500000  1
