# generated using pymatgen
data_Dy2Cr2Fe3Ni5P6
_symmetry_space_group_name_H-M   'P 1'
_cell_length_a   3.68215100
_cell_length_b   10.33600800
_cell_length_c   11.92468200
_cell_angle_alpha   90.00000000
_cell_angle_beta   90.00000000
_cell_angle_gamma   90.00000000
_symmetry_Int_Tables_number   1
_chemical_formula_structural   Dy2Cr2Fe3Ni5P6
_chemical_formula_sum   'Dy4 Cr4 Fe6 Ni10 P12'
_cell_volume   453.83839797
_cell_formula_units_Z   2
loop_
 _symmetry_equiv_pos_site_id
 _symmetry_equiv_pos_as_xyz
  1  'x, y, z'
loop_
 _atom_site_type_symbol
 _atom_site_label
 _atom_site_symmetry_multiplicity
 _atom_site_fract_x
 _atom_site_fract_y
 _atom_site_fract_z
 _atom_site_occupancy
  Dy  Dy0  1  0.250000  0.576636  0.706357  1
  Dy  Dy1  1  0.250000  0.923364  0.206357  1
  Dy  Dy2  1  0.750000  0.418646  0.293639  1
  Dy  Dy3  1  0.750000  0.081354  0.793639  1
  Cr  Cr4  1  0.250000  0.705345  0.991592  1
  Cr  Cr5  1  0.250000  0.794655  0.491592  1
  Cr  Cr6  1  0.750000  0.298931  0.011423  1
  Cr  Cr7  1  0.750000  0.201069  0.511423  1
  Fe  Fe8  1  0.750000  0.121885  0.301866  1
  Fe  Fe9  1  0.750000  0.378115  0.801866  1
  Fe  Fe10  1  0.250000  0.465817  0.936156  1
  Fe  Fe11  1  0.250000  0.034183  0.436156  1
  Fe  Fe12  1  0.750000  0.537522  0.067981  1
  Fe  Fe13  1  0.750000  0.962478  0.567981  1
  Ni  Ni14  1  0.250000  0.405492  0.485380  1
  Ni  Ni15  1  0.250000  0.094508  0.985380  1
  Ni  Ni16  1  0.750000  0.589231  0.509740  1
  Ni  Ni17  1  0.750000  0.910769  0.009740  1
  Ni  Ni18  1  0.250000  0.223900  0.174212  1
  Ni  Ni19  1  0.250000  0.276100  0.674212  1
  Ni  Ni20  1  0.750000  0.774430  0.822379  1
  Ni  Ni21  1  0.750000  0.725570  0.322379  1
  Ni  Ni22  1  0.250000  0.878506  0.701233  1
  Ni  Ni23  1  0.250000  0.621494  0.201233  1
  P  P24  1  0.250000  0.424526  0.112620  1
  P  P25  1  0.250000  0.075474  0.612620  1
  P  P26  1  0.750000  0.573958  0.888209  1
  P  P27  1  0.750000  0.926042  0.388209  1
  P  P28  1  0.250000  0.272752  0.865571  1
  P  P29  1  0.250000  0.227248  0.365571  1
  P  P30  1  0.750000  0.736315  0.127910  1
  P  P31  1  0.750000  0.763685  0.627910  1
  P  P32  1  0.250000  0.605362  0.392845  1
  P  P33  1  0.250000  0.894638  0.892845  1
  P  P34  1  0.750000  0.394657  0.610886  1
  P  P35  1  0.750000  0.105343  0.110886  1
