# generated using pymatgen
data_K3TmBi2
_symmetry_space_group_name_H-M   'P 1'
_cell_length_a   10.13099940
_cell_length_b   10.13099989
_cell_length_c   10.13099951
_cell_angle_alpha   129.78119774
_cell_angle_beta   68.80680342
_cell_angle_gamma   136.19139880
_symmetry_Int_Tables_number   1
_chemical_formula_structural   K3TmBi2
_chemical_formula_sum   'K6 Tm2 Bi4'
_cell_volume   543.26380720
_cell_formula_units_Z   2
loop_
 _symmetry_equiv_pos_site_id
 _symmetry_equiv_pos_as_xyz
  1  'x, y, z'
loop_
 _atom_site_type_symbol
 _atom_site_label
 _atom_site_symmetry_multiplicity
 _atom_site_fract_x
 _atom_site_fract_y
 _atom_site_fract_z
 _atom_site_occupancy
  K  K0  1  0.250000  0.250000  0.000000  1
  K  K1  1  0.750000  0.750000  0.000000  1
  K  K2  1  0.312928  0.805498  0.118424  1
  K  K3  1  0.187072  0.305497  0.492571  1
  K  K4  1  0.812928  0.694503  0.507430  1
  K  K5  1  0.687072  0.194502  0.881575  1
  Tm  Tm6  1  0.750000  0.250000  0.500000  1
  Tm  Tm7  1  0.250000  0.749999  0.499999  1
  Bi  Bi8  1  0.896562  0.297935  0.194496  1
  Bi  Bi9  1  0.603438  0.797935  0.401374  1
  Bi  Bi10  1  0.396562  0.202065  0.598626  1
  Bi  Bi11  1  0.103438  0.702065  0.805503  1
