# generated using pymatgen
data_Ho8In2NiPd
_symmetry_space_group_name_H-M   'P 1'
_cell_length_a   9.62231534
_cell_length_b   9.63345730
_cell_length_c   9.62231441
_cell_angle_alpha   59.96168407
_cell_angle_beta   60.10837900
_cell_angle_gamma   59.96168761
_symmetry_Int_Tables_number   1
_chemical_formula_structural   Ho8In2NiPd
_chemical_formula_sum   'Ho16 In4 Ni2 Pd2'
_cell_volume   630.85362151
_cell_formula_units_Z   2
loop_
 _symmetry_equiv_pos_site_id
 _symmetry_equiv_pos_as_xyz
  1  'x, y, z'
loop_
 _atom_site_type_symbol
 _atom_site_label
 _atom_site_symmetry_multiplicity
 _atom_site_fract_x
 _atom_site_fract_y
 _atom_site_fract_z
 _atom_site_occupancy
  Ho  Ho0  1  0.186152  0.187147  0.813467  1
  Ho  Ho1  1  0.591374  0.602701  0.203223  1
  Ho  Ho2  1  0.438295  0.061705  0.438295  1
  Ho  Ho3  1  0.439803  0.437882  0.067541  1
  Ho  Ho4  1  0.813372  0.186628  0.813372  1
  Ho  Ho5  1  0.186452  0.813548  0.186452  1
  Ho  Ho6  1  0.439803  0.054775  0.067541  1
  Ho  Ho7  1  0.186152  0.813235  0.813467  1
  Ho  Ho8  1  0.059996  0.440004  0.059996  1
  Ho  Ho9  1  0.813467  0.813235  0.186152  1
  Ho  Ho10  1  0.203223  0.602701  0.591374  1
  Ho  Ho11  1  0.067541  0.437882  0.439803  1
  Ho  Ho12  1  0.067541  0.054775  0.439803  1
  Ho  Ho13  1  0.813467  0.187147  0.186152  1
  Ho  Ho14  1  0.596089  0.199271  0.596089  1
  Ho  Ho15  1  0.596089  0.608550  0.596089  1
  In  In16  1  0.833188  0.831997  0.833188  1
  In  In17  1  0.833382  0.832232  0.502156  1
  In  In18  1  0.502156  0.832232  0.833382  1
  In  In19  1  0.833188  0.501628  0.833188  1
  Ni  Ni20  1  0.392395  0.821675  0.392395  1
  Ni  Ni21  1  0.392395  0.393535  0.392395  1
  Pd  Pd22  1  0.820870  0.392759  0.393610  1
  Pd  Pd23  1  0.393610  0.392759  0.820870  1
