# generated using pymatgen
data_Y20Ir4Rh7Au
_symmetry_space_group_name_H-M   'P 1'
_cell_length_a   11.00995337
_cell_length_b   11.00995337
_cell_length_c   6.38819170
_cell_angle_alpha   89.92603235
_cell_angle_beta   89.92603235
_cell_angle_gamma   89.73645631
_symmetry_Int_Tables_number   1
_chemical_formula_structural   Y20Ir4Rh7Au
_chemical_formula_sum   'Y20 Ir4 Rh7 Au1'
_cell_volume   774.36119990
_cell_formula_units_Z   1
loop_
 _symmetry_equiv_pos_site_id
 _symmetry_equiv_pos_as_xyz
  1  'x, y, z'
loop_
 _atom_site_type_symbol
 _atom_site_label
 _atom_site_symmetry_multiplicity
 _atom_site_fract_x
 _atom_site_fract_y
 _atom_site_fract_z
 _atom_site_occupancy
  Y  Y0  1  0.291311  0.090625  0.378549  1
  Y  Y1  1  0.292580  0.908941  0.878136  1
  Y  Y2  1  0.704077  0.087818  0.869704  1
  Y  Y3  1  0.706229  0.905382  0.380912  1
  Y  Y4  1  0.587684  0.789719  0.881188  1
  Y  Y5  1  0.582027  0.211056  0.381824  1
  Y  Y6  1  0.411900  0.789866  0.380482  1
  Y  Y7  1  0.411168  0.210409  0.880764  1
  Y  Y8  1  0.210281  0.412316  0.618812  1
  Y  Y9  1  0.210134  0.588100  0.119518  1
  Y  Y10  1  0.788944  0.417973  0.118176  1
  Y  Y11  1  0.789591  0.588832  0.619236  1
  Y  Y12  1  0.909375  0.708689  0.121451  1
  Y  Y13  1  0.912182  0.295923  0.630296  1
  Y  Y14  1  0.091059  0.707420  0.621864  1
  Y  Y15  1  0.094618  0.293771  0.119088  1
  Y  Y16  1  0.003614  0.996079  0.501978  1
  Y  Y17  1  0.003921  0.996386  0.998022  1
  Y  Y18  1  0.499451  0.499872  0.999491  1
  Y  Y19  1  0.500128  0.500549  0.500509  1
  Ir  Ir20  1  0.655648  0.344352  0.750000  1
  Ir  Ir21  1  0.654823  0.654306  0.249168  1
  Ir  Ir22  1  0.345694  0.345177  0.250832  1
  Ir  Ir23  1  0.345219  0.654781  0.750000  1
  Rh  Rh24  1  0.846543  0.847201  0.749661  1
  Rh  Rh25  1  0.152799  0.153457  0.750339  1
  Rh  Rh26  1  0.153910  0.846090  0.250000  1
  Rh  Rh27  1  0.500057  0.999933  0.126394  1
  Rh  Rh28  1  0.500007  0.000466  0.624959  1
  Rh  Rh29  1  0.999534  0.499993  0.875041  1
  Rh  Rh30  1  0.000067  0.499943  0.373606  1
  Au  Au31  1  0.845425  0.154575  0.250000  1
