# generated using pymatgen
data_Li2HoTmSi3
_symmetry_space_group_name_H-M   'P 1'
_cell_length_a   9.19403222
_cell_length_b   9.19403270
_cell_length_c   6.66451300
_cell_angle_alpha   90.00000000
_cell_angle_beta   90.00000000
_cell_angle_gamma   153.49500226
_symmetry_Int_Tables_number   1
_chemical_formula_structural   Li2HoTmSi3
_chemical_formula_sum   'Li4 Ho2 Tm2 Si6'
_cell_volume   251.41077920
_cell_formula_units_Z   2
loop_
 _symmetry_equiv_pos_site_id
 _symmetry_equiv_pos_as_xyz
  1  'x, y, z'
loop_
 _atom_site_type_symbol
 _atom_site_label
 _atom_site_symmetry_multiplicity
 _atom_site_fract_x
 _atom_site_fract_y
 _atom_site_fract_z
 _atom_site_occupancy
  Li  Li0  1  0.190753  0.809247  0.059725  1
  Li  Li1  1  0.190753  0.809247  0.440275  1
  Li  Li2  1  0.809247  0.190753  0.940275  1
  Li  Li3  1  0.809247  0.190753  0.559725  1
  Ho  Ho4  1  0.553178  0.446822  0.250000  1
  Ho  Ho5  1  0.446822  0.553178  0.750000  1
  Tm  Tm6  1  0.345312  0.654688  0.250000  1
  Tm  Tm7  1  0.654688  0.345312  0.750000  1
  Si  Si8  1  0.721340  0.278660  0.250000  1
  Si  Si9  1  0.278660  0.721340  0.750000  1
  Si  Si10  1  0.059899  0.940101  0.927831  1
  Si  Si11  1  0.940101  0.059899  0.072169  1
  Si  Si12  1  0.940101  0.059899  0.427831  1
  Si  Si13  1  0.059899  0.940101  0.572169  1
