# generated using pymatgen
data_VPb2(SeO3)4
_symmetry_space_group_name_H-M   'P 1'
_cell_length_a   6.87158500
_cell_length_b   9.15563283
_cell_length_c   9.59894655
_cell_angle_alpha   83.63013756
_cell_angle_beta   90.00000000
_cell_angle_gamma   90.00000000
_symmetry_Int_Tables_number   1
_chemical_formula_structural   VPb2(SeO3)4
_chemical_formula_sum   'V2 Pb4 Se8 O24'
_cell_volume   600.17707094
_cell_formula_units_Z   2
loop_
 _symmetry_equiv_pos_site_id
 _symmetry_equiv_pos_as_xyz
  1  'x, y, z'
loop_
 _atom_site_type_symbol
 _atom_site_label
 _atom_site_symmetry_multiplicity
 _atom_site_fract_x
 _atom_site_fract_y
 _atom_site_fract_z
 _atom_site_occupancy
  V  V0  1  0.000000  0.000000  0.500000  1
  V  V1  1  0.500000  0.000000  0.000000  1
  Pb  Pb2  1  0.243135  0.542115  0.597656  1
  Pb  Pb3  1  0.743135  0.457885  0.902344  1
  Pb  Pb4  1  0.756865  0.457885  0.402344  1
  Pb  Pb5  1  0.256865  0.542115  0.097656  1
  Se  Se6  1  0.190118  0.840418  0.792264  1
  Se  Se7  1  0.690118  0.159582  0.707736  1
  Se  Se8  1  0.809882  0.159582  0.207736  1
  Se  Se9  1  0.309882  0.840418  0.292264  1
  Se  Se10  1  0.188181  0.240938  0.868025  1
  Se  Se11  1  0.688181  0.759062  0.631975  1
  Se  Se12  1  0.811819  0.759062  0.131975  1
  Se  Se13  1  0.311819  0.240938  0.368025  1
  O  O14  1  0.379065  0.965703  0.821928  1
  O  O15  1  0.879065  0.034297  0.678072  1
  O  O16  1  0.620935  0.034297  0.178072  1
  O  O17  1  0.120935  0.965703  0.321928  1
  O  O18  1  0.193587  0.867325  0.607937  1
  O  O19  1  0.693587  0.132675  0.892063  1
  O  O20  1  0.806413  0.132675  0.392063  1
  O  O21  1  0.306413  0.867325  0.107937  1
  O  O22  1  0.309081  0.675401  0.813928  1
  O  O23  1  0.809081  0.324599  0.686072  1
  O  O24  1  0.690919  0.324599  0.186072  1
  O  O25  1  0.190919  0.675401  0.313928  1
  O  O26  1  0.358958  0.348492  0.776157  1
  O  O27  1  0.858958  0.651508  0.723843  1
  O  O28  1  0.641042  0.651508  0.223843  1
  O  O29  1  0.141042  0.348492  0.276157  1
  O  O30  1  0.063232  0.371697  0.952006  1
  O  O31  1  0.563232  0.628303  0.547994  1
  O  O32  1  0.936768  0.628303  0.047994  1
  O  O33  1  0.436768  0.371697  0.452006  1
  O  O34  1  0.330596  0.167003  0.012517  1
  O  O35  1  0.830596  0.832997  0.487483  1
  O  O36  1  0.669404  0.832997  0.987483  1
  O  O37  1  0.169404  0.167003  0.512517  1
