# generated using pymatgen
data_Li2HoErPt2
_symmetry_space_group_name_H-M   'P 1'
_cell_length_a   3.97703500
_cell_length_b   6.96745158
_cell_length_c   8.36714700
_cell_angle_alpha   89.37571218
_cell_angle_beta   90.00000000
_cell_angle_gamma   90.00000000
_symmetry_Int_Tables_number   1
_chemical_formula_structural   Li2HoErPt2
_chemical_formula_sum   'Li4 Ho2 Er2 Pt4'
_cell_volume   231.83819739
_cell_formula_units_Z   2
loop_
 _symmetry_equiv_pos_site_id
 _symmetry_equiv_pos_as_xyz
  1  'x, y, z'
loop_
 _atom_site_type_symbol
 _atom_site_label
 _atom_site_symmetry_multiplicity
 _atom_site_fract_x
 _atom_site_fract_y
 _atom_site_fract_z
 _atom_site_occupancy
  Li  Li0  1  0.250000  0.625214  0.557478  1
  Li  Li1  1  0.750000  0.374786  0.442522  1
  Li  Li2  1  0.750000  0.878277  0.057912  1
  Li  Li3  1  0.250000  0.121723  0.942088  1
  Ho  Ho4  1  0.250000  0.549810  0.178935  1
  Ho  Ho5  1  0.750000  0.450190  0.821065  1
  Er  Er6  1  0.750000  0.950113  0.677198  1
  Er  Er7  1  0.250000  0.049887  0.322802  1
  Pt  Pt8  1  0.250000  0.744062  0.871664  1
  Pt  Pt9  1  0.750000  0.255938  0.128336  1
  Pt  Pt10  1  0.750000  0.757958  0.373447  1
  Pt  Pt11  1  0.250000  0.242042  0.626553  1
