# generated using pymatgen
data_Lu12Fe2Co2SnPd
_symmetry_space_group_name_H-M   'P 1'
_cell_length_a   8.13749712
_cell_length_b   8.13749764
_cell_length_c   8.13749630
_cell_angle_alpha   110.57490983
_cell_angle_beta   110.60959409
_cell_angle_gamma   107.25169452
_symmetry_Int_Tables_number   1
_chemical_formula_structural   Lu12Fe2Co2SnPd
_chemical_formula_sum   'Lu12 Fe2 Co2 Sn1 Pd1'
_cell_volume   414.34673849
_cell_formula_units_Z   1
loop_
 _symmetry_equiv_pos_site_id
 _symmetry_equiv_pos_as_xyz
  1  'x, y, z'
loop_
 _atom_site_type_symbol
 _atom_site_label
 _atom_site_symmetry_multiplicity
 _atom_site_fract_x
 _atom_site_fract_y
 _atom_site_fract_z
 _atom_site_occupancy
  Lu  Lu0  1  0.312288  0.614707  0.302418  1
  Lu  Lu1  1  0.687712  0.385294  0.697582  1
  Lu  Lu2  1  0.312288  0.009870  0.697582  1
  Lu  Lu3  1  0.687712  0.990130  0.302418  1
  Lu  Lu4  1  0.419002  0.216166  0.202836  1
  Lu  Lu5  1  0.580998  0.783834  0.797164  1
  Lu  Lu6  1  0.013331  0.216166  0.797164  1
  Lu  Lu7  1  0.986669  0.783834  0.202836  1
  Lu  Lu8  1  0.186766  0.292378  0.479144  1
  Lu  Lu9  1  0.813234  0.707622  0.520856  1
  Lu  Lu10  1  0.186766  0.707622  0.894388  1
  Lu  Lu11  1  0.813234  0.292378  0.105612  1
  Fe  Fe12  1  0.110082  0.610082  0.500000  1
  Fe  Fe13  1  0.889919  0.389919  0.500000  1
  Co  Co14  1  0.379935  0.000000  0.379935  1
  Co  Co15  1  0.620065  0.000000  0.620065  1
  Sn  Sn16  1  0.500000  0.500000  0.000000  1
  Pd  Pd17  1  0.000000  0.000000  0.000000  1
