# generated using pymatgen
data_Li2ZrSe3
_symmetry_space_group_name_H-M   'P 1'
_cell_length_a   6.72761162
_cell_length_b   6.72761185
_cell_length_c   6.77944528
_cell_angle_alpha   80.43410108
_cell_angle_beta   80.43410664
_cell_angle_gamma   119.99353837
_symmetry_Int_Tables_number   1
_chemical_formula_structural   Li2ZrSe3
_chemical_formula_sum   'Li4 Zr2 Se6'
_cell_volume   250.64644204
_cell_formula_units_Z   2
loop_
 _symmetry_equiv_pos_site_id
 _symmetry_equiv_pos_as_xyz
  1  'x, y, z'
loop_
 _atom_site_type_symbol
 _atom_site_label
 _atom_site_symmetry_multiplicity
 _atom_site_fract_x
 _atom_site_fract_y
 _atom_site_fract_z
 _atom_site_occupancy
  Li  Li0  1  0.000000  0.000000  0.000000  1
  Li  Li1  1  0.500000  0.500000  0.500000  1
  Li  Li2  1  0.833633  0.166367  0.500000  1
  Li  Li3  1  0.166367  0.833633  0.500000  1
  Zr  Zr4  1  0.667194  0.332806  0.000000  1
  Zr  Zr5  1  0.332806  0.667194  0.000000  1
  Se  Se6  1  0.260697  0.260697  0.246976  1
  Se  Se7  1  0.423818  0.081626  0.755568  1
  Se  Se8  1  0.081626  0.423818  0.755568  1
  Se  Se9  1  0.739303  0.739303  0.753024  1
  Se  Se10  1  0.576182  0.918374  0.244432  1
  Se  Se11  1  0.918374  0.576182  0.244432  1
