# generated using pymatgen
data_Tb8TaW3C8
_symmetry_space_group_name_H-M   'P 1'
_cell_length_a   5.79093917
_cell_length_b   5.79093927
_cell_length_c   9.94717700
_cell_angle_alpha   90.00000000
_cell_angle_beta   90.00000000
_cell_angle_gamma   90.48922611
_symmetry_Int_Tables_number   1
_chemical_formula_structural   Tb8TaW3C8
_chemical_formula_sum   'Tb8 Ta1 W3 C8'
_cell_volume   333.56619255
_cell_formula_units_Z   1
loop_
 _symmetry_equiv_pos_site_id
 _symmetry_equiv_pos_as_xyz
  1  'x, y, z'
loop_
 _atom_site_type_symbol
 _atom_site_label
 _atom_site_symmetry_multiplicity
 _atom_site_fract_x
 _atom_site_fract_y
 _atom_site_fract_z
 _atom_site_occupancy
  Tb  Tb0  1  0.198761  0.198761  0.343459  1
  Tb  Tb1  1  0.799717  0.799717  0.656323  1
  Tb  Tb2  1  0.299248  0.700462  0.841404  1
  Tb  Tb3  1  0.799717  0.799717  0.343677  1
  Tb  Tb4  1  0.198761  0.198761  0.656541  1
  Tb  Tb5  1  0.700462  0.299248  0.158596  1
  Tb  Tb6  1  0.700462  0.299248  0.841404  1
  Tb  Tb7  1  0.299248  0.700462  0.158596  1
  Ta  Ta8  1  0.183473  0.183473  0.000000  1
  W  W9  1  0.824942  0.824942  0.000000  1
  W  W10  1  0.322405  0.676559  0.500000  1
  W  W11  1  0.676559  0.322405  0.500000  1
  C  C12  1  0.998626  0.998626  0.152112  1
  C  C13  1  0.499883  0.499883  0.348366  1
  C  C14  1  0.499883  0.499883  0.651634  1
  C  C15  1  0.506422  0.992572  0.000000  1
  C  C16  1  0.992572  0.506422  0.000000  1
  C  C17  1  0.998626  0.998626  0.847888  1
  C  C18  1  0.500391  0.999839  0.500000  1
  C  C19  1  0.999839  0.500391  0.500000  1
