# generated using pymatgen
data_LuSc11Tl2Tc3
_symmetry_space_group_name_H-M   'P 1'
_cell_length_a   7.93062347
_cell_length_b   7.95306411
_cell_length_c   7.95306400
_cell_angle_alpha   109.92621002
_cell_angle_beta   109.56786179
_cell_angle_gamma   109.03419605
_symmetry_Int_Tables_number   1
_chemical_formula_structural   LuSc11Tl2Tc3
_chemical_formula_sum   'Lu1 Sc11 Tl2 Tc3'
_cell_volume   385.58368238
_cell_formula_units_Z   1
loop_
 _symmetry_equiv_pos_site_id
 _symmetry_equiv_pos_as_xyz
  1  'x, y, z'
loop_
 _atom_site_type_symbol
 _atom_site_label
 _atom_site_symmetry_multiplicity
 _atom_site_fract_x
 _atom_site_fract_y
 _atom_site_fract_z
 _atom_site_occupancy
  Lu  Lu0  1  0.559612  0.809125  0.750488  1
  Sc  Sc1  1  0.313026  0.308776  0.626202  1
  Sc  Sc2  1  0.688637  0.686814  0.372171  1
  Sc  Sc3  1  0.688637  0.316464  0.001822  1
  Sc  Sc4  1  0.313026  0.686824  0.004251  1
  Sc  Sc5  1  0.183722  0.424060  0.238874  1
  Sc  Sc6  1  0.812776  0.568606  0.758776  1
  Sc  Sc7  1  0.183722  0.944847  0.759661  1
  Sc  Sc8  1  0.947026  0.189157  0.757870  1
  Sc  Sc9  1  0.812776  0.054000  0.244169  1
  Sc  Sc10  1  0.056628  0.812384  0.244245  1
  Sc  Sc11  1  0.430855  0.190802  0.240053  1
  Tl  Tl12  1  0.000741  0.499699  0.501042  1
  Tl  Tl13  1  0.504813  0.008765  0.496048  1
  Tc  Tc14  1  0.342528  0.343573  0.998955  1
  Tc  Tc15  1  0.660049  0.656051  0.003999  1
  Tc  Tc16  1  0.001429  0.000055  0.001375  1
