# generated using pymatgen
data_Lu10HgBiIr4
_symmetry_space_group_name_H-M   'P 1'
_cell_length_a   8.62825342
_cell_length_b   8.62825296
_cell_length_c   8.62825458
_cell_angle_alpha   127.70919055
_cell_angle_beta   127.70919333
_cell_angle_gamma   77.09659651
_symmetry_Int_Tables_number   1
_chemical_formula_structural   Lu10HgBiIr4
_chemical_formula_sum   'Lu10 Hg1 Bi1 Ir4'
_cell_volume   390.18493122
_cell_formula_units_Z   1
loop_
 _symmetry_equiv_pos_site_id
 _symmetry_equiv_pos_as_xyz
  1  'x, y, z'
loop_
 _atom_site_type_symbol
 _atom_site_label
 _atom_site_symmetry_multiplicity
 _atom_site_fract_x
 _atom_site_fract_y
 _atom_site_fract_z
 _atom_site_occupancy
  Lu  Lu0  1  0.997627  0.997627  0.000000  1
  Lu  Lu1  1  0.502373  0.502373  0.000000  1
  Lu  Lu2  1  0.794741  0.286644  0.816758  1
  Lu  Lu3  1  0.213356  0.705259  0.183242  1
  Lu  Lu4  1  0.469888  0.977984  0.183242  1
  Lu  Lu5  1  0.286644  0.469888  0.491904  1
  Lu  Lu6  1  0.030112  0.213356  0.508096  1
  Lu  Lu7  1  0.522016  0.030112  0.816758  1
  Lu  Lu8  1  0.705259  0.522016  0.491904  1
  Lu  Lu9  1  0.977984  0.794741  0.508096  1
  Hg  Hg10  1  0.250000  0.250000  0.000000  1
  Bi  Bi11  1  0.750000  0.750000  0.000000  1
  Ir  Ir12  1  0.140881  0.640881  0.781765  1
  Ir  Ir13  1  0.859119  0.359119  0.218235  1
  Ir  Ir14  1  0.640881  0.859119  0.500000  1
  Ir  Ir15  1  0.359119  0.140881  0.500000  1
