# generated using pymatgen
data_Y20In5Ni2Ag
_symmetry_space_group_name_H-M   'P 1'
_cell_length_a   9.69744766
_cell_length_b   9.69744340
_cell_length_c   9.75913600
_cell_angle_alpha   90.00000000
_cell_angle_beta   90.00000000
_cell_angle_gamma   119.60148267
_symmetry_Int_Tables_number   1
_chemical_formula_structural   Y20In5Ni2Ag
_chemical_formula_sum   'Y20 In5 Ni2 Ag1'
_cell_volume   797.97031839
_cell_formula_units_Z   1
loop_
 _symmetry_equiv_pos_site_id
 _symmetry_equiv_pos_as_xyz
  1  'x, y, z'
loop_
 _atom_site_type_symbol
 _atom_site_label
 _atom_site_symmetry_multiplicity
 _atom_site_fract_x
 _atom_site_fract_y
 _atom_site_fract_z
 _atom_site_occupancy
  Y  Y0  1  0.995300  0.004700  0.491800  1
  Y  Y1  1  0.995300  0.004700  0.008200  1
  Y  Y2  1  0.544141  0.455859  0.250000  1
  Y  Y3  1  0.552545  0.086129  0.250000  1
  Y  Y4  1  0.913871  0.447455  0.250000  1
  Y  Y5  1  0.457203  0.542797  0.750000  1
  Y  Y6  1  0.457091  0.914084  0.750000  1
  Y  Y7  1  0.085916  0.542908  0.750000  1
  Y  Y8  1  0.209541  0.790459  0.435117  1
  Y  Y9  1  0.210749  0.420756  0.436202  1
  Y  Y10  1  0.579244  0.789251  0.436201  1
  Y  Y11  1  0.789223  0.210776  0.563196  1
  Y  Y12  1  0.790099  0.579297  0.561249  1
  Y  Y13  1  0.420703  0.209902  0.561249  1
  Y  Y14  1  0.789223  0.210776  0.936804  1
  Y  Y15  1  0.790099  0.579297  0.938751  1
  Y  Y16  1  0.420703  0.209902  0.938751  1
  Y  Y17  1  0.209541  0.790459  0.064883  1
  Y  Y18  1  0.210749  0.420756  0.063798  1
  Y  Y19  1  0.579244  0.789251  0.063799  1
  In  In20  1  0.881732  0.763249  0.250000  1
  In  In21  1  0.236751  0.118268  0.250000  1
  In  In22  1  0.113830  0.886170  0.750000  1
  In  In23  1  0.116418  0.230502  0.750000  1
  In  In24  1  0.769498  0.883583  0.750000  1
  Ni  Ni25  1  0.333970  0.666029  0.250000  1
  Ni  Ni26  1  0.666087  0.333914  0.750000  1
  Ag  Ag27  1  0.881226  0.118773  0.250000  1
