# generated using pymatgen
data_Dy15Lu(AgRh)4
_symmetry_space_group_name_H-M   'P 1'
_cell_length_a   9.48207812
_cell_length_b   9.52947874
_cell_length_c   9.52965396
_cell_angle_alpha   60.17749612
_cell_angle_beta   60.16371045
_cell_angle_gamma   60.16404599
_symmetry_Int_Tables_number   1
_chemical_formula_structural   Dy15Lu(AgRh)4
_chemical_formula_sum   'Dy15 Lu1 Ag4 Rh4'
_cell_volume   611.20683220
_cell_formula_units_Z   1
loop_
 _symmetry_equiv_pos_site_id
 _symmetry_equiv_pos_as_xyz
  1  'x, y, z'
loop_
 _atom_site_type_symbol
 _atom_site_label
 _atom_site_symmetry_multiplicity
 _atom_site_fract_x
 _atom_site_fract_y
 _atom_site_fract_z
 _atom_site_occupancy
  Dy  Dy0  1  0.687339  0.687432  0.312642  1
  Dy  Dy1  1  0.312587  0.687424  0.312638  1
  Dy  Dy2  1  0.935056  0.936227  0.563913  1
  Dy  Dy3  1  0.147638  0.147715  0.557011  1
  Dy  Dy4  1  0.564762  0.936243  0.563928  1
  Dy  Dy5  1  0.146987  0.147501  0.147491  1
  Dy  Dy6  1  0.312574  0.312657  0.687416  1
  Dy  Dy7  1  0.934967  0.565034  0.565035  1
  Dy  Dy8  1  0.564780  0.563920  0.936213  1
  Dy  Dy9  1  0.564381  0.935623  0.935628  1
  Dy  Dy10  1  0.935053  0.563937  0.936215  1
  Dy  Dy11  1  0.147637  0.557007  0.147722  1
  Dy  Dy12  1  0.311531  0.688471  0.688470  1
  Dy  Dy13  1  0.687347  0.312632  0.687435  1
  Dy  Dy14  1  0.558008  0.147511  0.147513  1
  Lu  Lu15  1  0.686923  0.313139  0.313120  1
  Ag  Ag16  1  0.917716  0.918023  0.246529  1
  Ag  Ag17  1  0.247378  0.917384  0.917396  1
  Ag  Ag18  1  0.917733  0.246516  0.918026  1
  Ag  Ag19  1  0.917837  0.917400  0.917385  1
  Rh  Rh20  1  0.360181  0.356036  0.356060  1
  Rh  Rh21  1  0.927728  0.356049  0.356072  1
  Rh  Rh22  1  0.356925  0.355979  0.930150  1
  Rh  Rh23  1  0.356935  0.930137  0.355989  1
