# generated using pymatgen
data_Gd6Ti(MnC4)3
_symmetry_space_group_name_H-M   'P 1'
_cell_length_a   8.20683600
_cell_length_b   8.20683597
_cell_length_c   5.06136000
_cell_angle_alpha   90.00000000
_cell_angle_beta   90.00000000
_cell_angle_gamma   119.99999207
_symmetry_Int_Tables_number   1
_chemical_formula_structural   Gd6Ti(MnC4)3
_chemical_formula_sum   'Gd6 Ti1 Mn3 C12'
_cell_volume   295.22246552
_cell_formula_units_Z   1
loop_
 _symmetry_equiv_pos_site_id
 _symmetry_equiv_pos_as_xyz
  1  'x, y, z'
loop_
 _atom_site_type_symbol
 _atom_site_label
 _atom_site_symmetry_multiplicity
 _atom_site_fract_x
 _atom_site_fract_y
 _atom_site_fract_z
 _atom_site_occupancy
  Gd  Gd0  1  0.618506  0.683480  0.747290  1
  Gd  Gd1  1  0.935026  0.618506  0.252710  1
  Gd  Gd2  1  0.683480  0.064974  0.252710  1
  Gd  Gd3  1  0.316520  0.935026  0.747290  1
  Gd  Gd4  1  0.064974  0.381494  0.747290  1
  Gd  Gd5  1  0.381494  0.316520  0.252710  1
  Ti  Ti6  1  0.000000  0.000000  0.500000  1
  Mn  Mn7  1  0.000000  0.000000  0.000000  1
  Mn  Mn8  1  0.666667  0.333333  0.753791  1
  Mn  Mn9  1  0.333333  0.666667  0.246209  1
  C  C10  1  0.961610  0.766530  0.752204  1
  C  C11  1  0.195080  0.961610  0.247796  1
  C  C12  1  0.766530  0.804920  0.247796  1
  C  C13  1  0.233470  0.195080  0.752204  1
  C  C14  1  0.804920  0.038390  0.752204  1
  C  C15  1  0.038390  0.233470  0.247796  1
  C  C16  1  0.860078  0.573831  0.756848  1
  C  C17  1  0.286246  0.860078  0.243152  1
  C  C18  1  0.573831  0.713754  0.243152  1
  C  C19  1  0.426169  0.286246  0.756848  1
  C  C20  1  0.139922  0.426169  0.243152  1
  C  C21  1  0.713754  0.139922  0.756848  1
