# generated using pymatgen
data_Th3CdGe2Ir3
_symmetry_space_group_name_H-M   'P 1'
_cell_length_a   7.36775732
_cell_length_b   7.36775661
_cell_length_c   4.04304100
_cell_angle_alpha   90.00000000
_cell_angle_beta   90.00000000
_cell_angle_gamma   118.71979732
_symmetry_Int_Tables_number   1
_chemical_formula_structural   Th3CdGe2Ir3
_chemical_formula_sum   'Th3 Cd1 Ge2 Ir3'
_cell_volume   192.47242016
_cell_formula_units_Z   1
loop_
 _symmetry_equiv_pos_site_id
 _symmetry_equiv_pos_as_xyz
  1  'x, y, z'
loop_
 _atom_site_type_symbol
 _atom_site_label
 _atom_site_symmetry_multiplicity
 _atom_site_fract_x
 _atom_site_fract_y
 _atom_site_fract_z
 _atom_site_occupancy
  Th  Th0  1  0.415388  0.998986  0.500000  1
  Th  Th1  1  0.998986  0.415388  0.500000  1
  Th  Th2  1  0.589772  0.589772  0.500000  1
  Cd  Cd3  1  0.244704  0.244704  0.000000  1
  Ge  Ge4  1  0.760145  0.005557  0.000000  1
  Ge  Ge5  1  0.005557  0.760145  0.000000  1
  Ir  Ir6  1  0.335890  0.680195  0.000000  1
  Ir  Ir7  1  0.680195  0.335890  0.000000  1
  Ir  Ir8  1  0.969361  0.969361  0.500000  1
