# generated using pymatgen
data_Sm5LuC2I11
_symmetry_space_group_name_H-M   'P 1'
_cell_length_a   9.66699469
_cell_length_b   10.82057810
_cell_length_c   15.05408957
_cell_angle_alpha   88.42559546
_cell_angle_beta   104.00444597
_cell_angle_gamma   109.78372759
_symmetry_Int_Tables_number   1
_chemical_formula_structural   Sm5LuC2I11
_chemical_formula_sum   'Sm10 Lu2 C4 I22'
_cell_volume   1435.15196313
_cell_formula_units_Z   2
loop_
 _symmetry_equiv_pos_site_id
 _symmetry_equiv_pos_as_xyz
  1  'x, y, z'
loop_
 _atom_site_type_symbol
 _atom_site_label
 _atom_site_symmetry_multiplicity
 _atom_site_fract_x
 _atom_site_fract_y
 _atom_site_fract_z
 _atom_site_occupancy
  Sm  Sm0  1  0.421855  0.781244  0.266290  1
  Sm  Sm1  1  0.578145  0.218756  0.733710  1
  Sm  Sm2  1  0.625449  0.574062  0.366852  1
  Sm  Sm3  1  0.374551  0.425938  0.633148  1
  Sm  Sm4  1  0.833895  0.646278  0.198896  1
  Sm  Sm5  1  0.166105  0.353722  0.801104  1
  Sm  Sm6  1  0.629477  0.849891  0.096101  1
  Sm  Sm7  1  0.370523  0.150109  0.903899  1
  Sm  Sm8  1  0.858698  0.945693  0.346010  1
  Sm  Sm9  1  0.141302  0.054307  0.653990  1
  Lu  Lu10  1  0.392732  0.484203  0.123665  1
  Lu  Lu11  1  0.607268  0.515797  0.876335  1
  C  C12  1  0.430569  0.344161  0.797333  1
  C  C13  1  0.569431  0.655839  0.202667  1
  C  C14  1  0.318563  0.234533  0.742417  1
  C  C15  1  0.681437  0.765467  0.257583  1
  I  I16  1  0.383315  0.307478  0.272306  1
  I  I17  1  0.616685  0.692522  0.727694  1
  I  I18  1  0.129592  0.554921  0.147240  1
  I  I19  1  0.870408  0.445079  0.852760  1
  I  I20  1  0.623050  0.379446  0.062889  1
  I  I21  1  0.376950  0.620554  0.937111  1
  I  I22  1  0.121494  0.213579  0.476896  1
  I  I23  1  0.878506  0.786421  0.523104  1
  I  I24  1  0.612682  0.034488  0.389681  1
  I  I25  1  0.387318  0.965512  0.610319  1
  I  I26  1  0.127963  0.866976  0.303158  1
  I  I27  1  0.872037  0.133024  0.696842  1
  I  I28  1  0.130824  0.538818  0.649644  1
  I  I29  1  0.869176  0.461182  0.350356  1
  I  I30  1  0.623260  0.373855  0.558565  1
  I  I31  1  0.376740  0.626145  0.441435  1
  I  I32  1  0.147617  0.229965  0.990667  1
  I  I33  1  0.852383  0.770035  0.009333  1
  I  I34  1  0.628205  0.044736  0.901365  1
  I  I35  1  0.371795  0.955264  0.098635  1
  I  I36  1  0.127054  0.886066  0.822897  1
  I  I37  1  0.872946  0.113934  0.177103  1
