# generated using pymatgen
data_TbU2Pa(Al3Ir)6
_symmetry_space_group_name_H-M   'P 1'
_cell_length_a   7.60736890
_cell_length_b   7.60092887
_cell_length_c   9.39782600
_cell_angle_alpha   90.00000000
_cell_angle_beta   90.00000000
_cell_angle_gamma   119.47758966
_symmetry_Int_Tables_number   1
_chemical_formula_structural   TbU2Pa(Al3Ir)6
_chemical_formula_sum   'Tb1 U2 Pa1 Al18 Ir6'
_cell_volume   473.06561622
_cell_formula_units_Z   1
loop_
 _symmetry_equiv_pos_site_id
 _symmetry_equiv_pos_as_xyz
  1  'x, y, z'
loop_
 _atom_site_type_symbol
 _atom_site_label
 _atom_site_symmetry_multiplicity
 _atom_site_fract_x
 _atom_site_fract_y
 _atom_site_fract_z
 _atom_site_occupancy
  Tb  Tb0  1  0.670857  0.995112  0.750000  1
  U  U1  1  0.005575  0.328236  0.250000  1
  U  U2  1  0.329298  0.006277  0.250000  1
  Pa  Pa3  1  0.998354  0.671442  0.750000  1
  Al  Al4  1  0.129277  0.128522  0.750000  1
  Al  Al5  1  0.868324  0.869975  0.250000  1
  Al  Al6  1  0.001250  0.332638  0.574268  1
  Al  Al7  1  0.997321  0.663507  0.422152  1
  Al  Al8  1  0.997321  0.663507  0.077848  1
  Al  Al9  1  0.338143  0.004506  0.925773  1
  Al  Al10  1  0.001250  0.332638  0.925732  1
  Al  Al11  1  0.664189  0.998148  0.074574  1
  Al  Al12  1  0.664189  0.998148  0.425426  1
  Al  Al13  1  0.338143  0.004506  0.574227  1
  Al  Al14  1  0.334635  0.334864  0.054035  1
  Al  Al15  1  0.664593  0.666376  0.946262  1
  Al  Al16  1  0.664593  0.666376  0.553738  1
  Al  Al17  1  0.334635  0.334864  0.445965  1
  Al  Al18  1  0.340113  0.547878  0.750000  1
  Al  Al19  1  0.657615  0.449826  0.250000  1
  Al  Al20  1  0.548524  0.341316  0.750000  1
  Al  Al21  1  0.450899  0.659960  0.250000  1
  Ir  Ir22  1  0.674667  0.330057  0.500741  1
  Ir  Ir23  1  0.326034  0.673157  0.501050  1
  Ir  Ir24  1  0.326034  0.673157  0.998950  1
  Ir  Ir25  1  0.674667  0.330057  0.999259  1
  Ir  Ir26  1  0.999750  0.997476  0.500602  1
  Ir  Ir27  1  0.999750  0.997476  0.999398  1
