# generated using pymatgen
data_Yb4Pr16Ga5Sn7
_symmetry_space_group_name_H-M   'P 1'
_cell_length_a   8.21652501
_cell_length_b   8.21253001
_cell_length_c   14.44655502
_cell_angle_alpha   90.00505580
_cell_angle_beta   90.00365120
_cell_angle_gamma   89.99615674
_symmetry_Int_Tables_number   1
_chemical_formula_structural   Yb4Pr16Ga5Sn7
_chemical_formula_sum   'Yb4 Pr16 Ga5 Sn7'
_cell_volume   974.83125167
_cell_formula_units_Z   1
loop_
 _symmetry_equiv_pos_site_id
 _symmetry_equiv_pos_as_xyz
  1  'x, y, z'
loop_
 _atom_site_type_symbol
 _atom_site_label
 _atom_site_symmetry_multiplicity
 _atom_site_fract_x
 _atom_site_fract_y
 _atom_site_fract_z
 _atom_site_occupancy
  Yb  Yb0  1  0.993956  0.496876  0.747610  1
  Yb  Yb1  1  0.004242  0.501804  0.247280  1
  Yb  Yb2  1  0.496868  0.995525  0.252685  1
  Yb  Yb3  1  0.506363  0.997757  0.752399  1
  Pr  Pr4  1  0.823322  0.828527  0.604597  1
  Pr  Pr5  1  0.168223  0.832307  0.106476  1
  Pr  Pr6  1  0.165744  0.830973  0.393804  1
  Pr  Pr7  1  0.836543  0.163470  0.396197  1
  Pr  Pr8  1  0.674211  0.675910  0.393753  1
  Pr  Pr9  1  0.673886  0.328784  0.602392  1
  Pr  Pr10  1  0.336685  0.670694  0.599018  1
  Pr  Pr11  1  0.671756  0.677397  0.106467  1
  Pr  Pr12  1  0.675285  0.331140  0.897574  1
  Pr  Pr13  1  0.825201  0.826522  0.895515  1
  Pr  Pr14  1  0.323271  0.329093  0.393638  1
  Pr  Pr15  1  0.167378  0.170328  0.601318  1
  Pr  Pr16  1  0.835612  0.161659  0.103756  1
  Pr  Pr17  1  0.334714  0.670199  0.900854  1
  Pr  Pr18  1  0.325047  0.326975  0.106223  1
  Pr  Pr19  1  0.165464  0.171524  0.898349  1
  Ga  Ga20  1  0.375654  0.625292  0.250255  1
  Ga  Ga21  1  0.880598  0.880810  0.250001  1
  Ga  Ga22  1  0.623334  0.624097  0.749820  1
  Ga  Ga23  1  0.875246  0.124408  0.749960  1
  Ga  Ga24  1  0.118804  0.119592  0.250180  1
  Sn  Sn25  1  0.624458  0.375898  0.249990  1
  Sn  Sn26  1  0.124381  0.875321  0.749743  1
  Sn  Sn27  1  0.376643  0.377316  0.750076  1
  Sn  Sn28  1  0.999538  0.501644  0.499324  1
  Sn  Sn29  1  0.498573  0.002904  0.498299  1
  Sn  Sn30  1  0.499080  0.003240  0.000825  1
  Sn  Sn31  1  0.999920  0.502014  0.001621  1
