# generated using pymatgen
data_Tm5LuCo17TcP12
_symmetry_space_group_name_H-M   'P 1'
_cell_length_a   3.67345600
_cell_length_b   10.47550305
_cell_length_c   12.13990406
_cell_angle_alpha   90.01110654
_cell_angle_beta   90.00000000
_cell_angle_gamma   90.00000000
_symmetry_Int_Tables_number   1
_chemical_formula_structural   Tm5LuCo17TcP12
_chemical_formula_sum   'Tm5 Lu1 Co17 Tc1 P12'
_cell_volume   467.15927550
_cell_formula_units_Z   1
loop_
 _symmetry_equiv_pos_site_id
 _symmetry_equiv_pos_as_xyz
  1  'x, y, z'
loop_
 _atom_site_type_symbol
 _atom_site_label
 _atom_site_symmetry_multiplicity
 _atom_site_fract_x
 _atom_site_fract_y
 _atom_site_fract_z
 _atom_site_occupancy
  Tm  Tm0  1  0.000000  0.500068  0.524548  1
  Tm  Tm1  1  0.500000  0.999851  0.476967  1
  Tm  Tm2  1  0.500000  0.181835  0.206833  1
  Tm  Tm3  1  0.000000  0.682409  0.794897  1
  Tm  Tm4  1  0.000000  0.317647  0.795125  1
  Lu  Lu5  1  0.500000  0.818146  0.207027  1
  Co  Co6  1  0.000000  0.999844  0.839308  1
  Co  Co7  1  0.500000  0.500135  0.702723  1
  Co  Co8  1  0.000000  0.999416  0.296530  1
  Co  Co9  1  0.000000  0.500299  0.987687  1
  Co  Co10  1  0.500000  0.999696  0.015201  1
  Co  Co11  1  0.500000  0.331803  0.990655  1
  Co  Co12  1  0.500000  0.668525  0.990889  1
  Co  Co13  1  0.000000  0.166085  0.006138  1
  Co  Co14  1  0.000000  0.833553  0.006387  1
  Co  Co15  1  0.500000  0.296625  0.431084  1
  Co  Co16  1  0.500000  0.703368  0.430711  1
  Co  Co17  1  0.000000  0.202825  0.568757  1
  Co  Co18  1  0.000000  0.797099  0.568430  1
  Co  Co19  1  0.500000  0.878323  0.708339  1
  Co  Co20  1  0.500000  0.121621  0.708513  1
  Co  Co21  1  0.000000  0.622160  0.292028  1
  Co  Co22  1  0.000000  0.378567  0.292449  1
  Tc  Tc23  1  0.500000  0.500155  0.157438  1
  P  P24  1  0.500000  0.500206  0.880588  1
  P  P25  1  0.000000  0.999503  0.118483  1
  P  P26  1  0.500000  0.499955  0.350481  1
  P  P27  1  0.000000  0.999985  0.654178  1
  P  P28  1  0.500000  0.312314  0.617044  1
  P  P29  1  0.500000  0.687779  0.616822  1
  P  P30  1  0.000000  0.187178  0.383677  1
  P  P31  1  0.000000  0.812642  0.383132  1
  P  P32  1  0.500000  0.849296  0.891047  1
  P  P33  1  0.500000  0.150566  0.891285  1
  P  P34  1  0.000000  0.657020  0.107530  1
  P  P35  1  0.000000  0.343500  0.107065  1
