# generated using pymatgen
data_Tb3Nd3(BiO7)2
_symmetry_space_group_name_H-M   'P 1'
_cell_length_a   6.67233830
_cell_length_b   6.67718659
_cell_length_c   7.83752222
_cell_angle_alpha   106.94069912
_cell_angle_beta   89.84821363
_cell_angle_gamma   98.87115847
_symmetry_Int_Tables_number   1
_chemical_formula_structural   Tb3Nd3(BiO7)2
_chemical_formula_sum   'Tb3 Nd3 Bi2 O14'
_cell_volume   329.70250543
_cell_formula_units_Z   1
loop_
 _symmetry_equiv_pos_site_id
 _symmetry_equiv_pos_as_xyz
  1  'x, y, z'
loop_
 _atom_site_type_symbol
 _atom_site_label
 _atom_site_symmetry_multiplicity
 _atom_site_fract_x
 _atom_site_fract_y
 _atom_site_fract_z
 _atom_site_occupancy
  Tb  Tb0  1  0.462057  0.004721  0.252158  1
  Tb  Tb1  1  0.536278  0.993976  0.747433  1
  Tb  Tb2  1  0.271220  0.538669  0.883539  1
  Nd  Nd3  1  0.729766  0.461650  0.115442  1
  Nd  Nd4  1  0.737411  0.479583  0.618422  1
  Nd  Nd5  1  0.260578  0.521294  0.384401  1
  Bi  Bi6  1  0.001238  0.002132  0.501563  1
  Bi  Bi7  1  0.002623  0.999936  0.998633  1
  O  O8  1  0.441417  0.651859  0.162751  1
  O  O9  1  0.545280  0.346789  0.832108  1
  O  O10  1  0.302424  0.926927  0.953775  1
  O  O11  1  0.701023  0.068562  0.047233  1
  O  O12  1  0.298988  0.930942  0.513108  1
  O  O13  1  0.702758  0.068964  0.485784  1
  O  O14  1  0.544768  0.357986  0.343953  1
  O  O15  1  0.450846  0.642125  0.661544  1
  O  O16  1  0.932430  0.667521  0.950990  1
  O  O17  1  0.078144  0.330146  0.039381  1
  O  O18  1  0.073999  0.342833  0.622415  1
  O  O19  1  0.928724  0.660007  0.384668  1
  O  O20  1  0.876640  0.912648  0.727482  1
  O  O21  1  0.121388  0.090730  0.273217  1
