# generated using pymatgen
data_Sc12Co5Ir6Rh
_symmetry_space_group_name_H-M   'P 1'
_cell_length_a   4.50681900
_cell_length_b   6.43754000
_cell_length_c   13.51233500
_cell_angle_alpha   89.99996100
_cell_angle_beta   89.99966512
_cell_angle_gamma   89.99969614
_symmetry_Int_Tables_number   1
_chemical_formula_structural   Sc12Co5Ir6Rh
_chemical_formula_sum   'Sc12 Co5 Ir6 Rh1'
_cell_volume   392.03104562
_cell_formula_units_Z   1
loop_
 _symmetry_equiv_pos_site_id
 _symmetry_equiv_pos_as_xyz
  1  'x, y, z'
loop_
 _atom_site_type_symbol
 _atom_site_label
 _atom_site_symmetry_multiplicity
 _atom_site_fract_x
 _atom_site_fract_y
 _atom_site_fract_z
 _atom_site_occupancy
  Sc  Sc0  1  0.500001  0.253331  0.999999  1
  Sc  Sc1  1  0.499997  0.746670  0.000001  1
  Sc  Sc2  1  0.999688  0.251839  0.168843  1
  Sc  Sc3  1  0.999712  0.748155  0.168843  1
  Sc  Sc4  1  0.499733  0.249892  0.333602  1
  Sc  Sc5  1  0.499706  0.750110  0.333603  1
  Sc  Sc6  1  0.000000  0.250211  0.500000  1
  Sc  Sc7  1  0.000000  0.749790  0.500000  1
  Sc  Sc8  1  0.500294  0.249891  0.666397  1
  Sc  Sc9  1  0.500267  0.750109  0.666398  1
  Sc  Sc10  1  0.000288  0.251845  0.831157  1
  Sc  Sc11  1  0.000312  0.748161  0.831157  1
  Co  Co12  1  0.499598  0.500004  0.166481  1
  Co  Co13  1  0.999591  0.999997  0.333323  1
  Co  Co14  1  0.499999  0.500000  0.500000  1
  Co  Co15  1  0.000410  0.000003  0.666677  1
  Co  Co16  1  0.500400  0.499996  0.833519  1
  Ir  Ir17  1  0.000000  0.500000  0.000000  1
  Ir  Ir18  1  0.499680  0.000002  0.167638  1
  Ir  Ir19  1  0.999673  0.499998  0.333743  1
  Ir  Ir20  1  0.499999  0.000000  0.500000  1
  Ir  Ir21  1  0.000328  0.500002  0.666257  1
  Ir  Ir22  1  0.500321  0.999998  0.832362  1
  Rh  Rh23  1  0.000000  0.000000  0.000000  1
