# generated using pymatgen
data_Rb4NdPaTe6
_symmetry_space_group_name_H-M   'P 1'
_cell_length_a   8.30521704
_cell_length_b   8.30521679
_cell_length_c   8.99826151
_cell_angle_alpha   81.01047835
_cell_angle_beta   81.01048142
_cell_angle_gamma   120.02563845
_symmetry_Int_Tables_number   1
_chemical_formula_structural   Rb4NdPaTe6
_chemical_formula_sum   'Rb4 Nd1 Pa1 Te6'
_cell_volume   510.44103202
_cell_formula_units_Z   1
loop_
 _symmetry_equiv_pos_site_id
 _symmetry_equiv_pos_as_xyz
  1  'x, y, z'
loop_
 _atom_site_type_symbol
 _atom_site_label
 _atom_site_symmetry_multiplicity
 _atom_site_fract_x
 _atom_site_fract_y
 _atom_site_fract_z
 _atom_site_occupancy
  Rb  Rb0  1  0.500011  0.499989  0.000000  1
  Rb  Rb1  1  0.655599  0.344401  0.500000  1
  Rb  Rb2  1  0.344507  0.655493  0.500000  1
  Rb  Rb3  1  0.999932  0.000068  0.500000  1
  Nd  Nd4  1  0.832297  0.167703  0.000000  1
  Pa  Pa5  1  0.167702  0.832298  0.000000  1
  Te  Te6  1  0.815744  0.799815  0.202496  1
  Te  Te7  1  0.200185  0.184256  0.797504  1
  Te  Te8  1  0.414095  0.044881  0.204980  1
  Te  Te9  1  0.553178  0.938372  0.794517  1
  Te  Te10  1  0.955119  0.585905  0.795020  1
  Te  Te11  1  0.061628  0.446822  0.205483  1
