# generated using pymatgen
data_Lu4Os3Ru3W2
_symmetry_space_group_name_H-M   'P 1'
_cell_length_a   5.33526900
_cell_length_b   5.34968201
_cell_length_c   8.99649600
_cell_angle_alpha   90.00000000
_cell_angle_beta   90.00000000
_cell_angle_gamma   122.46232091
_symmetry_Int_Tables_number   1
_chemical_formula_structural   Lu4Os3Ru3W2
_chemical_formula_sum   'Lu4 Os3 Ru3 W2'
_cell_volume   216.65498626
_cell_formula_units_Z   1
loop_
 _symmetry_equiv_pos_site_id
 _symmetry_equiv_pos_as_xyz
  1  'x, y, z'
loop_
 _atom_site_type_symbol
 _atom_site_label
 _atom_site_symmetry_multiplicity
 _atom_site_fract_x
 _atom_site_fract_y
 _atom_site_fract_z
 _atom_site_occupancy
  Lu  Lu0  1  0.342047  0.671243  0.435359  1
  Lu  Lu1  1  0.669424  0.340470  0.564668  1
  Lu  Lu2  1  0.669424  0.340470  0.935332  1
  Lu  Lu3  1  0.342047  0.671243  0.064641  1
  Os  Os4  1  0.173984  0.820395  0.750000  1
  Os  Os5  1  0.819829  0.655408  0.250000  1
  Os  Os6  1  0.652610  0.819673  0.750000  1
  Ru  Ru7  1  0.013056  0.007670  0.000872  1
  Ru  Ru8  1  0.820256  0.177088  0.250000  1
  Ru  Ru9  1  0.013056  0.007670  0.499128  1
  W  W10  1  0.161511  0.322357  0.750000  1
  W  W11  1  0.322758  0.166311  0.250000  1
