# generated using pymatgen
data_NbInSiPt8
_symmetry_space_group_name_H-M   'P 1'
_cell_length_a   4.02160200
_cell_length_b   4.02160200
_cell_length_c   11.03763000
_cell_angle_alpha   90.00000000
_cell_angle_beta   90.00000000
_cell_angle_gamma   90.00000000
_symmetry_Int_Tables_number   1
_chemical_formula_structural   NbInSiPt8
_chemical_formula_sum   'Nb1 In1 Si1 Pt8'
_cell_volume   178.51470974
_cell_formula_units_Z   1
loop_
 _symmetry_equiv_pos_site_id
 _symmetry_equiv_pos_as_xyz
  1  'x, y, z'
loop_
 _atom_site_type_symbol
 _atom_site_label
 _atom_site_symmetry_multiplicity
 _atom_site_fract_x
 _atom_site_fract_y
 _atom_site_fract_z
 _atom_site_occupancy
  Nb  Nb0  1  0.500000  0.500000  0.815644  1
  In  In1  1  0.500000  0.500000  0.188532  1
  Si  Si2  1  0.000000  0.000000  0.499307  1
  Pt  Pt3  1  0.500000  0.000000  0.990777  1
  Pt  Pt4  1  0.000000  0.500000  0.990777  1
  Pt  Pt5  1  0.500000  0.000000  0.636829  1
  Pt  Pt6  1  0.000000  0.500000  0.636829  1
  Pt  Pt7  1  0.500000  0.000000  0.372294  1
  Pt  Pt8  1  0.000000  0.500000  0.372294  1
  Pt  Pt9  1  0.000000  0.000000  0.818760  1
  Pt  Pt10  1  0.000000  0.000000  0.177956  1
