# generated using pymatgen
data_Zr2Mn2SiAs
_symmetry_space_group_name_H-M   'P 1'
_cell_length_a   3.72597700
_cell_length_b   6.63560500
_cell_length_c   7.76191500
_cell_angle_alpha   90.00000000
_cell_angle_beta   90.00000000
_cell_angle_gamma   90.00000000
_symmetry_Int_Tables_number   1
_chemical_formula_structural   Zr2Mn2SiAs
_chemical_formula_sum   'Zr4 Mn4 Si2 As2'
_cell_volume   191.90645278
_cell_formula_units_Z   2
loop_
 _symmetry_equiv_pos_site_id
 _symmetry_equiv_pos_as_xyz
  1  'x, y, z'
loop_
 _atom_site_type_symbol
 _atom_site_label
 _atom_site_symmetry_multiplicity
 _atom_site_fract_x
 _atom_site_fract_y
 _atom_site_fract_z
 _atom_site_occupancy
  Zr  Zr0  1  0.250000  0.529592  0.678546  1
  Zr  Zr1  1  0.250000  0.029592  0.821454  1
  Zr  Zr2  1  0.750000  0.965990  0.175363  1
  Zr  Zr3  1  0.750000  0.465990  0.324637  1
  Mn  Mn4  1  0.750000  0.367524  0.932340  1
  Mn  Mn5  1  0.250000  0.138143  0.442971  1
  Mn  Mn6  1  0.750000  0.867524  0.567660  1
  Mn  Mn7  1  0.250000  0.638143  0.057029  1
  Si  Si8  1  0.750000  0.732144  0.875799  1
  Si  Si9  1  0.750000  0.232144  0.624201  1
  As  As10  1  0.250000  0.266606  0.124754  1
  As  As11  1  0.250000  0.766606  0.375246  1
