# generated using pymatgen
data_Tb4Ho15LuBi12
_symmetry_space_group_name_H-M   'P 1'
_cell_length_a   8.25224231
_cell_length_b   9.48051316
_cell_length_c   12.02754636
_cell_angle_alpha   89.99770430
_cell_angle_beta   89.93337737
_cell_angle_gamma   90.01839665
_symmetry_Int_Tables_number   1
_chemical_formula_structural   Tb4Ho15LuBi12
_chemical_formula_sum   'Tb4 Ho15 Lu1 Bi12'
_cell_volume   940.98031934
_cell_formula_units_Z   1
loop_
 _symmetry_equiv_pos_site_id
 _symmetry_equiv_pos_as_xyz
  1  'x, y, z'
loop_
 _atom_site_type_symbol
 _atom_site_label
 _atom_site_symmetry_multiplicity
 _atom_site_fract_x
 _atom_site_fract_y
 _atom_site_fract_z
 _atom_site_occupancy
  Tb  Tb0  1  0.312807  0.249998  0.218543  1
  Tb  Tb1  1  0.812731  0.250035  0.281407  1
  Tb  Tb2  1  0.687162  0.749977  0.781375  1
  Tb  Tb3  1  0.187161  0.749706  0.718306  1
  Ho  Ho4  1  0.352345  0.749339  0.216366  1
  Ho  Ho5  1  0.853223  0.749540  0.284163  1
  Ho  Ho6  1  0.646973  0.250012  0.783878  1
  Ho  Ho7  1  0.146955  0.249819  0.716225  1
  Ho  Ho8  1  0.692738  0.564779  0.059206  1
  Ho  Ho9  1  0.192984  0.934637  0.440918  1
  Ho  Ho10  1  0.307292  0.064708  0.940840  1
  Ho  Ho11  1  0.806984  0.435422  0.559207  1
  Ho  Ho12  1  0.307204  0.435412  0.940851  1
  Ho  Ho13  1  0.807297  0.064789  0.559141  1
  Ho  Ho14  1  0.692694  0.935252  0.059152  1
  Ho  Ho15  1  0.474450  0.250165  0.487951  1
  Ho  Ho16  1  0.974936  0.249802  0.012105  1
  Ho  Ho17  1  0.524173  0.749538  0.511819  1
  Ho  Ho18  1  0.025136  0.750062  0.987997  1
  Lu  Lu19  1  0.192967  0.566375  0.440849  1
  Bi  Bi20  1  0.406980  0.750070  0.958161  1
  Bi  Bi21  1  0.907452  0.749451  0.541687  1
  Bi  Bi22  1  0.593001  0.250019  0.041926  1
  Bi  Bi23  1  0.093603  0.251918  0.457776  1
  Bi  Bi24  1  0.565497  0.994517  0.325810  1
  Bi  Bi25  1  0.065750  0.505270  0.174497  1
  Bi  Bi26  1  0.434778  0.494461  0.674209  1
  Bi  Bi27  1  0.934596  0.005241  0.825644  1
  Bi  Bi28  1  0.434406  0.005224  0.674272  1
  Bi  Bi29  1  0.934670  0.494644  0.825481  1
  Bi  Bi30  1  0.565455  0.505250  0.325832  1
  Bi  Bi31  1  0.065600  0.994568  0.174409  1
