# generated using pymatgen
data_NdBiRh2F14
_symmetry_space_group_name_H-M   'P 1'
_cell_length_a   5.70065174
_cell_length_b   6.10583493
_cell_length_c   8.34857092
_cell_angle_alpha   100.98181821
_cell_angle_beta   89.68566077
_cell_angle_gamma   90.02340284
_symmetry_Int_Tables_number   1
_chemical_formula_structural   NdBiRh2F14
_chemical_formula_sum   'Nd1 Bi1 Rh2 F14'
_cell_volume   285.26495736
_cell_formula_units_Z   1
loop_
 _symmetry_equiv_pos_site_id
 _symmetry_equiv_pos_as_xyz
  1  'x, y, z'
loop_
 _atom_site_type_symbol
 _atom_site_label
 _atom_site_symmetry_multiplicity
 _atom_site_fract_x
 _atom_site_fract_y
 _atom_site_fract_z
 _atom_site_occupancy
  Nd  Nd0  1  0.201853  0.336643  0.307820  1
  Bi  Bi1  1  0.695497  0.655247  0.679996  1
  Rh  Rh2  1  0.710699  0.809791  0.223848  1
  Rh  Rh3  1  0.212401  0.190825  0.775951  1
  F  F4  1  0.875644  0.439199  0.475952  1
  F  F5  1  0.386493  0.557334  0.525402  1
  F  F6  1  0.417864  0.935636  0.773672  1
  F  F7  1  0.918440  0.063260  0.228201  1
  F  F8  1  0.944539  0.989171  0.764458  1
  F  F9  1  0.444313  0.017209  0.238727  1
  F  F10  1  0.008762  0.449647  0.789211  1
  F  F11  1  0.504630  0.551042  0.212045  1
  F  F12  1  0.704360  0.766248  0.991284  1
  F  F13  1  0.206966  0.238204  0.012515  1
  F  F14  1  0.718193  0.865500  0.462485  1
  F  F15  1  0.219997  0.136433  0.538723  1
  F  F16  1  0.495007  0.383300  0.790278  1
  F  F17  1  0.987061  0.615310  0.209433  1
