# generated using pymatgen
data_Tm3LuRu7W
_symmetry_space_group_name_H-M   'P 1'
_cell_length_a   5.45357900
_cell_length_b   5.17117460
_cell_length_c   8.93894801
_cell_angle_alpha   89.99584182
_cell_angle_beta   90.00000000
_cell_angle_gamma   121.82359401
_symmetry_Int_Tables_number   1
_chemical_formula_structural   Tm3LuRu7W
_chemical_formula_sum   'Tm3 Lu1 Ru7 W1'
_cell_volume   214.19551795
_cell_formula_units_Z   1
loop_
 _symmetry_equiv_pos_site_id
 _symmetry_equiv_pos_as_xyz
  1  'x, y, z'
loop_
 _atom_site_type_symbol
 _atom_site_label
 _atom_site_symmetry_multiplicity
 _atom_site_fract_x
 _atom_site_fract_y
 _atom_site_fract_z
 _atom_site_occupancy
  Tm  Tm0  1  0.334699  0.669400  0.431598  1
  Tm  Tm1  1  0.673560  0.347118  0.563063  1
  Tm  Tm2  1  0.673512  0.347022  0.937266  1
  Lu  Lu3  1  0.334355  0.668713  0.068347  1
  Ru  Ru4  1  0.170573  0.819525  0.750426  1
  Ru  Ru5  1  0.332094  0.163307  0.249418  1
  Ru  Ru6  1  0.821661  0.643320  0.249569  1
  Ru  Ru7  1  0.648951  0.819525  0.750426  1
  Ru  Ru8  1  0.009319  0.018639  0.001595  1
  Ru  Ru9  1  0.831214  0.163307  0.249418  1
  Ru  Ru10  1  0.009052  0.018105  0.498501  1
  W  W11  1  0.161010  0.322020  0.750374  1
