# generated using pymatgen
data_Y3TlIn3CuRh
_symmetry_space_group_name_H-M   'P 1'
_cell_length_a   7.84935300
_cell_length_b   7.84935489
_cell_length_c   3.88097200
_cell_angle_alpha   90.00000000
_cell_angle_beta   90.00000000
_cell_angle_gamma   119.99999623
_symmetry_Int_Tables_number   1
_chemical_formula_structural   Y3TlIn3CuRh
_chemical_formula_sum   'Y3 Tl1 In3 Cu1 Rh1'
_cell_volume   207.08039445
_cell_formula_units_Z   1
loop_
 _symmetry_equiv_pos_site_id
 _symmetry_equiv_pos_as_xyz
  1  'x, y, z'
loop_
 _atom_site_type_symbol
 _atom_site_label
 _atom_site_symmetry_multiplicity
 _atom_site_fract_x
 _atom_site_fract_y
 _atom_site_fract_z
 _atom_site_occupancy
  Y  Y0  1  0.423457  0.030701  0.500000  1
  Y  Y1  1  0.969299  0.392756  0.500000  1
  Y  Y2  1  0.607244  0.576543  0.500000  1
  Tl  Tl3  1  0.333333  0.666667  0.000000  1
  In  In4  1  0.759539  0.011513  0.000000  1
  In  In5  1  0.988487  0.748026  0.000000  1
  In  In6  1  0.251974  0.240461  0.000000  1
  Cu  Cu7  1  0.000000  0.000000  0.500000  1
  Rh  Rh8  1  0.666667  0.333333  0.000000  1
