# generated using pymatgen
data_Ho7ErSc12Si15Rh
_symmetry_space_group_name_H-M   'P 1'
_cell_length_a   7.10071393
_cell_length_b   7.36454735
_cell_length_c   13.98035404
_cell_angle_alpha   89.88769212
_cell_angle_beta   89.81318276
_cell_angle_gamma   90.21034002
_symmetry_Int_Tables_number   1
_chemical_formula_structural   Ho7ErSc12Si15Rh
_chemical_formula_sum   'Ho7 Er1 Sc12 Si15 Rh1'
_cell_volume   731.07202424
_cell_formula_units_Z   1
loop_
 _symmetry_equiv_pos_site_id
 _symmetry_equiv_pos_as_xyz
  1  'x, y, z'
loop_
 _atom_site_type_symbol
 _atom_site_label
 _atom_site_symmetry_multiplicity
 _atom_site_fract_x
 _atom_site_fract_y
 _atom_site_fract_z
 _atom_site_occupancy
  Ho  Ho0  1  0.012964  0.175690  0.096794  1
  Ho  Ho1  1  0.988010  0.824100  0.903090  1
  Ho  Ho2  1  0.486831  0.677304  0.903068  1
  Ho  Ho3  1  0.988821  0.822169  0.596235  1
  Ho  Ho4  1  0.512714  0.323705  0.096211  1
  Ho  Ho5  1  0.011421  0.180114  0.403540  1
  Ho  Ho6  1  0.508650  0.323561  0.403003  1
  Er  Er7  1  0.485493  0.671322  0.597855  1
  Sc  Sc8  1  0.162854  0.503786  0.744964  1
  Sc  Sc9  1  0.838473  0.496918  0.251979  1
  Sc  Sc10  1  0.339293  0.999488  0.250360  1
  Sc  Sc11  1  0.662572  0.996714  0.749338  1
  Sc  Sc12  1  0.330830  0.187554  0.621243  1
  Sc  Sc13  1  0.668052  0.823436  0.373684  1
  Sc  Sc14  1  0.170782  0.664263  0.378389  1
  Sc  Sc15  1  0.671882  0.824028  0.126577  1
  Sc  Sc16  1  0.833727  0.326859  0.623342  1
  Sc  Sc17  1  0.328385  0.177171  0.875559  1
  Sc  Sc18  1  0.831499  0.322175  0.875436  1
  Sc  Sc19  1  0.170333  0.676626  0.125206  1
  Si  Si20  1  0.033793  0.114039  0.749687  1
  Si  Si21  1  0.970369  0.883640  0.251659  1
  Si  Si22  1  0.467340  0.613284  0.248445  1
  Si  Si23  1  0.536953  0.385644  0.752879  1
  Si  Si24  1  0.286169  0.876420  0.750269  1
  Si  Si25  1  0.714395  0.129215  0.249415  1
  Si  Si26  1  0.215860  0.368878  0.247917  1
  Si  Si27  1  0.783709  0.628348  0.752629  1
  Si  Si28  1  0.834625  0.536526  0.460480  1
  Si  Si29  1  0.342942  0.963189  0.460888  1
  Si  Si30  1  0.843386  0.536007  0.038774  1
  Si  Si31  1  0.655735  0.033657  0.538694  1
  Si  Si32  1  0.156462  0.465785  0.961022  1
  Si  Si33  1  0.658004  0.034353  0.961823  1
  Si  Si34  1  0.344291  0.964622  0.039073  1
  Rh  Rh35  1  0.152383  0.469410  0.540471  1
