# generated using pymatgen
data_Cs4GdTaBr12
_symmetry_space_group_name_H-M   'P 1'
_cell_length_a   13.95843792
_cell_length_b   13.95843688
_cell_length_c   13.95843800
_cell_angle_alpha   132.10562293
_cell_angle_beta   132.10562459
_cell_angle_gamma   70.06225890
_symmetry_Int_Tables_number   1
_chemical_formula_structural   Cs4GdTaBr12
_chemical_formula_sum   'Cs8 Gd2 Ta2 Br24'
_cell_volume   1467.55971503
_cell_formula_units_Z   2
loop_
 _symmetry_equiv_pos_site_id
 _symmetry_equiv_pos_as_xyz
  1  'x, y, z'
loop_
 _atom_site_type_symbol
 _atom_site_label
 _atom_site_symmetry_multiplicity
 _atom_site_fract_x
 _atom_site_fract_y
 _atom_site_fract_z
 _atom_site_occupancy
  Cs  Cs0  1  0.375002  0.348626  0.471321  1
  Cs  Cs1  1  0.096318  0.624998  0.973623  1
  Cs  Cs2  1  0.877306  0.903682  0.528679  1
  Cs  Cs3  1  0.098626  0.127306  0.473623  1
  Cs  Cs4  1  0.374998  0.901374  0.028679  1
  Cs  Cs5  1  0.653682  0.625002  0.526377  1
  Cs  Cs6  1  0.651374  0.122694  0.026377  1
  Cs  Cs7  1  0.872694  0.346318  0.971321  1
  Gd  Gd8  1  0.750000  0.250000  0.500000  1
  Gd  Gd9  1  0.000000  0.000000  0.000000  1
  Ta  Ta10  1  0.250000  0.750000  0.500000  1
  Ta  Ta11  1  0.500000  0.500000  0.000000  1
  Br  Br12  1  0.025117  0.769287  0.297739  1
  Br  Br13  1  0.019237  0.255098  0.264048  1
  Br  Br14  1  0.272621  0.974883  0.744170  1
  Br  Br15  1  0.005098  0.241050  0.735860  1
  Br  Br16  1  0.138914  0.638914  0.500000  1
  Br  Br17  1  0.278452  0.522621  0.797739  1
  Br  Br18  1  0.471548  0.727379  0.702261  1
  Br  Br19  1  0.505189  0.269237  0.264140  1
  Br  Br20  1  0.477379  0.275117  0.755830  1
  Br  Br21  1  0.611086  0.611086  0.000000  1
  Br  Br22  1  0.519287  0.721548  0.244170  1
  Br  Br23  1  0.124315  0.124315  0.000000  1
  Br  Br24  1  0.875685  0.875685  0.000000  1
  Br  Br25  1  0.991050  0.755189  0.735952  1
  Br  Br26  1  0.744902  0.008950  0.764140  1
  Br  Br27  1  0.244811  0.980763  0.235860  1
  Br  Br28  1  0.724883  0.480713  0.202261  1
  Br  Br29  1  0.230713  0.528452  0.255830  1
  Br  Br30  1  0.361086  0.861086  0.500000  1
  Br  Br31  1  0.874315  0.374315  0.500000  1
  Br  Br32  1  0.388914  0.388914  0.000000  1
  Br  Br33  1  0.625685  0.125685  0.500000  1
  Br  Br34  1  0.758950  0.494811  0.764048  1
  Br  Br35  1  0.730763  0.994902  0.235952  1
