# generated using pymatgen
data_TmP4N7
_symmetry_space_group_name_H-M   'P 1'
_cell_length_a   4.95297283
_cell_length_b   7.44494747
_cell_length_c   8.51874506
_cell_angle_alpha   74.09450426
_cell_angle_beta   106.78943390
_cell_angle_gamma   97.25375930
_symmetry_Int_Tables_number   1
_chemical_formula_structural   TmP4N7
_chemical_formula_sum   'Tm2 P8 N14'
_cell_volume   288.84284740
_cell_formula_units_Z   2
loop_
 _symmetry_equiv_pos_site_id
 _symmetry_equiv_pos_as_xyz
  1  'x, y, z'
loop_
 _atom_site_type_symbol
 _atom_site_label
 _atom_site_symmetry_multiplicity
 _atom_site_fract_x
 _atom_site_fract_y
 _atom_site_fract_z
 _atom_site_occupancy
  Tm  Tm0  1  0.343951  0.799108  0.206079  1
  Tm  Tm1  1  0.656045  0.200886  0.793921  1
  P  P2  1  0.309023  0.275140  0.075354  1
  P  P3  1  0.860202  0.123982  0.237197  1
  P  P4  1  0.732843  0.492228  0.252672  1
  P  P5  1  0.016836  0.246559  0.566636  1
  P  P6  1  0.983161  0.753440  0.433364  1
  P  P7  1  0.267155  0.507772  0.747328  1
  P  P8  1  0.139800  0.876018  0.762803  1
  P  P9  1  0.690979  0.724859  0.924646  1
  N  N10  1  0.588413  0.174908  0.070307  1
  N  N11  1  0.885841  0.648401  0.118671  1
  N  N12  1  0.129543  0.098379  0.172142  1
  N  N13  1  0.409542  0.443018  0.168114  1
  N  N14  1  0.917853  0.295795  0.340553  1
  N  N15  1  0.774079  0.933538  0.362291  1
  N  N16  1  0.723187  0.588574  0.399209  1
  N  N17  1  0.276809  0.411426  0.600790  1
  N  N18  1  0.225920  0.066463  0.637709  1
  N  N19  1  0.082144  0.704204  0.659448  1
  N  N20  1  0.590456  0.556986  0.831883  1
  N  N21  1  0.870463  0.901621  0.827861  1
  N  N22  1  0.114158  0.351596  0.881329  1
  N  N23  1  0.411594  0.825097  0.929693  1
