# generated using pymatgen
data_TmTc3P4Ir3
_symmetry_space_group_name_H-M   'P 1'
_cell_length_a   6.96738000
_cell_length_b   6.96738080
_cell_length_c   3.76991200
_cell_angle_alpha   90.00000000
_cell_angle_beta   90.00000000
_cell_angle_gamma   119.99999621
_symmetry_Int_Tables_number   1
_chemical_formula_structural   TmTc3P4Ir3
_chemical_formula_sum   'Tm1 Tc3 P4 Ir3'
_cell_volume   158.48964983
_cell_formula_units_Z   1
loop_
 _symmetry_equiv_pos_site_id
 _symmetry_equiv_pos_as_xyz
  1  'x, y, z'
loop_
 _atom_site_type_symbol
 _atom_site_label
 _atom_site_symmetry_multiplicity
 _atom_site_fract_x
 _atom_site_fract_y
 _atom_site_fract_z
 _atom_site_occupancy
  Tm  Tm0  1  0.333333  0.666667  0.000000  1
  Tc  Tc1  1  0.266355  0.133178  0.000000  1
  Tc  Tc2  1  0.866822  0.733645  0.000000  1
  Tc  Tc3  1  0.866822  0.133178  0.000000  1
  P  P4  1  0.666667  0.333333  0.000000  1
  P  P5  1  0.717361  0.858681  0.500000  1
  P  P6  1  0.141319  0.282639  0.500000  1
  P  P7  1  0.141319  0.858681  0.500000  1
  Ir  Ir8  1  0.946471  0.473236  0.500000  1
  Ir  Ir9  1  0.526764  0.053529  0.500000  1
  Ir  Ir10  1  0.526764  0.473236  0.500000  1
