# generated using pymatgen
data_Yb3Zn(Ir2O7)2
_symmetry_space_group_name_H-M   'P 1'
_cell_length_a   7.24826284
_cell_length_b   7.10811558
_cell_length_c   7.24826400
_cell_angle_alpha   59.34561517
_cell_angle_beta   60.00000385
_cell_angle_gamma   59.34561655
_symmetry_Int_Tables_number   1
_chemical_formula_structural   Yb3Zn(Ir2O7)2
_chemical_formula_sum   'Yb3 Zn1 Ir4 O14'
_cell_volume   261.42086473
_cell_formula_units_Z   1
loop_
 _symmetry_equiv_pos_site_id
 _symmetry_equiv_pos_as_xyz
  1  'x, y, z'
loop_
 _atom_site_type_symbol
 _atom_site_label
 _atom_site_symmetry_multiplicity
 _atom_site_fract_x
 _atom_site_fract_y
 _atom_site_fract_z
 _atom_site_occupancy
  Yb  Yb0  1  0.625000  0.125000  0.125000  1
  Yb  Yb1  1  0.125000  0.125000  0.625000  1
  Yb  Yb2  1  0.125000  0.125000  0.125000  1
  Zn  Zn3  1  0.125000  0.625000  0.125000  1
  Ir  Ir4  1  0.125000  0.625000  0.625000  1
  Ir  Ir5  1  0.625000  0.125000  0.625000  1
  Ir  Ir6  1  0.625000  0.625000  0.125000  1
  Ir  Ir7  1  0.625000  0.625000  0.625000  1
  O  O8  1  0.695209  0.699515  0.302637  1
  O  O9  1  0.294144  0.290481  0.707688  1
  O  O10  1  0.707688  0.290481  0.707688  1
  O  O11  1  0.302637  0.699515  0.302637  1
  O  O12  1  0.302637  0.699515  0.695209  1
  O  O13  1  0.707688  0.290481  0.294144  1
  O  O14  1  0.554791  0.550485  0.947363  1
  O  O15  1  0.955856  0.959519  0.542312  1
  O  O16  1  0.542312  0.959519  0.542312  1
  O  O17  1  0.947363  0.550485  0.947363  1
  O  O18  1  0.947363  0.550485  0.554791  1
  O  O19  1  0.542312  0.959519  0.955856  1
  O  O20  1  0.234431  0.296706  0.234431  1
  O  O21  1  0.015569  0.953294  0.015569  1
