# generated using pymatgen
data_Ho5Bi3C
_symmetry_space_group_name_H-M   'P 1'
_cell_length_a   6.47755400
_cell_length_b   9.11453473
_cell_length_c   9.11374416
_cell_angle_alpha   120.00286171
_cell_angle_beta   90.00000000
_cell_angle_gamma   90.00000000
_symmetry_Int_Tables_number   1
_chemical_formula_structural   Ho5Bi3C
_chemical_formula_sum   'Ho10 Bi6 C2'
_cell_volume   465.97271419
_cell_formula_units_Z   2
loop_
 _symmetry_equiv_pos_site_id
 _symmetry_equiv_pos_as_xyz
  1  'x, y, z'
loop_
 _atom_site_type_symbol
 _atom_site_label
 _atom_site_symmetry_multiplicity
 _atom_site_fract_x
 _atom_site_fract_y
 _atom_site_fract_z
 _atom_site_occupancy
  Ho  Ho0  1  0.499999  0.333310  0.666623  1
  Ho  Ho1  1  0.499999  0.666687  0.333377  1
  Ho  Ho2  1  0.999999  0.666690  0.333377  1
  Ho  Ho3  1  0.999999  0.333313  0.666623  1
  Ho  Ho4  1  0.749999  0.207463  0.000000  1
  Ho  Ho5  1  0.750003  0.792414  0.792444  1
  Ho  Ho6  1  0.750003  0.999970  0.207556  1
  Ho  Ho7  1  0.249999  0.792537  0.000000  1
  Ho  Ho8  1  0.250003  0.207586  0.207556  1
  Ho  Ho9  1  0.250003  0.000030  0.792444  1
  Bi  Bi10  1  0.750003  0.598724  0.000000  1
  Bi  Bi11  1  0.749998  0.401348  0.401406  1
  Bi  Bi12  1  0.749998  0.999942  0.598594  1
  Bi  Bi13  1  0.250003  0.401276  0.000000  1
  Bi  Bi14  1  0.249998  0.598652  0.598594  1
  Bi  Bi15  1  0.249998  0.000058  0.401406  1
  C  C16  1  0.499999  0.999999  0.000000  1
  C  C17  1  0.999999  0.000001  0.000000  1
