# generated using pymatgen
data_Rb4CrS4
_symmetry_space_group_name_H-M   'P 1'
_cell_length_a   8.31447500
_cell_length_b   9.75974700
_cell_length_c   14.52464500
_cell_angle_alpha   90.00000000
_cell_angle_beta   90.00000000
_cell_angle_gamma   90.00000000
_symmetry_Int_Tables_number   1
_chemical_formula_structural   Rb4CrS4
_chemical_formula_sum   'Rb16 Cr4 S16'
_cell_volume   1178.63387241
_cell_formula_units_Z   4
loop_
 _symmetry_equiv_pos_site_id
 _symmetry_equiv_pos_as_xyz
  1  'x, y, z'
loop_
 _atom_site_type_symbol
 _atom_site_label
 _atom_site_symmetry_multiplicity
 _atom_site_fract_x
 _atom_site_fract_y
 _atom_site_fract_z
 _atom_site_occupancy
  Rb  Rb0  1  0.000000  0.000000  0.000000  1
  Rb  Rb1  1  0.500000  0.000000  0.500000  1
  Rb  Rb2  1  0.000000  0.500000  0.000000  1
  Rb  Rb3  1  0.500000  0.500000  0.500000  1
  Rb  Rb4  1  0.988568  0.750000  0.424780  1
  Rb  Rb5  1  0.488568  0.250000  0.075220  1
  Rb  Rb6  1  0.011432  0.250000  0.575220  1
  Rb  Rb7  1  0.511432  0.750000  0.924780  1
  Rb  Rb8  1  0.837361  0.055576  0.279470  1
  Rb  Rb9  1  0.337361  0.944424  0.220530  1
  Rb  Rb10  1  0.162639  0.555576  0.720530  1
  Rb  Rb11  1  0.662639  0.444424  0.779470  1
  Rb  Rb12  1  0.162639  0.944424  0.720530  1
  Rb  Rb13  1  0.662639  0.055576  0.779470  1
  Rb  Rb14  1  0.837361  0.444424  0.279470  1
  Rb  Rb15  1  0.337361  0.555576  0.220530  1
  Cr  Cr16  1  0.759881  0.750000  0.665393  1
  Cr  Cr17  1  0.240119  0.250000  0.334607  1
  Cr  Cr18  1  0.740119  0.750000  0.165393  1
  Cr  Cr19  1  0.259881  0.250000  0.834607  1
  S  S20  1  0.994193  0.250000  0.825123  1
  S  S21  1  0.505807  0.250000  0.325123  1
  S  S22  1  0.494193  0.750000  0.674877  1
  S  S23  1  0.005807  0.750000  0.174877  1
  S  S24  1  0.657901  0.565823  0.093046  1
  S  S25  1  0.157901  0.434177  0.406954  1
  S  S26  1  0.342099  0.065823  0.906954  1
  S  S27  1  0.842099  0.934177  0.593046  1
  S  S28  1  0.342099  0.434177  0.906954  1
  S  S29  1  0.842099  0.565823  0.593046  1
  S  S30  1  0.657901  0.934177  0.093046  1
  S  S31  1  0.157901  0.065823  0.406954  1
  S  S32  1  0.637579  0.750000  0.306918  1
  S  S33  1  0.137579  0.250000  0.193082  1
  S  S34  1  0.362421  0.250000  0.693082  1
  S  S35  1  0.862421  0.750000  0.806918  1
