# generated using pymatgen
data_NdTmB6Os
_symmetry_space_group_name_H-M   'P 1'
_cell_length_a   3.68196000
_cell_length_b   9.18596100
_cell_length_c   11.62147300
_cell_angle_alpha   90.00000000
_cell_angle_beta   90.00000000
_cell_angle_gamma   90.00000000
_symmetry_Int_Tables_number   1
_chemical_formula_structural   NdTmB6Os
_chemical_formula_sum   'Nd4 Tm4 B24 Os4'
_cell_volume   393.06542230
_cell_formula_units_Z   4
loop_
 _symmetry_equiv_pos_site_id
 _symmetry_equiv_pos_as_xyz
  1  'x, y, z'
loop_
 _atom_site_type_symbol
 _atom_site_label
 _atom_site_symmetry_multiplicity
 _atom_site_fract_x
 _atom_site_fract_y
 _atom_site_fract_z
 _atom_site_occupancy
  Nd  Nd0  1  0.000000  0.322167  0.414233  1
  Nd  Nd1  1  0.000000  0.677833  0.585767  1
  Nd  Nd2  1  0.000000  0.822167  0.085767  1
  Nd  Nd3  1  0.000000  0.177833  0.914233  1
  Tm  Tm4  1  0.000000  0.944590  0.372633  1
  Tm  Tm5  1  0.000000  0.055410  0.627367  1
  Tm  Tm6  1  0.000000  0.444590  0.127367  1
  Tm  Tm7  1  0.000000  0.555410  0.872633  1
  B  B8  1  0.500000  0.556484  0.430201  1
  B  B9  1  0.500000  0.443516  0.569799  1
  B  B10  1  0.500000  0.056484  0.069799  1
  B  B11  1  0.500000  0.943516  0.930201  1
  B  B12  1  0.500000  0.750454  0.417323  1
  B  B13  1  0.500000  0.249546  0.582677  1
  B  B14  1  0.500000  0.250454  0.082677  1
  B  B15  1  0.500000  0.749546  0.917323  1
  B  B16  1  0.500000  0.791262  0.266892  1
  B  B17  1  0.500000  0.208738  0.733107  1
  B  B18  1  0.500000  0.291262  0.233108  1
  B  B19  1  0.500000  0.708738  0.766893  1
  B  B20  1  0.500000  0.630464  0.185101  1
  B  B21  1  0.500000  0.369536  0.814899  1
  B  B22  1  0.500000  0.130464  0.314899  1
  B  B23  1  0.500000  0.869536  0.685101  1
  B  B24  1  0.500000  0.985211  0.214554  1
  B  B25  1  0.500000  0.014789  0.785446  1
  B  B26  1  0.500000  0.485211  0.285446  1
  B  B27  1  0.500000  0.514789  0.714554  1
  B  B28  1  0.500000  0.601608  0.027722  1
  B  B29  1  0.500000  0.398392  0.972278  1
  B  B30  1  0.500000  0.101608  0.472278  1
  B  B31  1  0.500000  0.898392  0.527722  1
  Os  Os32  1  0.000000  0.639600  0.319087  1
  Os  Os33  1  0.000000  0.360400  0.680913  1
  Os  Os34  1  0.000000  0.139600  0.180913  1
  Os  Os35  1  0.000000  0.860400  0.819087  1
