# generated using pymatgen
data_Ho8Cd2RuPt
_symmetry_space_group_name_H-M   'P 1'
_cell_length_a   9.60076008
_cell_length_b   9.60076060
_cell_length_c   9.63341500
_cell_angle_alpha   59.88742774
_cell_angle_beta   59.88742593
_cell_angle_gamma   59.76366135
_symmetry_Int_Tables_number   1
_chemical_formula_structural   Ho8Cd2RuPt
_chemical_formula_sum   'Ho16 Cd4 Ru2 Pt2'
_cell_volume   625.68592368
_cell_formula_units_Z   2
loop_
 _symmetry_equiv_pos_site_id
 _symmetry_equiv_pos_as_xyz
  1  'x, y, z'
loop_
 _atom_site_type_symbol
 _atom_site_label
 _atom_site_symmetry_multiplicity
 _atom_site_fract_x
 _atom_site_fract_y
 _atom_site_fract_z
 _atom_site_occupancy
  Ho  Ho0  1  0.599041  0.599041  0.602203  1
  Ho  Ho1  1  0.599041  0.599041  0.199716  1
  Ho  Ho2  1  0.597103  0.202249  0.600324  1
  Ho  Ho3  1  0.202249  0.597103  0.600324  1
  Ho  Ho4  1  0.064914  0.438249  0.439391  1
  Ho  Ho5  1  0.438249  0.064914  0.057446  1
  Ho  Ho6  1  0.438249  0.064914  0.439391  1
  Ho  Ho7  1  0.064914  0.438249  0.057446  1
  Ho  Ho8  1  0.437773  0.437773  0.062227  1
  Ho  Ho9  1  0.059272  0.059272  0.440728  1
  Ho  Ho10  1  0.187288  0.810000  0.816170  1
  Ho  Ho11  1  0.810000  0.187288  0.186543  1
  Ho  Ho12  1  0.810000  0.187288  0.816170  1
  Ho  Ho13  1  0.187288  0.810000  0.186543  1
  Ho  Ho14  1  0.814191  0.814191  0.185809  1
  Ho  Ho15  1  0.188604  0.188604  0.811396  1
  Cd  Cd16  1  0.830338  0.830338  0.831729  1
  Cd  Cd17  1  0.830338  0.830338  0.507596  1
  Cd  Cd18  1  0.831240  0.505003  0.831878  1
  Cd  Cd19  1  0.505003  0.831240  0.831878  1
  Ru  Ru20  1  0.393715  0.393715  0.389417  1
  Ru  Ru21  1  0.393715  0.393715  0.823153  1
  Pt  Pt22  1  0.394108  0.823370  0.391261  1
  Pt  Pt23  1  0.823370  0.394108  0.391261  1
