# generated using pymatgen
data_Dy11ErTc3Ru
_symmetry_space_group_name_H-M   'P 1'
_cell_length_a   6.27917921
_cell_length_b   7.39005404
_cell_length_c   9.13132028
_cell_angle_alpha   89.99611383
_cell_angle_beta   90.02790667
_cell_angle_gamma   90.00981806
_symmetry_Int_Tables_number   1
_chemical_formula_structural   Dy11ErTc3Ru
_chemical_formula_sum   'Dy11 Er1 Tc3 Ru1'
_cell_volume   423.72492219
_cell_formula_units_Z   1
loop_
 _symmetry_equiv_pos_site_id
 _symmetry_equiv_pos_as_xyz
  1  'x, y, z'
loop_
 _atom_site_type_symbol
 _atom_site_label
 _atom_site_symmetry_multiplicity
 _atom_site_fract_x
 _atom_site_fract_y
 _atom_site_fract_z
 _atom_site_occupancy
  Dy  Dy0  1  0.336076  0.676798  0.062991  1
  Dy  Dy1  1  0.161435  0.176060  0.437381  1
  Dy  Dy2  1  0.661473  0.324105  0.562675  1
  Dy  Dy3  1  0.837748  0.823937  0.937735  1
  Dy  Dy4  1  0.661296  0.323928  0.937456  1
  Dy  Dy5  1  0.837545  0.823548  0.562377  1
  Dy  Dy6  1  0.336219  0.676764  0.436995  1
  Dy  Dy7  1  0.873989  0.540245  0.249873  1
  Dy  Dy8  1  0.626514  0.039605  0.249745  1
  Dy  Dy9  1  0.130265  0.458622  0.750096  1
  Dy  Dy10  1  0.373671  0.957992  0.750178  1
  Er  Er11  1  0.161545  0.175712  0.062410  1
  Tc  Tc12  1  0.041077  0.884839  0.249836  1
  Tc  Tc13  1  0.460285  0.386206  0.249687  1
  Tc  Tc14  1  0.961135  0.115662  0.750562  1
  Ru  Ru15  1  0.539725  0.615977  0.750001  1
