# generated using pymatgen
data_Dy4(CuNi)7
_symmetry_space_group_name_H-M   'P 1'
_cell_length_a   4.99449543
_cell_length_b   4.99449731
_cell_length_c   12.55106537
_cell_angle_alpha   78.52343601
_cell_angle_beta   78.52344182
_cell_angle_gamma   60.00000277
_symmetry_Int_Tables_number   1
_chemical_formula_structural   Dy4(CuNi)7
_chemical_formula_sum   'Dy4 Cu7 Ni7'
_cell_volume   263.88772373
_cell_formula_units_Z   1
loop_
 _symmetry_equiv_pos_site_id
 _symmetry_equiv_pos_as_xyz
  1  'x, y, z'
loop_
 _atom_site_type_symbol
 _atom_site_label
 _atom_site_symmetry_multiplicity
 _atom_site_fract_x
 _atom_site_fract_y
 _atom_site_fract_z
 _atom_site_occupancy
  Dy  Dy0  1  0.945349  0.945349  0.163952  1
  Dy  Dy1  1  0.054651  0.054651  0.836048  1
  Dy  Dy2  1  0.851856  0.851856  0.444431  1
  Dy  Dy3  1  0.148144  0.148144  0.555569  1
  Cu  Cu4  1  0.723028  0.723028  0.830915  1
  Cu  Cu5  1  0.276972  0.276972  0.169085  1
  Cu  Cu6  1  0.610418  0.610418  0.168746  1
  Cu  Cu7  1  0.389582  0.389582  0.831254  1
  Cu  Cu8  1  0.000000  0.500000  0.000000  1
  Cu  Cu9  1  0.500000  0.000000  0.000000  1
  Cu  Cu10  1  0.500000  0.500000  0.000000  1
  Ni  Ni11  1  0.500000  0.500000  0.500000  1
  Ni  Ni12  1  0.388880  0.388880  0.333270  1
  Ni  Ni13  1  0.888971  0.388880  0.333270  1
  Ni  Ni14  1  0.388880  0.888971  0.333270  1
  Ni  Ni15  1  0.611120  0.611120  0.666730  1
  Ni  Ni16  1  0.111029  0.611120  0.666730  1
  Ni  Ni17  1  0.611120  0.111029  0.666730  1
