# generated using pymatgen
data_Tm9Al(Ni2Hg)2
_symmetry_space_group_name_H-M   'P 1'
_cell_length_a   8.45610814
_cell_length_b   8.45610828
_cell_length_c   8.45610919
_cell_angle_alpha   128.45112041
_cell_angle_beta   128.45112041
_cell_angle_gamma   75.89536456
_symmetry_Int_Tables_number   1
_chemical_formula_structural   Tm9Al(Ni2Hg)2
_chemical_formula_sum   'Tm9 Al1 Ni4 Hg2'
_cell_volume   360.62111193
_cell_formula_units_Z   1
loop_
 _symmetry_equiv_pos_site_id
 _symmetry_equiv_pos_as_xyz
  1  'x, y, z'
loop_
 _atom_site_type_symbol
 _atom_site_label
 _atom_site_symmetry_multiplicity
 _atom_site_fract_x
 _atom_site_fract_y
 _atom_site_fract_z
 _atom_site_occupancy
  Tm  Tm0  1  0.000000  0.000000  0.000000  1
  Tm  Tm1  1  0.780894  0.317152  0.835832  1
  Tm  Tm2  1  0.219106  0.682848  0.164168  1
  Tm  Tm3  1  0.481321  0.945062  0.164168  1
  Tm  Tm4  1  0.317152  0.481321  0.536258  1
  Tm  Tm5  1  0.054938  0.219106  0.536258  1
  Tm  Tm6  1  0.518679  0.054938  0.835832  1
  Tm  Tm7  1  0.682848  0.518679  0.463742  1
  Tm  Tm8  1  0.945062  0.780894  0.463742  1
  Al  Al9  1  0.500000  0.500000  0.000000  1
  Ni  Ni10  1  0.123534  0.627746  0.751281  1
  Ni  Ni11  1  0.876466  0.372254  0.248719  1
  Ni  Ni12  1  0.627746  0.876466  0.504211  1
  Ni  Ni13  1  0.372254  0.123534  0.495789  1
  Hg  Hg14  1  0.236741  0.236741  0.000000  1
  Hg  Hg15  1  0.763259  0.763259  0.000000  1
