# generated using pymatgen
data_Be7Cr2CoOs2
_symmetry_space_group_name_H-M   'P 1'
_cell_length_a   4.32613900
_cell_length_b   4.30185873
_cell_length_c   7.03644196
_cell_angle_alpha   90.36638642
_cell_angle_beta   90.00000000
_cell_angle_gamma   120.18690591
_symmetry_Int_Tables_number   1
_chemical_formula_structural   Be7Cr2CoOs2
_chemical_formula_sum   'Be7 Cr2 Co1 Os2'
_cell_volume   113.18983855
_cell_formula_units_Z   1
loop_
 _symmetry_equiv_pos_site_id
 _symmetry_equiv_pos_as_xyz
  1  'x, y, z'
loop_
 _atom_site_type_symbol
 _atom_site_label
 _atom_site_symmetry_multiplicity
 _atom_site_fract_x
 _atom_site_fract_y
 _atom_site_fract_z
 _atom_site_occupancy
  Be  Be0  1  0.170416  0.832564  0.749339  1
  Be  Be1  1  0.340175  0.172203  0.251148  1
  Be  Be2  1  0.830158  0.660316  0.250002  1
  Be  Be3  1  0.998841  0.997682  0.000839  1
  Be  Be4  1  0.662150  0.832564  0.749339  1
  Be  Be5  1  0.832027  0.172203  0.251148  1
  Be  Be6  1  0.998555  0.997109  0.498335  1
  Cr  Cr7  1  0.335595  0.671190  0.061194  1
  Cr  Cr8  1  0.664807  0.329613  0.560435  1
  Co  Co9  1  0.167182  0.334363  0.748734  1
  Os  Os10  1  0.337152  0.674304  0.432711  1
  Os  Os11  1  0.662944  0.325887  0.946776  1
