# generated using pymatgen
data_Tb4Dy6CuGePb6
_symmetry_space_group_name_H-M   'P 1'
_cell_length_a   9.24400800
_cell_length_b   9.24400771
_cell_length_c   6.74111800
_cell_angle_alpha   90.00000000
_cell_angle_beta   90.00000000
_cell_angle_gamma   119.99999389
_symmetry_Int_Tables_number   1
_chemical_formula_structural   Tb4Dy6CuGePb6
_chemical_formula_sum   'Tb4 Dy6 Cu1 Ge1 Pb6'
_cell_volume   498.86518847
_cell_formula_units_Z   1
loop_
 _symmetry_equiv_pos_site_id
 _symmetry_equiv_pos_as_xyz
  1  'x, y, z'
loop_
 _atom_site_type_symbol
 _atom_site_label
 _atom_site_symmetry_multiplicity
 _atom_site_fract_x
 _atom_site_fract_y
 _atom_site_fract_z
 _atom_site_occupancy
  Tb  Tb0  1  0.333333  0.666667  0.000000  1
  Tb  Tb1  1  0.666667  0.333333  0.000000  1
  Tb  Tb2  1  0.666667  0.333333  0.500000  1
  Tb  Tb3  1  0.333333  0.666667  0.500000  1
  Dy  Dy4  1  0.250704  0.000000  0.242345  1
  Dy  Dy5  1  0.749296  0.000000  0.757655  1
  Dy  Dy6  1  0.000000  0.250704  0.242345  1
  Dy  Dy7  1  0.000000  0.749296  0.757655  1
  Dy  Dy8  1  0.749296  0.749296  0.242345  1
  Dy  Dy9  1  0.250704  0.250704  0.757655  1
  Cu  Cu10  1  0.000000  0.000000  0.500000  1
  Ge  Ge11  1  0.000000  0.000000  0.000000  1
  Pb  Pb12  1  0.607514  0.000000  0.250042  1
  Pb  Pb13  1  0.392486  0.000000  0.749958  1
  Pb  Pb14  1  0.000000  0.607514  0.250042  1
  Pb  Pb15  1  0.000000  0.392486  0.749958  1
  Pb  Pb16  1  0.392486  0.392486  0.250042  1
  Pb  Pb17  1  0.607514  0.607514  0.749958  1
