# generated using pymatgen
data_Ho9LuGa3Bi2Ir
_symmetry_space_group_name_H-M   'P 1'
_cell_length_a   8.63026181
_cell_length_b   8.63026085
_cell_length_c   8.74479535
_cell_angle_alpha   125.23127426
_cell_angle_beta   125.18549207
_cell_angle_gamma   80.30480583
_symmetry_Int_Tables_number   1
_chemical_formula_structural   Ho9LuGa3Bi2Ir
_chemical_formula_sum   'Ho9 Lu1 Ga3 Bi2 Ir1'
_cell_volume   421.49099642
_cell_formula_units_Z   1
loop_
 _symmetry_equiv_pos_site_id
 _symmetry_equiv_pos_as_xyz
  1  'x, y, z'
loop_
 _atom_site_type_symbol
 _atom_site_label
 _atom_site_symmetry_multiplicity
 _atom_site_fract_x
 _atom_site_fract_y
 _atom_site_fract_z
 _atom_site_occupancy
  Ho  Ho0  1  0.499685  0.499858  0.999542  1
  Ho  Ho1  1  0.016466  0.502598  0.799536  1
  Ho  Ho2  1  0.716919  0.201655  0.199958  1
  Ho  Ho3  1  0.517226  0.705563  0.500655  1
  Ho  Ho4  1  0.194516  0.038375  0.499284  1
  Ho  Ho5  1  0.998302  0.483039  0.199958  1
  Ho  Ho6  1  0.296939  0.783070  0.799536  1
  Ho  Ho7  1  0.460909  0.304768  0.499284  1
  Ho  Ho8  1  0.795092  0.983429  0.500655  1
  Lu  Lu9  1  0.001313  0.002549  0.003863  1
  Ga  Ga10  1  0.357554  0.856277  0.213830  1
  Ga  Ga11  1  0.645112  0.141297  0.786410  1
  Ga  Ga12  1  0.864880  0.636644  0.501524  1
  Bi  Bi13  1  0.755719  0.745157  0.999432  1
  Bi  Bi14  1  0.254275  0.243713  0.999432  1
  Ir  Ir15  1  0.125097  0.372004  0.497102  1
