# generated using pymatgen
data_Nd2Ga2PtRh
_symmetry_space_group_name_H-M   'P 1'
_cell_length_a   4.47951000
_cell_length_b   7.08740400
_cell_length_c   7.85197900
_cell_angle_alpha   90.00000000
_cell_angle_beta   90.00000000
_cell_angle_gamma   90.00000000
_symmetry_Int_Tables_number   1
_chemical_formula_structural   Nd2Ga2PtRh
_chemical_formula_sum   'Nd4 Ga4 Pt2 Rh2'
_cell_volume   249.28539166
_cell_formula_units_Z   2
loop_
 _symmetry_equiv_pos_site_id
 _symmetry_equiv_pos_as_xyz
  1  'x, y, z'
loop_
 _atom_site_type_symbol
 _atom_site_label
 _atom_site_symmetry_multiplicity
 _atom_site_fract_x
 _atom_site_fract_y
 _atom_site_fract_z
 _atom_site_occupancy
  Nd  Nd0  1  0.250000  0.029860  0.684492  1
  Nd  Nd1  1  0.250000  0.529860  0.815508  1
  Nd  Nd2  1  0.750000  0.974865  0.309630  1
  Nd  Nd3  1  0.750000  0.474865  0.190370  1
  Ga  Ga4  1  0.250000  0.153162  0.071238  1
  Ga  Ga5  1  0.250000  0.653162  0.428762  1
  Ga  Ga6  1  0.750000  0.842761  0.933711  1
  Ga  Ga7  1  0.750000  0.342761  0.566289  1
  Pt  Pt8  1  0.750000  0.720463  0.611653  1
  Pt  Pt9  1  0.750000  0.220463  0.888347  1
  Rh  Rh10  1  0.250000  0.278889  0.390534  1
  Rh  Rh11  1  0.250000  0.778889  0.109466  1
