# generated using pymatgen
data_Y12Er3Th(CdPt)4
_symmetry_space_group_name_H-M   'P 1'
_cell_length_a   9.70182035
_cell_length_b   9.70182057
_cell_length_c   9.70182120
_cell_angle_alpha   60.37175347
_cell_angle_beta   60.37176139
_cell_angle_gamma   60.37175470
_symmetry_Int_Tables_number   1
_chemical_formula_structural   Y12Er3Th(CdPt)4
_chemical_formula_sum   'Y12 Er3 Th1 Cd4 Pt4'
_cell_volume   651.15038867
_cell_formula_units_Z   1
loop_
 _symmetry_equiv_pos_site_id
 _symmetry_equiv_pos_as_xyz
  1  'x, y, z'
loop_
 _atom_site_type_symbol
 _atom_site_label
 _atom_site_symmetry_multiplicity
 _atom_site_fract_x
 _atom_site_fract_y
 _atom_site_fract_z
 _atom_site_occupancy
  Y  Y0  1  0.811766  0.190314  0.190314  1
  Y  Y1  1  0.191779  0.809974  0.809974  1
  Y  Y2  1  0.190314  0.811766  0.190314  1
  Y  Y3  1  0.809974  0.191779  0.809974  1
  Y  Y4  1  0.190314  0.190314  0.811766  1
  Y  Y5  1  0.809974  0.809974  0.191779  1
  Y  Y6  1  0.937272  0.565703  0.565703  1
  Y  Y7  1  0.562466  0.938236  0.938236  1
  Y  Y8  1  0.565703  0.937272  0.565703  1
  Y  Y9  1  0.938236  0.562466  0.938236  1
  Y  Y10  1  0.565703  0.565703  0.937272  1
  Y  Y11  1  0.938236  0.938236  0.562466  1
  Er  Er12  1  0.353431  0.353431  0.940651  1
  Er  Er13  1  0.353431  0.940651  0.353431  1
  Er  Er14  1  0.940651  0.353431  0.353431  1
  Th  Th15  1  0.348032  0.348032  0.348032  1
  Cd  Cd16  1  0.581007  0.581007  0.581007  1
  Cd  Cd17  1  0.582375  0.582375  0.253614  1
  Cd  Cd18  1  0.582375  0.253614  0.582375  1
  Cd  Cd19  1  0.253614  0.582375  0.582375  1
  Pt  Pt20  1  0.145423  0.145423  0.145423  1
  Pt  Pt21  1  0.139943  0.139943  0.568034  1
  Pt  Pt22  1  0.139943  0.568034  0.139943  1
  Pt  Pt23  1  0.568034  0.139943  0.139943  1
