# generated using pymatgen
data_Ho4Tm4B24Os3W
_symmetry_space_group_name_H-M   'P 1'
_cell_length_a   3.61911800
_cell_length_b   9.13476094
_cell_length_c   11.52940302
_cell_angle_alpha   89.89645414
_cell_angle_beta   90.00000000
_cell_angle_gamma   90.00000000
_symmetry_Int_Tables_number   1
_chemical_formula_structural   Ho4Tm4B24Os3W
_chemical_formula_sum   'Ho4 Tm4 B24 Os3 W1'
_cell_volume   381.15887912
_cell_formula_units_Z   1
loop_
 _symmetry_equiv_pos_site_id
 _symmetry_equiv_pos_as_xyz
  1  'x, y, z'
loop_
 _atom_site_type_symbol
 _atom_site_label
 _atom_site_symmetry_multiplicity
 _atom_site_fract_x
 _atom_site_fract_y
 _atom_site_fract_z
 _atom_site_occupancy
  Ho  Ho0  1  0.000000  0.320631  0.413430  1
  Ho  Ho1  1  0.000000  0.678159  0.585687  1
  Ho  Ho2  1  0.000000  0.820062  0.086824  1
  Ho  Ho3  1  0.000000  0.177572  0.914328  1
  Tm  Tm4  1  0.000000  0.945818  0.373638  1
  Tm  Tm5  1  0.000000  0.057316  0.628045  1
  Tm  Tm6  1  0.000000  0.442843  0.125756  1
  Tm  Tm7  1  0.000000  0.556640  0.871874  1
  B  B8  1  0.500000  0.549931  0.436483  1
  B  B9  1  0.500000  0.445920  0.568589  1
  B  B10  1  0.500000  0.053912  0.066763  1
  B  B11  1  0.500000  0.946399  0.933043  1
  B  B12  1  0.500000  0.752536  0.422520  1
  B  B13  1  0.500000  0.251358  0.581368  1
  B  B14  1  0.500000  0.248792  0.079914  1
  B  B15  1  0.500000  0.751127  0.918933  1
  B  B16  1  0.500000  0.795847  0.264167  1
  B  B17  1  0.500000  0.208422  0.734224  1
  B  B18  1  0.500000  0.290656  0.232174  1
  B  B19  1  0.500000  0.709226  0.766098  1
  B  B20  1  0.500000  0.631684  0.181758  1
  B  B21  1  0.500000  0.368451  0.815153  1
  B  B22  1  0.500000  0.131309  0.314126  1
  B  B23  1  0.500000  0.869807  0.685508  1
  B  B24  1  0.500000  0.983443  0.212924  1
  B  B25  1  0.500000  0.017645  0.787805  1
  B  B26  1  0.500000  0.476660  0.285902  1
  B  B27  1  0.500000  0.516798  0.713588  1
  B  B28  1  0.500000  0.605151  0.027392  1
  B  B29  1  0.500000  0.393805  0.969792  1
  B  B30  1  0.500000  0.106500  0.471336  1
  B  B31  1  0.500000  0.897136  0.530476  1
  Os  Os32  1  0.000000  0.361309  0.680445  1
  Os  Os33  1  0.000000  0.137366  0.177868  1
  Os  Os34  1  0.000000  0.862327  0.820692  1
  W  W35  1  0.000000  0.637442  0.321379  1
