# generated using pymatgen
data_Li4La3Si3Bi
_symmetry_space_group_name_H-M   'P 1'
_cell_length_a   4.55022981
_cell_length_b   7.03336236
_cell_length_c   8.64045000
_cell_angle_alpha   114.01664778
_cell_angle_beta   105.26655674
_cell_angle_gamma   89.99999855
_symmetry_Int_Tables_number   1
_chemical_formula_structural   Li4La3Si3Bi
_chemical_formula_sum   'Li4 La3 Si3 Bi1'
_cell_volume   241.86235463
_cell_formula_units_Z   1
loop_
 _symmetry_equiv_pos_site_id
 _symmetry_equiv_pos_as_xyz
  1  'x, y, z'
loop_
 _atom_site_type_symbol
 _atom_site_label
 _atom_site_symmetry_multiplicity
 _atom_site_fract_x
 _atom_site_fract_y
 _atom_site_fract_z
 _atom_site_occupancy
  Li  Li0  1  0.668521  0.966219  0.337039  1
  Li  Li1  1  0.332545  0.014515  0.665091  1
  Li  Li2  1  0.332545  0.650575  0.665091  1
  Li  Li3  1  0.668521  0.370820  0.337039  1
  La  La4  1  0.991169  0.991169  0.982339  1
  La  La5  1  0.131027  0.631027  0.262054  1
  La  La6  1  0.877610  0.377610  0.755221  1
  Si  Si7  1  0.500558  0.674732  0.001118  1
  Si  Si8  1  0.500558  0.326386  0.001118  1
  Si  Si9  1  0.784637  0.784637  0.569271  1
  Bi  Bi10  1  0.212309  0.212309  0.424617  1
