# generated using pymatgen
data_Y3Tm17(Cd3Ni)2
_symmetry_space_group_name_H-M   'P 1'
_cell_length_a   9.53024300
_cell_length_b   9.53024315
_cell_length_c   9.62292600
_cell_angle_alpha   90.00000000
_cell_angle_beta   90.00000000
_cell_angle_gamma   119.99999602
_symmetry_Int_Tables_number   1
_chemical_formula_structural   Y3Tm17(Cd3Ni)2
_chemical_formula_sum   'Y3 Tm17 Cd6 Ni2'
_cell_volume   756.91262739
_cell_formula_units_Z   1
loop_
 _symmetry_equiv_pos_site_id
 _symmetry_equiv_pos_as_xyz
  1  'x, y, z'
loop_
 _atom_site_type_symbol
 _atom_site_label
 _atom_site_symmetry_multiplicity
 _atom_site_fract_x
 _atom_site_fract_y
 _atom_site_fract_z
 _atom_site_occupancy
  Y  Y0  1  0.457413  0.542587  0.750000  1
  Y  Y1  1  0.457413  0.914826  0.750000  1
  Y  Y2  1  0.085174  0.542587  0.750000  1
  Tm  Tm3  1  0.000000  0.000000  0.500182  1
  Tm  Tm4  1  0.000000  0.000000  0.999818  1
  Tm  Tm5  1  0.543342  0.456658  0.250000  1
  Tm  Tm6  1  0.543342  0.086684  0.250000  1
  Tm  Tm7  1  0.913316  0.456658  0.250000  1
  Tm  Tm8  1  0.210704  0.789296  0.436431  1
  Tm  Tm9  1  0.210704  0.421409  0.436431  1
  Tm  Tm10  1  0.578591  0.789296  0.436431  1
  Tm  Tm11  1  0.788934  0.211066  0.561190  1
  Tm  Tm12  1  0.788934  0.577866  0.561190  1
  Tm  Tm13  1  0.422134  0.211066  0.561190  1
  Tm  Tm14  1  0.788934  0.211066  0.938810  1
  Tm  Tm15  1  0.788934  0.577866  0.938810  1
  Tm  Tm16  1  0.422134  0.211066  0.938810  1
  Tm  Tm17  1  0.210704  0.789296  0.063569  1
  Tm  Tm18  1  0.210704  0.421409  0.063569  1
  Tm  Tm19  1  0.578591  0.789296  0.063569  1
  Cd  Cd20  1  0.884437  0.115563  0.250000  1
  Cd  Cd21  1  0.884437  0.768873  0.250000  1
  Cd  Cd22  1  0.231127  0.115563  0.250000  1
  Cd  Cd23  1  0.114233  0.885767  0.750000  1
  Cd  Cd24  1  0.114233  0.228465  0.750000  1
  Cd  Cd25  1  0.771535  0.885767  0.750000  1
  Ni  Ni26  1  0.333333  0.666667  0.250000  1
  Ni  Ni27  1  0.666667  0.333333  0.750000  1
