# generated using pymatgen
data_Rb3VSeO3
_symmetry_space_group_name_H-M   'P 1'
_cell_length_a   6.22989600
_cell_length_b   7.15163090
_cell_length_c   9.45668313
_cell_angle_alpha   103.50047919
_cell_angle_beta   90.00000000
_cell_angle_gamma   90.00000000
_symmetry_Int_Tables_number   1
_chemical_formula_structural   Rb3VSeO3
_chemical_formula_sum   'Rb6 V2 Se2 O6'
_cell_volume   409.69000568
_cell_formula_units_Z   2
loop_
 _symmetry_equiv_pos_site_id
 _symmetry_equiv_pos_as_xyz
  1  'x, y, z'
loop_
 _atom_site_type_symbol
 _atom_site_label
 _atom_site_symmetry_multiplicity
 _atom_site_fract_x
 _atom_site_fract_y
 _atom_site_fract_z
 _atom_site_occupancy
  Rb  Rb0  1  0.250001  0.771251  0.993542  1
  Rb  Rb1  1  0.750001  0.770592  0.267374  1
  Rb  Rb2  1  0.750001  0.317336  0.467018  1
  Rb  Rb3  1  0.250001  0.682443  0.533016  1
  Rb  Rb4  1  0.250001  0.229310  0.732638  1
  Rb  Rb5  1  0.750001  0.228557  0.006505  1
  V  V6  1  0.250001  0.309718  0.207660  1
  V  V7  1  0.750001  0.690375  0.792223  1
  Se  Se8  1  0.250001  0.067787  0.348142  1
  Se  Se9  1  0.750001  0.932294  0.651843  1
  O  O10  1  0.250001  0.196773  0.025200  1
  O  O11  1  0.023262  0.448354  0.254102  1
  O  O12  1  0.476739  0.448354  0.254102  1
  O  O13  1  0.523215  0.551774  0.746047  1
  O  O14  1  0.976787  0.551774  0.746047  1
  O  O15  1  0.750001  0.803304  0.974546  1
