# generated using pymatgen
data_Pr8CdHgOs2
_symmetry_space_group_name_H-M   'P 1'
_cell_length_a   10.01544332
_cell_length_b   10.01544317
_cell_length_c   10.03567200
_cell_angle_alpha   59.93317084
_cell_angle_beta   59.93317135
_cell_angle_gamma   59.93469129
_symmetry_Int_Tables_number   1
_chemical_formula_structural   Pr8CdHgOs2
_chemical_formula_sum   'Pr16 Cd2 Hg2 Os4'
_cell_volume   710.75185449
_cell_formula_units_Z   2
loop_
 _symmetry_equiv_pos_site_id
 _symmetry_equiv_pos_as_xyz
  1  'x, y, z'
loop_
 _atom_site_type_symbol
 _atom_site_label
 _atom_site_symmetry_multiplicity
 _atom_site_fract_x
 _atom_site_fract_y
 _atom_site_fract_z
 _atom_site_occupancy
  Pr  Pr0  1  0.345109  0.345109  0.346165  1
  Pr  Pr1  1  0.345109  0.345109  0.963617  1
  Pr  Pr2  1  0.346096  0.960336  0.346783  1
  Pr  Pr3  1  0.960336  0.346096  0.346783  1
  Pr  Pr4  1  0.808426  0.191804  0.190422  1
  Pr  Pr5  1  0.191804  0.808426  0.809347  1
  Pr  Pr6  1  0.191804  0.808426  0.190422  1
  Pr  Pr7  1  0.808426  0.191804  0.809347  1
  Pr  Pr8  1  0.190574  0.190574  0.809426  1
  Pr  Pr9  1  0.808132  0.808132  0.191868  1
  Pr  Pr10  1  0.940061  0.559835  0.558824  1
  Pr  Pr11  1  0.559835  0.940061  0.941280  1
  Pr  Pr12  1  0.559835  0.940061  0.558824  1
  Pr  Pr13  1  0.940061  0.559835  0.941280  1
  Pr  Pr14  1  0.559586  0.559586  0.940414  1
  Pr  Pr15  1  0.941259  0.941259  0.558741  1
  Cd  Cd16  1  0.577568  0.265048  0.578692  1
  Cd  Cd17  1  0.265048  0.577568  0.578692  1
  Hg  Hg18  1  0.582020  0.582020  0.585095  1
  Hg  Hg19  1  0.582020  0.582020  0.250863  1
  Os  Os20  1  0.137112  0.137112  0.139160  1
  Os  Os21  1  0.137112  0.137112  0.586615  1
  Os  Os22  1  0.136853  0.585811  0.138669  1
  Os  Os23  1  0.585811  0.136853  0.138669  1
