# generated using pymatgen
data_PdPbBr18
_symmetry_space_group_name_H-M   'P 1'
_cell_length_a   9.49018546
_cell_length_b   9.49018366
_cell_length_c   9.49018507
_cell_angle_alpha   94.62804262
_cell_angle_beta   94.62804789
_cell_angle_gamma   94.62804469
_symmetry_Int_Tables_number   1
_chemical_formula_structural   PdPbBr18
_chemical_formula_sum   'Pd1 Pb1 Br18'
_cell_volume   845.87873742
_cell_formula_units_Z   1
loop_
 _symmetry_equiv_pos_site_id
 _symmetry_equiv_pos_as_xyz
  1  'x, y, z'
loop_
 _atom_site_type_symbol
 _atom_site_label
 _atom_site_symmetry_multiplicity
 _atom_site_fract_x
 _atom_site_fract_y
 _atom_site_fract_z
 _atom_site_occupancy
  Pd  Pd0  1  0.000000  0.000000  0.000000  1
  Pb  Pb1  1  0.500000  0.500000  0.500000  1
  Br  Br2  1  0.267945  0.009336  0.024809  1
  Br  Br3  1  0.024809  0.267945  0.009336  1
  Br  Br4  1  0.009336  0.024809  0.267945  1
  Br  Br5  1  0.732055  0.990664  0.975191  1
  Br  Br6  1  0.975191  0.732055  0.990664  1
  Br  Br7  1  0.990664  0.975191  0.732055  1
  Br  Br8  1  0.639218  0.221568  0.093678  1
  Br  Br9  1  0.093678  0.639218  0.221568  1
  Br  Br10  1  0.221568  0.093678  0.639218  1
  Br  Br11  1  0.360782  0.778432  0.906322  1
  Br  Br12  1  0.906322  0.360782  0.778432  1
  Br  Br13  1  0.778432  0.906322  0.360782  1
  Br  Br14  1  0.441808  0.185184  0.537488  1
  Br  Br15  1  0.537488  0.441808  0.185184  1
  Br  Br16  1  0.185184  0.537488  0.441808  1
  Br  Br17  1  0.558192  0.814816  0.462512  1
  Br  Br18  1  0.462512  0.558192  0.814816  1
  Br  Br19  1  0.814816  0.462512  0.558192  1
