# generated using pymatgen
data_La4Sm3Er(SiI6)2
_symmetry_space_group_name_H-M   'P 1'
_cell_length_a   4.42976000
_cell_length_b   14.39807894
_cell_length_c   15.30767700
_cell_angle_alpha   89.77205513
_cell_angle_beta   90.00000000
_cell_angle_gamma   90.00000000
_symmetry_Int_Tables_number   1
_chemical_formula_structural   La4Sm3Er(SiI6)2
_chemical_formula_sum   'La4 Sm3 Er1 Si2 I12'
_cell_volume   976.31643586
_cell_formula_units_Z   1
loop_
 _symmetry_equiv_pos_site_id
 _symmetry_equiv_pos_as_xyz
  1  'x, y, z'
loop_
 _atom_site_type_symbol
 _atom_site_label
 _atom_site_symmetry_multiplicity
 _atom_site_fract_x
 _atom_site_fract_y
 _atom_site_fract_z
 _atom_site_occupancy
  La  La0  1  0.500000  0.118187  0.342199  1
  La  La1  1  0.500000  0.882648  0.656893  1
  La  La2  1  0.500000  0.616072  0.157005  1
  La  La3  1  0.500000  0.382128  0.844139  1
  Sm  Sm4  1  0.000000  0.110237  0.572238  1
  Sm  Sm5  1  0.000000  0.890187  0.427028  1
  Sm  Sm6  1  0.000000  0.608531  0.928296  1
  Er  Er7  1  0.000000  0.392392  0.071055  1
  Si  Si8  1  0.500000  0.000354  0.499424  1
  Si  Si9  1  0.500000  0.497413  0.001638  1
  I  I10  1  0.500000  0.254979  0.156930  1
  I  I11  1  0.500000  0.750634  0.841398  1
  I  I12  1  0.500000  0.748163  0.340720  1
  I  I13  1  0.500000  0.251228  0.659666  1
  I  I14  1  0.000000  0.260872  0.416815  1
  I  I15  1  0.000000  0.739634  0.582705  1
  I  I16  1  0.000000  0.759448  0.082531  1
  I  I17  1  0.000000  0.241208  0.922798  1
  I  I18  1  0.000000  0.995211  0.240969  1
  I  I19  1  0.000000  0.005655  0.758254  1
  I  I20  1  0.000000  0.489466  0.254840  1
  I  I21  1  0.000000  0.505351  0.742459  1
