# generated using pymatgen
data_Zr4Ni4PdAu
_symmetry_space_group_name_H-M   'P 1'
_cell_length_a   7.03427900
_cell_length_b   7.03427900
_cell_length_c   6.71254100
_cell_angle_alpha   90.00000000
_cell_angle_beta   90.00000000
_cell_angle_gamma   90.00000000
_symmetry_Int_Tables_number   1
_chemical_formula_structural   Zr4Ni4PdAu
_chemical_formula_sum   'Zr8 Ni8 Pd2 Au2'
_cell_volume   332.14378527
_cell_formula_units_Z   2
loop_
 _symmetry_equiv_pos_site_id
 _symmetry_equiv_pos_as_xyz
  1  'x, y, z'
loop_
 _atom_site_type_symbol
 _atom_site_label
 _atom_site_symmetry_multiplicity
 _atom_site_fract_x
 _atom_site_fract_y
 _atom_site_fract_z
 _atom_site_occupancy
  Zr  Zr0  1  0.181004  0.191323  0.000000  1
  Zr  Zr1  1  0.691323  0.318996  0.500000  1
  Zr  Zr2  1  0.308677  0.681004  0.500000  1
  Zr  Zr3  1  0.818996  0.808677  0.000000  1
  Zr  Zr4  1  0.670224  0.339681  0.000000  1
  Zr  Zr5  1  0.839681  0.829776  0.500000  1
  Zr  Zr6  1  0.160319  0.170224  0.500000  1
  Zr  Zr7  1  0.329776  0.660319  0.000000  1
  Ni  Ni8  1  0.376137  0.375956  0.274224  1
  Ni  Ni9  1  0.875956  0.123863  0.774224  1
  Ni  Ni10  1  0.124044  0.876137  0.774224  1
  Ni  Ni11  1  0.623863  0.624044  0.274224  1
  Ni  Ni12  1  0.124044  0.876137  0.225776  1
  Ni  Ni13  1  0.875956  0.123863  0.225776  1
  Ni  Ni14  1  0.376137  0.375956  0.725776  1
  Ni  Ni15  1  0.623863  0.624044  0.725776  1
  Pd  Pd16  1  0.000000  0.500000  0.250000  1
  Pd  Pd17  1  0.000000  0.500000  0.750000  1
  Au  Au18  1  0.500000  0.000000  0.250000  1
  Au  Au19  1  0.500000  0.000000  0.750000  1
