# generated using pymatgen
data_HS11
_symmetry_space_group_name_H-M   'P 1'
_cell_length_a   4.63296341
_cell_length_b   9.88984629
_cell_length_c   15.68862231
_cell_angle_alpha   89.91140445
_cell_angle_beta   88.87217757
_cell_angle_gamma   90.59364319
_symmetry_Int_Tables_number   1
_chemical_formula_structural   HS11
_chemical_formula_sum   'H2 S22'
_cell_volume   718.66269137
_cell_formula_units_Z   2
loop_
 _symmetry_equiv_pos_site_id
 _symmetry_equiv_pos_as_xyz
  1  'x, y, z'
loop_
 _atom_site_type_symbol
 _atom_site_label
 _atom_site_symmetry_multiplicity
 _atom_site_fract_x
 _atom_site_fract_y
 _atom_site_fract_z
 _atom_site_occupancy
  H  H0  1  0.512008  0.171420  0.439295  1
  H  H1  1  0.505387  0.831768  0.440587  1
  S  S2  1  0.007778  0.300447  0.108381  1
  S  S3  1  0.728895  0.205465  0.492215  1
  S  S4  1  0.285187  0.787152  0.491836  1
  S  S5  1  0.240140  0.261091  0.997566  1
  S  S6  1  0.755409  0.742514  0.996890  1
  S  S7  1  0.155270  0.430795  0.354312  1
  S  S8  1  0.824856  0.573186  0.351200  1
  S  S9  1  0.766333  0.131650  0.143232  1
  S  S10  1  0.228750  0.870577  0.135880  1
  S  S11  1  0.731792  0.634810  0.627804  1
  S  S12  1  0.271726  0.366664  0.627310  1
  S  S13  1  0.241117  0.871657  0.857520  1
  S  S14  1  0.767964  0.125134  0.861801  1
  S  S15  1  0.984494  0.701933  0.105502  1
  S  S16  1  0.489057  0.804748  0.607000  1
  S  S17  1  0.500705  0.191962  0.606389  1
  S  S18  1  0.000425  0.701109  0.888779  1
  S  S19  1  0.997695  0.298552  0.891099  1
  S  S20  1  0.495310  0.498401  0.274021  1
  S  S21  1  0.003587  0.999967  0.215708  1
  S  S22  1  0.500363  0.498873  0.703318  1
  S  S23  1  0.005753  0.000119  0.782355  1
