# generated using pymatgen
data_Er2Co12Si6Ge
_symmetry_space_group_name_H-M   'P 1'
_cell_length_a   9.19471400
_cell_length_b   9.19471308
_cell_length_c   3.62204200
_cell_angle_alpha   90.00000000
_cell_angle_beta   90.00000000
_cell_angle_gamma   119.99998891
_symmetry_Int_Tables_number   1
_chemical_formula_structural   Er2Co12Si6Ge
_chemical_formula_sum   'Er2 Co12 Si6 Ge1'
_cell_volume   265.19209187
_cell_formula_units_Z   1
loop_
 _symmetry_equiv_pos_site_id
 _symmetry_equiv_pos_as_xyz
  1  'x, y, z'
loop_
 _atom_site_type_symbol
 _atom_site_label
 _atom_site_symmetry_multiplicity
 _atom_site_fract_x
 _atom_site_fract_y
 _atom_site_fract_z
 _atom_site_occupancy
  Er  Er0  1  0.666667  0.333333  0.500000  1
  Er  Er1  1  0.333333  0.666667  0.000000  1
  Co  Co2  1  0.128273  0.846037  0.000000  1
  Co  Co3  1  0.382242  0.434222  0.500000  1
  Co  Co4  1  0.717764  0.871727  0.000000  1
  Co  Co5  1  0.565778  0.948020  0.500000  1
  Co  Co6  1  0.238394  0.109611  0.500000  1
  Co  Co7  1  0.871215  0.761606  0.500000  1
  Co  Co8  1  0.890389  0.128785  0.500000  1
  Co  Co9  1  0.943077  0.379761  0.000000  1
  Co  Co10  1  0.620239  0.563315  0.000000  1
  Co  Co11  1  0.436685  0.056923  0.000000  1
  Co  Co12  1  0.051980  0.617758  0.500000  1
  Co  Co13  1  0.153963  0.282236  0.000000  1
  Si  Si14  1  0.598138  0.707388  0.500000  1
  Si  Si15  1  0.712568  0.112769  0.000000  1
  Si  Si16  1  0.887231  0.599799  0.000000  1
  Si  Si17  1  0.400201  0.287432  0.000000  1
  Si  Si18  1  0.292612  0.890750  0.500000  1
  Si  Si19  1  0.109250  0.401862  0.500000  1
  Ge  Ge20  1  0.000000  0.000000  0.000000  1
