# generated using pymatgen
data_NaSc(SiAu)2
_symmetry_space_group_name_H-M   'P 1'
_cell_length_a   4.39580700
_cell_length_b   4.39580629
_cell_length_c   6.91639900
_cell_angle_alpha   90.00000000
_cell_angle_beta   90.00000000
_cell_angle_gamma   119.99999782
_symmetry_Int_Tables_number   1
_chemical_formula_structural   NaSc(SiAu)2
_chemical_formula_sum   'Na1 Sc1 Si2 Au2'
_cell_volume   115.74116324
_cell_formula_units_Z   1
loop_
 _symmetry_equiv_pos_site_id
 _symmetry_equiv_pos_as_xyz
  1  'x, y, z'
loop_
 _atom_site_type_symbol
 _atom_site_label
 _atom_site_symmetry_multiplicity
 _atom_site_fract_x
 _atom_site_fract_y
 _atom_site_fract_z
 _atom_site_occupancy
  Na  Na0  1  0.666667  0.333333  0.000000  1
  Sc  Sc1  1  0.666667  0.333333  0.500000  1
  Si  Si2  1  0.000000  0.000000  0.688858  1
  Si  Si3  1  0.000000  0.000000  0.311142  1
  Au  Au4  1  0.333333  0.666667  0.272267  1
  Au  Au5  1  0.333333  0.666667  0.727733  1
