# generated using pymatgen
data_Er2Re2Si2B
_symmetry_space_group_name_H-M   'P 1'
_cell_length_a   5.74961124
_cell_length_b   5.74961008
_cell_length_c   6.85227065
_cell_angle_alpha   56.89767646
_cell_angle_beta   56.89769246
_cell_angle_gamma   41.11513884
_symmetry_Int_Tables_number   1
_chemical_formula_structural   Er2Re2Si2B
_chemical_formula_sum   'Er2 Re2 Si2 B1'
_cell_volume   120.99226446
_cell_formula_units_Z   1
loop_
 _symmetry_equiv_pos_site_id
 _symmetry_equiv_pos_as_xyz
  1  'x, y, z'
loop_
 _atom_site_type_symbol
 _atom_site_label
 _atom_site_symmetry_multiplicity
 _atom_site_fract_x
 _atom_site_fract_y
 _atom_site_fract_z
 _atom_site_occupancy
  Er  Er0  1  0.423609  0.423609  0.303655  1
  Er  Er1  1  0.576391  0.576391  0.696345  1
  Re  Re2  1  0.782747  0.782747  0.093162  1
  Re  Re3  1  0.217253  0.217253  0.906838  1
  Si  Si4  1  0.863298  0.863298  0.670720  1
  Si  Si5  1  0.136702  0.136702  0.329280  1
  B  B6  1  0.000000  0.000000  0.000000  1
