# generated using pymatgen
data_Zr2Be8ReRh
_symmetry_space_group_name_H-M   'P 1'
_cell_length_a   4.52569100
_cell_length_b   4.52569142
_cell_length_c   7.51798700
_cell_angle_alpha   90.00000000
_cell_angle_beta   90.00000000
_cell_angle_gamma   120.00001882
_symmetry_Int_Tables_number   1
_chemical_formula_structural   Zr2Be8ReRh
_chemical_formula_sum   'Zr2 Be8 Re1 Rh1'
_cell_volume   133.35274418
_cell_formula_units_Z   1
loop_
 _symmetry_equiv_pos_site_id
 _symmetry_equiv_pos_as_xyz
  1  'x, y, z'
loop_
 _atom_site_type_symbol
 _atom_site_label
 _atom_site_symmetry_multiplicity
 _atom_site_fract_x
 _atom_site_fract_y
 _atom_site_fract_z
 _atom_site_occupancy
  Zr  Zr0  1  0.333333  0.666667  0.061409  1
  Zr  Zr1  1  0.666667  0.333333  0.566085  1
  Be  Be2  1  0.000000  0.000000  0.993953  1
  Be  Be3  1  0.000000  0.000000  0.501987  1
  Be  Be4  1  0.833772  0.667544  0.257537  1
  Be  Be5  1  0.167291  0.832709  0.747998  1
  Be  Be6  1  0.665417  0.832709  0.747998  1
  Be  Be7  1  0.332456  0.166228  0.257537  1
  Be  Be8  1  0.833772  0.166228  0.257537  1
  Be  Be9  1  0.167291  0.334583  0.747998  1
  Re  Re10  1  0.333333  0.666667  0.431188  1
  Rh  Rh11  1  0.666667  0.333333  0.928774  1
