# generated using pymatgen
data_Er10Zn3Fe
_symmetry_space_group_name_H-M   'P 1'
_cell_length_a   9.24649900
_cell_length_b   9.24649872
_cell_length_c   9.48445000
_cell_angle_alpha   90.00000000
_cell_angle_beta   90.00000000
_cell_angle_gamma   119.99999741
_symmetry_Int_Tables_number   1
_chemical_formula_structural   Er10Zn3Fe
_chemical_formula_sum   'Er20 Zn6 Fe2'
_cell_volume   702.25919689
_cell_formula_units_Z   2
loop_
 _symmetry_equiv_pos_site_id
 _symmetry_equiv_pos_as_xyz
  1  'x, y, z'
loop_
 _atom_site_type_symbol
 _atom_site_label
 _atom_site_symmetry_multiplicity
 _atom_site_fract_x
 _atom_site_fract_y
 _atom_site_fract_z
 _atom_site_occupancy
  Er  Er0  1  0.000000  0.000000  0.500000  1
  Er  Er1  1  0.000000  0.000000  0.000000  1
  Er  Er2  1  0.541567  0.458433  0.250000  1
  Er  Er3  1  0.541567  0.083134  0.250000  1
  Er  Er4  1  0.916866  0.458433  0.250000  1
  Er  Er5  1  0.458433  0.541567  0.750000  1
  Er  Er6  1  0.458433  0.916866  0.750000  1
  Er  Er7  1  0.083134  0.541567  0.750000  1
  Er  Er8  1  0.209615  0.790385  0.437555  1
  Er  Er9  1  0.209615  0.419232  0.437555  1
  Er  Er10  1  0.580768  0.790385  0.437555  1
  Er  Er11  1  0.790385  0.209615  0.562445  1
  Er  Er12  1  0.790385  0.580768  0.562445  1
  Er  Er13  1  0.419232  0.209615  0.562445  1
  Er  Er14  1  0.790385  0.209615  0.937555  1
  Er  Er15  1  0.790385  0.580768  0.937555  1
  Er  Er16  1  0.419232  0.209615  0.937555  1
  Er  Er17  1  0.209615  0.790385  0.062445  1
  Er  Er18  1  0.209615  0.419232  0.062445  1
  Er  Er19  1  0.580768  0.790385  0.062445  1
  Zn  Zn20  1  0.885877  0.114123  0.250000  1
  Zn  Zn21  1  0.885877  0.771755  0.250000  1
  Zn  Zn22  1  0.228245  0.114123  0.250000  1
  Zn  Zn23  1  0.114123  0.885877  0.750000  1
  Zn  Zn24  1  0.114123  0.228245  0.750000  1
  Zn  Zn25  1  0.771755  0.885877  0.750000  1
  Fe  Fe26  1  0.333333  0.666667  0.250000  1
  Fe  Fe27  1  0.666667  0.333333  0.750000  1
