# generated using pymatgen
data_Sm5YNiCl10
_symmetry_space_group_name_H-M   'P 1'
_cell_length_a   7.20563206
_cell_length_b   9.02944941
_cell_length_c   9.07428360
_cell_angle_alpha   109.42393112
_cell_angle_beta   96.09451019
_cell_angle_gamma   106.16390551
_symmetry_Int_Tables_number   1
_chemical_formula_structural   Sm5YNiCl10
_chemical_formula_sum   'Sm5 Y1 Ni1 Cl10'
_cell_volume   521.75335950
_cell_formula_units_Z   1
loop_
 _symmetry_equiv_pos_site_id
 _symmetry_equiv_pos_as_xyz
  1  'x, y, z'
loop_
 _atom_site_type_symbol
 _atom_site_label
 _atom_site_symmetry_multiplicity
 _atom_site_fract_x
 _atom_site_fract_y
 _atom_site_fract_z
 _atom_site_occupancy
  Sm  Sm0  1  0.137803  0.054003  0.755127  1
  Sm  Sm1  1  0.858407  0.943906  0.244695  1
  Sm  Sm2  1  0.968604  0.304958  0.103060  1
  Sm  Sm3  1  0.028655  0.694297  0.895179  1
  Sm  Sm4  1  0.362955  0.140304  0.189659  1
  Y  Y5  1  0.640077  0.862991  0.814487  1
  Ni  Ni6  1  0.999767  0.999826  0.001174  1
  Cl  Cl7  1  0.550825  0.169821  0.923254  1
  Cl  Cl8  1  0.450646  0.826680  0.071715  1
  Cl  Cl9  1  0.351676  0.454036  0.268856  1
  Cl  Cl10  1  0.645448  0.553070  0.727712  1
  Cl  Cl11  1  0.236472  0.074222  0.448368  1
  Cl  Cl12  1  0.758111  0.920773  0.554560  1
  Cl  Cl13  1  0.785667  0.250228  0.347201  1
  Cl  Cl14  1  0.228728  0.753394  0.658536  1
  Cl  Cl15  1  0.084834  0.365797  0.835120  1
  Cl  Cl16  1  0.911324  0.631694  0.161297  1
