# generated using pymatgen
data_Yb6Co13GeC4
_symmetry_space_group_name_H-M   'P 1'
_cell_length_a   5.10249600
_cell_length_b   5.10249463
_cell_length_c   13.45839800
_cell_angle_alpha   90.00000000
_cell_angle_beta   90.00000000
_cell_angle_gamma   120.00002184
_symmetry_Int_Tables_number   1
_chemical_formula_structural   Yb6Co13GeC4
_chemical_formula_sum   'Yb6 Co13 Ge1 C4'
_cell_volume   303.45139112
_cell_formula_units_Z   1
loop_
 _symmetry_equiv_pos_site_id
 _symmetry_equiv_pos_as_xyz
  1  'x, y, z'
loop_
 _atom_site_type_symbol
 _atom_site_label
 _atom_site_symmetry_multiplicity
 _atom_site_fract_x
 _atom_site_fract_y
 _atom_site_fract_z
 _atom_site_occupancy
  Yb  Yb0  1  0.666667  0.333333  0.535086  1
  Yb  Yb1  1  0.333333  0.666667  0.464914  1
  Yb  Yb2  1  0.333333  0.666667  0.037751  1
  Yb  Yb3  1  0.666667  0.333333  0.749432  1
  Yb  Yb4  1  0.666667  0.333333  0.962249  1
  Yb  Yb5  1  0.333333  0.666667  0.250568  1
  Co  Co6  1  0.166357  0.332713  0.654693  1
  Co  Co7  1  0.332713  0.166357  0.345307  1
  Co  Co8  1  0.331684  0.165842  0.154975  1
  Co  Co9  1  0.165842  0.834158  0.845025  1
  Co  Co10  1  0.833643  0.667287  0.345307  1
  Co  Co11  1  0.834158  0.165842  0.154975  1
  Co  Co12  1  0.667287  0.833643  0.654693  1
  Co  Co13  1  0.668316  0.834158  0.845025  1
  Co  Co14  1  0.166357  0.833643  0.654693  1
  Co  Co15  1  0.834158  0.668316  0.154975  1
  Co  Co16  1  0.165842  0.331684  0.845025  1
  Co  Co17  1  0.833643  0.166357  0.345307  1
  Co  Co18  1  0.000000  0.000000  0.500000  1
  Ge  Ge19  1  0.000000  0.000000  0.000000  1
  C  C20  1  0.666667  0.333333  0.247584  1
  C  C21  1  0.000000  0.000000  0.750114  1
  C  C22  1  0.333333  0.666667  0.752416  1
  C  C23  1  0.000000  0.000000  0.249886  1
