# generated using pymatgen
data_Lu5Mg3(P3Ir4)4
_symmetry_space_group_name_H-M   'P 1'
_cell_length_a   12.76709200
_cell_length_b   12.76709113
_cell_length_c   3.95552900
_cell_angle_alpha   90.00000000
_cell_angle_beta   90.00000000
_cell_angle_gamma   120.00000225
_symmetry_Int_Tables_number   1
_chemical_formula_structural   Lu5Mg3(P3Ir4)4
_chemical_formula_sum   'Lu5 Mg3 P12 Ir16'
_cell_volume   558.36622579
_cell_formula_units_Z   1
loop_
 _symmetry_equiv_pos_site_id
 _symmetry_equiv_pos_as_xyz
  1  'x, y, z'
loop_
 _atom_site_type_symbol
 _atom_site_label
 _atom_site_symmetry_multiplicity
 _atom_site_fract_x
 _atom_site_fract_y
 _atom_site_fract_z
 _atom_site_occupancy
  Lu  Lu0  1  0.333333  0.666667  0.500000  1
  Lu  Lu1  1  0.666667  0.333333  0.500000  1
  Lu  Lu2  1  0.000000  0.809636  0.000000  1
  Lu  Lu3  1  0.190364  0.190364  0.000000  1
  Lu  Lu4  1  0.809636  0.000000  0.000000  1
  Mg  Mg5  1  0.000000  0.444641  0.500000  1
  Mg  Mg6  1  0.555359  0.555359  0.500000  1
  Mg  Mg7  1  0.444641  0.000000  0.500000  1
  P  P8  1  0.000000  0.642403  0.500000  1
  P  P9  1  0.357597  0.357597  0.500000  1
  P  P10  1  0.642403  0.000000  0.500000  1
  P  P11  1  0.515361  0.688188  0.000000  1
  P  P12  1  0.311812  0.827173  0.000000  1
  P  P13  1  0.172827  0.484639  0.000000  1
  P  P14  1  0.484639  0.172827  0.000000  1
  P  P15  1  0.688188  0.515361  0.000000  1
  P  P16  1  0.827173  0.311812  0.000000  1
  P  P17  1  0.000000  0.176410  0.500000  1
  P  P18  1  0.823590  0.823590  0.500000  1
  P  P19  1  0.176410  0.000000  0.500000  1
  Ir  Ir20  1  0.507446  0.866836  0.000000  1
  Ir  Ir21  1  0.133164  0.640610  0.000000  1
  Ir  Ir22  1  0.359390  0.492554  0.000000  1
  Ir  Ir23  1  0.492554  0.359390  0.000000  1
  Ir  Ir24  1  0.866836  0.507446  0.000000  1
  Ir  Ir25  1  0.640610  0.133164  0.000000  1
  Ir  Ir26  1  0.000000  0.278187  0.000000  1
  Ir  Ir27  1  0.721813  0.721813  0.000000  1
  Ir  Ir28  1  0.278187  0.000000  0.000000  1
  Ir  Ir29  1  0.629481  0.808315  0.500000  1
  Ir  Ir30  1  0.191685  0.821166  0.500000  1
  Ir  Ir31  1  0.178834  0.370519  0.500000  1
  Ir  Ir32  1  0.370519  0.178834  0.500000  1
  Ir  Ir33  1  0.808315  0.629481  0.500000  1
  Ir  Ir34  1  0.821166  0.191685  0.500000  1
  Ir  Ir35  1  0.000000  0.000000  0.500000  1
