# generated using pymatgen
data_La8SiPtBr12
_symmetry_space_group_name_H-M   'P 1'
_cell_length_a   4.35344000
_cell_length_b   13.95466130
_cell_length_c   14.77463524
_cell_angle_alpha   89.59377509
_cell_angle_beta   90.00000000
_cell_angle_gamma   90.00000000
_symmetry_Int_Tables_number   1
_chemical_formula_structural   La8SiPtBr12
_chemical_formula_sum   'La8 Si1 Pt1 Br12'
_cell_volume   897.54806612
_cell_formula_units_Z   1
loop_
 _symmetry_equiv_pos_site_id
 _symmetry_equiv_pos_as_xyz
  1  'x, y, z'
loop_
 _atom_site_type_symbol
 _atom_site_label
 _atom_site_symmetry_multiplicity
 _atom_site_fract_x
 _atom_site_fract_y
 _atom_site_fract_z
 _atom_site_occupancy
  La  La0  1  0.500000  0.118821  0.340056  1
  La  La1  1  0.500000  0.881179  0.659944  1
  La  La2  1  0.500000  0.619586  0.161089  1
  La  La3  1  0.500000  0.380414  0.838911  1
  La  La4  1  0.000000  0.119826  0.579525  1
  La  La5  1  0.000000  0.880174  0.420475  1
  La  La6  1  0.000000  0.620060  0.920436  1
  La  La7  1  0.000000  0.379940  0.079564  1
  Si  Si8  1  0.500000  0.500000  0.000000  1
  Pt  Pt9  1  0.500000  0.000000  0.500000  1
  Br  Br10  1  0.500000  0.243798  0.163009  1
  Br  Br11  1  0.500000  0.756202  0.836991  1
  Br  Br12  1  0.500000  0.743230  0.336730  1
  Br  Br13  1  0.500000  0.256770  0.663270  1
  Br  Br14  1  0.000000  0.253671  0.410699  1
  Br  Br15  1  0.000000  0.746329  0.589301  1
  Br  Br16  1  0.000000  0.753152  0.088970  1
  Br  Br17  1  0.000000  0.246848  0.911030  1
  Br  Br18  1  0.000000  0.002539  0.244540  1
  Br  Br19  1  0.000000  0.997461  0.755460  1
  Br  Br20  1  0.000000  0.502362  0.254812  1
  Br  Br21  1  0.000000  0.497638  0.745188  1
