# generated using pymatgen
data_La5Ga2SiH
_symmetry_space_group_name_H-M   'P 1'
_cell_length_a   9.13728711
_cell_length_b   9.13728725
_cell_length_c   9.22629294
_cell_angle_alpha   127.75989093
_cell_angle_beta   127.75988869
_cell_angle_gamma   76.31184131
_symmetry_Int_Tables_number   1
_chemical_formula_structural   La5Ga2SiH
_chemical_formula_sum   'La10 Ga4 Si2 H2'
_cell_volume   469.51598442
_cell_formula_units_Z   2
loop_
 _symmetry_equiv_pos_site_id
 _symmetry_equiv_pos_as_xyz
  1  'x, y, z'
loop_
 _atom_site_type_symbol
 _atom_site_label
 _atom_site_symmetry_multiplicity
 _atom_site_fract_x
 _atom_site_fract_y
 _atom_site_fract_z
 _atom_site_occupancy
  La  La0  1  0.500000  0.500000  0.000000  1
  La  La1  1  0.000000  0.000000  0.000000  1
  La  La2  1  0.514978  0.014978  0.833139  1
  La  La3  1  0.181840  0.681840  0.166861  1
  La  La4  1  0.030666  0.170034  0.500000  1
  La  La5  1  0.670034  0.530666  0.500000  1
  La  La6  1  0.485022  0.985022  0.166861  1
  La  La7  1  0.818160  0.318160  0.833139  1
  La  La8  1  0.969334  0.829966  0.500000  1
  La  La9  1  0.329966  0.469334  0.500000  1
  Ga  Ga10  1  0.250000  0.250000  0.000000  1
  Ga  Ga11  1  0.750000  0.750000  0.000000  1
  Ga  Ga12  1  0.883232  0.383232  0.266463  1
  Ga  Ga13  1  0.116768  0.616768  0.733537  1
  Si  Si14  1  0.389252  0.110748  0.500000  1
  Si  Si15  1  0.610748  0.889252  0.500000  1
  H  H16  1  0.247629  0.747629  0.500000  1
  H  H17  1  0.752371  0.252371  0.500000  1
