# generated using pymatgen
data_LaTbDyZn2(GaPt2)2
_symmetry_space_group_name_H-M   'P 1'
_cell_length_a   8.29473794
_cell_length_b   8.29473880
_cell_length_c   8.29473800
_cell_angle_alpha   151.69679964
_cell_angle_beta   125.80450863
_cell_angle_gamma   62.25920375
_symmetry_Int_Tables_number   1
_chemical_formula_structural   LaTbDyZn2(GaPt2)2
_chemical_formula_sum   'La1 Tb1 Dy1 Zn2 Ga2 Pt4'
_cell_volume   217.61953515
_cell_formula_units_Z   1
loop_
 _symmetry_equiv_pos_site_id
 _symmetry_equiv_pos_as_xyz
  1  'x, y, z'
loop_
 _atom_site_type_symbol
 _atom_site_label
 _atom_site_symmetry_multiplicity
 _atom_site_fract_x
 _atom_site_fract_y
 _atom_site_fract_z
 _atom_site_occupancy
  La  La0  1  0.498096  0.998096  0.500000  1
  Tb  Tb1  1  0.876272  0.876272  0.000000  1
  Dy  Dy2  1  0.123531  0.123531  0.000000  1
  Zn  Zn3  1  0.125811  0.326207  0.799604  1
  Zn  Zn4  1  0.526602  0.326207  0.200396  1
  Ga  Ga5  1  0.473411  0.676606  0.796805  1
  Ga  Ga6  1  0.879801  0.676606  0.203195  1
  Pt  Pt7  1  0.275568  0.775568  0.500000  1
  Pt  Pt8  1  0.717346  0.217346  0.500000  1
  Pt  Pt9  1  0.806546  0.501781  0.304766  1
  Pt  Pt10  1  0.197015  0.501781  0.695234  1
