# generated using pymatgen
data_Y3TlCd3AgAu
_symmetry_space_group_name_H-M   'P 1'
_cell_length_a   7.95662800
_cell_length_b   7.95662715
_cell_length_c   3.96853700
_cell_angle_alpha   90.00000000
_cell_angle_beta   90.00000000
_cell_angle_gamma   120.00000352
_symmetry_Int_Tables_number   1
_chemical_formula_structural   Y3TlCd3AgAu
_chemical_formula_sum   'Y3 Tl1 Cd3 Ag1 Au1'
_cell_volume   217.58006963
_cell_formula_units_Z   1
loop_
 _symmetry_equiv_pos_site_id
 _symmetry_equiv_pos_as_xyz
  1  'x, y, z'
loop_
 _atom_site_type_symbol
 _atom_site_label
 _atom_site_symmetry_multiplicity
 _atom_site_fract_x
 _atom_site_fract_y
 _atom_site_fract_z
 _atom_site_occupancy
  Y  Y0  1  0.602795  0.017282  0.000000  1
  Y  Y1  1  0.982718  0.585513  0.000000  1
  Y  Y2  1  0.414487  0.397205  0.000000  1
  Tl  Tl3  1  0.333333  0.666667  0.500000  1
  Cd  Cd4  1  0.260318  0.003681  0.500000  1
  Cd  Cd5  1  0.996319  0.256638  0.500000  1
  Cd  Cd6  1  0.743362  0.739682  0.500000  1
  Ag  Ag7  1  0.000000  0.000000  0.000000  1
  Au  Au8  1  0.666667  0.333333  0.500000  1
