# generated using pymatgen
data_Ce4YOsPb3
_symmetry_space_group_name_H-M   'P 1'
_cell_length_a   9.60863100
_cell_length_b   9.60863168
_cell_length_c   6.34585500
_cell_angle_alpha   90.00000000
_cell_angle_beta   90.00000000
_cell_angle_gamma   119.33728095
_symmetry_Int_Tables_number   1
_chemical_formula_structural   Ce4YOsPb3
_chemical_formula_sum   'Ce8 Y2 Os2 Pb6'
_cell_volume   510.74660745
_cell_formula_units_Z   2
loop_
 _symmetry_equiv_pos_site_id
 _symmetry_equiv_pos_as_xyz
  1  'x, y, z'
loop_
 _atom_site_type_symbol
 _atom_site_label
 _atom_site_symmetry_multiplicity
 _atom_site_fract_x
 _atom_site_fract_y
 _atom_site_fract_z
 _atom_site_occupancy
  Ce  Ce0  1  0.236926  0.001525  0.250000  1
  Ce  Ce1  1  0.763074  0.998475  0.750000  1
  Ce  Ce2  1  0.331758  0.668242  0.500000  1
  Ce  Ce3  1  0.668242  0.331758  0.500000  1
  Ce  Ce4  1  0.001525  0.236926  0.250000  1
  Ce  Ce5  1  0.998475  0.763074  0.750000  1
  Ce  Ce6  1  0.331758  0.668242  0.000000  1
  Ce  Ce7  1  0.668242  0.331758  0.000000  1
  Y  Y8  1  0.249989  0.249989  0.750000  1
  Y  Y9  1  0.750011  0.750011  0.250000  1
  Os  Os10  1  0.000000  0.000000  0.000000  1
  Os  Os11  1  0.000000  0.000000  0.500000  1
  Pb  Pb12  1  0.399013  0.399013  0.250000  1
  Pb  Pb13  1  0.600987  0.600987  0.750000  1
  Pb  Pb14  1  0.002496  0.396740  0.750000  1
  Pb  Pb15  1  0.603260  0.997504  0.250000  1
  Pb  Pb16  1  0.396740  0.002496  0.750000  1
  Pb  Pb17  1  0.997504  0.603260  0.250000  1
