# generated using pymatgen
data_Na4Ga5Pd9
_symmetry_space_group_name_H-M   'P 1'
_cell_length_a   5.70429899
_cell_length_b   5.70429908
_cell_length_c   12.21959084
_cell_angle_alpha   76.50220046
_cell_angle_beta   76.50219725
_cell_angle_gamma   60.00000410
_symmetry_Int_Tables_number   1
_chemical_formula_structural   Na4Ga5Pd9
_chemical_formula_sum   'Na4 Ga5 Pd9'
_cell_volume   331.60133844
_cell_formula_units_Z   1
loop_
 _symmetry_equiv_pos_site_id
 _symmetry_equiv_pos_as_xyz
  1  'x, y, z'
loop_
 _atom_site_type_symbol
 _atom_site_label
 _atom_site_symmetry_multiplicity
 _atom_site_fract_x
 _atom_site_fract_y
 _atom_site_fract_z
 _atom_site_occupancy
  Na  Na0  1  0.950660  0.950660  0.148019  1
  Na  Na1  1  0.049340  0.049340  0.851981  1
  Na  Na2  1  0.853698  0.853698  0.438908  1
  Na  Na3  1  0.146302  0.146302  0.561092  1
  Ga  Ga4  1  0.500000  0.500000  0.500000  1
  Ga  Ga5  1  0.722420  0.722420  0.832740  1
  Ga  Ga6  1  0.277580  0.277580  0.167260  1
  Ga  Ga7  1  0.610628  0.610628  0.168117  1
  Ga  Ga8  1  0.389372  0.389372  0.831883  1
  Pd  Pd9  1  0.000000  0.500000  0.000000  1
  Pd  Pd10  1  0.500000  0.000000  0.000000  1
  Pd  Pd11  1  0.500000  0.500000  0.000000  1
  Pd  Pd12  1  0.388762  0.388762  0.331041  1
  Pd  Pd13  1  0.891436  0.388762  0.331041  1
  Pd  Pd14  1  0.388762  0.891436  0.331041  1
  Pd  Pd15  1  0.611238  0.611238  0.668959  1
  Pd  Pd16  1  0.108564  0.611238  0.668959  1
  Pd  Pd17  1  0.611238  0.108564  0.668959  1
