# generated using pymatgen
data_Ti8Ga15Rh7
_symmetry_space_group_name_H-M   'P 1'
_cell_length_a   8.67903269
_cell_length_b   8.67903172
_cell_length_c   8.67903260
_cell_angle_alpha   120.35913906
_cell_angle_beta   119.84811319
_cell_angle_gamma   89.82118074
_symmetry_Int_Tables_number   1
_chemical_formula_structural   Ti8Ga15Rh7
_chemical_formula_sum   'Ti8 Ga15 Rh7'
_cell_volume   461.53539642
_cell_formula_units_Z   1
loop_
 _symmetry_equiv_pos_site_id
 _symmetry_equiv_pos_as_xyz
  1  'x, y, z'
loop_
 _atom_site_type_symbol
 _atom_site_label
 _atom_site_symmetry_multiplicity
 _atom_site_fract_x
 _atom_site_fract_y
 _atom_site_fract_z
 _atom_site_occupancy
  Ti  Ti0  1  0.792063  0.286179  0.067884  1
  Ti  Ti1  1  0.218295  0.286179  0.494117  1
  Ti  Ti2  1  0.205838  0.705838  0.500000  1
  Ti  Ti3  1  0.218295  0.724178  0.932116  1
  Ti  Ti4  1  0.792063  0.724178  0.505883  1
  Ti  Ti5  1  0.778224  0.278224  0.500000  1
  Ti  Ti6  1  0.377520  0.123718  0.746198  1
  Ti  Ti7  1  0.377520  0.631322  0.253802  1
  Ga  Ga8  1  0.993243  0.493243  0.500000  1
  Ga  Ga9  1  0.151645  0.351328  0.199682  1
  Ga  Ga10  1  0.151645  0.951962  0.800318  1
  Ga  Ga11  1  0.149882  0.353669  0.796213  1
  Ga  Ga12  1  0.557455  0.353669  0.203787  1
  Ga  Ga13  1  0.850620  0.648156  0.797537  1
  Ga  Ga14  1  0.850620  0.053083  0.202463  1
  Ga  Ga15  1  0.848407  0.649265  0.199142  1
  Ga  Ga16  1  0.450123  0.649265  0.800858  1
  Ga  Ga17  1  0.376725  0.124038  0.252687  1
  Ga  Ga18  1  0.871351  0.124038  0.747313  1
  Ga  Ga19  1  0.620041  0.870829  0.250787  1
  Ga  Ga20  1  0.620041  0.369254  0.749213  1
  Ga  Ga21  1  0.614165  0.875571  0.738594  1
  Ga  Ga22  1  0.136977  0.875571  0.261406  1
  Rh  Rh23  1  0.002004  0.001939  0.502989  1
  Rh  Rh24  1  0.498950  0.001939  0.999935  1
  Rh  Rh25  1  0.496502  0.496502  0.000000  1
  Rh  Rh26  1  0.498950  0.499015  0.497011  1
  Rh  Rh27  1  0.002004  0.499015  0.000065  1
  Rh  Rh28  1  0.999064  0.999064  0.000000  1
  Rh  Rh29  1  0.499765  0.999765  0.500000  1
