# generated using pymatgen
data_Ho8MgCdPdPt
_symmetry_space_group_name_H-M   'P 1'
_cell_length_a   9.68963511
_cell_length_b   9.68963621
_cell_length_c   9.68802300
_cell_angle_alpha   60.00550382
_cell_angle_beta   60.00550007
_cell_angle_gamma   59.91166013
_symmetry_Int_Tables_number   1
_chemical_formula_structural   Ho8MgCdPdPt
_chemical_formula_sum   'Ho16 Mg2 Cd2 Pd2 Pt2'
_cell_volume   642.80661236
_cell_formula_units_Z   2
loop_
 _symmetry_equiv_pos_site_id
 _symmetry_equiv_pos_as_xyz
  1  'x, y, z'
loop_
 _atom_site_type_symbol
 _atom_site_label
 _atom_site_symmetry_multiplicity
 _atom_site_fract_x
 _atom_site_fract_y
 _atom_site_fract_z
 _atom_site_occupancy
  Ho  Ho0  1  0.602462  0.602462  0.598401  1
  Ho  Ho1  1  0.602462  0.602462  0.196676  1
  Ho  Ho2  1  0.605195  0.192088  0.601358  1
  Ho  Ho3  1  0.192088  0.605195  0.601358  1
  Ho  Ho4  1  0.059795  0.439560  0.438804  1
  Ho  Ho5  1  0.439560  0.059795  0.061841  1
  Ho  Ho6  1  0.439560  0.059795  0.438804  1
  Ho  Ho7  1  0.059795  0.439560  0.061841  1
  Ho  Ho8  1  0.441367  0.441367  0.058633  1
  Ho  Ho9  1  0.062266  0.062266  0.437734  1
  Ho  Ho10  1  0.186211  0.816419  0.814850  1
  Ho  Ho11  1  0.816419  0.186211  0.182519  1
  Ho  Ho12  1  0.816419  0.186211  0.814850  1
  Ho  Ho13  1  0.186211  0.816419  0.182519  1
  Ho  Ho14  1  0.817895  0.817895  0.182105  1
  Ho  Ho15  1  0.185270  0.185270  0.814730  1
  Mg  Mg16  1  0.827149  0.827149  0.832094  1
  Mg  Mg17  1  0.827149  0.827149  0.513610  1
  Cd  Cd18  1  0.831127  0.503161  0.832856  1
  Cd  Cd19  1  0.503161  0.831127  0.832856  1
  Pd  Pd20  1  0.393469  0.393469  0.395930  1
  Pd  Pd21  1  0.393469  0.393469  0.817129  1
  Pt  Pt22  1  0.391667  0.819832  0.394250  1
  Pt  Pt23  1  0.819832  0.391667  0.394250  1
