# generated using pymatgen
data_Sc3Fe(IrO3)8
_symmetry_space_group_name_H-M   'P 1'
_cell_length_a   4.64216539
_cell_length_b   9.28543578
_cell_length_c   9.45004700
_cell_angle_alpha   90.00000000
_cell_angle_beta   90.00000000
_cell_angle_gamma   90.04686774
_symmetry_Int_Tables_number   1
_chemical_formula_structural   Sc3Fe(IrO3)8
_chemical_formula_sum   'Sc3 Fe1 Ir8 O24'
_cell_volume   407.33968469
_cell_formula_units_Z   1
loop_
 _symmetry_equiv_pos_site_id
 _symmetry_equiv_pos_as_xyz
  1  'x, y, z'
loop_
 _atom_site_type_symbol
 _atom_site_label
 _atom_site_symmetry_multiplicity
 _atom_site_fract_x
 _atom_site_fract_y
 _atom_site_fract_z
 _atom_site_occupancy
  Sc  Sc0  1  0.998699  0.499947  0.000000  1
  Sc  Sc1  1  0.500000  0.750000  0.500000  1
  Sc  Sc2  1  0.001301  0.000053  0.000000  1
  Fe  Fe3  1  0.500000  0.250000  0.500000  1
  Ir  Ir4  1  0.999854  0.002850  0.331886  1
  Ir  Ir5  1  0.000146  0.497150  0.331886  1
  Ir  Ir6  1  0.500000  0.250000  0.829569  1
  Ir  Ir7  1  0.500000  0.750000  0.830235  1
  Ir  Ir8  1  0.500000  0.250000  0.170431  1
  Ir  Ir9  1  0.500000  0.750000  0.169765  1
  Ir  Ir10  1  0.999854  0.002850  0.668114  1
  Ir  Ir11  1  0.000146  0.497150  0.668114  1
  O  O12  1  0.317408  0.158242  0.000000  1
  O  O13  1  0.315415  0.658002  0.000000  1
  O  O14  1  0.190615  0.404184  0.500000  1
  O  O15  1  0.182074  0.909491  0.500000  1
  O  O16  1  0.809385  0.095816  0.500000  1
  O  O17  1  0.817926  0.590509  0.500000  1
  O  O18  1  0.682592  0.341758  0.000000  1
  O  O19  1  0.684585  0.841998  0.000000  1
  O  O20  1  0.303638  0.152718  0.334778  1
  O  O21  1  0.298588  0.648380  0.330798  1
  O  O22  1  0.199991  0.398136  0.829834  1
  O  O23  1  0.202088  0.900807  0.828852  1
  O  O24  1  0.800009  0.101864  0.829834  1
  O  O25  1  0.797912  0.599193  0.828852  1
  O  O26  1  0.800009  0.101864  0.170166  1
  O  O27  1  0.797912  0.599193  0.171148  1
  O  O28  1  0.199991  0.398136  0.170166  1
  O  O29  1  0.202088  0.900807  0.171148  1
  O  O30  1  0.696362  0.347282  0.334778  1
  O  O31  1  0.701412  0.851620  0.330798  1
  O  O32  1  0.303638  0.152718  0.665222  1
  O  O33  1  0.298588  0.648380  0.669202  1
  O  O34  1  0.696362  0.347282  0.665222  1
  O  O35  1  0.701412  0.851620  0.669202  1
