# generated using pymatgen
data_HoEr4Np5O20
_symmetry_space_group_name_H-M   'P 1'
_cell_length_a   6.42155541
_cell_length_b   7.63228691
_cell_length_c   8.48556700
_cell_angle_alpha   103.23174448
_cell_angle_beta   96.63146222
_cell_angle_gamma   107.19992770
_symmetry_Int_Tables_number   1
_chemical_formula_structural   HoEr4Np5O20
_chemical_formula_sum   'Ho1 Er4 Np5 O20'
_cell_volume   379.16475904
_cell_formula_units_Z   1
loop_
 _symmetry_equiv_pos_site_id
 _symmetry_equiv_pos_as_xyz
  1  'x, y, z'
loop_
 _atom_site_type_symbol
 _atom_site_label
 _atom_site_symmetry_multiplicity
 _atom_site_fract_x
 _atom_site_fract_y
 _atom_site_fract_z
 _atom_site_occupancy
  Ho  Ho0  1  0.002996  0.002597  0.002598  1
  Er  Er1  1  0.798765  0.599960  0.599630  1
  Er  Er2  1  0.998078  0.498486  0.001045  1
  Er  Er3  1  0.604489  0.200377  0.200770  1
  Er  Er4  1  0.797806  0.098847  0.598806  1
  Np  Np5  1  0.601395  0.701258  0.199524  1
  Np  Np6  1  0.193487  0.395669  0.396919  1
  Np  Np7  1  0.399009  0.299132  0.802132  1
  Np  Np8  1  0.199306  0.900333  0.396715  1
  Np  Np9  1  0.399855  0.802015  0.801089  1
  O  O10  1  0.864506  0.330780  0.453406  1
  O  O11  1  0.643469  0.917487  0.055119  1
  O  O12  1  0.949982  0.774780  0.152784  1
  O  O13  1  0.852192  0.822173  0.445473  1
  O  O14  1  0.426601  0.518511  0.651434  1
  O  O15  1  0.643658  0.432755  0.059181  1
  O  O16  1  0.728205  0.370653  0.755025  1
  O  O17  1  0.248943  0.120097  0.255029  1
  O  O18  1  0.435374  0.021861  0.644975  1
  O  O19  1  0.964126  0.280356  0.152635  1
  O  O20  1  0.547076  0.968025  0.351354  1
  O  O21  1  0.069512  0.726077  0.843296  1
  O  O22  1  0.253405  0.631863  0.250487  1
  O  O23  1  0.729147  0.871337  0.752815  1
  O  O24  1  0.364223  0.578815  0.954576  1
  O  O25  1  0.068924  0.229307  0.842644  1
  O  O26  1  0.533596  0.477788  0.353727  1
  O  O27  1  0.155628  0.169349  0.541758  1
  O  O28  1  0.367093  0.078275  0.943658  1
  O  O29  1  0.159154  0.681034  0.541396  1
