# generated using pymatgen
data_Mn7Zn(As2O5)4
_symmetry_space_group_name_H-M   'P 1'
_cell_length_a   6.49261342
_cell_length_b   9.63515346
_cell_length_c   9.76924989
_cell_angle_alpha   66.93294449
_cell_angle_beta   81.75459381
_cell_angle_gamma   78.46822959
_symmetry_Int_Tables_number   1
_chemical_formula_structural   Mn7Zn(As2O5)4
_chemical_formula_sum   'Mn7 Zn1 As8 O20'
_cell_volume   549.48787470
_cell_formula_units_Z   1
loop_
 _symmetry_equiv_pos_site_id
 _symmetry_equiv_pos_as_xyz
  1  'x, y, z'
loop_
 _atom_site_type_symbol
 _atom_site_label
 _atom_site_symmetry_multiplicity
 _atom_site_fract_x
 _atom_site_fract_y
 _atom_site_fract_z
 _atom_site_occupancy
  Mn  Mn0  1  0.148990  0.930421  0.630681  1
  Mn  Mn1  1  0.593178  0.413701  0.163074  1
  Mn  Mn2  1  0.897164  0.612415  0.846475  1
  Mn  Mn3  1  0.102695  0.388178  0.155504  1
  Mn  Mn4  1  0.404588  0.585312  0.839662  1
  Mn  Mn5  1  0.851065  0.072674  0.367194  1
  Mn  Mn6  1  0.675352  0.736518  0.527501  1
  Zn  Zn7  1  0.326142  0.263861  0.473096  1
  As  As8  1  0.790945  0.390956  0.486422  1
  As  As9  1  0.257219  0.279964  0.830467  1
  As  As10  1  0.386570  0.040421  0.256709  1
  As  As11  1  0.742546  0.718418  0.169540  1
  As  As12  1  0.210734  0.604828  0.516640  1
  As  As13  1  0.778920  0.226696  0.987266  1
  As  As14  1  0.610312  0.965991  0.739278  1
  As  As15  1  0.220385  0.775234  0.012367  1
  O  O16  1  0.822483  0.017910  0.598426  1
  O  O17  1  0.396041  0.643744  0.610422  1
  O  O18  1  0.976373  0.664315  0.611078  1
  O  O19  1  0.764225  0.606325  0.373061  1
  O  O20  1  0.824062  0.569313  0.096459  1
  O  O21  1  0.621062  0.949755  0.357896  1
  O  O22  1  0.378630  0.056317  0.631882  1
  O  O23  1  0.882492  0.235479  0.148654  1
  O  O24  1  0.029442  0.330779  0.394367  1
  O  O25  1  0.117576  0.767073  0.850520  1
  O  O26  1  0.178290  0.980750  0.399547  1
  O  O27  1  0.013251  0.202323  0.867391  1
  O  O28  1  0.687663  0.431426  0.913888  1
  O  O29  1  0.383607  0.234993  0.249613  1
  O  O30  1  0.176487  0.428920  0.903882  1
  O  O31  1  0.605075  0.348589  0.393820  1
  O  O32  1  0.612813  0.769367  0.753416  1
  O  O33  1  0.312472  0.570366  0.085232  1
  O  O34  1  0.235885  0.389375  0.625983  1
  O  O35  1  0.985265  0.797292  0.132590  1
