# generated using pymatgen
data_Hf9ScSn6
_symmetry_space_group_name_H-M   'P 1'
_cell_length_a   8.45223637
_cell_length_b   8.45223721
_cell_length_c   5.74462500
_cell_angle_alpha   90.00000000
_cell_angle_beta   90.00000000
_cell_angle_gamma   119.93482155
_symmetry_Int_Tables_number   1
_chemical_formula_structural   Hf9ScSn6
_chemical_formula_sum   'Hf9 Sc1 Sn6'
_cell_volume   355.64809609
_cell_formula_units_Z   1
loop_
 _symmetry_equiv_pos_site_id
 _symmetry_equiv_pos_as_xyz
  1  'x, y, z'
loop_
 _atom_site_type_symbol
 _atom_site_label
 _atom_site_symmetry_multiplicity
 _atom_site_fract_x
 _atom_site_fract_y
 _atom_site_fract_z
 _atom_site_occupancy
  Hf  Hf0  1  0.245158  0.001504  0.750000  1
  Hf  Hf1  1  0.001504  0.245158  0.750000  1
  Hf  Hf2  1  0.240814  0.240814  0.250000  1
  Hf  Hf3  1  0.757591  0.001452  0.250000  1
  Hf  Hf4  1  0.001452  0.757591  0.250000  1
  Hf  Hf5  1  0.666012  0.331613  0.000451  1
  Hf  Hf6  1  0.331613  0.666012  0.000451  1
  Hf  Hf7  1  0.331613  0.666012  0.499549  1
  Hf  Hf8  1  0.666012  0.331613  0.499549  1
  Sc  Sc9  1  0.757650  0.757650  0.750000  1
  Sn  Sn10  1  0.393596  0.393596  0.750000  1
  Sn  Sn11  1  0.607412  0.998417  0.750000  1
  Sn  Sn12  1  0.998417  0.607412  0.750000  1
  Sn  Sn13  1  0.607939  0.607939  0.250000  1
  Sn  Sn14  1  0.393120  0.000097  0.250000  1
  Sn  Sn15  1  0.000097  0.393120  0.250000  1
