# generated using pymatgen
data_Nd2MgAgBi4
_symmetry_space_group_name_H-M   'P 1'
_cell_length_a   4.55878700
_cell_length_b   4.55878700
_cell_length_c   11.05514800
_cell_angle_alpha   90.00000000
_cell_angle_beta   90.00000000
_cell_angle_gamma   90.00000000
_symmetry_Int_Tables_number   1
_chemical_formula_structural   Nd2MgAgBi4
_chemical_formula_sum   'Nd2 Mg1 Ag1 Bi4'
_cell_volume   229.75404348
_cell_formula_units_Z   1
loop_
 _symmetry_equiv_pos_site_id
 _symmetry_equiv_pos_as_xyz
  1  'x, y, z'
loop_
 _atom_site_type_symbol
 _atom_site_label
 _atom_site_symmetry_multiplicity
 _atom_site_fract_x
 _atom_site_fract_y
 _atom_site_fract_z
 _atom_site_occupancy
  Nd  Nd0  1  0.000000  0.500000  0.769490  1
  Nd  Nd1  1  0.500000  0.000000  0.230510  1
  Mg  Mg2  1  0.000000  0.000000  0.500000  1
  Ag  Ag3  1  0.500000  0.500000  0.500000  1
  Bi  Bi4  1  0.000000  0.000000  0.000000  1
  Bi  Bi5  1  0.500000  0.500000  0.000000  1
  Bi  Bi6  1  0.000000  0.500000  0.317573  1
  Bi  Bi7  1  0.500000  0.000000  0.682427  1
