# generated using pymatgen
data_Ho7LuSc11Si16Hg
_symmetry_space_group_name_H-M   'P 1'
_cell_length_a   7.03005915
_cell_length_b   7.37407352
_cell_length_c   13.98286160
_cell_angle_alpha   89.96740200
_cell_angle_beta   89.99130535
_cell_angle_gamma   89.86505233
_symmetry_Int_Tables_number   1
_chemical_formula_structural   Ho7LuSc11Si16Hg
_chemical_formula_sum   'Ho7 Lu1 Sc11 Si16 Hg1'
_cell_volume   724.87182877
_cell_formula_units_Z   1
loop_
 _symmetry_equiv_pos_site_id
 _symmetry_equiv_pos_as_xyz
  1  'x, y, z'
loop_
 _atom_site_type_symbol
 _atom_site_label
 _atom_site_symmetry_multiplicity
 _atom_site_fract_x
 _atom_site_fract_y
 _atom_site_fract_z
 _atom_site_occupancy
  Ho  Ho0  1  0.990821  0.817135  0.902427  1
  Ho  Ho1  1  0.484769  0.673326  0.902487  1
  Ho  Ho2  1  0.990768  0.817118  0.597939  1
  Ho  Ho3  1  0.510941  0.323371  0.096955  1
  Ho  Ho4  1  0.010091  0.174579  0.403524  1
  Ho  Ho5  1  0.511015  0.323731  0.402816  1
  Ho  Ho6  1  0.485008  0.673532  0.597800  1
  Lu  Lu7  1  0.010649  0.175158  0.097093  1
  Sc  Sc8  1  0.838177  0.497049  0.249680  1
  Sc  Sc9  1  0.339483  0.003963  0.249764  1
  Sc  Sc10  1  0.657682  0.997493  0.749994  1
  Sc  Sc11  1  0.325508  0.182634  0.625843  1
  Sc  Sc12  1  0.671299  0.824054  0.374837  1
  Sc  Sc13  1  0.169518  0.680376  0.373165  1
  Sc  Sc14  1  0.671432  0.824626  0.124814  1
  Sc  Sc15  1  0.837969  0.325321  0.625818  1
  Sc  Sc16  1  0.325380  0.182649  0.874267  1
  Sc  Sc17  1  0.838160  0.324789  0.874307  1
  Sc  Sc18  1  0.169308  0.680644  0.126611  1
  Si  Si19  1  0.027315  0.094607  0.750217  1
  Si  Si20  1  0.968319  0.888952  0.249633  1
  Si  Si21  1  0.467384  0.616893  0.249849  1
  Si  Si22  1  0.543712  0.380130  0.750124  1
  Si  Si23  1  0.291160  0.886388  0.750060  1
  Si  Si24  1  0.714111  0.129596  0.249298  1
  Si  Si25  1  0.211755  0.371329  0.249432  1
  Si  Si26  1  0.770308  0.631582  0.750116  1
  Si  Si27  1  0.162801  0.459474  0.528524  1
  Si  Si28  1  0.841643  0.536106  0.461953  1
  Si  Si29  1  0.343729  0.966030  0.462140  1
  Si  Si30  1  0.842100  0.535183  0.038477  1
  Si  Si31  1  0.658058  0.033182  0.540376  1
  Si  Si32  1  0.162437  0.458167  0.971944  1
  Si  Si33  1  0.658205  0.033254  0.959657  1
  Si  Si34  1  0.341997  0.966928  0.038169  1
  Hg  Hg35  1  0.156987  0.510651  0.749889  1
