# generated using pymatgen
data_Rb8Zr6HBr20
_symmetry_space_group_name_H-M   'P 1'
_cell_length_a   12.00213851
_cell_length_b   12.00213835
_cell_length_c   12.00213800
_cell_angle_alpha   60.00000097
_cell_angle_beta   60.00000141
_cell_angle_gamma   60.00000049
_symmetry_Int_Tables_number   1
_chemical_formula_structural   Rb8Zr6HBr20
_chemical_formula_sum   'Rb8 Zr6 H1 Br20'
_cell_volume   1222.53384386
_cell_formula_units_Z   1
loop_
 _symmetry_equiv_pos_site_id
 _symmetry_equiv_pos_as_xyz
  1  'x, y, z'
loop_
 _atom_site_type_symbol
 _atom_site_label
 _atom_site_symmetry_multiplicity
 _atom_site_fract_x
 _atom_site_fract_y
 _atom_site_fract_z
 _atom_site_occupancy
  Rb  Rb0  1  0.360900  0.360900  0.360900  1
  Rb  Rb1  1  0.639100  0.639100  0.639100  1
  Rb  Rb2  1  0.360900  0.360900  0.917301  1
  Rb  Rb3  1  0.360900  0.917301  0.360900  1
  Rb  Rb4  1  0.639100  0.639100  0.082699  1
  Rb  Rb5  1  0.639100  0.082699  0.639100  1
  Rb  Rb6  1  0.917301  0.360900  0.360900  1
  Rb  Rb7  1  0.082699  0.639100  0.639100  1
  Zr  Zr8  1  0.864076  0.135924  0.135924  1
  Zr  Zr9  1  0.135924  0.864076  0.864076  1
  Zr  Zr10  1  0.135924  0.864076  0.135924  1
  Zr  Zr11  1  0.864076  0.135924  0.864076  1
  Zr  Zr12  1  0.135924  0.135924  0.864076  1
  Zr  Zr13  1  0.864076  0.864076  0.135924  1
  H  H14  1  0.000000  0.000000  0.000000  1
  Br  Br15  1  0.319901  0.000000  0.000000  1
  Br  Br16  1  0.680099  0.000000  0.000000  1
  Br  Br17  1  0.000000  0.319901  0.680099  1
  Br  Br18  1  0.000000  0.680099  0.319901  1
  Br  Br19  1  0.000000  0.319901  0.000000  1
  Br  Br20  1  0.680099  0.000000  0.319901  1
  Br  Br21  1  0.000000  0.680099  0.000000  1
  Br  Br22  1  0.319901  0.000000  0.680099  1
  Br  Br23  1  0.000000  0.000000  0.319901  1
  Br  Br24  1  0.000000  0.000000  0.680099  1
  Br  Br25  1  0.680099  0.319901  0.000000  1
  Br  Br26  1  0.319901  0.680099  0.000000  1
  Br  Br27  1  0.691850  0.308150  0.308150  1
  Br  Br28  1  0.308150  0.691850  0.691850  1
  Br  Br29  1  0.308150  0.691850  0.308150  1
  Br  Br30  1  0.691850  0.308150  0.691850  1
  Br  Br31  1  0.308150  0.308150  0.691850  1
  Br  Br32  1  0.691850  0.691850  0.308150  1
  Br  Br33  1  0.250000  0.250000  0.250000  1
  Br  Br34  1  0.750000  0.750000  0.750000  1
