# generated using pymatgen
data_Sm2Ho2Cu5Ni9
_symmetry_space_group_name_H-M   'P 1'
_cell_length_a   5.00723998
_cell_length_b   5.00724135
_cell_length_c   12.35837534
_cell_angle_alpha   77.99470547
_cell_angle_beta   77.99470152
_cell_angle_gamma   60.21623836
_symmetry_Int_Tables_number   1
_chemical_formula_structural   Sm2Ho2Cu5Ni9
_chemical_formula_sum   'Sm2 Ho2 Cu5 Ni9'
_cell_volume   261.03562359
_cell_formula_units_Z   1
loop_
 _symmetry_equiv_pos_site_id
 _symmetry_equiv_pos_as_xyz
  1  'x, y, z'
loop_
 _atom_site_type_symbol
 _atom_site_label
 _atom_site_symmetry_multiplicity
 _atom_site_fract_x
 _atom_site_fract_y
 _atom_site_fract_z
 _atom_site_occupancy
  Sm  Sm0  1  0.948370  0.948370  0.156213  1
  Sm  Sm1  1  0.051630  0.051630  0.843787  1
  Ho  Ho2  1  0.852113  0.852113  0.443634  1
  Ho  Ho3  1  0.147887  0.147887  0.556366  1
  Cu  Cu4  1  0.723793  0.723793  0.832821  1
  Cu  Cu5  1  0.276207  0.276207  0.167179  1
  Cu  Cu6  1  0.612541  0.612541  0.167923  1
  Cu  Cu7  1  0.387459  0.387459  0.832077  1
  Cu  Cu8  1  0.500000  0.500000  0.000000  1
  Ni  Ni9  1  0.500000  0.500000  0.500000  1
  Ni  Ni10  1  0.000000  0.500000  0.000000  1
  Ni  Ni11  1  0.500000  0.000000  0.000000  1
  Ni  Ni12  1  0.387301  0.387301  0.334218  1
  Ni  Ni13  1  0.890547  0.387828  0.334487  1
  Ni  Ni14  1  0.387828  0.890547  0.334487  1
  Ni  Ni15  1  0.612699  0.612699  0.665782  1
  Ni  Ni16  1  0.109453  0.612172  0.665513  1
  Ni  Ni17  1  0.612172  0.109453  0.665513  1
