# generated using pymatgen
data_Er4AlGa23Pd9
_symmetry_space_group_name_H-M   'P 1'
_cell_length_a   7.56420454
_cell_length_b   7.56723816
_cell_length_c   13.25150700
_cell_angle_alpha   84.64623868
_cell_angle_beta   100.80520054
_cell_angle_gamma   119.92527924
_symmetry_Int_Tables_number   1
_chemical_formula_structural   Er4AlGa23Pd9
_chemical_formula_sum   'Er4 Al1 Ga23 Pd9'
_cell_volume   645.73457952
_cell_formula_units_Z   1
loop_
 _symmetry_equiv_pos_site_id
 _symmetry_equiv_pos_as_xyz
  1  'x, y, z'
loop_
 _atom_site_type_symbol
 _atom_site_label
 _atom_site_symmetry_multiplicity
 _atom_site_fract_x
 _atom_site_fract_y
 _atom_site_fract_z
 _atom_site_occupancy
  Er  Er0  1  0.729987  0.998731  0.190444  1
  Er  Er1  1  0.270145  0.001183  0.809706  1
  Er  Er2  1  0.061030  0.667407  0.189158  1
  Er  Er3  1  0.938434  0.332580  0.809586  1
  Al  Al4  1  0.146194  0.666951  0.441336  1
  Ga  Ga5  1  0.809421  0.869788  0.816739  1
  Ga  Ga6  1  0.190560  0.131011  0.184009  1
  Ga  Ga7  1  0.983349  0.666506  0.939209  1
  Ga  Ga8  1  0.016761  0.333424  0.060688  1
  Ga  Ga9  1  0.399644  0.665023  0.816755  1
  Ga  Ga10  1  0.599518  0.333899  0.183425  1
  Ga  Ga11  1  0.886127  0.665609  0.673818  1
  Ga  Ga12  1  0.113460  0.333641  0.325816  1
  Ga  Ga13  1  0.604789  0.459843  0.816798  1
  Ga  Ga14  1  0.396438  0.540822  0.183736  1
  Ga  Ga15  1  0.230496  0.337140  0.674758  1
  Ga  Ga16  1  0.768737  0.662588  0.325191  1
  Ga  Ga17  1  0.854774  0.334735  0.557911  1
  Ga  Ga18  1  0.186178  0.998276  0.557964  1
  Ga  Ga19  1  0.813719  0.000048  0.442072  1
  Ga  Ga20  1  0.353997  0.996714  0.060828  1
  Ga  Ga21  1  0.646334  0.003502  0.939341  1
  Ga  Ga22  1  0.558851  0.995481  0.674248  1
  Ga  Ga23  1  0.442237  0.005291  0.325842  1
  Ga  Ga24  1  0.518270  0.666017  0.560689  1
  Ga  Ga25  1  0.480221  0.334146  0.439303  1
  Ga  Ga26  1  0.689139  0.670453  0.056449  1
  Ga  Ga27  1  0.310539  0.329292  0.943488  1
  Pd  Pd28  1  0.330935  0.669143  0.000422  1
  Pd  Pd29  1  0.547394  0.326086  0.638638  1
  Pd  Pd30  1  0.449429  0.673714  0.361835  1
  Pd  Pd31  1  0.886987  0.005682  0.639434  1
  Pd  Pd32  1  0.113328  0.991123  0.361103  1
  Pd  Pd33  1  0.669290  0.330731  0.000057  1
  Pd  Pd34  1  0.206314  0.666524  0.637785  1
  Pd  Pd35  1  0.796650  0.336710  0.360975  1
  Pd  Pd36  1  0.000322  0.000189  0.000447  1
