# generated using pymatgen
data_Ta4Al3Zn2Cr3
_symmetry_space_group_name_H-M   'P 1'
_cell_length_a   4.96254800
_cell_length_b   4.96255045
_cell_length_c   8.32450500
_cell_angle_alpha   90.00000000
_cell_angle_beta   90.00000000
_cell_angle_gamma   120.32610234
_symmetry_Int_Tables_number   1
_chemical_formula_structural   Ta4Al3Zn2Cr3
_chemical_formula_sum   'Ta4 Al3 Zn2 Cr3'
_cell_volume   176.95474185
_cell_formula_units_Z   1
loop_
 _symmetry_equiv_pos_site_id
 _symmetry_equiv_pos_as_xyz
  1  'x, y, z'
loop_
 _atom_site_type_symbol
 _atom_site_label
 _atom_site_symmetry_multiplicity
 _atom_site_fract_x
 _atom_site_fract_y
 _atom_site_fract_z
 _atom_site_occupancy
  Ta  Ta0  1  0.333865  0.666135  0.448043  1
  Ta  Ta1  1  0.668672  0.331328  0.569785  1
  Ta  Ta2  1  0.668672  0.331328  0.930215  1
  Ta  Ta3  1  0.333865  0.666135  0.051957  1
  Al  Al4  1  0.002367  0.997633  0.505216  1
  Al  Al5  1  0.002367  0.997633  0.994784  1
  Al  Al6  1  0.824070  0.175930  0.250000  1
  Zn  Zn7  1  0.826353  0.662888  0.250000  1
  Zn  Zn8  1  0.337112  0.173647  0.250000  1
  Cr  Cr9  1  0.175497  0.824503  0.750000  1
  Cr  Cr10  1  0.175647  0.348486  0.750000  1
  Cr  Cr11  1  0.651514  0.824353  0.750000  1
