# generated using pymatgen
data_Y3Tm2Bi3
_symmetry_space_group_name_H-M   'P 1'
_cell_length_a   8.23305400
_cell_length_b   9.48064900
_cell_length_c   12.04997900
_cell_angle_alpha   90.00000000
_cell_angle_beta   90.00000000
_cell_angle_gamma   90.00000000
_symmetry_Int_Tables_number   1
_chemical_formula_structural   Y3Tm2Bi3
_chemical_formula_sum   'Y12 Tm8 Bi12'
_cell_volume   940.55743767
_cell_formula_units_Z   4
loop_
 _symmetry_equiv_pos_site_id
 _symmetry_equiv_pos_as_xyz
  1  'x, y, z'
loop_
 _atom_site_type_symbol
 _atom_site_label
 _atom_site_symmetry_multiplicity
 _atom_site_fract_x
 _atom_site_fract_y
 _atom_site_fract_z
 _atom_site_occupancy
  Y  Y0  1  0.186501  0.749624  0.718955  1
  Y  Y1  1  0.686501  0.750376  0.781045  1
  Y  Y2  1  0.813499  0.249624  0.281045  1
  Y  Y3  1  0.313499  0.250376  0.218955  1
  Y  Y4  1  0.693895  0.563105  0.059712  1
  Y  Y5  1  0.193895  0.936895  0.440288  1
  Y  Y6  1  0.306105  0.063105  0.940288  1
  Y  Y7  1  0.806105  0.436895  0.559712  1
  Y  Y8  1  0.354004  0.750003  0.215604  1
  Y  Y9  1  0.854004  0.749997  0.284396  1
  Y  Y10  1  0.645996  0.250003  0.784396  1
  Y  Y11  1  0.145996  0.249997  0.715604  1
  Tm  Tm12  1  0.025465  0.750338  0.989021  1
  Tm  Tm13  1  0.525465  0.749662  0.510979  1
  Tm  Tm14  1  0.974535  0.250338  0.010979  1
  Tm  Tm15  1  0.474535  0.249662  0.489021  1
  Tm  Tm16  1  0.306110  0.434499  0.940238  1
  Tm  Tm17  1  0.806110  0.065501  0.559762  1
  Tm  Tm18  1  0.693890  0.934499  0.059762  1
  Tm  Tm19  1  0.193890  0.565501  0.440238  1
  Bi  Bi20  1  0.434345  0.003589  0.672350  1
  Bi  Bi21  1  0.934345  0.496411  0.827650  1
  Bi  Bi22  1  0.565655  0.503589  0.327650  1
  Bi  Bi23  1  0.065655  0.996411  0.172350  1
  Bi  Bi24  1  0.566410  0.996121  0.327698  1
  Bi  Bi25  1  0.066410  0.503879  0.172302  1
  Bi  Bi26  1  0.433590  0.496121  0.672302  1
  Bi  Bi27  1  0.933590  0.003879  0.827698  1
  Bi  Bi28  1  0.407616  0.748296  0.958170  1
  Bi  Bi29  1  0.907616  0.751704  0.541830  1
  Bi  Bi30  1  0.592384  0.248296  0.041830  1
  Bi  Bi31  1  0.092384  0.251704  0.458170  1
