# generated using pymatgen
data_Y5Ho5(Bi2P)2
_symmetry_space_group_name_H-M   'P 1'
_cell_length_a   7.98866508
_cell_length_b   8.97396117
_cell_length_c   12.16093919
_cell_angle_alpha   89.98214682
_cell_angle_beta   89.99055162
_cell_angle_gamma   89.98636052
_symmetry_Int_Tables_number   1
_chemical_formula_structural   Y5Ho5(Bi2P)2
_chemical_formula_sum   'Y10 Ho10 Bi8 P4'
_cell_volume   871.81729018
_cell_formula_units_Z   2
loop_
 _symmetry_equiv_pos_site_id
 _symmetry_equiv_pos_as_xyz
  1  'x, y, z'
loop_
 _atom_site_type_symbol
 _atom_site_label
 _atom_site_symmetry_multiplicity
 _atom_site_fract_x
 _atom_site_fract_y
 _atom_site_fract_z
 _atom_site_occupancy
  Y  Y0  1  0.850275  0.749956  0.793967  1
  Y  Y1  1  0.149725  0.250044  0.206033  1
  Y  Y2  1  0.350200  0.250159  0.706117  1
  Y  Y3  1  0.649800  0.749841  0.293883  1
  Y  Y4  1  0.375695  0.749944  0.699971  1
  Y  Y5  1  0.624305  0.250056  0.300029  1
  Y  Y6  1  0.875919  0.250244  0.800402  1
  Y  Y7  1  0.124081  0.749756  0.199598  1
  Y  Y8  1  0.682835  0.049885  0.563980  1
  Y  Y9  1  0.317165  0.950115  0.436020  1
  Ho  Ho10  1  0.958381  0.749644  0.501911  1
  Ho  Ho11  1  0.041619  0.250356  0.498089  1
  Ho  Ho12  1  0.458508  0.250072  0.998106  1
  Ho  Ho13  1  0.541492  0.749928  0.001894  1
  Ho  Ho14  1  0.182192  0.949370  0.936257  1
  Ho  Ho15  1  0.317759  0.550336  0.436137  1
  Ho  Ho16  1  0.817808  0.050630  0.063743  1
  Ho  Ho17  1  0.682241  0.449664  0.563863  1
  Ho  Ho18  1  0.817742  0.449372  0.063828  1
  Ho  Ho19  1  0.182258  0.550628  0.936172  1
  Bi  Bi20  1  0.576421  0.490570  0.827185  1
  Bi  Bi21  1  0.423579  0.509430  0.172815  1
  Bi  Bi22  1  0.076468  0.509438  0.672864  1
  Bi  Bi23  1  0.423621  0.990550  0.172648  1
  Bi  Bi24  1  0.923532  0.490562  0.327136  1
  Bi  Bi25  1  0.576379  0.009450  0.827352  1
  Bi  Bi26  1  0.923538  0.009434  0.327013  1
  Bi  Bi27  1  0.076462  0.990566  0.672987  1
  P  P28  1  0.575224  0.748921  0.512922  1
  P  P29  1  0.424776  0.251079  0.487078  1
  P  P30  1  0.075151  0.249936  0.987025  1
  P  P31  1  0.924849  0.750064  0.012975  1
