# generated using pymatgen
data_Dy2HoSc3Bi2Rh
_symmetry_space_group_name_H-M   'P 1'
_cell_length_a   8.04357738
_cell_length_b   8.04357767
_cell_length_c   4.15001600
_cell_angle_alpha   90.00000000
_cell_angle_beta   90.00000000
_cell_angle_gamma   120.03511396
_symmetry_Int_Tables_number   1
_chemical_formula_structural   Dy2HoSc3Bi2Rh
_chemical_formula_sum   'Dy2 Ho1 Sc3 Bi2 Rh1'
_cell_volume   232.44763430
_cell_formula_units_Z   1
loop_
 _symmetry_equiv_pos_site_id
 _symmetry_equiv_pos_as_xyz
  1  'x, y, z'
loop_
 _atom_site_type_symbol
 _atom_site_label
 _atom_site_symmetry_multiplicity
 _atom_site_fract_x
 _atom_site_fract_y
 _atom_site_fract_z
 _atom_site_occupancy
  Dy  Dy0  1  0.611580  0.999965  0.500000  1
  Dy  Dy1  1  0.999965  0.611580  0.500000  1
  Ho  Ho2  1  0.388051  0.388051  0.500000  1
  Sc  Sc3  1  0.227988  0.000115  0.000000  1
  Sc  Sc4  1  0.000115  0.227988  0.000000  1
  Sc  Sc5  1  0.771944  0.771944  0.000000  1
  Bi  Bi6  1  0.333344  0.666297  0.000000  1
  Bi  Bi7  1  0.666297  0.333344  0.000000  1
  Rh  Rh8  1  0.000715  0.000715  0.500000  1
