# generated using pymatgen
data_Yb2VW7C8
_symmetry_space_group_name_H-M   'P 1'
_cell_length_a   8.32352348
_cell_length_b   8.32258385
_cell_length_c   3.25856200
_cell_angle_alpha   90.00000000
_cell_angle_beta   90.00000000
_cell_angle_gamma   89.37407056
_symmetry_Int_Tables_number   1
_chemical_formula_structural   Yb2VW7C8
_chemical_formula_sum   'Yb2 V1 W7 C8'
_cell_volume   225.71761925
_cell_formula_units_Z   1
loop_
 _symmetry_equiv_pos_site_id
 _symmetry_equiv_pos_as_xyz
  1  'x, y, z'
loop_
 _atom_site_type_symbol
 _atom_site_label
 _atom_site_symmetry_multiplicity
 _atom_site_fract_x
 _atom_site_fract_y
 _atom_site_fract_z
 _atom_site_occupancy
  Yb  Yb0  1  0.004296  0.998307  0.000000  1
  Yb  Yb1  1  0.498666  0.501890  0.500000  1
  V  V2  1  0.315080  0.864563  0.500000  1
  W  W3  1  0.377554  0.172847  0.000000  1
  W  W4  1  0.175935  0.623747  0.000000  1
  W  W5  1  0.131103  0.317457  0.500000  1
  W  W6  1  0.617929  0.826485  0.000000  1
  W  W7  1  0.681903  0.130432  0.500000  1
  W  W8  1  0.870615  0.681669  0.500000  1
  W  W9  1  0.823274  0.378214  0.000000  1
  C  C10  1  0.767244  0.903600  0.500000  1
  C  C11  1  0.238235  0.089543  0.500000  1
  C  C12  1  0.904329  0.231343  0.500000  1
  C  C13  1  0.273729  0.397001  0.000000  1
  C  C14  1  0.392439  0.735849  0.000000  1
  C  C15  1  0.099701  0.769570  0.500000  1
  C  C16  1  0.601985  0.273502  0.000000  1
  C  C17  1  0.725983  0.603980  0.000000  1
