# generated using pymatgen
data_Ta3V9Si9Ge
_symmetry_space_group_name_H-M   'P 1'
_cell_length_a   4.91139236
_cell_length_b   7.61771033
_cell_length_c   9.23928786
_cell_angle_alpha   65.59481209
_cell_angle_beta   74.58619733
_cell_angle_gamma   90.00000282
_symmetry_Int_Tables_number   1
_chemical_formula_structural   Ta3V9Si9Ge
_chemical_formula_sum   'Ta3 V9 Si9 Ge1'
_cell_volume   301.08109425
_cell_formula_units_Z   1
loop_
 _symmetry_equiv_pos_site_id
 _symmetry_equiv_pos_as_xyz
  1  'x, y, z'
loop_
 _atom_site_type_symbol
 _atom_site_label
 _atom_site_symmetry_multiplicity
 _atom_site_fract_x
 _atom_site_fract_y
 _atom_site_fract_z
 _atom_site_occupancy
  Ta  Ta0  1  0.857763  0.737516  0.284475  1
  Ta  Ta1  1  0.640799  0.028095  0.718403  1
  Ta  Ta2  1  0.359247  0.971636  0.281503  1
  V  V3  1  0.441672  0.688747  0.619542  1
  V  V4  1  0.057675  0.313273  0.378716  1
  V  V5  1  0.563610  0.313273  0.378716  1
  V  V6  1  0.938787  0.688747  0.619542  1
  V  V7  1  0.436132  0.682249  0.127737  1
  V  V8  1  0.563453  0.317973  0.873096  1
  V  V9  1  0.937116  0.189681  0.125771  1
  V  V10  1  0.060947  0.807173  0.878106  1
  V  V11  1  0.142190  0.266052  0.715620  1
  Si  Si12  1  0.065038  0.477600  0.869921  1
  Si  Si13  1  0.937375  0.516244  0.125252  1
  Si  Si14  1  0.563288  0.646024  0.873422  1
  Si  Si15  1  0.436221  0.353655  0.127559  1
  Si  Si16  1  0.754183  0.002855  0.996601  1
  Si  Si17  1  0.249216  0.002855  0.996601  1
  Si  Si18  1  0.284111  0.575162  0.431781  1
  Si  Si19  1  0.712137  0.417088  0.575729  1
  Si  Si20  1  0.787556  0.991510  0.424888  1
  Ge  Ge21  1  0.211489  0.012590  0.577024  1
