# generated using pymatgen
data_Pr2Co2Si2(PRu2)5
_symmetry_space_group_name_H-M   'P 1'
_cell_length_a   9.45463949
_cell_length_b   9.45495155
_cell_length_c   3.91840900
_cell_angle_alpha   90.00000000
_cell_angle_beta   90.00000000
_cell_angle_gamma   119.67778605
_symmetry_Int_Tables_number   1
_chemical_formula_structural   Pr2Co2Si2(PRu2)5
_chemical_formula_sum   'Pr2 Co2 Si2 P5 Ru10'
_cell_volume   304.33060330
_cell_formula_units_Z   1
loop_
 _symmetry_equiv_pos_site_id
 _symmetry_equiv_pos_as_xyz
  1  'x, y, z'
loop_
 _atom_site_type_symbol
 _atom_site_label
 _atom_site_symmetry_multiplicity
 _atom_site_fract_x
 _atom_site_fract_y
 _atom_site_fract_z
 _atom_site_occupancy
  Pr  Pr0  1  0.334577  0.667273  0.000000  1
  Pr  Pr1  1  0.668906  0.332665  0.500000  1
  Co  Co2  1  0.722341  0.884721  0.000000  1
  Co  Co3  1  0.113656  0.840747  0.000000  1
  Si  Si4  1  0.108100  0.394032  0.500000  1
  Si  Si5  1  0.992136  0.991809  0.000000  1
  P  P6  1  0.607681  0.716712  0.500000  1
  P  P7  1  0.282757  0.889729  0.500000  1
  P  P8  1  0.420172  0.311161  0.000000  1
  P  P9  1  0.695365  0.104622  0.000000  1
  P  P10  1  0.897579  0.593104  0.000000  1
  Ru  Ru11  1  0.420852  0.060171  0.000000  1
  Ru  Ru12  1  0.936238  0.363610  0.000000  1
  Ru  Ru13  1  0.644562  0.583084  0.000000  1
  Ru  Ru14  1  0.394970  0.437882  0.500000  1
  Ru  Ru15  1  0.561987  0.947131  0.500000  1
  Ru  Ru16  1  0.050543  0.620802  0.500000  1
  Ru  Ru17  1  0.158803  0.269048  0.000000  1
  Ru  Ru18  1  0.201871  0.083096  0.500000  1
  Ru  Ru19  1  0.902603  0.109910  0.500000  1
  Ru  Ru20  1  0.884300  0.798695  0.500000  1
