# generated using pymatgen
data_LaTb3(WN3)4
_symmetry_space_group_name_H-M   'P 1'
_cell_length_a   7.33171269
_cell_length_b   7.33171302
_cell_length_c   6.28485200
_cell_angle_alpha   74.63230119
_cell_angle_beta   74.63230048
_cell_angle_gamma   82.53047862
_symmetry_Int_Tables_number   1
_chemical_formula_structural   LaTb3(WN3)4
_chemical_formula_sum   'La1 Tb3 W4 N12'
_cell_volume   313.45959184
_cell_formula_units_Z   1
loop_
 _symmetry_equiv_pos_site_id
 _symmetry_equiv_pos_as_xyz
  1  'x, y, z'
loop_
 _atom_site_type_symbol
 _atom_site_label
 _atom_site_symmetry_multiplicity
 _atom_site_fract_x
 _atom_site_fract_y
 _atom_site_fract_z
 _atom_site_occupancy
  La  La0  1  0.699445  0.300555  0.750000  1
  Tb  Tb1  1  0.093318  0.906682  0.750000  1
  Tb  Tb2  1  0.296563  0.703437  0.250000  1
  Tb  Tb3  1  0.914323  0.085677  0.250000  1
  W  W4  1  0.377633  0.199843  0.247308  1
  W  W5  1  0.619533  0.801143  0.757528  1
  W  W6  1  0.800157  0.622367  0.252692  1
  W  W7  1  0.198857  0.380467  0.742472  1
  N  N8  1  0.619793  0.111362  0.164673  1
  N  N9  1  0.361652  0.355167  0.459845  1
  N  N10  1  0.007290  0.212020  0.851133  1
  N  N11  1  0.379381  0.895949  0.844785  1
  N  N12  1  0.787980  0.992710  0.648867  1
  N  N13  1  0.104051  0.620619  0.655215  1
  N  N14  1  0.888638  0.380207  0.335327  1
  N  N15  1  0.638932  0.655699  0.533007  1
  N  N16  1  0.644833  0.638348  0.040155  1
  N  N17  1  0.344301  0.361068  0.966993  1
  N  N18  1  0.002850  0.779532  0.148742  1
  N  N19  1  0.220468  0.997150  0.351258  1
