# generated using pymatgen
data_Sr12Bi3SbO22
_symmetry_space_group_name_H-M   'P 1'
_cell_length_a   6.13358974
_cell_length_b   6.10079547
_cell_length_c   24.29361620
_cell_angle_alpha   58.68075678
_cell_angle_beta   59.12381147
_cell_angle_gamma   60.03476473
_symmetry_Int_Tables_number   1
_chemical_formula_structural   Sr12Bi3SbO22
_chemical_formula_sum   'Sr12 Bi3 Sb1 O22'
_cell_volume   632.07222057
_cell_formula_units_Z   1
loop_
 _symmetry_equiv_pos_site_id
 _symmetry_equiv_pos_as_xyz
  1  'x, y, z'
loop_
 _atom_site_type_symbol
 _atom_site_label
 _atom_site_symmetry_multiplicity
 _atom_site_fract_x
 _atom_site_fract_y
 _atom_site_fract_z
 _atom_site_occupancy
  Sr  Sr0  1  0.113763  0.333061  0.077929  1
  Sr  Sr1  1  0.442687  0.616201  0.107370  1
  Sr  Sr2  1  0.181366  0.359473  0.290596  1
  Sr  Sr3  1  0.363765  0.544356  0.389101  1
  Sr  Sr4  1  0.631542  0.799794  0.204353  1
  Sr  Sr5  1  0.219822  0.241083  0.581034  1
  Sr  Sr6  1  0.504089  0.509582  0.611546  1
  Sr  Sr7  1  0.224908  0.296623  0.790619  1
  Sr  Sr8  1  0.648416  0.860695  0.419962  1
  Sr  Sr9  1  0.459793  0.479563  0.885846  1
  Sr  Sr10  1  0.679022  0.743053  0.707713  1
  Sr  Sr11  1  0.728972  0.765408  0.914920  1
  Bi  Bi12  1  0.002342  0.048829  0.996803  1
  Bi  Bi13  1  0.906052  0.079780  0.248953  1
  Bi  Bi14  1  0.935266  0.967167  0.499652  1
  Sb  Sb15  1  0.963440  0.015080  0.748201  1
  O  O16  1  0.092457  0.395423  0.180970  1
  O  O17  1  0.225648  0.835787  0.189743  1
  O  O18  1  0.806396  0.397304  0.024467  1
  O  O19  1  0.776585  0.815564  0.083509  1
  O  O20  1  0.684147  0.227729  0.184263  1
  O  O21  1  0.589026  0.346192  0.301993  1
  O  O22  1  0.171690  0.189553  0.412324  1
  O  O23  1  0.114775  0.931537  0.316712  1
  O  O24  1  0.732868  0.754297  0.317851  1
  O  O25  1  0.588583  0.169288  0.470410  1
  O  O26  1  0.700333  0.064134  0.587206  1
  O  O27  1  0.141355  0.792866  0.686685  1
  O  O28  1  0.281203  0.700130  0.529517  1
  O  O29  1  0.349940  0.048752  0.997095  1
  O  O30  1  0.933053  0.616330  0.500578  1
  O  O31  1  0.761182  0.328945  0.683848  1
  O  O32  1  0.257161  0.186832  0.695104  1
  O  O33  1  0.781960  0.227448  0.810770  1
  O  O34  1  0.266900  0.703350  0.967654  1
  O  O35  1  0.183628  0.707891  0.810200  1
  O  O36  1  0.657142  0.853977  0.804172  1
  O  O37  1  0.894225  0.278419  0.910554  1
