# generated using pymatgen
data_Sr2NdHo(Ir2O7)2
_symmetry_space_group_name_H-M   'P 1'
_cell_length_a   7.39974468
_cell_length_b   7.39532812
_cell_length_c   7.39974678
_cell_angle_alpha   59.90766215
_cell_angle_beta   59.66959436
_cell_angle_gamma   59.90766677
_symmetry_Int_Tables_number   1
_chemical_formula_structural   Sr2NdHo(Ir2O7)2
_chemical_formula_sum   'Sr2 Nd1 Ho1 Ir4 O14'
_cell_volume   285.21694831
_cell_formula_units_Z   1
loop_
 _symmetry_equiv_pos_site_id
 _symmetry_equiv_pos_as_xyz
  1  'x, y, z'
loop_
 _atom_site_type_symbol
 _atom_site_label
 _atom_site_symmetry_multiplicity
 _atom_site_fract_x
 _atom_site_fract_y
 _atom_site_fract_z
 _atom_site_occupancy
  Sr  Sr0  1  0.625000  0.125000  0.125000  1
  Sr  Sr1  1  0.125000  0.125000  0.625000  1
  Nd  Nd2  1  0.125000  0.125000  0.125000  1
  Ho  Ho3  1  0.125000  0.625000  0.125000  1
  Ir  Ir4  1  0.125000  0.625000  0.625000  1
  Ir  Ir5  1  0.625000  0.125000  0.625000  1
  Ir  Ir6  1  0.625000  0.625000  0.125000  1
  Ir  Ir7  1  0.625000  0.625000  0.625000  1
  O  O8  1  0.714657  0.688601  0.297370  1
  O  O9  1  0.297612  0.300543  0.707289  1
  O  O10  1  0.696913  0.303562  0.696913  1
  O  O11  1  0.296499  0.697665  0.296499  1
  O  O12  1  0.297370  0.688601  0.714657  1
  O  O13  1  0.707289  0.300543  0.297612  1
  O  O14  1  0.535343  0.561399  0.952630  1
  O  O15  1  0.952388  0.949457  0.542711  1
  O  O16  1  0.553087  0.946438  0.553087  1
  O  O17  1  0.953501  0.552335  0.953501  1
  O  O18  1  0.952630  0.561399  0.535343  1
  O  O19  1  0.542711  0.949457  0.952388  1
  O  O20  1  0.237046  0.271890  0.237046  1
  O  O21  1  0.012954  0.978110  0.012954  1
