# generated using pymatgen
data_Cr4CdSn3(PO5)4
_symmetry_space_group_name_H-M   'P 1'
_cell_length_a   6.41314216
_cell_length_b   6.86401116
_cell_length_c   10.55721775
_cell_angle_alpha   83.11000357
_cell_angle_beta   73.43961040
_cell_angle_gamma   112.00100714
_symmetry_Int_Tables_number   1
_chemical_formula_structural   Cr4CdSn3(PO5)4
_chemical_formula_sum   'Cr4 Cd1 Sn3 P4 O20'
_cell_volume   399.34341705
_cell_formula_units_Z   1
loop_
 _symmetry_equiv_pos_site_id
 _symmetry_equiv_pos_as_xyz
  1  'x, y, z'
loop_
 _atom_site_type_symbol
 _atom_site_label
 _atom_site_symmetry_multiplicity
 _atom_site_fract_x
 _atom_site_fract_y
 _atom_site_fract_z
 _atom_site_occupancy
  Cr  Cr0  1  0.444958  0.319474  0.924258  1
  Cr  Cr1  1  0.548248  0.672098  0.082126  1
  Cr  Cr2  1  0.950976  0.827731  0.417063  1
  Cr  Cr3  1  0.056369  0.178874  0.578210  1
  Cd  Cd4  1  0.988171  0.258665  0.207624  1
  Sn  Sn5  1  0.511594  0.748030  0.705080  1
  Sn  Sn6  1  0.491231  0.245646  0.285921  1
  Sn  Sn7  1  0.989773  0.750620  0.797804  1
  P  P8  1  0.400007  0.690817  0.411383  1
  P  P9  1  0.892938  0.188300  0.916300  1
  P  P10  1  0.101185  0.808608  0.089014  1
  P  P11  1  0.606833  0.311947  0.585420  1
  O  O12  1  0.401212  0.346336  0.114782  1
  O  O13  1  0.898072  0.851833  0.609743  1
  O  O14  1  0.117391  0.156049  0.384464  1
  O  O15  1  0.601917  0.648649  0.889993  1
  O  O16  1  0.625126  0.832638  0.443031  1
  O  O17  1  0.113531  0.320685  0.955091  1
  O  O18  1  0.878088  0.675310  0.051828  1
  O  O19  1  0.385489  0.178866  0.546817  1
  O  O20  1  0.788322  0.503423  0.461552  1
  O  O21  1  0.287082  0.994744  0.962397  1
  O  O22  1  0.708012  0.998795  0.041242  1
  O  O23  1  0.217435  0.506110  0.538799  1
  O  O24  1  0.289120  0.846534  0.373604  1
  O  O25  1  0.781762  0.344833  0.882336  1
  O  O26  1  0.207924  0.648064  0.123785  1
  O  O27  1  0.721044  0.156663  0.615973  1
  O  O28  1  0.480133  0.596754  0.288514  1
  O  O29  1  0.976753  0.106729  0.788175  1
  O  O30  1  0.018697  0.896035  0.213156  1
  O  O31  1  0.520608  0.390138  0.714515  1
