# generated using pymatgen
data_PrHf3(Al3Ir)6
_symmetry_space_group_name_H-M   'P 1'
_cell_length_a   7.51202301
_cell_length_b   7.49915941
_cell_length_c   9.31965200
_cell_angle_alpha   90.00000000
_cell_angle_beta   90.00000000
_cell_angle_gamma   119.74435873
_symmetry_Int_Tables_number   1
_chemical_formula_structural   PrHf3(Al3Ir)6
_chemical_formula_sum   'Pr1 Hf3 Al18 Ir6'
_cell_volume   455.84040327
_cell_formula_units_Z   1
loop_
 _symmetry_equiv_pos_site_id
 _symmetry_equiv_pos_as_xyz
  1  'x, y, z'
loop_
 _atom_site_type_symbol
 _atom_site_label
 _atom_site_symmetry_multiplicity
 _atom_site_fract_x
 _atom_site_fract_y
 _atom_site_fract_z
 _atom_site_occupancy
  Pr  Pr0  1  0.329721  0.005946  0.750000  1
  Hf  Hf1  1  0.993477  0.670921  0.250000  1
  Hf  Hf2  1  0.004983  0.329450  0.750000  1
  Hf  Hf3  1  0.672644  0.994812  0.250000  1
  Al  Al4  1  0.122608  0.124384  0.250000  1
  Al  Al5  1  0.869110  0.875236  0.750000  1
  Al  Al6  1  0.997604  0.334757  0.078226  1
  Al  Al7  1  0.998241  0.661220  0.928313  1
  Al  Al8  1  0.998241  0.661220  0.571687  1
  Al  Al9  1  0.335051  0.997734  0.416662  1
  Al  Al10  1  0.997604  0.334757  0.421774  1
  Al  Al11  1  0.669498  0.002074  0.571722  1
  Al  Al12  1  0.669498  0.002074  0.928278  1
  Al  Al13  1  0.335051  0.997734  0.083338  1
  Al  Al14  1  0.331006  0.334830  0.551724  1
  Al  Al15  1  0.668315  0.668369  0.439092  1
  Al  Al16  1  0.668315  0.668369  0.060908  1
  Al  Al17  1  0.331006  0.334830  0.948276  1
  Al  Al18  1  0.338765  0.553002  0.250000  1
  Al  Al19  1  0.669342  0.455602  0.750000  1
  Al  Al20  1  0.554084  0.340443  0.250000  1
  Al  Al21  1  0.446878  0.653196  0.750000  1
  Ir  Ir22  1  0.673862  0.328815  0.002707  1
  Ir  Ir23  1  0.328131  0.672656  0.002761  1
  Ir  Ir24  1  0.328131  0.672656  0.497239  1
  Ir  Ir25  1  0.673862  0.328815  0.497293  1
  Ir  Ir26  1  0.997487  0.998049  0.003125  1
  Ir  Ir27  1  0.997487  0.998049  0.496875  1
