# generated using pymatgen
data_TmLu7(TcB6)4
_symmetry_space_group_name_H-M   'P 1'
_cell_length_a   3.62044800
_cell_length_b   9.05992700
_cell_length_c   11.41506300
_cell_angle_alpha   89.99965918
_cell_angle_beta   90.00000000
_cell_angle_gamma   90.00000000
_symmetry_Int_Tables_number   1
_chemical_formula_structural   TmLu7(TcB6)4
_chemical_formula_sum   'Tm1 Lu7 Tc4 B24'
_cell_volume   374.42541969
_cell_formula_units_Z   1
loop_
 _symmetry_equiv_pos_site_id
 _symmetry_equiv_pos_as_xyz
  1  'x, y, z'
loop_
 _atom_site_type_symbol
 _atom_site_label
 _atom_site_symmetry_multiplicity
 _atom_site_fract_x
 _atom_site_fract_y
 _atom_site_fract_z
 _atom_site_occupancy
  Tm  Tm0  1  0.000000  0.323289  0.413951  1
  Lu  Lu1  1  0.000000  0.676568  0.586101  1
  Lu  Lu2  1  0.000000  0.823429  0.085966  1
  Lu  Lu3  1  0.000000  0.176549  0.913955  1
  Lu  Lu4  1  0.000000  0.943115  0.369757  1
  Lu  Lu5  1  0.000000  0.056773  0.630330  1
  Lu  Lu6  1  0.000000  0.443195  0.130043  1
  Lu  Lu7  1  0.000000  0.556892  0.869928  1
  Tc  Tc8  1  0.000000  0.639400  0.320299  1
  Tc  Tc9  1  0.000000  0.360902  0.679890  1
  Tc  Tc10  1  0.000000  0.138948  0.179297  1
  Tc  Tc11  1  0.000000  0.860871  0.820475  1
  B  B12  1  0.500000  0.553472  0.433635  1
  B  B13  1  0.500000  0.446962  0.566658  1
  B  B14  1  0.500000  0.053094  0.066195  1
  B  B15  1  0.500000  0.946774  0.933667  1
  B  B16  1  0.500000  0.750616  0.419718  1
  B  B17  1  0.500000  0.249435  0.580763  1
  B  B18  1  0.500000  0.250459  0.080104  1
  B  B19  1  0.500000  0.749510  0.919729  1
  B  B20  1  0.500000  0.793436  0.264704  1
  B  B21  1  0.500000  0.206604  0.735433  1
  B  B22  1  0.500000  0.293228  0.234842  1
  B  B23  1  0.500000  0.706631  0.764839  1
  B  B24  1  0.500000  0.630939  0.184263  1
  B  B25  1  0.500000  0.369245  0.815747  1
  B  B26  1  0.500000  0.130537  0.315328  1
  B  B27  1  0.500000  0.869145  0.684421  1
  B  B28  1  0.500000  0.980951  0.211800  1
  B  B29  1  0.500000  0.018899  0.788135  1
  B  B30  1  0.500000  0.481375  0.287802  1
  B  B31  1  0.500000  0.519062  0.712102  1
  B  B32  1  0.500000  0.599559  0.027706  1
  B  B33  1  0.500000  0.400529  0.972256  1
  B  B34  1  0.500000  0.099075  0.472412  1
  B  B35  1  0.500000  0.900529  0.527750  1
