# generated using pymatgen
data_Y4Zn2FeOs5
_symmetry_space_group_name_H-M   'P 1'
_cell_length_a   5.30973643
_cell_length_b   5.30973683
_cell_length_c   8.82672100
_cell_angle_alpha   90.00000000
_cell_angle_beta   90.00000000
_cell_angle_gamma   119.71185359
_symmetry_Int_Tables_number   1
_chemical_formula_structural   Y4Zn2FeOs5
_chemical_formula_sum   'Y4 Zn2 Fe1 Os5'
_cell_volume   216.13727910
_cell_formula_units_Z   1
loop_
 _symmetry_equiv_pos_site_id
 _symmetry_equiv_pos_as_xyz
  1  'x, y, z'
loop_
 _atom_site_type_symbol
 _atom_site_label
 _atom_site_symmetry_multiplicity
 _atom_site_fract_x
 _atom_site_fract_y
 _atom_site_fract_z
 _atom_site_occupancy
  Y  Y0  1  0.337341  0.662659  0.431875  1
  Y  Y1  1  0.674049  0.325951  0.555808  1
  Y  Y2  1  0.674049  0.325951  0.944192  1
  Y  Y3  1  0.337341  0.662659  0.068125  1
  Zn  Zn4  1  0.159906  0.354329  0.750000  1
  Zn  Zn5  1  0.645671  0.840094  0.750000  1
  Fe  Fe6  1  0.829375  0.170625  0.250000  1
  Os  Os7  1  0.011950  0.988050  0.501164  1
  Os  Os8  1  0.011950  0.988050  0.998836  1
  Os  Os9  1  0.828864  0.661327  0.250000  1
  Os  Os10  1  0.338673  0.171136  0.250000  1
  Os  Os11  1  0.150831  0.849169  0.750000  1
