# generated using pymatgen
data_La5OsAu2
_symmetry_space_group_name_H-M   'P 1'
_cell_length_a   8.81972300
_cell_length_b   8.73380700
_cell_length_c   12.32960200
_cell_angle_alpha   90.00000000
_cell_angle_beta   90.00000000
_cell_angle_gamma   90.00000000
_symmetry_Int_Tables_number   1
_chemical_formula_structural   La5OsAu2
_chemical_formula_sum   'La20 Os4 Au8'
_cell_volume   949.74626416
_cell_formula_units_Z   4
loop_
 _symmetry_equiv_pos_site_id
 _symmetry_equiv_pos_as_xyz
  1  'x, y, z'
loop_
 _atom_site_type_symbol
 _atom_site_label
 _atom_site_symmetry_multiplicity
 _atom_site_fract_x
 _atom_site_fract_y
 _atom_site_fract_z
 _atom_site_occupancy
  La  La0  1  0.159131  0.750000  0.207753  1
  La  La1  1  0.659131  0.250000  0.292247  1
  La  La2  1  0.840869  0.250000  0.792247  1
  La  La3  1  0.340869  0.750000  0.707753  1
  La  La4  1  0.450283  0.750000  0.999913  1
  La  La5  1  0.950283  0.250000  0.500087  1
  La  La6  1  0.549717  0.250000  0.000087  1
  La  La7  1  0.049717  0.750000  0.499913  1
  La  La8  1  0.612528  0.750000  0.298286  1
  La  La9  1  0.112528  0.250000  0.201714  1
  La  La10  1  0.387472  0.250000  0.701714  1
  La  La11  1  0.887472  0.750000  0.798286  1
  La  La12  1  0.823562  0.961185  0.075573  1
  La  La13  1  0.323562  0.038815  0.424427  1
  La  La14  1  0.176438  0.461185  0.924427  1
  La  La15  1  0.676438  0.538815  0.575573  1
  La  La16  1  0.176438  0.038815  0.924427  1
  La  La17  1  0.676438  0.961185  0.575573  1
  La  La18  1  0.823562  0.538815  0.075573  1
  La  La19  1  0.323562  0.461185  0.424427  1
  Os  Os20  1  0.433142  0.750000  0.488352  1
  Os  Os21  1  0.933142  0.250000  0.011648  1
  Os  Os22  1  0.566858  0.250000  0.511648  1
  Os  Os23  1  0.066858  0.750000  0.988352  1
  Au  Au24  1  0.926433  0.980275  0.328652  1
  Au  Au25  1  0.426433  0.019725  0.171348  1
  Au  Au26  1  0.073567  0.480275  0.671348  1
  Au  Au27  1  0.573567  0.519725  0.828652  1
  Au  Au28  1  0.073567  0.019725  0.671348  1
  Au  Au29  1  0.573567  0.980275  0.828652  1
  Au  Au30  1  0.926433  0.519725  0.328652  1
  Au  Au31  1  0.426433  0.480275  0.171348  1
