# generated using pymatgen
data_Yb6Al23VOs8
_symmetry_space_group_name_H-M   'P 1'
_cell_length_a   8.85207800
_cell_length_b   8.85207850
_cell_length_c   9.62248700
_cell_angle_alpha   90.00000000
_cell_angle_beta   90.00000000
_cell_angle_gamma   119.99999814
_symmetry_Int_Tables_number   1
_chemical_formula_structural   Yb6Al23VOs8
_chemical_formula_sum   'Yb6 Al23 V1 Os8'
_cell_volume   652.99290337
_cell_formula_units_Z   1
loop_
 _symmetry_equiv_pos_site_id
 _symmetry_equiv_pos_as_xyz
  1  'x, y, z'
loop_
 _atom_site_type_symbol
 _atom_site_label
 _atom_site_symmetry_multiplicity
 _atom_site_fract_x
 _atom_site_fract_y
 _atom_site_fract_z
 _atom_site_occupancy
  Yb  Yb0  1  0.195829  0.391658  0.246668  1
  Yb  Yb1  1  0.806489  0.612976  0.748496  1
  Yb  Yb2  1  0.608342  0.804171  0.246668  1
  Yb  Yb3  1  0.387024  0.193511  0.748496  1
  Yb  Yb4  1  0.195829  0.804171  0.246668  1
  Yb  Yb5  1  0.806489  0.193511  0.748496  1
  Al  Al6  1  0.666667  0.333333  0.001309  1
  Al  Al7  1  0.666667  0.333333  0.506082  1
  Al  Al8  1  0.333333  0.666667  0.490706  1
  Al  Al9  1  0.161860  0.323720  0.572108  1
  Al  Al10  1  0.837786  0.675572  0.425711  1
  Al  Al11  1  0.676280  0.838140  0.572108  1
  Al  Al12  1  0.837557  0.675114  0.076422  1
  Al  Al13  1  0.324428  0.162214  0.425711  1
  Al  Al14  1  0.159640  0.319280  0.928675  1
  Al  Al15  1  0.161860  0.838140  0.572108  1
  Al  Al16  1  0.324886  0.162443  0.076422  1
  Al  Al17  1  0.837786  0.162214  0.425711  1
  Al  Al18  1  0.680720  0.840360  0.928675  1
  Al  Al19  1  0.837557  0.162443  0.076422  1
  Al  Al20  1  0.159640  0.840360  0.928675  1
  Al  Al21  1  0.561853  0.123707  0.251959  1
  Al  Al22  1  0.441315  0.882629  0.749796  1
  Al  Al23  1  0.876293  0.438147  0.251959  1
  Al  Al24  1  0.117371  0.558685  0.749796  1
  Al  Al25  1  0.561853  0.438147  0.251959  1
  Al  Al26  1  0.441315  0.558685  0.749796  1
  Al  Al27  1  0.000000  0.000000  0.252852  1
  Al  Al28  1  0.000000  0.000000  0.752036  1
  V  V29  1  0.333333  0.666667  0.977527  1
  Os  Os30  1  0.494754  0.989506  0.002290  1
  Os  Os31  1  0.010494  0.505246  0.002290  1
  Os  Os32  1  0.499377  0.998753  0.502684  1
  Os  Os33  1  0.494754  0.505246  0.002290  1
  Os  Os34  1  0.001247  0.500623  0.502684  1
  Os  Os35  1  0.499377  0.500623  0.502684  1
  Os  Os36  1  0.000000  0.000000  0.003682  1
  Os  Os37  1  0.000000  0.000000  0.501383  1
