# generated using pymatgen
data_Pr3NdFe3CoI2
_symmetry_space_group_name_H-M   'P 1'
_cell_length_a   4.03005400
_cell_length_b   4.03005338
_cell_length_c   18.10011600
_cell_angle_alpha   90.00000000
_cell_angle_beta   90.00000000
_cell_angle_gamma   119.99998870
_symmetry_Int_Tables_number   1
_chemical_formula_structural   Pr3NdFe3CoI2
_chemical_formula_sum   'Pr3 Nd1 Fe3 Co1 I2'
_cell_volume   254.58552249
_cell_formula_units_Z   1
loop_
 _symmetry_equiv_pos_site_id
 _symmetry_equiv_pos_as_xyz
  1  'x, y, z'
loop_
 _atom_site_type_symbol
 _atom_site_label
 _atom_site_symmetry_multiplicity
 _atom_site_fract_x
 _atom_site_fract_y
 _atom_site_fract_z
 _atom_site_occupancy
  Pr  Pr0  1  0.000000  0.000000  0.107350  1
  Pr  Pr1  1  0.000000  0.000000  0.892936  1
  Pr  Pr2  1  0.000000  0.000000  0.607196  1
  Nd  Nd3  1  0.000000  0.000000  0.393210  1
  Fe  Fe4  1  0.333333  0.666667  0.501708  1
  Fe  Fe5  1  0.666667  0.333333  0.497153  1
  Fe  Fe6  1  0.666667  0.333333  0.000731  1
  Co  Co7  1  0.333333  0.666667  0.999471  1
  I  I8  1  0.333333  0.666667  0.249713  1
  I  I9  1  0.666667  0.333333  0.750533  1
