# generated using pymatgen
data_Yb2Y2Ir3RhO14
_symmetry_space_group_name_H-M   'P 1'
_cell_length_a   7.22549775
_cell_length_b   7.22582964
_cell_length_c   7.22583004
_cell_angle_alpha   60.06940607
_cell_angle_beta   60.14541490
_cell_angle_gamma   60.14541409
_symmetry_Int_Tables_number   1
_chemical_formula_structural   Yb2Y2Ir3RhO14
_chemical_formula_sum   'Yb2 Y2 Ir3 Rh1 O14'
_cell_volume   267.49001790
_cell_formula_units_Z   1
loop_
 _symmetry_equiv_pos_site_id
 _symmetry_equiv_pos_as_xyz
  1  'x, y, z'
loop_
 _atom_site_type_symbol
 _atom_site_label
 _atom_site_symmetry_multiplicity
 _atom_site_fract_x
 _atom_site_fract_y
 _atom_site_fract_z
 _atom_site_occupancy
  Yb  Yb0  1  0.625000  0.125000  0.125000  1
  Yb  Yb1  1  0.125000  0.125000  0.125000  1
  Y  Y2  1  0.125000  0.625000  0.125000  1
  Y  Y3  1  0.125000  0.125000  0.625000  1
  Ir  Ir4  1  0.125000  0.625000  0.625000  1
  Ir  Ir5  1  0.625000  0.125000  0.625000  1
  Ir  Ir6  1  0.625000  0.625000  0.125000  1
  Rh  Rh7  1  0.625000  0.625000  0.625000  1
  O  O8  1  0.710864  0.704278  0.290097  1
  O  O9  1  0.295154  0.295879  0.704925  1
  O  O10  1  0.710864  0.290097  0.704278  1
  O  O11  1  0.295154  0.704925  0.295879  1
  O  O12  1  0.288634  0.709210  0.709210  1
  O  O13  1  0.706278  0.297617  0.297617  1
  O  O14  1  0.539136  0.545722  0.959903  1
  O  O15  1  0.954846  0.954121  0.545075  1
  O  O16  1  0.539136  0.959903  0.545722  1
  O  O17  1  0.954846  0.545075  0.954121  1
  O  O18  1  0.961366  0.540790  0.540790  1
  O  O19  1  0.543722  0.952383  0.952383  1
  O  O20  1  0.244666  0.254437  0.254437  1
  O  O21  1  0.005334  0.995563  0.995563  1
