# generated using pymatgen
data_Sc12Cr(Si4Os)3
_symmetry_space_group_name_H-M   'P 1'
_cell_length_a   3.98144500
_cell_length_b   10.34626361
_cell_length_c   11.71615200
_cell_angle_alpha   89.99330828
_cell_angle_beta   90.00000000
_cell_angle_gamma   90.00000000
_symmetry_Int_Tables_number   1
_chemical_formula_structural   Sc12Cr(Si4Os)3
_chemical_formula_sum   'Sc12 Cr1 Si12 Os3'
_cell_volume   482.62437779
_cell_formula_units_Z   1
loop_
 _symmetry_equiv_pos_site_id
 _symmetry_equiv_pos_as_xyz
  1  'x, y, z'
loop_
 _atom_site_type_symbol
 _atom_site_label
 _atom_site_symmetry_multiplicity
 _atom_site_fract_x
 _atom_site_fract_y
 _atom_site_fract_z
 _atom_site_occupancy
  Sc  Sc0  1  0.250000  0.877467  0.020144  1
  Sc  Sc1  1  0.250000  0.622959  0.518047  1
  Sc  Sc2  1  0.750000  0.122654  0.980316  1
  Sc  Sc3  1  0.750000  0.377349  0.481301  1
  Sc  Sc4  1  0.250000  0.921340  0.604028  1
  Sc  Sc5  1  0.250000  0.577962  0.105050  1
  Sc  Sc6  1  0.750000  0.078801  0.394690  1
  Sc  Sc7  1  0.750000  0.421371  0.895622  1
  Sc  Sc8  1  0.250000  0.660230  0.798667  1
  Sc  Sc9  1  0.250000  0.840756  0.297977  1
  Sc  Sc10  1  0.750000  0.340670  0.201961  1
  Sc  Sc11  1  0.750000  0.158656  0.701301  1
  Cr  Cr12  1  0.750000  0.887835  0.823403  1
  Si  Si13  1  0.250000  0.017505  0.823241  1
  Si  Si14  1  0.250000  0.484041  0.321609  1
  Si  Si15  1  0.750000  0.984520  0.176744  1
  Si  Si16  1  0.750000  0.515670  0.677839  1
  Si  Si17  1  0.250000  0.252687  0.842889  1
  Si  Si18  1  0.250000  0.249024  0.342962  1
  Si  Si19  1  0.750000  0.748342  0.157477  1
  Si  Si20  1  0.750000  0.752176  0.656540  1
  Si  Si21  1  0.250000  0.195371  0.545027  1
  Si  Si22  1  0.250000  0.305318  0.045790  1
  Si  Si23  1  0.750000  0.805180  0.454067  1
  Si  Si24  1  0.750000  0.691932  0.955811  1
  Os  Os25  1  0.250000  0.389415  0.676200  1
  Os  Os26  1  0.250000  0.110747  0.177919  1
  Os  Os27  1  0.750000  0.610025  0.323378  1
