# generated using pymatgen
data_Lu4FeTc2Ru5
_symmetry_space_group_name_H-M   'P 1'
_cell_length_a   5.21251401
_cell_length_b   5.15190463
_cell_length_c   8.89666100
_cell_angle_alpha   90.00000000
_cell_angle_beta   90.00000000
_cell_angle_gamma   119.61608589
_symmetry_Int_Tables_number   1
_chemical_formula_structural   Lu4FeTc2Ru5
_chemical_formula_sum   'Lu4 Fe1 Tc2 Ru5'
_cell_volume   207.70160763
_cell_formula_units_Z   1
loop_
 _symmetry_equiv_pos_site_id
 _symmetry_equiv_pos_as_xyz
  1  'x, y, z'
loop_
 _atom_site_type_symbol
 _atom_site_label
 _atom_site_symmetry_multiplicity
 _atom_site_fract_x
 _atom_site_fract_y
 _atom_site_fract_z
 _atom_site_occupancy
  Lu  Lu0  1  0.334054  0.667028  0.432330  1
  Lu  Lu1  1  0.669273  0.334637  0.562394  1
  Lu  Lu2  1  0.669273  0.334637  0.937606  1
  Lu  Lu3  1  0.334054  0.667028  0.067670  1
  Fe  Fe4  1  0.329442  0.164720  0.250000  1
  Tc  Tc5  1  0.165428  0.339171  0.750000  1
  Tc  Tc6  1  0.165428  0.826258  0.750000  1
  Ru  Ru7  1  0.823698  0.652554  0.250000  1
  Ru  Ru8  1  0.653462  0.826731  0.750000  1
  Ru  Ru9  1  0.016095  0.008047  0.003804  1
  Ru  Ru10  1  0.823698  0.171142  0.250000  1
  Ru  Ru11  1  0.016095  0.008047  0.496196  1
