# generated using pymatgen
data_NaZrCo3P7Ru9
_symmetry_space_group_name_H-M   'P 1'
_cell_length_a   9.30287200
_cell_length_b   9.30287158
_cell_length_c   3.78949000
_cell_angle_alpha   90.00000000
_cell_angle_beta   90.00000000
_cell_angle_gamma   120.00000764
_symmetry_Int_Tables_number   1
_chemical_formula_structural   NaZrCo3P7Ru9
_chemical_formula_sum   'Na1 Zr1 Co3 P7 Ru9'
_cell_volume   284.01771895
_cell_formula_units_Z   1
loop_
 _symmetry_equiv_pos_site_id
 _symmetry_equiv_pos_as_xyz
  1  'x, y, z'
loop_
 _atom_site_type_symbol
 _atom_site_label
 _atom_site_symmetry_multiplicity
 _atom_site_fract_x
 _atom_site_fract_y
 _atom_site_fract_z
 _atom_site_occupancy
  Na  Na0  1  0.333333  0.666667  0.000000  1
  Zr  Zr1  1  0.666667  0.333333  0.500000  1
  Co  Co2  1  0.157657  0.270008  0.000000  1
  Co  Co3  1  0.729992  0.887649  0.000000  1
  Co  Co4  1  0.112351  0.842343  0.000000  1
  P  P5  1  0.119384  0.398795  0.500000  1
  P  P6  1  0.601205  0.720590  0.500000  1
  P  P7  1  0.279410  0.880616  0.500000  1
  P  P8  1  0.000000  0.000000  0.000000  1
  P  P9  1  0.415621  0.307828  0.000000  1
  P  P10  1  0.692172  0.107793  0.000000  1
  P  P11  1  0.892207  0.584379  0.000000  1
  Ru  Ru12  1  0.424453  0.068982  0.000000  1
  Ru  Ru13  1  0.931018  0.355472  0.000000  1
  Ru  Ru14  1  0.644528  0.575547  0.000000  1
  Ru  Ru15  1  0.391265  0.437868  0.500000  1
  Ru  Ru16  1  0.562132  0.953395  0.500000  1
  Ru  Ru17  1  0.046605  0.608735  0.500000  1
  Ru  Ru18  1  0.201595  0.083407  0.500000  1
  Ru  Ru19  1  0.916593  0.118187  0.500000  1
  Ru  Ru20  1  0.881813  0.798405  0.500000  1
