# generated using pymatgen
data_LaSmEr4(SbO7)2
_symmetry_space_group_name_H-M   'P 1'
_cell_length_a   6.48772103
_cell_length_b   6.48772139
_cell_length_c   7.57932325
_cell_angle_alpha   89.97604450
_cell_angle_beta   90.02395730
_cell_angle_gamma   108.98468540
_symmetry_Int_Tables_number   1
_chemical_formula_structural   LaSmEr4(SbO7)2
_chemical_formula_sum   'La1 Sm1 Er4 Sb2 O14'
_cell_volume   301.66487799
_cell_formula_units_Z   1
loop_
 _symmetry_equiv_pos_site_id
 _symmetry_equiv_pos_as_xyz
  1  'x, y, z'
loop_
 _atom_site_type_symbol
 _atom_site_label
 _atom_site_symmetry_multiplicity
 _atom_site_fract_x
 _atom_site_fract_y
 _atom_site_fract_z
 _atom_site_occupancy
  La  La0  1  0.500000  0.500000  0.500000  1
  Sm  Sm1  1  0.500000  0.500000  0.000000  1
  Er  Er2  1  0.530697  0.001247  0.752022  1
  Er  Er3  1  0.001247  0.530697  0.247978  1
  Er  Er4  1  0.469303  0.998753  0.247978  1
  Er  Er5  1  0.998753  0.469303  0.752022  1
  Sb  Sb6  1  0.000000  0.000000  0.500000  1
  Sb  Sb7  1  0.000000  0.000000  0.000000  1
  O  O8  1  0.678729  0.934774  0.469593  1
  O  O9  1  0.934774  0.678729  0.530407  1
  O  O10  1  0.678110  0.929948  0.029859  1
  O  O11  1  0.929948  0.678110  0.970141  1
  O  O12  1  0.321271  0.065226  0.530407  1
  O  O13  1  0.065226  0.321271  0.469593  1
  O  O14  1  0.321890  0.070052  0.970141  1
  O  O15  1  0.070052  0.321890  0.029859  1
  O  O16  1  0.929950  0.070050  0.750003  1
  O  O17  1  0.070050  0.929950  0.249997  1
  O  O18  1  0.362207  0.637793  0.756137  1
  O  O19  1  0.637793  0.362207  0.243863  1
  O  O20  1  0.643266  0.356734  0.755163  1
  O  O21  1  0.356734  0.643266  0.244837  1
