# generated using pymatgen
data_Dy7YHo12(CoBi2)4
_symmetry_space_group_name_H-M   'P 1'
_cell_length_a   7.99605912
_cell_length_b   8.88786100
_cell_length_c   12.39694918
_cell_angle_alpha   90.00000000
_cell_angle_beta   89.99994142
_cell_angle_gamma   90.00000000
_symmetry_Int_Tables_number   1
_chemical_formula_structural   Dy7YHo12(CoBi2)4
_chemical_formula_sum   'Dy7 Y1 Ho12 Co4 Bi8'
_cell_volume   881.02467343
_cell_formula_units_Z   1
loop_
 _symmetry_equiv_pos_site_id
 _symmetry_equiv_pos_as_xyz
  1  'x, y, z'
loop_
 _atom_site_type_symbol
 _atom_site_label
 _atom_site_symmetry_multiplicity
 _atom_site_fract_x
 _atom_site_fract_y
 _atom_site_fract_z
 _atom_site_occupancy
  Dy  Dy0  1  0.653160  0.250000  0.300303  1
  Dy  Dy1  1  0.846960  0.250000  0.800424  1
  Dy  Dy2  1  0.153259  0.750000  0.199796  1
  Dy  Dy3  1  0.884401  0.750000  0.810708  1
  Dy  Dy4  1  0.115306  0.250000  0.189346  1
  Dy  Dy5  1  0.384682  0.250000  0.689316  1
  Dy  Dy6  1  0.615530  0.750000  0.310302  1
  Y  Y7  1  0.346330  0.750000  0.700784  1
  Ho  Ho8  1  0.675952  0.537900  0.562732  1
  Ho  Ho9  1  0.324093  0.462230  0.436944  1
  Ho  Ho10  1  0.175855  0.462049  0.936993  1
  Ho  Ho11  1  0.324093  0.037770  0.436944  1
  Ho  Ho12  1  0.824234  0.537841  0.063129  1
  Ho  Ho13  1  0.675952  0.962100  0.562732  1
  Ho  Ho14  1  0.824234  0.962159  0.063129  1
  Ho  Ho15  1  0.175855  0.037951  0.936993  1
  Ho  Ho16  1  0.051875  0.750000  0.497736  1
  Ho  Ho17  1  0.947906  0.250000  0.501911  1
  Ho  Ho18  1  0.552291  0.250000  0.002373  1
  Ho  Ho19  1  0.447947  0.750000  0.998134  1
  Co  Co20  1  0.065896  0.750000  0.991681  1
  Co  Co21  1  0.934164  0.250000  0.008283  1
  Co  Co22  1  0.565724  0.250000  0.508235  1
  Co  Co23  1  0.434502  0.750000  0.490976  1
  Bi  Bi24  1  0.572030  0.509490  0.827101  1
  Bi  Bi25  1  0.428049  0.490281  0.173153  1
  Bi  Bi26  1  0.071682  0.490393  0.672970  1
  Bi  Bi27  1  0.428049  0.009719  0.173153  1
  Bi  Bi28  1  0.928137  0.509506  0.326824  1
  Bi  Bi29  1  0.572030  0.990510  0.827101  1
  Bi  Bi30  1  0.928137  0.990494  0.326824  1
  Bi  Bi31  1  0.071682  0.009607  0.672970  1
