# generated using pymatgen
data_La7Yb11(SmSi8)2
_symmetry_space_group_name_H-M   'P 1'
_cell_length_a   7.55888399
_cell_length_b   7.96441450
_cell_length_c   15.24129700
_cell_angle_alpha   89.89229178
_cell_angle_beta   89.88977265
_cell_angle_gamma   89.89457388
_symmetry_Int_Tables_number   1
_chemical_formula_structural   La7Yb11(SmSi8)2
_chemical_formula_sum   'La7 Yb11 Sm2 Si16'
_cell_volume   917.55299496
_cell_formula_units_Z   1
loop_
 _symmetry_equiv_pos_site_id
 _symmetry_equiv_pos_as_xyz
  1  'x, y, z'
loop_
 _atom_site_type_symbol
 _atom_site_label
 _atom_site_symmetry_multiplicity
 _atom_site_fract_x
 _atom_site_fract_y
 _atom_site_fract_z
 _atom_site_occupancy
  La  La0  1  0.970546  0.813919  0.100209  1
  La  La1  1  0.470449  0.687031  0.399642  1
  La  La2  1  0.526318  0.316139  0.903508  1
  La  La3  1  0.026157  0.182787  0.594291  1
  La  La4  1  0.026920  0.183095  0.900407  1
  La  La5  1  0.527973  0.318522  0.598522  1
  La  La6  1  0.469158  0.686754  0.102289  1
  Yb  Yb7  1  0.645995  0.002052  0.252411  1
  Yb  Yb8  1  0.140196  0.497818  0.253053  1
  Yb  Yb9  1  0.856475  0.495863  0.749771  1
  Yb  Yb10  1  0.355995  0.004915  0.748833  1
  Yb  Yb11  1  0.970271  0.812268  0.399159  1
  Yb  Yb12  1  0.681260  0.818620  0.878424  1
  Yb  Yb13  1  0.181612  0.682573  0.620050  1
  Yb  Yb14  1  0.818444  0.319112  0.122093  1
  Yb  Yb15  1  0.316776  0.177508  0.378306  1
  Yb  Yb16  1  0.318445  0.180114  0.123807  1
  Yb  Yb17  1  0.818161  0.320512  0.377944  1
  Sm  Sm18  1  0.180561  0.683623  0.875336  1
  Sm  Sm19  1  0.682528  0.817094  0.623587  1
  Si  Si20  1  0.752096  0.621705  0.248369  1
  Si  Si21  1  0.254128  0.877579  0.248995  1
  Si  Si22  1  0.746048  0.120540  0.748377  1
  Si  Si23  1  0.246120  0.381117  0.751530  1
  Si  Si24  1  0.027918  0.094260  0.249714  1
  Si  Si25  1  0.526378  0.405519  0.250882  1
  Si  Si26  1  0.471661  0.597433  0.750091  1
  Si  Si27  1  0.972002  0.903704  0.749371  1
  Si  Si28  1  0.863791  0.526768  0.960147  1
  Si  Si29  1  0.365950  0.974522  0.540611  1
  Si  Si30  1  0.640000  0.028450  0.036721  1
  Si  Si31  1  0.142197  0.470477  0.463136  1
  Si  Si32  1  0.145886  0.472421  0.034036  1
  Si  Si33  1  0.646943  0.027159  0.465188  1
  Si  Si34  1  0.356668  0.968560  0.961854  1
  Si  Si35  1  0.857973  0.529465  0.539338  1
