# generated using pymatgen
data_Pr4Cu3Bi8
_symmetry_space_group_name_H-M   'P 1'
_cell_length_a   10.97928993
_cell_length_b   10.97929004
_cell_length_c   10.97929018
_cell_angle_alpha   145.59667904
_cell_angle_beta   145.59668158
_cell_angle_gamma   49.44621821
_symmetry_Int_Tables_number   1
_chemical_formula_structural   Pr4Cu3Bi8
_chemical_formula_sum   'Pr4 Cu3 Bi8'
_cell_volume   420.57027738
_cell_formula_units_Z   1
loop_
 _symmetry_equiv_pos_site_id
 _symmetry_equiv_pos_as_xyz
  1  'x, y, z'
loop_
 _atom_site_type_symbol
 _atom_site_label
 _atom_site_symmetry_multiplicity
 _atom_site_fract_x
 _atom_site_fract_y
 _atom_site_fract_z
 _atom_site_occupancy
  Pr  Pr0  1  0.637809  0.637809  0.506178  1
  Pr  Pr1  1  0.131630  0.131630  0.493822  1
  Pr  Pr2  1  0.362191  0.868370  0.000000  1
  Pr  Pr3  1  0.868370  0.362191  0.000000  1
  Cu  Cu4  1  0.000000  0.000000  0.000000  1
  Cu  Cu5  1  0.000000  0.500000  0.500000  1
  Cu  Cu6  1  0.500000  0.000000  0.500000  1
  Bi  Bi7  1  0.330299  0.330299  0.512403  1
  Bi  Bi8  1  0.817895  0.817895  0.487597  1
  Bi  Bi9  1  0.669701  0.182105  0.000000  1
  Bi  Bi10  1  0.182105  0.669701  0.000000  1
  Bi  Bi11  1  0.250001  0.250001  0.000000  1
  Bi  Bi12  1  0.749999  0.749999  0.000000  1
  Bi  Bi13  1  0.750000  0.250000  0.500000  1
  Bi  Bi14  1  0.250000  0.750000  0.500000  1
