# generated using pymatgen
data_Ba4Nb5O15
_symmetry_space_group_name_H-M   'P 1'
_cell_length_a   9.21474515
_cell_length_b   9.21474546
_cell_length_c   7.12974427
_cell_angle_alpha   74.89961547
_cell_angle_beta   74.89961439
_cell_angle_gamma   36.70610727
_symmetry_Int_Tables_number   1
_chemical_formula_structural   Ba4Nb5O15
_chemical_formula_sum   'Ba4 Nb5 O15'
_cell_volume   347.95557341
_cell_formula_units_Z   1
loop_
 _symmetry_equiv_pos_site_id
 _symmetry_equiv_pos_as_xyz
  1  'x, y, z'
loop_
 _atom_site_type_symbol
 _atom_site_label
 _atom_site_symmetry_multiplicity
 _atom_site_fract_x
 _atom_site_fract_y
 _atom_site_fract_z
 _atom_site_occupancy
  Ba  Ba0  1  0.598404  0.598404  0.607755  1
  Ba  Ba1  1  0.197572  0.197572  0.198329  1
  Ba  Ba2  1  0.802428  0.802428  0.801671  1
  Ba  Ba3  1  0.401596  0.401596  0.392245  1
  Nb  Nb4  1  0.802429  0.802429  0.295591  1
  Nb  Nb5  1  0.597077  0.597077  0.099954  1
  Nb  Nb6  1  0.197571  0.197571  0.704409  1
  Nb  Nb7  1  0.402923  0.402923  0.900046  1
  Nb  Nb8  1  0.000000  0.000000  0.500000  1
  O  O9  1  0.101385  0.593424  0.101465  1
  O  O10  1  0.898615  0.406576  0.898535  1
  O  O11  1  0.500000  0.000000  0.500000  1
  O  O12  1  0.694985  0.203662  0.695056  1
  O  O13  1  0.305015  0.796338  0.304944  1
  O  O14  1  0.000000  0.500000  0.500000  1
  O  O15  1  0.796338  0.305015  0.304944  1
  O  O16  1  0.406576  0.898615  0.898535  1
  O  O17  1  0.593424  0.101385  0.101465  1
  O  O18  1  0.203662  0.694985  0.695056  1
  O  O19  1  0.898249  0.898249  0.405706  1
  O  O20  1  0.700100  0.700100  0.200941  1
  O  O21  1  0.299900  0.299900  0.799059  1
  O  O22  1  0.500000  0.500000  0.000000  1
  O  O23  1  0.101751  0.101751  0.594294  1
