# generated using pymatgen
data_Lu8Ga3Rh
_symmetry_space_group_name_H-M   'P 1'
_cell_length_a   9.86620700
_cell_length_b   9.86620820
_cell_length_c   6.81420200
_cell_angle_alpha   90.00000000
_cell_angle_beta   90.00000000
_cell_angle_gamma   119.99999932
_symmetry_Int_Tables_number   1
_chemical_formula_structural   Lu8Ga3Rh
_chemical_formula_sum   'Lu16 Ga6 Rh2'
_cell_volume   574.44193606
_cell_formula_units_Z   2
loop_
 _symmetry_equiv_pos_site_id
 _symmetry_equiv_pos_as_xyz
  1  'x, y, z'
loop_
 _atom_site_type_symbol
 _atom_site_label
 _atom_site_symmetry_multiplicity
 _atom_site_fract_x
 _atom_site_fract_y
 _atom_site_fract_z
 _atom_site_occupancy
  Lu  Lu0  1  0.000000  0.000000  0.267450  1
  Lu  Lu1  1  0.000000  0.000000  0.767450  1
  Lu  Lu2  1  0.171089  0.828911  0.990874  1
  Lu  Lu3  1  0.828911  0.171089  0.490874  1
  Lu  Lu4  1  0.171089  0.342178  0.990874  1
  Lu  Lu5  1  0.657822  0.828911  0.990874  1
  Lu  Lu6  1  0.342178  0.171089  0.490874  1
  Lu  Lu7  1  0.828911  0.657822  0.490874  1
  Lu  Lu8  1  0.333333  0.666667  0.663617  1
  Lu  Lu9  1  0.666667  0.333333  0.163617  1
  Lu  Lu10  1  0.466396  0.533604  0.295989  1
  Lu  Lu11  1  0.533604  0.466396  0.795989  1
  Lu  Lu12  1  0.466396  0.932793  0.295989  1
  Lu  Lu13  1  0.067207  0.533604  0.295989  1
  Lu  Lu14  1  0.932793  0.466396  0.795989  1
  Lu  Lu15  1  0.533604  0.067207  0.795989  1
  Ga  Ga16  1  0.163435  0.836565  0.541624  1
  Ga  Ga17  1  0.836565  0.163435  0.041624  1
  Ga  Ga18  1  0.163435  0.326871  0.541624  1
  Ga  Ga19  1  0.673129  0.836565  0.541624  1
  Ga  Ga20  1  0.326871  0.163435  0.041624  1
  Ga  Ga21  1  0.836565  0.673129  0.041624  1
  Rh  Rh22  1  0.333333  0.666667  0.056530  1
  Rh  Rh23  1  0.666667  0.333333  0.556530  1
