# generated using pymatgen
data_Nb10GaOs4
_symmetry_space_group_name_H-M   'P 1'
_cell_length_a   9.93289000
_cell_length_b   9.93289000
_cell_length_c   5.16503200
_cell_angle_alpha   90.00000000
_cell_angle_beta   90.00000000
_cell_angle_gamma   90.00000000
_symmetry_Int_Tables_number   1
_chemical_formula_structural   Nb10GaOs4
_chemical_formula_sum   'Nb20 Ga2 Os8'
_cell_volume   509.59395607
_cell_formula_units_Z   2
loop_
 _symmetry_equiv_pos_site_id
 _symmetry_equiv_pos_as_xyz
  1  'x, y, z'
loop_
 _atom_site_type_symbol
 _atom_site_label
 _atom_site_symmetry_multiplicity
 _atom_site_fract_x
 _atom_site_fract_y
 _atom_site_fract_z
 _atom_site_occupancy
  Nb  Nb0  1  0.394747  0.394747  0.000000  1
  Nb  Nb1  1  0.894747  0.105253  0.500000  1
  Nb  Nb2  1  0.105253  0.894747  0.500000  1
  Nb  Nb3  1  0.605253  0.605253  0.000000  1
  Nb  Nb4  1  0.128063  0.465245  0.000000  1
  Nb  Nb5  1  0.965245  0.371937  0.500000  1
  Nb  Nb6  1  0.034755  0.628063  0.500000  1
  Nb  Nb7  1  0.871937  0.534755  0.000000  1
  Nb  Nb8  1  0.371937  0.965245  0.500000  1
  Nb  Nb9  1  0.628063  0.034755  0.500000  1
  Nb  Nb10  1  0.465245  0.128063  0.000000  1
  Nb  Nb11  1  0.534755  0.871937  0.000000  1
  Nb  Nb12  1  0.182534  0.182534  0.250112  1
  Nb  Nb13  1  0.682534  0.317466  0.750112  1
  Nb  Nb14  1  0.317466  0.682534  0.750112  1
  Nb  Nb15  1  0.817466  0.817466  0.250112  1
  Nb  Nb16  1  0.317466  0.682534  0.249888  1
  Nb  Nb17  1  0.682534  0.317466  0.249888  1
  Nb  Nb18  1  0.182534  0.182534  0.749888  1
  Nb  Nb19  1  0.817466  0.817466  0.749888  1
  Ga  Ga20  1  0.000000  0.000000  0.000000  1
  Ga  Ga21  1  0.500000  0.500000  0.500000  1
  Os  Os22  1  0.256563  0.935190  0.000000  1
  Os  Os23  1  0.435190  0.243437  0.500000  1
  Os  Os24  1  0.564810  0.756563  0.500000  1
  Os  Os25  1  0.743437  0.064810  0.000000  1
  Os  Os26  1  0.243437  0.435190  0.500000  1
  Os  Os27  1  0.756563  0.564810  0.500000  1
  Os  Os28  1  0.935190  0.256563  0.000000  1
  Os  Os29  1  0.064810  0.743437  0.000000  1
