# generated using pymatgen
data_Nb2PdPt5
_symmetry_space_group_name_H-M   'P 1'
_cell_length_a   5.61358400
_cell_length_b   4.92779221
_cell_length_c   9.40007606
_cell_angle_alpha   79.42202667
_cell_angle_beta   90.00000000
_cell_angle_gamma   90.00000000
_symmetry_Int_Tables_number   1
_chemical_formula_structural   Nb2PdPt5
_chemical_formula_sum   'Nb4 Pd2 Pt10'
_cell_volume   255.61135716
_cell_formula_units_Z   2
loop_
 _symmetry_equiv_pos_site_id
 _symmetry_equiv_pos_as_xyz
  1  'x, y, z'
loop_
 _atom_site_type_symbol
 _atom_site_label
 _atom_site_symmetry_multiplicity
 _atom_site_fract_x
 _atom_site_fract_y
 _atom_site_fract_z
 _atom_site_occupancy
  Nb  Nb0  1  0.750000  0.378523  0.377712  1
  Nb  Nb1  1  0.250000  0.621477  0.622288  1
  Nb  Nb2  1  0.750000  0.214471  0.872372  1
  Nb  Nb3  1  0.250000  0.785529  0.127628  1
  Pd  Pd4  1  0.750000  0.792165  0.127810  1
  Pd  Pd5  1  0.250000  0.207835  0.872190  1
  Pt  Pt6  1  0.750000  0.609427  0.624577  1
  Pt  Pt7  1  0.250000  0.390573  0.375423  1
  Pt  Pt8  1  0.998786  0.879998  0.373887  1
  Pt  Pt9  1  0.498786  0.120002  0.626113  1
  Pt  Pt10  1  0.001214  0.120002  0.626113  1
  Pt  Pt11  1  0.501214  0.879998  0.373887  1
  Pt  Pt12  1  0.998680  0.291758  0.122454  1
  Pt  Pt13  1  0.498680  0.708242  0.877546  1
  Pt  Pt14  1  0.001320  0.708242  0.877546  1
  Pt  Pt15  1  0.501320  0.291758  0.122454  1
