# generated using pymatgen
data_Li30Si7S
_symmetry_space_group_name_H-M   'P 1'
_cell_length_a   9.14224297
_cell_length_b   9.14224302
_cell_length_c   9.17211200
_cell_angle_alpha   109.53741256
_cell_angle_beta   109.53741266
_cell_angle_gamma   109.40495061
_symmetry_Int_Tables_number   1
_chemical_formula_structural   Li30Si7S
_chemical_formula_sum   'Li30 Si7 S1'
_cell_volume   589.65439061
_cell_formula_units_Z   1
loop_
 _symmetry_equiv_pos_site_id
 _symmetry_equiv_pos_as_xyz
  1  'x, y, z'
loop_
 _atom_site_type_symbol
 _atom_site_label
 _atom_site_symmetry_multiplicity
 _atom_site_fract_x
 _atom_site_fract_y
 _atom_site_fract_z
 _atom_site_occupancy
  Li  Li0  1  0.338625  0.799592  0.734364  1
  Li  Li1  1  0.122179  0.753809  0.876002  1
  Li  Li2  1  0.715038  0.329398  0.803318  1
  Li  Li3  1  0.614360  0.784962  0.588281  1
  Li  Li4  1  0.025071  0.910071  0.684241  1
  Li  Li5  1  0.083389  0.272374  0.110829  1
  Li  Li6  1  0.910300  0.686321  0.021956  1
  Li  Li7  1  0.271473  0.113189  0.087645  1
  Li  Li8  1  0.188985  0.416611  0.527440  1
  Li  Li9  1  0.776020  0.589700  0.611655  1
  Li  Li10  1  0.700408  0.039033  0.934772  1
  Li  Li11  1  0.528282  0.191879  0.410804  1
  Li  Li12  1  0.631630  0.377821  0.253823  1
  Li  Li13  1  0.460967  0.161375  0.895739  1
  Li  Li14  1  0.893948  0.131350  0.759451  1
  Li  Li15  1  0.986345  0.397614  0.669150  1
  Li  Li16  1  0.411269  0.513655  0.182805  1
  Li  Li17  1  0.102386  0.088731  0.271536  1
  Li  Li18  1  0.308121  0.836404  0.218925  1
  Li  Li19  1  0.746191  0.868370  0.122192  1
  Li  Li20  1  0.885000  0.474929  0.159170  1
  Li  Li21  1  0.589929  0.615000  0.774170  1
  Li  Li22  1  0.386811  0.658285  0.974456  1
  Li  Li23  1  0.813679  0.723980  0.335635  1
  Li  Li24  1  0.663596  0.971718  0.382522  1
  Li  Li25  1  0.170602  0.885640  0.473920  1
  Li  Li26  1  0.227626  0.311015  0.838455  1
  Li  Li27  1  0.368650  0.262599  0.628101  1
  Li  Li28  1  0.841715  0.228527  0.316172  1
  Li  Li29  1  0.237401  0.606052  0.365502  1
  Si  Si30  1  0.584749  0.494024  0.993884  1
  Si  Si31  1  0.500000  0.000000  0.091138  1
  Si  Si32  1  0.001319  0.085295  0.502096  1
  Si  Si33  1  0.005976  0.590725  0.499860  1
  Si  Si34  1  0.083976  0.498681  0.000777  1
  Si  Si35  1  0.414705  0.416024  0.416801  1
  Si  Si36  1  0.909275  0.915251  0.909135  1
  S  S37  1  0.500000  0.000000  0.573275  1
