# generated using pymatgen
data_DyTm3GeSe3
_symmetry_space_group_name_H-M   'P 1'
_cell_length_a   7.03487438
_cell_length_b   7.03487423
_cell_length_c   7.03487400
_cell_angle_alpha   131.99052443
_cell_angle_beta   131.99052331
_cell_angle_gamma   70.24399417
_symmetry_Int_Tables_number   1
_chemical_formula_structural   DyTm3GeSe3
_chemical_formula_sum   'Dy1 Tm3 Ge1 Se3'
_cell_volume   188.50916182
_cell_formula_units_Z   1
loop_
 _symmetry_equiv_pos_site_id
 _symmetry_equiv_pos_as_xyz
  1  'x, y, z'
loop_
 _atom_site_type_symbol
 _atom_site_label
 _atom_site_symmetry_multiplicity
 _atom_site_fract_x
 _atom_site_fract_y
 _atom_site_fract_z
 _atom_site_occupancy
  Dy  Dy0  1  0.242358  0.242358  0.000000  1
  Tm  Tm1  1  0.758060  0.758060  0.000000  1
  Tm  Tm2  1  0.499881  0.999881  0.500000  1
  Tm  Tm3  1  0.999881  0.499881  0.500000  1
  Ge  Ge4  1  0.998506  0.998506  0.000000  1
  Se  Se5  1  0.501642  0.501642  0.000000  1
  Se  Se6  1  0.749836  0.249836  0.500000  1
  Se  Se7  1  0.249836  0.749836  0.500000  1
