# generated using pymatgen
data_PaCo2GeP
_symmetry_space_group_name_H-M   'P 1'
_cell_length_a   3.87064000
_cell_length_b   3.87064000
_cell_length_c   9.79832700
_cell_angle_alpha   90.00000000
_cell_angle_beta   90.00000000
_cell_angle_gamma   90.00000000
_symmetry_Int_Tables_number   1
_chemical_formula_structural   PaCo2GeP
_chemical_formula_sum   'Pa2 Co4 Ge2 P2'
_cell_volume   146.79710465
_cell_formula_units_Z   2
loop_
 _symmetry_equiv_pos_site_id
 _symmetry_equiv_pos_as_xyz
  1  'x, y, z'
loop_
 _atom_site_type_symbol
 _atom_site_label
 _atom_site_symmetry_multiplicity
 _atom_site_fract_x
 _atom_site_fract_y
 _atom_site_fract_z
 _atom_site_occupancy
  Pa  Pa0  1  0.750000  0.750000  0.241006  1
  Pa  Pa1  1  0.250000  0.250000  0.758994  1
  Co  Co2  1  0.750000  0.250000  0.000000  1
  Co  Co3  1  0.250000  0.750000  0.000000  1
  Co  Co4  1  0.750000  0.750000  0.652396  1
  Co  Co5  1  0.250000  0.250000  0.347604  1
  Ge  Ge6  1  0.750000  0.250000  0.500000  1
  Ge  Ge7  1  0.250000  0.750000  0.500000  1
  P  P8  1  0.750000  0.750000  0.875629  1
  P  P9  1  0.250000  0.250000  0.124371  1
