# generated using pymatgen
data_Sr3ReCl2O5
_symmetry_space_group_name_H-M   'P 1'
_cell_length_a   7.20818166
_cell_length_b   7.20818084
_cell_length_c   11.21491500
_cell_angle_alpha   90.00000000
_cell_angle_beta   90.00000000
_cell_angle_gamma   133.43777086
_symmetry_Int_Tables_number   1
_chemical_formula_structural   Sr3ReCl2O5
_chemical_formula_sum   'Sr6 Re2 Cl4 O10'
_cell_volume   423.11334174
_cell_formula_units_Z   2
loop_
 _symmetry_equiv_pos_site_id
 _symmetry_equiv_pos_as_xyz
  1  'x, y, z'
loop_
 _atom_site_type_symbol
 _atom_site_label
 _atom_site_symmetry_multiplicity
 _atom_site_fract_x
 _atom_site_fract_y
 _atom_site_fract_z
 _atom_site_occupancy
  Sr  Sr0  1  0.899993  0.100007  0.750000  1
  Sr  Sr1  1  0.657682  0.342318  0.540116  1
  Sr  Sr2  1  0.342318  0.657682  0.459884  1
  Sr  Sr3  1  0.657682  0.342318  0.959884  1
  Sr  Sr4  1  0.342318  0.657682  0.040116  1
  Sr  Sr5  1  0.100007  0.899993  0.250000  1
  Re  Re6  1  0.763547  0.236453  0.250000  1
  Re  Re7  1  0.236453  0.763547  0.750000  1
  Cl  Cl8  1  0.496949  0.503051  0.250000  1
  Cl  Cl9  1  0.503051  0.496949  0.750000  1
  Cl  Cl10  1  0.000000  0.000000  0.500000  1
  Cl  Cl11  1  0.000000  0.000000  0.000000  1
  O  O12  1  0.105924  0.894076  0.750000  1
  O  O13  1  0.051436  0.491353  0.633817  1
  O  O14  1  0.491353  0.051436  0.366183  1
  O  O15  1  0.508647  0.948564  0.633817  1
  O  O16  1  0.948564  0.508647  0.366183  1
  O  O17  1  0.894076  0.105924  0.250000  1
  O  O18  1  0.051436  0.491353  0.866183  1
  O  O19  1  0.508647  0.948564  0.866183  1
  O  O20  1  0.948564  0.508647  0.133817  1
  O  O21  1  0.491353  0.051436  0.133817  1
