# generated using pymatgen
data_Y2HoSc2(In2Rh)2
_symmetry_space_group_name_H-M   'P 1'
_cell_length_a   3.55551400
_cell_length_b   7.89259921
_cell_length_c   17.96071396
_cell_angle_alpha   90.13197304
_cell_angle_beta   90.00000000
_cell_angle_gamma   90.00000000
_symmetry_Int_Tables_number   1
_chemical_formula_structural   Y2HoSc2(In2Rh)2
_chemical_formula_sum   'Y4 Ho2 Sc4 In8 Rh4'
_cell_volume   504.01665437
_cell_formula_units_Z   2
loop_
 _symmetry_equiv_pos_site_id
 _symmetry_equiv_pos_as_xyz
  1  'x, y, z'
loop_
 _atom_site_type_symbol
 _atom_site_label
 _atom_site_symmetry_multiplicity
 _atom_site_fract_x
 _atom_site_fract_y
 _atom_site_fract_z
 _atom_site_occupancy
  Y  Y0  1  0.000000  0.000000  0.000000  1
  Y  Y1  1  0.000000  0.500000  0.500000  1
  Y  Y2  1  0.000000  0.749618  0.783035  1
  Y  Y3  1  0.000000  0.250382  0.216965  1
  Ho  Ho4  1  0.000000  0.248761  0.717628  1
  Ho  Ho5  1  0.000000  0.751239  0.282372  1
  Sc  Sc6  1  0.000000  0.878172  0.589210  1
  Sc  Sc7  1  0.000000  0.121828  0.410790  1
  Sc  Sc8  1  0.000000  0.377581  0.910939  1
  Sc  Sc9  1  0.000000  0.622419  0.089061  1
  In  In10  1  0.500000  0.810535  0.438641  1
  In  In11  1  0.500000  0.189465  0.561359  1
  In  In12  1  0.500000  0.311640  0.061052  1
  In  In13  1  0.500000  0.688360  0.938948  1
  In  In14  1  0.500000  0.923186  0.150122  1
  In  In15  1  0.500000  0.076814  0.849878  1
  In  In16  1  0.500000  0.424792  0.349751  1
  In  In17  1  0.500000  0.575208  0.650249  1
  Rh  Rh18  1  0.500000  0.965705  0.691650  1
  Rh  Rh19  1  0.500000  0.034295  0.308350  1
  Rh  Rh20  1  0.500000  0.460547  0.807654  1
  Rh  Rh21  1  0.500000  0.539453  0.192346  1
