# generated using pymatgen
data_AcTm(ZnIn)2
_symmetry_space_group_name_H-M   'P 1'
_cell_length_a   4.73218900
_cell_length_b   4.73218921
_cell_length_c   7.86639800
_cell_angle_alpha   90.00000000
_cell_angle_beta   90.00000000
_cell_angle_gamma   119.99997755
_symmetry_Int_Tables_number   1
_chemical_formula_structural   AcTm(ZnIn)2
_chemical_formula_sum   'Ac1 Tm1 Zn2 In2'
_cell_volume   152.55653937
_cell_formula_units_Z   1
loop_
 _symmetry_equiv_pos_site_id
 _symmetry_equiv_pos_as_xyz
  1  'x, y, z'
loop_
 _atom_site_type_symbol
 _atom_site_label
 _atom_site_symmetry_multiplicity
 _atom_site_fract_x
 _atom_site_fract_y
 _atom_site_fract_z
 _atom_site_occupancy
  Ac  Ac0  1  0.000000  0.000000  0.500000  1
  Tm  Tm1  1  0.000000  0.000000  0.000000  1
  Zn  Zn2  1  0.333333  0.666667  0.805234  1
  Zn  Zn3  1  0.666667  0.333333  0.194766  1
  In  In4  1  0.333333  0.666667  0.214937  1
  In  In5  1  0.666667  0.333333  0.785063  1
