# generated using pymatgen
data_Lu5Sc3Hg4
_symmetry_space_group_name_H-M   'P 1'
_cell_length_a   4.93579600
_cell_length_b   6.85382622
_cell_length_c   8.81492630
_cell_angle_alpha   89.73588437
_cell_angle_beta   90.00000000
_cell_angle_gamma   90.00000000
_symmetry_Int_Tables_number   1
_chemical_formula_structural   Lu5Sc3Hg4
_chemical_formula_sum   'Lu5 Sc3 Hg4'
_cell_volume   298.19774950
_cell_formula_units_Z   1
loop_
 _symmetry_equiv_pos_site_id
 _symmetry_equiv_pos_as_xyz
  1  'x, y, z'
loop_
 _atom_site_type_symbol
 _atom_site_label
 _atom_site_symmetry_multiplicity
 _atom_site_fract_x
 _atom_site_fract_y
 _atom_site_fract_z
 _atom_site_occupancy
  Lu  Lu0  1  0.750000  0.672259  0.424535  1
  Lu  Lu1  1  0.250000  0.484553  0.192684  1
  Lu  Lu2  1  0.250000  0.988487  0.299327  1
  Lu  Lu3  1  0.750000  0.514143  0.804371  1
  Lu  Lu4  1  0.750000  0.016303  0.702545  1
  Sc  Sc5  1  0.250000  0.828092  0.925546  1
  Sc  Sc6  1  0.250000  0.324863  0.574275  1
  Sc  Sc7  1  0.750000  0.174638  0.074831  1
  Hg  Hg8  1  0.250000  0.251659  0.901031  1
  Hg  Hg9  1  0.250000  0.753497  0.605036  1
  Hg  Hg10  1  0.750000  0.752024  0.093988  1
  Hg  Hg11  1  0.750000  0.239485  0.401832  1
