# generated using pymatgen
data_Al2GaNi3SnPt9
_symmetry_space_group_name_H-M   'P 1'
_cell_length_a   3.97467100
_cell_length_b   3.97467100
_cell_length_c   14.94218600
_cell_angle_alpha   90.00000000
_cell_angle_beta   90.00000000
_cell_angle_gamma   90.00000000
_symmetry_Int_Tables_number   1
_chemical_formula_structural   Al2GaNi3SnPt9
_chemical_formula_sum   'Al2 Ga1 Ni3 Sn1 Pt9'
_cell_volume   236.05679725
_cell_formula_units_Z   1
loop_
 _symmetry_equiv_pos_site_id
 _symmetry_equiv_pos_as_xyz
  1  'x, y, z'
loop_
 _atom_site_type_symbol
 _atom_site_label
 _atom_site_symmetry_multiplicity
 _atom_site_fract_x
 _atom_site_fract_y
 _atom_site_fract_z
 _atom_site_occupancy
  Al  Al0  1  0.000000  0.000000  0.260018  1
  Al  Al1  1  0.000000  0.000000  0.739982  1
  Ga  Ga2  1  0.000000  0.000000  0.500000  1
  Ni  Ni3  1  0.500000  0.500000  0.259423  1
  Ni  Ni4  1  0.500000  0.500000  0.500000  1
  Ni  Ni5  1  0.500000  0.500000  0.740577  1
  Sn  Sn6  1  0.000000  0.000000  0.000000  1
  Pt  Pt7  1  0.500000  0.500000  0.000000  1
  Pt  Pt8  1  0.500000  0.000000  0.143166  1
  Pt  Pt9  1  0.500000  0.000000  0.378153  1
  Pt  Pt10  1  0.500000  0.000000  0.621847  1
  Pt  Pt11  1  0.500000  0.000000  0.856834  1
  Pt  Pt12  1  0.000000  0.500000  0.143166  1
  Pt  Pt13  1  0.000000  0.500000  0.378153  1
  Pt  Pt14  1  0.000000  0.500000  0.621847  1
  Pt  Pt15  1  0.000000  0.500000  0.856834  1
