# generated using pymatgen
data_Lu3Al2OsC
_symmetry_space_group_name_H-M   'P 1'
_cell_length_a   8.95615570
_cell_length_b   8.95607183
_cell_length_c   8.95672300
_cell_angle_alpha   59.99644612
_cell_angle_beta   59.99629793
_cell_angle_gamma   59.99504562
_symmetry_Int_Tables_number   1
_chemical_formula_structural   Lu3Al2OsC
_chemical_formula_sum   'Lu12 Al8 Os4 C4'
_cell_volume   507.96439169
_cell_formula_units_Z   4
loop_
 _symmetry_equiv_pos_site_id
 _symmetry_equiv_pos_as_xyz
  1  'x, y, z'
loop_
 _atom_site_type_symbol
 _atom_site_label
 _atom_site_symmetry_multiplicity
 _atom_site_fract_x
 _atom_site_fract_y
 _atom_site_fract_z
 _atom_site_occupancy
  Lu  Lu0  1  0.544705  0.955362  0.544547  1
  Lu  Lu1  1  0.294572  0.705335  0.705489  1
  Lu  Lu2  1  0.705216  0.294637  0.294647  1
  Lu  Lu3  1  0.294605  0.705238  0.294633  1
  Lu  Lu4  1  0.705384  0.705485  0.294547  1
  Lu  Lu5  1  0.294637  0.294649  0.705302  1
  Lu  Lu6  1  0.544589  0.544524  0.955411  1
  Lu  Lu7  1  0.955404  0.544698  0.544481  1
  Lu  Lu8  1  0.544761  0.955357  0.955315  1
  Lu  Lu9  1  0.955370  0.955346  0.544620  1
  Lu  Lu10  1  0.705296  0.294597  0.705466  1
  Lu  Lu11  1  0.955404  0.544706  0.955344  1
  Al  Al12  1  0.924702  0.924534  0.924707  1
  Al  Al13  1  0.024120  0.325459  0.325254  1
  Al  Al14  1  0.325376  0.024110  0.325246  1
  Al  Al15  1  0.325327  0.325467  0.023933  1
  Al  Al16  1  0.924632  0.225876  0.924697  1
  Al  Al17  1  0.924620  0.924552  0.226031  1
  Al  Al18  1  0.225918  0.924529  0.924766  1
  Al  Al19  1  0.325385  0.325430  0.325255  1
  Os  Os20  1  0.125195  0.124872  0.124821  1
  Os  Os21  1  0.625002  0.125148  0.125549  1
  Os  Os22  1  0.124998  0.624970  0.124952  1
  Os  Os23  1  0.124761  0.125143  0.625049  1
  C  C24  1  0.625016  0.624991  0.624981  1
  C  C25  1  0.125007  0.624988  0.624998  1
  C  C26  1  0.625007  0.124989  0.624989  1
  C  C27  1  0.624990  0.625004  0.124969  1
