# generated using pymatgen
data_Sc3(Cu2P)2
_symmetry_space_group_name_H-M   'P 1'
_cell_length_a   6.35018400
_cell_length_b   6.35018479
_cell_length_c   3.82990600
_cell_angle_alpha   90.00000000
_cell_angle_beta   90.00000000
_cell_angle_gamma   120.00000629
_symmetry_Int_Tables_number   1
_chemical_formula_structural   Sc3(Cu2P)2
_chemical_formula_sum   'Sc3 Cu4 P2'
_cell_volume   133.74926128
_cell_formula_units_Z   1
loop_
 _symmetry_equiv_pos_site_id
 _symmetry_equiv_pos_as_xyz
  1  'x, y, z'
loop_
 _atom_site_type_symbol
 _atom_site_label
 _atom_site_symmetry_multiplicity
 _atom_site_fract_x
 _atom_site_fract_y
 _atom_site_fract_z
 _atom_site_occupancy
  Sc  Sc0  1  0.000000  0.413433  0.500000  1
  Sc  Sc1  1  0.586567  0.586567  0.500000  1
  Sc  Sc2  1  0.413433  0.000000  0.500000  1
  Cu  Cu3  1  0.000000  0.000000  0.500000  1
  Cu  Cu4  1  0.000000  0.750206  0.000000  1
  Cu  Cu5  1  0.249794  0.249794  0.000000  1
  Cu  Cu6  1  0.750206  0.000000  0.000000  1
  P  P7  1  0.666667  0.333333  0.000000  1
  P  P8  1  0.333333  0.666667  0.000000  1
