# generated using pymatgen
data_Tm8Sc12Si15P
_symmetry_space_group_name_H-M   'P 1'
_cell_length_a   7.04098086
_cell_length_b   7.32427793
_cell_length_c   13.88251600
_cell_angle_alpha   90.00000000
_cell_angle_beta   90.00000000
_cell_angle_gamma   90.08325601
_symmetry_Int_Tables_number   1
_chemical_formula_structural   Tm8Sc12Si15P
_chemical_formula_sum   'Tm8 Sc12 Si15 P1'
_cell_volume   715.92199266
_cell_formula_units_Z   1
loop_
 _symmetry_equiv_pos_site_id
 _symmetry_equiv_pos_as_xyz
  1  'x, y, z'
loop_
 _atom_site_type_symbol
 _atom_site_label
 _atom_site_symmetry_multiplicity
 _atom_site_fract_x
 _atom_site_fract_y
 _atom_site_fract_z
 _atom_site_occupancy
  Tm  Tm0  1  0.010740  0.175914  0.096077  1
  Tm  Tm1  1  0.990022  0.825511  0.901269  1
  Tm  Tm2  1  0.489022  0.676658  0.903984  1
  Tm  Tm3  1  0.990022  0.825511  0.598731  1
  Tm  Tm4  1  0.511514  0.323529  0.095830  1
  Tm  Tm5  1  0.010740  0.175914  0.403923  1
  Tm  Tm6  1  0.511514  0.323529  0.404170  1
  Tm  Tm7  1  0.489022  0.676658  0.596016  1
  Sc  Sc8  1  0.159800  0.502902  0.750000  1
  Sc  Sc9  1  0.838859  0.496556  0.250000  1
  Sc  Sc10  1  0.339165  0.003327  0.250000  1
  Sc  Sc11  1  0.662478  0.998504  0.750000  1
  Sc  Sc12  1  0.327726  0.174345  0.626975  1
  Sc  Sc13  1  0.668178  0.823103  0.375480  1
  Sc  Sc14  1  0.168273  0.677418  0.375233  1
  Sc  Sc15  1  0.668178  0.823103  0.124520  1
  Sc  Sc16  1  0.832898  0.321817  0.626177  1
  Sc  Sc17  1  0.327726  0.174345  0.873025  1
  Sc  Sc18  1  0.832898  0.321817  0.873823  1
  Sc  Sc19  1  0.168273  0.677418  0.124767  1
  Si  Si20  1  0.965379  0.886063  0.250000  1
  Si  Si21  1  0.466389  0.613158  0.250000  1
  Si  Si22  1  0.531738  0.385071  0.750000  1
  Si  Si23  1  0.293534  0.863256  0.750000  1
  Si  Si24  1  0.715079  0.128346  0.250000  1
  Si  Si25  1  0.215348  0.371345  0.250000  1
  Si  Si26  1  0.786193  0.630249  0.750000  1
  Si  Si27  1  0.159481  0.464430  0.539847  1
  Si  Si28  1  0.840468  0.534741  0.461244  1
  Si  Si29  1  0.338776  0.965743  0.460739  1
  Si  Si30  1  0.840468  0.534741  0.038756  1
  Si  Si31  1  0.661074  0.035892  0.540095  1
  Si  Si32  1  0.159481  0.464430  0.960153  1
  Si  Si33  1  0.661074  0.035892  0.959905  1
  Si  Si34  1  0.338776  0.965743  0.039261  1
  P  P35  1  0.029693  0.123019  0.750000  1
