# generated using pymatgen
data_Dy2ZnSi2(PRh3)4
_symmetry_space_group_name_H-M   'P 1'
_cell_length_a   9.71472019
_cell_length_b   9.71472597
_cell_length_c   3.86879826
_cell_angle_alpha   89.95996037
_cell_angle_beta   90.00235224
_cell_angle_gamma   120.02339750
_symmetry_Int_Tables_number   1
_chemical_formula_structural   Dy2ZnSi2(PRh3)4
_chemical_formula_sum   'Dy2 Zn1 Si2 P4 Rh12'
_cell_volume   316.12947663
_cell_formula_units_Z   1
loop_
 _symmetry_equiv_pos_site_id
 _symmetry_equiv_pos_as_xyz
  1  'x, y, z'
loop_
 _atom_site_type_symbol
 _atom_site_label
 _atom_site_symmetry_multiplicity
 _atom_site_fract_x
 _atom_site_fract_y
 _atom_site_fract_z
 _atom_site_occupancy
  Dy  Dy0  1  0.335316  0.668096  0.741932  1
  Dy  Dy1  1  0.666177  0.332888  0.240603  1
  Zn  Zn2  1  0.001929  0.002524  0.682303  1
  Si  Si3  1  0.398161  0.285115  0.739960  1
  Si  Si4  1  0.713181  0.113171  0.740054  1
  P  P5  1  0.884636  0.598671  0.741162  1
  P  P6  1  0.599159  0.712419  0.241456  1
  P  P7  1  0.289151  0.888712  0.241641  1
  P  P8  1  0.115494  0.403399  0.241036  1
  Rh  Rh9  1  0.444485  0.064239  0.740555  1
  Rh  Rh10  1  0.931593  0.385067  0.740583  1
  Rh  Rh11  1  0.622383  0.550790  0.741338  1
  Rh  Rh12  1  0.552209  0.939298  0.240730  1
  Rh  Rh13  1  0.063516  0.612585  0.241335  1
  Rh  Rh14  1  0.390279  0.449312  0.240891  1
  Rh  Rh15  1  0.157881  0.295004  0.741168  1
  Rh  Rh16  1  0.710380  0.866293  0.741805  1
  Rh  Rh17  1  0.127685  0.835968  0.741887  1
  Rh  Rh18  1  0.853957  0.734018  0.241055  1
  Rh  Rh19  1  0.257068  0.114154  0.239033  1
  Rh  Rh20  1  0.885359  0.148277  0.239474  1
