# generated using pymatgen
data_Cs4AcPaTe6
_symmetry_space_group_name_H-M   'P 1'
_cell_length_a   15.42897300
_cell_length_b   7.64121839
_cell_length_c   10.15342000
_cell_angle_alpha   72.23932138
_cell_angle_beta   90.00000000
_cell_angle_gamma   90.00000000
_symmetry_Int_Tables_number   1
_chemical_formula_structural   Cs4AcPaTe6
_chemical_formula_sum   'Cs8 Ac2 Pa2 Te12'
_cell_volume   1139.99654649
_cell_formula_units_Z   2
loop_
 _symmetry_equiv_pos_site_id
 _symmetry_equiv_pos_as_xyz
  1  'x, y, z'
loop_
 _atom_site_type_symbol
 _atom_site_label
 _atom_site_symmetry_multiplicity
 _atom_site_fract_x
 _atom_site_fract_y
 _atom_site_fract_z
 _atom_site_occupancy
  Cs  Cs0  1  0.954133  0.669950  0.669082  1
  Cs  Cs1  1  0.454133  0.830050  0.330918  1
  Cs  Cs2  1  0.043341  0.331514  0.336698  1
  Cs  Cs3  1  0.543341  0.168486  0.663302  1
  Cs  Cs4  1  0.872544  0.088166  0.896992  1
  Cs  Cs5  1  0.372544  0.411834  0.103008  1
  Cs  Cs6  1  0.129399  0.920187  0.102697  1
  Cs  Cs7  1  0.629399  0.579813  0.897303  1
  Ac  Ac8  1  0.249265  0.340202  0.705205  1
  Ac  Ac9  1  0.749265  0.159798  0.294795  1
  Pa  Pa10  1  0.750765  0.660668  0.294270  1
  Pa  Pa11  1  0.250765  0.839332  0.705730  1
  Te  Te12  1  0.912619  0.888456  0.284860  1
  Te  Te13  1  0.412619  0.611544  0.715140  1
  Te  Te14  1  0.087983  0.060178  0.716449  1
  Te  Te15  1  0.587983  0.439822  0.283551  1
  Te  Te16  1  0.820572  0.343242  0.525487  1
  Te  Te17  1  0.320572  0.156758  0.474513  1
  Te  Te18  1  0.177513  0.709684  0.476891  1
  Te  Te19  1  0.677513  0.790316  0.523109  1
  Te  Te20  1  0.843712  0.525945  0.076213  1
  Te  Te21  1  0.343712  0.974055  0.923787  1
  Te  Te22  1  0.158156  0.527158  0.925764  1
  Te  Te23  1  0.658156  0.972842  0.074236  1
