# generated using pymatgen
data_Ta7Si6Tc5
_symmetry_space_group_name_H-M   'P 1'
_cell_length_a   7.58485482
_cell_length_b   7.56091508
_cell_length_c   7.56091451
_cell_angle_alpha   126.70203106
_cell_angle_beta   124.99453895
_cell_angle_gamma   80.07132981
_symmetry_Int_Tables_number   1
_chemical_formula_structural   Ta7Si6Tc5
_chemical_formula_sum   'Ta7 Si6 Tc5'
_cell_volume   275.05053975
_cell_formula_units_Z   1
loop_
 _symmetry_equiv_pos_site_id
 _symmetry_equiv_pos_as_xyz
  1  'x, y, z'
loop_
 _atom_site_type_symbol
 _atom_site_label
 _atom_site_symmetry_multiplicity
 _atom_site_fract_x
 _atom_site_fract_y
 _atom_site_fract_z
 _atom_site_occupancy
  Ta  Ta0  1  0.555357  0.097790  0.041932  1
  Ta  Ta1  1  0.444643  0.486574  0.542433  1
  Ta  Ta2  1  0.962760  0.491341  0.029846  1
  Ta  Ta3  1  0.037240  0.067086  0.528581  1
  Ta  Ta4  1  0.754265  0.911543  0.659425  1
  Ta  Ta5  1  0.245735  0.905159  0.157280  1
  Ta  Ta6  1  0.000000  0.247655  0.247655  1
  Si  Si7  1  0.336567  0.824595  0.497209  1
  Si  Si8  1  0.663433  0.160641  0.488027  1
  Si  Si9  1  0.825183  0.821064  0.985027  1
  Si  Si10  1  0.174817  0.159843  0.995881  1
  Si  Si11  1  0.771453  0.538734  0.259958  1
  Si  Si12  1  0.228547  0.488506  0.767282  1
  Tc  Tc13  1  0.161303  0.753016  0.658807  1
  Tc  Tc14  1  0.838697  0.497503  0.591713  1
  Tc  Tc15  1  0.596491  0.750420  0.091625  1
  Tc  Tc16  1  0.403509  0.495133  0.153929  1
  Tc  Tc17  1  0.500000  0.245392  0.745392  1
