# generated using pymatgen
data_Tb3HoAl17NiPd6
_symmetry_space_group_name_H-M   'P 1'
_cell_length_a   7.59120507
_cell_length_b   7.59014865
_cell_length_c   9.38399100
_cell_angle_alpha   90.00000000
_cell_angle_beta   90.00000000
_cell_angle_gamma   118.60671407
_symmetry_Int_Tables_number   1
_chemical_formula_structural   Tb3HoAl17NiPd6
_chemical_formula_sum   'Tb3 Ho1 Al17 Ni1 Pd6'
_cell_volume   474.68655581
_cell_formula_units_Z   1
loop_
 _symmetry_equiv_pos_site_id
 _symmetry_equiv_pos_as_xyz
  1  'x, y, z'
loop_
 _atom_site_type_symbol
 _atom_site_label
 _atom_site_symmetry_multiplicity
 _atom_site_fract_x
 _atom_site_fract_y
 _atom_site_fract_z
 _atom_site_occupancy
  Tb  Tb0  1  0.989147  0.676168  0.250000  1
  Tb  Tb1  1  0.007414  0.324134  0.750000  1
  Tb  Tb2  1  0.324187  0.007468  0.750000  1
  Ho  Ho3  1  0.676226  0.989185  0.250000  1
  Al  Al4  1  0.863022  0.863088  0.750000  1
  Al  Al5  1  0.005066  0.326867  0.089492  1
  Al  Al6  1  0.999429  0.660743  0.921288  1
  Al  Al7  1  0.999429  0.660743  0.578712  1
  Al  Al8  1  0.327372  0.005321  0.410525  1
  Al  Al9  1  0.005066  0.326867  0.410508  1
  Al  Al10  1  0.660767  0.999428  0.578518  1
  Al  Al11  1  0.660767  0.999428  0.921482  1
  Al  Al12  1  0.327372  0.005321  0.089475  1
  Al  Al13  1  0.329506  0.329511  0.533996  1
  Al  Al14  1  0.666654  0.666897  0.448031  1
  Al  Al15  1  0.666654  0.666897  0.051969  1
  Al  Al16  1  0.329506  0.329511  0.966004  1
  Al  Al17  1  0.340591  0.545866  0.250000  1
  Al  Al18  1  0.654179  0.446877  0.750000  1
  Al  Al19  1  0.545657  0.340287  0.250000  1
  Al  Al20  1  0.446897  0.654211  0.750000  1
  Ni  Ni21  1  0.175596  0.175684  0.250000  1
  Pd  Pd22  1  0.677882  0.327588  0.000584  1
  Pd  Pd23  1  0.327732  0.677938  0.000564  1
  Pd  Pd24  1  0.327732  0.677938  0.499436  1
  Pd  Pd25  1  0.677882  0.327588  0.499416  1
  Pd  Pd26  1  0.994136  0.994225  0.995132  1
  Pd  Pd27  1  0.994136  0.994225  0.504868  1
