# generated using pymatgen
data_Tm2Th(InIr)3
_symmetry_space_group_name_H-M   'P 1'
_cell_length_a   7.53971849
_cell_length_b   7.75059274
_cell_length_c   3.90654900
_cell_angle_alpha   90.00000000
_cell_angle_beta   90.00000000
_cell_angle_gamma   120.92958856
_symmetry_Int_Tables_number   1
_chemical_formula_structural   Tm2Th(InIr)3
_chemical_formula_sum   'Tm2 Th1 In3 Ir3'
_cell_volume   195.82546111
_cell_formula_units_Z   1
loop_
 _symmetry_equiv_pos_site_id
 _symmetry_equiv_pos_as_xyz
  1  'x, y, z'
loop_
 _atom_site_type_symbol
 _atom_site_label
 _atom_site_symmetry_multiplicity
 _atom_site_fract_x
 _atom_site_fract_y
 _atom_site_fract_z
 _atom_site_occupancy
  Tm  Tm0  1  0.597125  0.596726  0.500000  1
  Tm  Tm1  1  0.402875  0.999601  0.500000  1
  Th  Th2  1  0.000000  0.416736  0.500000  1
  In  In3  1  0.269122  0.258141  0.000000  1
  In  In4  1  0.000000  0.754800  0.000000  1
  In  In5  1  0.730878  0.989020  0.000000  1
  Ir  Ir6  1  0.320758  0.651461  0.000000  1
  Ir  Ir7  1  0.000000  0.002813  0.500000  1
  Ir  Ir8  1  0.679242  0.330702  0.000000  1
