# generated using pymatgen
data_Pr6Al24Os5Pt3
_symmetry_space_group_name_H-M   'P 1'
_cell_length_a   8.92973236
_cell_length_b   8.98053508
_cell_length_c   9.69717540
_cell_angle_alpha   89.96203792
_cell_angle_beta   90.08085755
_cell_angle_gamma   119.90812291
_symmetry_Int_Tables_number   1
_chemical_formula_structural   Pr6Al24Os5Pt3
_chemical_formula_sum   'Pr6 Al24 Os5 Pt3'
_cell_volume   674.08930688
_cell_formula_units_Z   1
loop_
 _symmetry_equiv_pos_site_id
 _symmetry_equiv_pos_as_xyz
  1  'x, y, z'
loop_
 _atom_site_type_symbol
 _atom_site_label
 _atom_site_symmetry_multiplicity
 _atom_site_fract_x
 _atom_site_fract_y
 _atom_site_fract_z
 _atom_site_occupancy
  Pr  Pr0  1  0.192098  0.380136  0.249809  1
  Pr  Pr1  1  0.807902  0.619864  0.750191  1
  Pr  Pr2  1  0.616700  0.809670  0.250103  1
  Pr  Pr3  1  0.383300  0.190330  0.749897  1
  Pr  Pr4  1  0.194595  0.812726  0.250910  1
  Pr  Pr5  1  0.805405  0.187274  0.749090  1
  Al  Al6  1  0.334797  0.671048  0.020504  1
  Al  Al7  1  0.665203  0.328952  0.979496  1
  Al  Al8  1  0.661906  0.331166  0.519886  1
  Al  Al9  1  0.338094  0.668834  0.480114  1
  Al  Al10  1  0.167518  0.325980  0.573096  1
  Al  Al11  1  0.832482  0.674020  0.426904  1
  Al  Al12  1  0.670509  0.834950  0.573663  1
  Al  Al13  1  0.837962  0.675415  0.075966  1
  Al  Al14  1  0.329491  0.165050  0.426337  1
  Al  Al15  1  0.162038  0.324585  0.924034  1
  Al  Al16  1  0.167109  0.841223  0.576167  1
  Al  Al17  1  0.326833  0.158430  0.076145  1
  Al  Al18  1  0.832891  0.158777  0.423833  1
  Al  Al19  1  0.673167  0.841570  0.923855  1
  Al  Al20  1  0.832406  0.158221  0.076600  1
  Al  Al21  1  0.167594  0.841779  0.923400  1
  Al  Al22  1  0.563302  0.126000  0.249746  1
  Al  Al23  1  0.436698  0.874000  0.750254  1
  Al  Al24  1  0.872508  0.435832  0.249294  1
  Al  Al25  1  0.127492  0.564168  0.750706  1
  Al  Al26  1  0.563276  0.436363  0.253131  1
  Al  Al27  1  0.436724  0.563637  0.746869  1
  Al  Al28  1  0.002788  0.003039  0.250284  1
  Al  Al29  1  0.997212  0.996961  0.749716  1
  Os  Os30  1  0.500000  0.000000  0.000000  1
  Os  Os31  1  0.500000  0.000000  0.500000  1
  Os  Os32  1  0.500000  0.500000  0.500000  1
  Os  Os33  1  0.000000  0.000000  0.000000  1
  Os  Os34  1  0.000000  0.000000  0.500000  1
  Pt  Pt35  1  0.000000  0.500000  0.000000  1
  Pt  Pt36  1  0.500000  0.500000  0.000000  1
  Pt  Pt37  1  0.000000  0.500000  0.500000  1
