# generated using pymatgen
data_Er3U(VB4)4
_symmetry_space_group_name_H-M   'P 1'
_cell_length_a   3.45526600
_cell_length_b   5.96356846
_cell_length_c   11.54977281
_cell_angle_alpha   89.91999574
_cell_angle_beta   90.00000000
_cell_angle_gamma   90.00000000
_symmetry_Int_Tables_number   1
_chemical_formula_structural   Er3U(VB4)4
_chemical_formula_sum   'Er3 U1 V4 B16'
_cell_volume   237.99109857
_cell_formula_units_Z   1
loop_
 _symmetry_equiv_pos_site_id
 _symmetry_equiv_pos_as_xyz
  1  'x, y, z'
loop_
 _atom_site_type_symbol
 _atom_site_label
 _atom_site_symmetry_multiplicity
 _atom_site_fract_x
 _atom_site_fract_y
 _atom_site_fract_z
 _atom_site_occupancy
  Er  Er0  1  0.500000  0.874532  0.152277  1
  Er  Er1  1  0.500000  0.622789  0.649294  1
  Er  Er2  1  0.500000  0.375247  0.349228  1
  U  U3  1  0.500000  0.126283  0.848677  1
  V  V4  1  0.500000  0.125792  0.585382  1
  V  V5  1  0.500000  0.872347  0.417773  1
  V  V6  1  0.500000  0.628397  0.915313  1
  V  V7  1  0.500000  0.371803  0.081233  1
  B  B8  1  0.000000  0.284109  0.686796  1
  B  B9  1  0.000000  0.713640  0.313876  1
  B  B10  1  0.000000  0.788111  0.814741  1
  B  B11  1  0.000000  0.215674  0.186411  1
  B  B12  1  0.000000  0.364931  0.532773  1
  B  B13  1  0.000000  0.634423  0.467503  1
  B  B14  1  0.000000  0.866873  0.966413  1
  B  B15  1  0.000000  0.135954  0.031792  1
  B  B16  1  0.000000  0.023965  0.307388  1
  B  B17  1  0.000000  0.977249  0.692872  1
  B  B18  1  0.000000  0.523303  0.192923  1
  B  B19  1  0.000000  0.473407  0.807994  1
  B  B20  1  0.000000  0.114918  0.452770  1
  B  B21  1  0.000000  0.885036  0.547064  1
  B  B22  1  0.000000  0.615305  0.047241  1
  B  B23  1  0.000000  0.385913  0.952267  1
