# generated using pymatgen
data_Dy5GaSb2
_symmetry_space_group_name_H-M   'P 1'
_cell_length_a   6.41928900
_cell_length_b   8.86484872
_cell_length_c   8.85842601
_cell_angle_alpha   119.97627368
_cell_angle_beta   90.00008990
_cell_angle_gamma   90.00007834
_symmetry_Int_Tables_number   1
_chemical_formula_structural   Dy5GaSb2
_chemical_formula_sum   'Dy10 Ga2 Sb4'
_cell_volume   436.66585472
_cell_formula_units_Z   2
loop_
 _symmetry_equiv_pos_site_id
 _symmetry_equiv_pos_as_xyz
  1  'x, y, z'
loop_
 _atom_site_type_symbol
 _atom_site_label
 _atom_site_symmetry_multiplicity
 _atom_site_fract_x
 _atom_site_fract_y
 _atom_site_fract_z
 _atom_site_occupancy
  Dy  Dy0  1  0.504712  0.341510  0.669131  1
  Dy  Dy1  1  0.504718  0.658486  0.327614  1
  Dy  Dy2  1  0.995284  0.658486  0.327613  1
  Dy  Dy3  1  0.995289  0.341512  0.669131  1
  Dy  Dy4  1  0.749999  0.249381  0.011022  1
  Dy  Dy5  1  0.750001  0.750626  0.761631  1
  Dy  Dy6  1  0.750001  0.999991  0.236307  1
  Dy  Dy7  1  0.250000  0.758741  0.999039  1
  Dy  Dy8  1  0.250002  0.241272  0.240300  1
  Dy  Dy9  1  0.250001  0.999998  0.758061  1
  Ga  Ga10  1  0.749995  0.607196  0.001464  1
  Ga  Ga11  1  0.750000  0.392829  0.394230  1
  Sb  Sb12  1  0.750002  0.999981  0.609754  1
  Sb  Sb13  1  0.249999  0.393401  0.997266  1
  Sb  Sb14  1  0.250002  0.606608  0.603843  1
  Sb  Sb15  1  0.250000  0.999984  0.393593  1
