# generated using pymatgen
data_PrSmPa8O20
_symmetry_space_group_name_H-M   'P 1'
_cell_length_a   6.71717958
_cell_length_b   7.76105718
_cell_length_c   8.67575688
_cell_angle_alpha   102.95200219
_cell_angle_beta   97.39955040
_cell_angle_gamma   106.73103407
_symmetry_Int_Tables_number   1
_chemical_formula_structural   PrSmPa8O20
_chemical_formula_sum   'Pr1 Sm1 Pa8 O20'
_cell_volume   412.96734751
_cell_formula_units_Z   1
loop_
 _symmetry_equiv_pos_site_id
 _symmetry_equiv_pos_as_xyz
  1  'x, y, z'
loop_
 _atom_site_type_symbol
 _atom_site_label
 _atom_site_symmetry_multiplicity
 _atom_site_fract_x
 _atom_site_fract_y
 _atom_site_fract_z
 _atom_site_occupancy
  Pr  Pr0  1  0.200273  0.900097  0.398616  1
  Sm  Sm1  1  0.999631  0.999887  0.000624  1
  Pa  Pa2  1  0.802373  0.601956  0.601293  1
  Pa  Pa3  1  0.598209  0.198863  0.199403  1
  Pa  Pa4  1  0.999653  0.500708  0.000654  1
  Pa  Pa5  1  0.800021  0.099444  0.601099  1
  Pa  Pa6  1  0.400447  0.800917  0.800285  1
  Pa  Pa7  1  0.199978  0.398775  0.398622  1
  Pa  Pa8  1  0.602761  0.701346  0.200069  1
  Pa  Pa9  1  0.396945  0.298071  0.799515  1
  O  O10  1  0.848059  0.325670  0.450652  1
  O  O11  1  0.639374  0.922756  0.050165  1
  O  O12  1  0.937538  0.761917  0.143581  1
  O  O13  1  0.452363  0.524558  0.650288  1
  O  O14  1  0.839014  0.822042  0.452844  1
  O  O15  1  0.645947  0.422804  0.048738  1
  O  O16  1  0.748479  0.376049  0.750231  1
  O  O17  1  0.259863  0.139398  0.251072  1
  O  O18  1  0.944498  0.281470  0.153816  1
  O  O19  1  0.459140  0.030369  0.658175  1
  O  O20  1  0.564515  0.978611  0.348768  1
  O  O21  1  0.052353  0.718086  0.846798  1
  O  O22  1  0.744212  0.871122  0.745378  1
  O  O23  1  0.351653  0.574416  0.948999  1
  O  O24  1  0.255139  0.614697  0.243946  1
  O  O25  1  0.554162  0.476684  0.351357  1
  O  O26  1  0.147223  0.185202  0.555031  1
  O  O27  1  0.049588  0.231231  0.847984  1
  O  O28  1  0.356817  0.076823  0.947870  1
  O  O29  1  0.149772  0.666031  0.554131  1
