# generated using pymatgen
data_YHo7(SiI6)2
_symmetry_space_group_name_H-M   'P 1'
_cell_length_a   4.18853800
_cell_length_b   13.98718103
_cell_length_c   14.74610303
_cell_angle_alpha   90.00711018
_cell_angle_beta   90.00000000
_cell_angle_gamma   90.00000000
_symmetry_Int_Tables_number   1
_chemical_formula_structural   YHo7(SiI6)2
_chemical_formula_sum   'Y1 Ho7 Si2 I12'
_cell_volume   863.91281485
_cell_formula_units_Z   1
loop_
 _symmetry_equiv_pos_site_id
 _symmetry_equiv_pos_as_xyz
  1  'x, y, z'
loop_
 _atom_site_type_symbol
 _atom_site_label
 _atom_site_symmetry_multiplicity
 _atom_site_fract_x
 _atom_site_fract_y
 _atom_site_fract_z
 _atom_site_occupancy
  Y  Y0  1  0.500000  0.114407  0.348093  1
  Ho  Ho1  1  0.500000  0.885542  0.651994  1
  Ho  Ho2  1  0.500000  0.614068  0.151325  1
  Ho  Ho3  1  0.500000  0.385987  0.848593  1
  Ho  Ho4  1  0.000000  0.110653  0.574412  1
  Ho  Ho5  1  0.000000  0.889476  0.425402  1
  Ho  Ho6  1  0.000000  0.610436  0.925560  1
  Ho  Ho7  1  0.000000  0.389736  0.074264  1
  Si  Si8  1  0.500000  0.999536  0.500604  1
  Si  Si9  1  0.500000  0.500107  0.999905  1
  I  I10  1  0.500000  0.246834  0.161413  1
  I  I11  1  0.500000  0.753596  0.837905  1
  I  I12  1  0.500000  0.746279  0.337952  1
  I  I13  1  0.500000  0.253571  0.662317  1
  I  I14  1  0.000000  0.259536  0.416343  1
  I  I15  1  0.000000  0.741863  0.585010  1
  I  I16  1  0.000000  0.758003  0.084876  1
  I  I17  1  0.000000  0.242017  0.914968  1
  I  I18  1  0.000000  0.998009  0.240314  1
  I  I19  1  0.000000  0.000248  0.758849  1
  I  I20  1  0.000000  0.499864  0.258622  1
  I  I21  1  0.000000  0.500230  0.741279  1
