# generated using pymatgen
data_Dy10SiPb6
_symmetry_space_group_name_H-M   'P 1'
_cell_length_a   6.56483100
_cell_length_b   9.13320533
_cell_length_c   9.13275000
_cell_angle_alpha   120.00165403
_cell_angle_beta   90.00039275
_cell_angle_gamma   89.99922020
_symmetry_Int_Tables_number   1
_chemical_formula_structural   Dy10SiPb6
_chemical_formula_sum   'Dy10 Si1 Pb6'
_cell_volume   474.21112060
_cell_formula_units_Z   1
loop_
 _symmetry_equiv_pos_site_id
 _symmetry_equiv_pos_as_xyz
  1  'x, y, z'
loop_
 _atom_site_type_symbol
 _atom_site_label
 _atom_site_symmetry_multiplicity
 _atom_site_fract_x
 _atom_site_fract_y
 _atom_site_fract_z
 _atom_site_occupancy
  Dy  Dy0  1  0.500000  0.333394  0.666790  1
  Dy  Dy1  1  0.500000  0.666605  0.333210  1
  Dy  Dy2  1  0.000001  0.666660  0.333320  1
  Dy  Dy3  1  0.000001  0.333341  0.666680  1
  Dy  Dy4  1  0.746509  0.248370  0.000000  1
  Dy  Dy5  1  0.746308  0.751505  0.751516  1
  Dy  Dy6  1  0.746308  0.999988  0.248484  1
  Dy  Dy7  1  0.253491  0.751629  0.000000  1
  Dy  Dy8  1  0.253691  0.248495  0.248484  1
  Dy  Dy9  1  0.253691  0.000012  0.751516  1
  Si  Si10  1  0.499999  0.000000  0.000000  1
  Pb  Pb11  1  0.750657  0.608789  0.000000  1
  Pb  Pb12  1  0.750606  0.391204  0.391254  1
  Pb  Pb13  1  0.750606  0.999950  0.608746  1
  Pb  Pb14  1  0.249343  0.391211  0.000000  1
  Pb  Pb15  1  0.249394  0.608796  0.608746  1
  Pb  Pb16  1  0.249394  0.000050  0.391254  1
