# generated using pymatgen
data_LiPr2MgPb2
_symmetry_space_group_name_H-M   'P 1'
_cell_length_a   7.72172200
_cell_length_b   4.91642400
_cell_length_c   8.67696200
_cell_angle_alpha   90.00000000
_cell_angle_beta   90.00000000
_cell_angle_gamma   90.00000000
_symmetry_Int_Tables_number   1
_chemical_formula_structural   LiPr2MgPb2
_chemical_formula_sum   'Li2 Pr4 Mg2 Pb4'
_cell_volume   329.40575888
_cell_formula_units_Z   2
loop_
 _symmetry_equiv_pos_site_id
 _symmetry_equiv_pos_as_xyz
  1  'x, y, z'
loop_
 _atom_site_type_symbol
 _atom_site_label
 _atom_site_symmetry_multiplicity
 _atom_site_fract_x
 _atom_site_fract_y
 _atom_site_fract_z
 _atom_site_occupancy
  Li  Li0  1  0.174477  0.250000  0.927485  1
  Li  Li1  1  0.674477  0.250000  0.572515  1
  Pr  Pr2  1  0.010192  0.250000  0.286673  1
  Pr  Pr3  1  0.510192  0.250000  0.213327  1
  Pr  Pr4  1  0.996594  0.750000  0.718715  1
  Pr  Pr5  1  0.496594  0.750000  0.781285  1
  Mg  Mg6  1  0.817638  0.750000  0.079130  1
  Mg  Mg7  1  0.317638  0.750000  0.420870  1
  Pb  Pb8  1  0.265417  0.250000  0.601459  1
  Pb  Pb9  1  0.765417  0.250000  0.898541  1
  Pb  Pb10  1  0.735681  0.750000  0.414057  1
  Pb  Pb11  1  0.235681  0.750000  0.085943  1
