# generated using pymatgen
data_Ho12MnTc2Ni2Sn
_symmetry_space_group_name_H-M   'P 1'
_cell_length_a   8.35608467
_cell_length_b   8.35608567
_cell_length_c   8.35608515
_cell_angle_alpha   113.04343641
_cell_angle_beta   111.36037738
_cell_angle_gamma   104.14273510
_symmetry_Int_Tables_number   1
_chemical_formula_structural   Ho12MnTc2Ni2Sn
_chemical_formula_sum   'Ho12 Mn1 Tc2 Ni2 Sn1'
_cell_volume   446.16139580
_cell_formula_units_Z   1
loop_
 _symmetry_equiv_pos_site_id
 _symmetry_equiv_pos_as_xyz
  1  'x, y, z'
loop_
 _atom_site_type_symbol
 _atom_site_label
 _atom_site_symmetry_multiplicity
 _atom_site_fract_x
 _atom_site_fract_y
 _atom_site_fract_z
 _atom_site_occupancy
  Ho  Ho0  1  0.428669  0.236124  0.192544  1
  Ho  Ho1  1  0.571331  0.763876  0.807456  1
  Ho  Ho2  1  0.043579  0.236124  0.807456  1
  Ho  Ho3  1  0.956421  0.763876  0.192544  1
  Ho  Ho4  1  0.181578  0.280841  0.462420  1
  Ho  Ho5  1  0.818422  0.719159  0.537580  1
  Ho  Ho6  1  0.181578  0.719159  0.900738  1
  Ho  Ho7  1  0.818422  0.280841  0.099262  1
  Ho  Ho8  1  0.329361  0.643748  0.314387  1
  Ho  Ho9  1  0.670639  0.356252  0.685613  1
  Ho  Ho10  1  0.329361  0.014974  0.685613  1
  Ho  Ho11  1  0.670639  0.985026  0.314387  1
  Mn  Mn12  1  0.000000  0.000000  0.000000  1
  Tc  Tc13  1  0.318020  0.000000  0.318020  1
  Tc  Tc14  1  0.681980  0.000000  0.681980  1
  Ni  Ni15  1  0.116611  0.616611  0.500000  1
  Ni  Ni16  1  0.883389  0.383389  0.500000  1
  Sn  Sn17  1  0.500000  0.500000  0.000000  1
