# generated using pymatgen
data_Ac5Sn3S
_symmetry_space_group_name_H-M   'P 1'
_cell_length_a   9.96950700
_cell_length_b   9.96950747
_cell_length_c   7.38023900
_cell_angle_alpha   90.00000000
_cell_angle_beta   90.00000000
_cell_angle_gamma   120.00000840
_symmetry_Int_Tables_number   1
_chemical_formula_structural   Ac5Sn3S
_chemical_formula_sum   'Ac10 Sn6 S2'
_cell_volume   635.25546040
_cell_formula_units_Z   2
loop_
 _symmetry_equiv_pos_site_id
 _symmetry_equiv_pos_as_xyz
  1  'x, y, z'
loop_
 _atom_site_type_symbol
 _atom_site_label
 _atom_site_symmetry_multiplicity
 _atom_site_fract_x
 _atom_site_fract_y
 _atom_site_fract_z
 _atom_site_occupancy
  Ac  Ac0  1  0.666667  0.333333  0.000000  1
  Ac  Ac1  1  0.333333  0.666667  0.000000  1
  Ac  Ac2  1  0.333333  0.666667  0.500000  1
  Ac  Ac3  1  0.666667  0.333333  0.500000  1
  Ac  Ac4  1  0.753793  0.753793  0.750000  1
  Ac  Ac5  1  0.246207  0.000000  0.750000  1
  Ac  Ac6  1  0.000000  0.246207  0.750000  1
  Ac  Ac7  1  0.246207  0.246207  0.250000  1
  Ac  Ac8  1  0.753793  0.000000  0.250000  1
  Ac  Ac9  1  0.000000  0.753793  0.250000  1
  Sn  Sn10  1  0.394697  0.394697  0.750000  1
  Sn  Sn11  1  0.605303  0.000000  0.750000  1
  Sn  Sn12  1  0.000000  0.605303  0.750000  1
  Sn  Sn13  1  0.605303  0.605303  0.250000  1
  Sn  Sn14  1  0.394697  0.000000  0.250000  1
  Sn  Sn15  1  0.000000  0.394697  0.250000  1
  S  S16  1  0.000000  0.000000  0.000000  1
  S  S17  1  0.000000  0.000000  0.500000  1
