# generated using pymatgen
data_Rb2SnHgS4
_symmetry_space_group_name_H-M   'P 1'
_cell_length_a   8.07043166
_cell_length_b   8.07043188
_cell_length_c   15.74757226
_cell_angle_alpha   84.02529930
_cell_angle_beta   84.02535593
_cell_angle_gamma   89.75212986
_symmetry_Int_Tables_number   1
_chemical_formula_structural   Rb2SnHgS4
_chemical_formula_sum   'Rb8 Sn4 Hg4 S16'
_cell_volume   1014.53425997
_cell_formula_units_Z   4
loop_
 _symmetry_equiv_pos_site_id
 _symmetry_equiv_pos_as_xyz
  1  'x, y, z'
loop_
 _atom_site_type_symbol
 _atom_site_label
 _atom_site_symmetry_multiplicity
 _atom_site_fract_x
 _atom_site_fract_y
 _atom_site_fract_z
 _atom_site_occupancy
  Rb  Rb0  1  0.854710  0.720942  0.115171  1
  Rb  Rb1  1  0.279058  0.145290  0.384829  1
  Rb  Rb2  1  0.145290  0.279058  0.884829  1
  Rb  Rb3  1  0.720942  0.854710  0.615171  1
  Rb  Rb4  1  0.348890  0.700538  0.113953  1
  Rb  Rb5  1  0.299462  0.651110  0.386047  1
  Rb  Rb6  1  0.651110  0.299462  0.886047  1
  Rb  Rb7  1  0.700538  0.348890  0.613953  1
  Sn  Sn8  1  0.406622  0.795756  0.846540  1
  Sn  Sn9  1  0.204243  0.593375  0.653458  1
  Sn  Sn10  1  0.593378  0.204244  0.153460  1
  Sn  Sn11  1  0.795757  0.406625  0.346542  1
  Hg  Hg12  1  0.911923  0.814530  0.835696  1
  Hg  Hg13  1  0.185469  0.088077  0.664304  1
  Hg  Hg14  1  0.088077  0.185470  0.164304  1
  Hg  Hg15  1  0.814531  0.911923  0.335696  1
  S  S16  1  0.148274  0.755090  0.938183  1
  S  S17  1  0.244910  0.851726  0.561817  1
  S  S18  1  0.851726  0.244910  0.061817  1
  S  S19  1  0.755090  0.148274  0.438183  1
  S  S20  1  0.632202  0.726955  0.933100  1
  S  S21  1  0.273045  0.367799  0.566901  1
  S  S22  1  0.367798  0.273045  0.066900  1
  S  S23  1  0.726955  0.632201  0.433099  1
  S  S24  1  0.908858  0.091142  0.750000  1
  S  S25  1  0.091142  0.908858  0.250000  1
  S  S26  1  0.939175  0.560335  0.737542  1
  S  S27  1  0.439665  0.060825  0.762458  1
  S  S28  1  0.060825  0.439665  0.262458  1
  S  S29  1  0.560335  0.939175  0.237542  1
  S  S30  1  0.431631  0.568369  0.750000  1
  S  S31  1  0.568369  0.431631  0.250000  1
