# generated using pymatgen
data_SmGd5NiRh17
_symmetry_space_group_name_H-M   'P 1'
_cell_length_a   5.26034000
_cell_length_b   5.26034080
_cell_length_c   17.41651300
_cell_angle_alpha   90.00000000
_cell_angle_beta   90.00000000
_cell_angle_gamma   119.99999495
_symmetry_Int_Tables_number   1
_chemical_formula_structural   SmGd5NiRh17
_chemical_formula_sum   'Sm1 Gd5 Ni1 Rh17'
_cell_volume   417.36839516
_cell_formula_units_Z   1
loop_
 _symmetry_equiv_pos_site_id
 _symmetry_equiv_pos_as_xyz
  1  'x, y, z'
loop_
 _atom_site_type_symbol
 _atom_site_label
 _atom_site_symmetry_multiplicity
 _atom_site_fract_x
 _atom_site_fract_y
 _atom_site_fract_z
 _atom_site_occupancy
  Sm  Sm0  1  0.666667  0.333333  0.250000  1
  Gd  Gd1  1  0.333333  0.666667  0.958212  1
  Gd  Gd2  1  0.666667  0.333333  0.041765  1
  Gd  Gd3  1  0.666667  0.333333  0.458235  1
  Gd  Gd4  1  0.333333  0.666667  0.541788  1
  Gd  Gd5  1  0.333333  0.666667  0.750000  1
  Ni  Ni6  1  0.333333  0.666667  0.250000  1
  Rh  Rh7  1  0.168571  0.831429  0.371772  1
  Rh  Rh8  1  0.168571  0.337140  0.371772  1
  Rh  Rh9  1  0.662860  0.831429  0.371772  1
  Rh  Rh10  1  0.832885  0.167115  0.625092  1
  Rh  Rh11  1  0.832885  0.665770  0.625092  1
  Rh  Rh12  1  0.334230  0.167115  0.625092  1
  Rh  Rh13  1  0.832885  0.167115  0.874908  1
  Rh  Rh14  1  0.832885  0.665770  0.874908  1
  Rh  Rh15  1  0.334230  0.167115  0.874908  1
  Rh  Rh16  1  0.168571  0.831429  0.128228  1
  Rh  Rh17  1  0.168571  0.337140  0.128228  1
  Rh  Rh18  1  0.662860  0.831429  0.128228  1
  Rh  Rh19  1  0.666667  0.333333  0.750000  1
  Rh  Rh20  1  0.000000  0.000000  0.250000  1
  Rh  Rh21  1  0.000000  0.000000  0.750000  1
  Rh  Rh22  1  0.000000  0.000000  0.497699  1
  Rh  Rh23  1  0.000000  0.000000  0.002301  1
