# generated using pymatgen
data_TbY4Tl15
_symmetry_space_group_name_H-M   'P 1'
_cell_length_a   4.77013300
_cell_length_b   4.77013300
_cell_length_c   24.13146100
_cell_angle_alpha   90.00000000
_cell_angle_beta   90.00000000
_cell_angle_gamma   90.00000000
_symmetry_Int_Tables_number   1
_chemical_formula_structural   TbY4Tl15
_chemical_formula_sum   'Tb1 Y4 Tl15'
_cell_volume   549.09133789
_cell_formula_units_Z   1
loop_
 _symmetry_equiv_pos_site_id
 _symmetry_equiv_pos_as_xyz
  1  'x, y, z'
loop_
 _atom_site_type_symbol
 _atom_site_label
 _atom_site_symmetry_multiplicity
 _atom_site_fract_x
 _atom_site_fract_y
 _atom_site_fract_z
 _atom_site_occupancy
  Tb  Tb0  1  0.000000  0.000000  0.000000  1
  Y  Y1  1  0.000000  0.000000  0.199904  1
  Y  Y2  1  0.000000  0.000000  0.399968  1
  Y  Y3  1  0.000000  0.000000  0.600032  1
  Y  Y4  1  0.000000  0.000000  0.800096  1
  Tl  Tl5  1  0.500000  0.500000  0.000000  1
  Tl  Tl6  1  0.500000  0.500000  0.199879  1
  Tl  Tl7  1  0.500000  0.500000  0.399957  1
  Tl  Tl8  1  0.500000  0.500000  0.600043  1
  Tl  Tl9  1  0.500000  0.500000  0.800121  1
  Tl  Tl10  1  0.500000  0.000000  0.099887  1
  Tl  Tl11  1  0.500000  0.000000  0.299898  1
  Tl  Tl12  1  0.500000  0.000000  0.500000  1
  Tl  Tl13  1  0.500000  0.000000  0.700102  1
  Tl  Tl14  1  0.500000  0.000000  0.900113  1
  Tl  Tl15  1  0.000000  0.500000  0.099887  1
  Tl  Tl16  1  0.000000  0.500000  0.299898  1
  Tl  Tl17  1  0.000000  0.500000  0.500000  1
  Tl  Tl18  1  0.000000  0.500000  0.700102  1
  Tl  Tl19  1  0.000000  0.500000  0.900113  1
