# generated using pymatgen
data_Rb2NiSe16
_symmetry_space_group_name_H-M   'P 1'
_cell_length_a   12.80995300
_cell_length_b   12.80995300
_cell_length_c   7.09465600
_cell_angle_alpha   90.00000000
_cell_angle_beta   90.00000000
_cell_angle_gamma   90.00000000
_symmetry_Int_Tables_number   1
_chemical_formula_structural   Rb2NiSe16
_chemical_formula_sum   'Rb4 Ni2 Se32'
_cell_volume   1164.19683750
_cell_formula_units_Z   2
loop_
 _symmetry_equiv_pos_site_id
 _symmetry_equiv_pos_as_xyz
  1  'x, y, z'
loop_
 _atom_site_type_symbol
 _atom_site_label
 _atom_site_symmetry_multiplicity
 _atom_site_fract_x
 _atom_site_fract_y
 _atom_site_fract_z
 _atom_site_occupancy
  Rb  Rb0  1  0.500000  0.000000  0.000000  1
  Rb  Rb1  1  0.000000  0.500000  0.000000  1
  Rb  Rb2  1  0.500000  0.500000  0.500000  1
  Rb  Rb3  1  0.000000  0.000000  0.500000  1
  Ni  Ni4  1  0.000000  0.000000  0.000000  1
  Ni  Ni5  1  0.500000  0.500000  0.000000  1
  Se  Se6  1  0.192920  0.422369  0.585819  1
  Se  Se7  1  0.807080  0.577631  0.585819  1
  Se  Se8  1  0.577631  0.192920  0.414181  1
  Se  Se9  1  0.422369  0.807080  0.414181  1
  Se  Se10  1  0.307080  0.922369  0.585819  1
  Se  Se11  1  0.077631  0.307080  0.414181  1
  Se  Se12  1  0.822560  0.967565  0.967535  1
  Se  Se13  1  0.032435  0.822560  0.032465  1
  Se  Se14  1  0.967565  0.177440  0.032465  1
  Se  Se15  1  0.177440  0.032435  0.967535  1
  Se  Se16  1  0.532435  0.677440  0.032465  1
  Se  Se17  1  0.467565  0.322560  0.032465  1
  Se  Se18  1  0.677440  0.467565  0.967535  1
  Se  Se19  1  0.322560  0.532435  0.967535  1
  Se  Se20  1  0.789351  0.202677  0.129454  1
  Se  Se21  1  0.797323  0.789351  0.870546  1
  Se  Se22  1  0.202677  0.210649  0.870546  1
  Se  Se23  1  0.210649  0.797323  0.129454  1
  Se  Se24  1  0.297323  0.710649  0.870546  1
  Se  Se25  1  0.702677  0.289351  0.870546  1
  Se  Se26  1  0.710649  0.702677  0.129454  1
  Se  Se27  1  0.289351  0.297323  0.129454  1
  Se  Se28  1  0.918442  0.306340  0.591215  1
  Se  Se29  1  0.693660  0.918442  0.408785  1
  Se  Se30  1  0.306340  0.081558  0.408785  1
  Se  Se31  1  0.081558  0.693660  0.591215  1
  Se  Se32  1  0.193660  0.581558  0.408785  1
  Se  Se33  1  0.806340  0.418442  0.408785  1
  Se  Se34  1  0.581558  0.806340  0.591215  1
  Se  Se35  1  0.418442  0.193660  0.591215  1
  Se  Se36  1  0.692920  0.077631  0.585819  1
  Se  Se37  1  0.922369  0.692920  0.414181  1
