# generated using pymatgen
data_Nb8AuSe20
_symmetry_space_group_name_H-M   'P 1'
_cell_length_a   11.11577035
_cell_length_b   11.11577094
_cell_length_c   19.72131865
_cell_angle_alpha   77.26756006
_cell_angle_beta   77.26755902
_cell_angle_gamma   18.14406650
_symmetry_Int_Tables_number   1
_chemical_formula_structural   Nb8AuSe20
_chemical_formula_sum   'Nb8 Au1 Se20'
_cell_volume   739.68759133
_cell_formula_units_Z   1
loop_
 _symmetry_equiv_pos_site_id
 _symmetry_equiv_pos_as_xyz
  1  'x, y, z'
loop_
 _atom_site_type_symbol
 _atom_site_label
 _atom_site_symmetry_multiplicity
 _atom_site_fract_x
 _atom_site_fract_y
 _atom_site_fract_z
 _atom_site_occupancy
  Nb  Nb0  1  0.084416  0.084416  0.098058  1
  Nb  Nb1  1  0.915584  0.915584  0.901942  1
  Nb  Nb2  1  0.330021  0.330021  0.810549  1
  Nb  Nb3  1  0.669979  0.669979  0.189451  1
  Nb  Nb4  1  0.265305  0.265305  0.282124  1
  Nb  Nb5  1  0.734695  0.734695  0.717876  1
  Nb  Nb6  1  0.159857  0.159857  0.551177  1
  Nb  Nb7  1  0.840143  0.840143  0.448823  1
  Au  Au8  1  0.500000  0.500000  0.000000  1
  Se  Se9  1  0.432128  0.432128  0.400523  1
  Se  Se10  1  0.567872  0.567872  0.599477  1
  Se  Se11  1  0.393461  0.393461  0.522216  1
  Se  Se12  1  0.606539  0.606539  0.477784  1
  Se  Se13  1  0.152214  0.152214  0.690222  1
  Se  Se14  1  0.847786  0.847786  0.309778  1
  Se  Se15  1  0.384493  0.384493  0.003590  1
  Se  Se16  1  0.615507  0.615507  0.996410  1
  Se  Se17  1  0.208434  0.208434  0.819549  1
  Se  Se18  1  0.791566  0.791566  0.180451  1
  Se  Se19  1  0.253969  0.253969  0.429785  1
  Se  Se20  1  0.746031  0.746031  0.570215  1
  Se  Se21  1  0.325268  0.325268  0.677777  1
  Se  Se22  1  0.674732  0.674732  0.322223  1
  Se  Se23  1  0.492624  0.492624  0.130035  1
  Se  Se24  1  0.507376  0.507376  0.869965  1
  Se  Se25  1  0.203511  0.203511  0.089858  1
  Se  Se26  1  0.796489  0.796489  0.910142  1
  Se  Se27  1  0.080500  0.080500  0.230851  1
  Se  Se28  1  0.919500  0.919500  0.769149  1
