# generated using pymatgen
data_Er5Sc(CdHg2)6
_symmetry_space_group_name_H-M   'P 1'
_cell_length_a   5.07474714
_cell_length_b   7.03483000
_cell_length_c   15.45104843
_cell_angle_alpha   90.00000000
_cell_angle_beta   89.97296124
_cell_angle_gamma   90.00000000
_symmetry_Int_Tables_number   1
_chemical_formula_structural   Er5Sc(CdHg2)6
_chemical_formula_sum   'Er5 Sc1 Cd6 Hg12'
_cell_volume   551.60211154
_cell_formula_units_Z   1
loop_
 _symmetry_equiv_pos_site_id
 _symmetry_equiv_pos_as_xyz
  1  'x, y, z'
loop_
 _atom_site_type_symbol
 _atom_site_label
 _atom_site_symmetry_multiplicity
 _atom_site_fract_x
 _atom_site_fract_y
 _atom_site_fract_z
 _atom_site_occupancy
  Er  Er0  1  0.000033  0.000000  0.999541  1
  Er  Er1  1  0.499789  0.500000  0.165566  1
  Er  Er2  1  0.999818  0.000000  0.333182  1
  Er  Er3  1  0.499990  0.500000  0.500761  1
  Er  Er4  1  0.000141  0.000000  0.667197  1
  Sc  Sc5  1  0.500199  0.500000  0.833647  1
  Cd  Cd6  1  0.999991  0.500000  0.999343  1
  Cd  Cd7  1  0.499848  0.000000  0.165198  1
  Cd  Cd8  1  0.999885  0.500000  0.333495  1
  Cd  Cd9  1  0.500024  0.000000  0.501336  1
  Cd  Cd10  1  0.000144  0.500000  0.667196  1
  Cd  Cd11  1  0.500127  0.000000  0.833498  1
  Hg  Hg12  1  0.499998  0.256384  0.996693  1
  Hg  Hg13  1  0.499998  0.743615  0.996693  1
  Hg  Hg14  1  0.999820  0.247068  0.166356  1
  Hg  Hg15  1  0.999820  0.752931  0.166356  1
  Hg  Hg16  1  0.499890  0.252305  0.333251  1
  Hg  Hg17  1  0.499890  0.747695  0.333251  1
  Hg  Hg18  1  0.999998  0.246783  0.500420  1
  Hg  Hg19  1  0.999998  0.753216  0.500420  1
  Hg  Hg20  1  0.500166  0.256580  0.670037  1
  Hg  Hg21  1  0.500166  0.743420  0.670037  1
  Hg  Hg22  1  0.000135  0.254244  0.833263  1
  Hg  Hg23  1  0.000135  0.745755  0.833263  1
