# generated using pymatgen
data_Tb4ZrSc3Pt4
_symmetry_space_group_name_H-M   'P 1'
_cell_length_a   4.68357100
_cell_length_b   7.02629410
_cell_length_c   8.36014593
_cell_angle_alpha   90.58428985
_cell_angle_beta   90.00000000
_cell_angle_gamma   90.00000000
_symmetry_Int_Tables_number   1
_chemical_formula_structural   Tb4ZrSc3Pt4
_chemical_formula_sum   'Tb4 Zr1 Sc3 Pt4'
_cell_volume   275.10260838
_cell_formula_units_Z   1
loop_
 _symmetry_equiv_pos_site_id
 _symmetry_equiv_pos_as_xyz
  1  'x, y, z'
loop_
 _atom_site_type_symbol
 _atom_site_label
 _atom_site_symmetry_multiplicity
 _atom_site_fract_x
 _atom_site_fract_y
 _atom_site_fract_z
 _atom_site_occupancy
  Tb  Tb0  1  0.250000  0.016273  0.678314  1
  Tb  Tb1  1  0.250000  0.517194  0.823484  1
  Tb  Tb2  1  0.750000  0.981607  0.321205  1
  Tb  Tb3  1  0.750000  0.481862  0.175122  1
  Zr  Zr4  1  0.750000  0.359051  0.574313  1
  Sc  Sc5  1  0.250000  0.142267  0.074310  1
  Sc  Sc6  1  0.250000  0.641707  0.423693  1
  Sc  Sc7  1  0.750000  0.859701  0.927240  1
  Pt  Pt8  1  0.250000  0.261353  0.407591  1
  Pt  Pt9  1  0.250000  0.758028  0.098954  1
  Pt  Pt10  1  0.750000  0.739768  0.595661  1
  Pt  Pt11  1  0.750000  0.241190  0.900113  1
