# generated using pymatgen
data_CeHo5PuO12
_symmetry_space_group_name_H-M   'P 1'
_cell_length_a   6.52711424
_cell_length_b   6.56414301
_cell_length_c   6.56730500
_cell_angle_alpha   99.17808951
_cell_angle_beta   99.09454359
_cell_angle_gamma   98.89228898
_symmetry_Int_Tables_number   1
_chemical_formula_structural   CeHo5PuO12
_chemical_formula_sum   'Ce1 Ho5 Pu1 O12'
_cell_volume   269.57571285
_cell_formula_units_Z   1
loop_
 _symmetry_equiv_pos_site_id
 _symmetry_equiv_pos_as_xyz
  1  'x, y, z'
loop_
 _atom_site_type_symbol
 _atom_site_label
 _atom_site_symmetry_multiplicity
 _atom_site_fract_x
 _atom_site_fract_y
 _atom_site_fract_z
 _atom_site_occupancy
  Ce  Ce0  1  0.141870  0.312599  0.604644  1
  Ho  Ho1  1  0.392194  0.856899  0.685331  1
  Ho  Ho2  1  0.688834  0.391085  0.864158  1
  Ho  Ho3  1  0.316765  0.611687  0.144319  1
  Ho  Ho4  1  0.608635  0.141045  0.309012  1
  Ho  Ho5  1  0.855062  0.689489  0.388833  1
  Pu  Pu6  1  0.999552  0.997013  0.997908  1
  O  O7  1  0.073760  0.312171  0.950570  1
  O  O8  1  0.056117  0.925354  0.681753  1
  O  O9  1  0.413103  0.569400  0.821953  1
  O  O10  1  0.177491  0.584295  0.430181  1
  O  O11  1  0.685454  0.051371  0.924969  1
  O  O12  1  0.430394  0.182252  0.586852  1
  O  O13  1  0.567002  0.824102  0.414343  1
  O  O14  1  0.313248  0.948511  0.075233  1
  O  O15  1  0.825896  0.413625  0.571818  1
  O  O16  1  0.586944  0.431236  0.179561  1
  O  O17  1  0.942489  0.072216  0.316431  1
  O  O18  1  0.925192  0.685652  0.052131  1
