# generated using pymatgen
data_Pr2Dy2YSn4
_symmetry_space_group_name_H-M   'P 1'
_cell_length_a   8.06373800
_cell_length_b   8.29120900
_cell_length_c   15.63459200
_cell_angle_alpha   90.00000000
_cell_angle_beta   90.00000000
_cell_angle_gamma   90.00000000
_symmetry_Int_Tables_number   1
_chemical_formula_structural   Pr2Dy2YSn4
_chemical_formula_sum   'Pr8 Dy8 Y4 Sn16'
_cell_volume   1045.29969511
_cell_formula_units_Z   4
loop_
 _symmetry_equiv_pos_site_id
 _symmetry_equiv_pos_as_xyz
  1  'x, y, z'
loop_
 _atom_site_type_symbol
 _atom_site_label
 _atom_site_symmetry_multiplicity
 _atom_site_fract_x
 _atom_site_fract_y
 _atom_site_fract_z
 _atom_site_occupancy
  Pr  Pr0  1  0.507610  0.323312  0.904293  1
  Pr  Pr1  1  0.007610  0.176688  0.595707  1
  Pr  Pr2  1  0.492390  0.676688  0.404293  1
  Pr  Pr3  1  0.992390  0.823312  0.095707  1
  Pr  Pr4  1  0.492390  0.676688  0.095707  1
  Pr  Pr5  1  0.992390  0.823312  0.404293  1
  Pr  Pr6  1  0.507610  0.323312  0.595707  1
  Pr  Pr7  1  0.007610  0.176688  0.904293  1
  Dy  Dy8  1  0.348116  0.834481  0.875818  1
  Dy  Dy9  1  0.848116  0.665519  0.624182  1
  Dy  Dy10  1  0.651884  0.165519  0.375818  1
  Dy  Dy11  1  0.151884  0.334481  0.124182  1
  Dy  Dy12  1  0.651884  0.165519  0.124182  1
  Dy  Dy13  1  0.151884  0.334481  0.375818  1
  Dy  Dy14  1  0.348116  0.834481  0.624182  1
  Dy  Dy15  1  0.848116  0.665519  0.875818  1
  Y  Y16  1  0.181493  0.501069  0.750000  1
  Y  Y17  1  0.681493  0.998931  0.750000  1
  Y  Y18  1  0.818507  0.498931  0.250000  1
  Y  Y19  1  0.318507  0.001069  0.250000  1
  Sn  Sn20  1  0.315049  0.041054  0.041499  1
  Sn  Sn21  1  0.815049  0.458946  0.458501  1
  Sn  Sn22  1  0.684951  0.958946  0.541499  1
  Sn  Sn23  1  0.184951  0.541054  0.958501  1
  Sn  Sn24  1  0.684951  0.958946  0.958501  1
  Sn  Sn25  1  0.184951  0.541054  0.541499  1
  Sn  Sn26  1  0.315049  0.041054  0.458501  1
  Sn  Sn27  1  0.815049  0.458946  0.041499  1
  Sn  Sn28  1  0.546540  0.621708  0.750000  1
  Sn  Sn29  1  0.046540  0.878292  0.750000  1
  Sn  Sn30  1  0.453460  0.378292  0.250000  1
  Sn  Sn31  1  0.953460  0.121708  0.250000  1
  Sn  Sn32  1  0.313734  0.143489  0.750000  1
  Sn  Sn33  1  0.813734  0.356511  0.750000  1
  Sn  Sn34  1  0.686266  0.856511  0.250000  1
  Sn  Sn35  1  0.186266  0.643489  0.250000  1
