# generated using pymatgen
data_La20Si9Sb7
_symmetry_space_group_name_H-M   'P 1'
_cell_length_a   8.19614007
_cell_length_b   8.30334668
_cell_length_c   15.82656112
_cell_angle_alpha   90.15650089
_cell_angle_beta   89.76828313
_cell_angle_gamma   89.90347177
_symmetry_Int_Tables_number   1
_chemical_formula_structural   La20Si9Sb7
_chemical_formula_sum   'La20 Si9 Sb7'
_cell_volume   1077.06845316
_cell_formula_units_Z   1
loop_
 _symmetry_equiv_pos_site_id
 _symmetry_equiv_pos_as_xyz
  1  'x, y, z'
loop_
 _atom_site_type_symbol
 _atom_site_label
 _atom_site_symmetry_multiplicity
 _atom_site_fract_x
 _atom_site_fract_y
 _atom_site_fract_z
 _atom_site_occupancy
  La  La0  1  0.219817  0.989845  0.751251  1
  La  La1  1  0.781611  0.010502  0.246931  1
  La  La2  1  0.279713  0.483314  0.242090  1
  La  La3  1  0.720759  0.514093  0.751227  1
  La  La4  1  0.044220  0.683007  0.612410  1
  La  La5  1  0.956519  0.317772  0.384923  1
  La  La6  1  0.456325  0.182376  0.384351  1
  La  La7  1  0.968758  0.319582  0.108611  1
  La  La8  1  0.543501  0.818606  0.614142  1
  La  La9  1  0.047450  0.679477  0.893987  1
  La  La10  1  0.541931  0.819535  0.887489  1
  La  La11  1  0.460296  0.186318  0.111958  1
  La  La12  1  0.397964  0.328627  0.625065  1
  La  La13  1  0.601961  0.671729  0.374114  1
  La  La14  1  0.102047  0.827702  0.373859  1
  La  La15  1  0.591500  0.668521  0.122176  1
  La  La16  1  0.898392  0.172723  0.625219  1
  La  La17  1  0.385728  0.341469  0.884486  1
  La  La18  1  0.895634  0.172427  0.875423  1
  La  La19  1  0.106120  0.815341  0.123101  1
  Si  Si20  1  0.105582  0.400409  0.751147  1
  Si  Si21  1  0.891765  0.600815  0.249396  1
  Si  Si22  1  0.394305  0.898596  0.249443  1
  Si  Si23  1  0.605119  0.103524  0.751123  1
  Si  Si24  1  0.330044  0.620813  0.751470  1
  Si  Si25  1  0.672745  0.380779  0.248610  1
  Si  Si26  1  0.170440  0.114973  0.248955  1
  Si  Si27  1  0.831646  0.881359  0.750739  1
  Si  Si28  1  0.267146  0.515277  0.049304  1
  Sb  Sb29  1  0.232742  0.018482  0.541479  1
  Sb  Sb30  1  0.767379  0.983071  0.457776  1
  Sb  Sb31  1  0.267973  0.517098  0.457070  1
  Sb  Sb32  1  0.771400  0.976533  0.039950  1
  Sb  Sb33  1  0.732193  0.483078  0.541984  1
  Sb  Sb34  1  0.230404  0.021284  0.960073  1
  Sb  Sb35  1  0.728876  0.480945  0.958669  1
