# generated using pymatgen
data_CaYb3(ReN3)4
_symmetry_space_group_name_H-M   'P 1'
_cell_length_a   7.35517889
_cell_length_b   7.35517927
_cell_length_c   6.25691661
_cell_angle_alpha   74.40558977
_cell_angle_beta   74.40558819
_cell_angle_gamma   83.55411122
_symmetry_Int_Tables_number   1
_chemical_formula_structural   CaYb3(ReN3)4
_chemical_formula_sum   'Ca1 Yb3 Re4 N12'
_cell_volume   313.73698249
_cell_formula_units_Z   1
loop_
 _symmetry_equiv_pos_site_id
 _symmetry_equiv_pos_as_xyz
  1  'x, y, z'
loop_
 _atom_site_type_symbol
 _atom_site_label
 _atom_site_symmetry_multiplicity
 _atom_site_fract_x
 _atom_site_fract_y
 _atom_site_fract_z
 _atom_site_occupancy
  Ca  Ca0  1  0.702651  0.297349  0.250000  1
  Yb  Yb1  1  0.915209  0.084791  0.750000  1
  Yb  Yb2  1  0.297148  0.702852  0.750000  1
  Yb  Yb3  1  0.085778  0.914222  0.250000  1
  Re  Re4  1  0.620720  0.798869  0.268394  1
  Re  Re5  1  0.201131  0.379280  0.231606  1
  Re  Re6  1  0.378159  0.200363  0.732645  1
  Re  Re7  1  0.799637  0.621841  0.767355  1
  N  N8  1  0.348214  0.352483  0.944897  1
  N  N9  1  0.008594  0.224779  0.341839  1
  N  N10  1  0.775221  0.991406  0.158161  1
  N  N11  1  0.225134  0.006498  0.842300  1
  N  N12  1  0.650751  0.649539  0.053257  1
  N  N13  1  0.884604  0.386034  0.830085  1
  N  N14  1  0.116823  0.615217  0.165088  1
  N  N15  1  0.993502  0.774866  0.657700  1
  N  N16  1  0.384783  0.883177  0.334912  1
  N  N17  1  0.647517  0.651786  0.555103  1
  N  N18  1  0.613966  0.115396  0.669915  1
  N  N19  1  0.350461  0.349249  0.446743  1
