# generated using pymatgen
data_Hf10Ga3Sb5
_symmetry_space_group_name_H-M   'P 1'
_cell_length_a   8.55456500
_cell_length_b   8.57998038
_cell_length_c   5.78768000
_cell_angle_alpha   90.00000000
_cell_angle_beta   90.00000000
_cell_angle_gamma   119.90206426
_symmetry_Int_Tables_number   1
_chemical_formula_structural   Hf10Ga3Sb5
_chemical_formula_sum   'Hf10 Ga3 Sb5'
_cell_volume   368.25369476
_cell_formula_units_Z   1
loop_
 _symmetry_equiv_pos_site_id
 _symmetry_equiv_pos_as_xyz
  1  'x, y, z'
loop_
 _atom_site_type_symbol
 _atom_site_label
 _atom_site_symmetry_multiplicity
 _atom_site_fract_x
 _atom_site_fract_y
 _atom_site_fract_z
 _atom_site_occupancy
  Hf  Hf0  1  0.334427  0.671256  0.997267  1
  Hf  Hf1  1  0.663172  0.328744  0.502733  1
  Hf  Hf2  1  0.663172  0.328744  0.997267  1
  Hf  Hf3  1  0.334427  0.671256  0.502733  1
  Hf  Hf4  1  0.266054  0.000000  0.250000  1
  Hf  Hf5  1  0.276353  0.264475  0.750000  1
  Hf  Hf6  1  0.011879  0.735525  0.750000  1
  Hf  Hf7  1  0.998287  0.265993  0.250000  1
  Hf  Hf8  1  0.732294  0.734007  0.250000  1
  Hf  Hf9  1  0.722776  0.000000  0.750000  1
  Ga  Ga10  1  0.999019  0.000000  0.993244  1
  Ga  Ga11  1  0.999019  0.000000  0.506756  1
  Ga  Ga12  1  0.387687  0.000000  0.750000  1
  Sb  Sb13  1  0.606000  0.000000  0.250000  1
  Sb  Sb14  1  0.615297  0.613523  0.750000  1
  Sb  Sb15  1  0.001774  0.386477  0.750000  1
  Sb  Sb16  1  0.999048  0.609733  0.250000  1
  Sb  Sb17  1  0.389316  0.390267  0.250000  1
