# generated using pymatgen
data_Cr2OsSe12
_symmetry_space_group_name_H-M   'P 1'
_cell_length_a   7.63612948
_cell_length_b   7.10182087
_cell_length_c   7.45735810
_cell_angle_alpha   103.47101907
_cell_angle_beta   94.37067014
_cell_angle_gamma   91.87660569
_symmetry_Int_Tables_number   1
_chemical_formula_structural   Cr2OsSe12
_chemical_formula_sum   'Cr2 Os1 Se12'
_cell_volume   391.61344753
_cell_formula_units_Z   1
loop_
 _symmetry_equiv_pos_site_id
 _symmetry_equiv_pos_as_xyz
  1  'x, y, z'
loop_
 _atom_site_type_symbol
 _atom_site_label
 _atom_site_symmetry_multiplicity
 _atom_site_fract_x
 _atom_site_fract_y
 _atom_site_fract_z
 _atom_site_occupancy
  Cr  Cr0  1  0.018338  0.580392  0.320835  1
  Cr  Cr1  1  0.981713  0.419688  0.679085  1
  Os  Os2  1  0.000094  0.000033  0.000012  1
  Se  Se3  1  0.244307  0.530456  0.092643  1
  Se  Se4  1  0.828659  0.280633  0.147849  1
  Se  Se5  1  0.827141  0.781889  0.149149  1
  Se  Se6  1  0.236444  0.067102  0.250306  1
  Se  Se7  1  0.226343  0.392460  0.472549  1
  Se  Se8  1  0.227942  0.855991  0.466718  1
  Se  Se9  1  0.771970  0.144034  0.533347  1
  Se  Se10  1  0.773654  0.607488  0.527472  1
  Se  Se11  1  0.763525  0.932869  0.749666  1
  Se  Se12  1  0.172872  0.218052  0.850860  1
  Se  Se13  1  0.171344  0.719374  0.852139  1
  Se  Se14  1  0.755656  0.469539  0.907373  1
