# generated using pymatgen
data_NdCo3Ni2As3
_symmetry_space_group_name_H-M   'P 1'
_cell_length_a   3.86898000
_cell_length_b   10.78232100
_cell_length_c   12.31112800
_cell_angle_alpha   90.00000000
_cell_angle_beta   90.00000000
_cell_angle_gamma   90.00000000
_symmetry_Int_Tables_number   1
_chemical_formula_structural   NdCo3Ni2As3
_chemical_formula_sum   'Nd4 Co12 Ni8 As12'
_cell_volume   513.57820907
_cell_formula_units_Z   4
loop_
 _symmetry_equiv_pos_site_id
 _symmetry_equiv_pos_as_xyz
  1  'x, y, z'
loop_
 _atom_site_type_symbol
 _atom_site_label
 _atom_site_symmetry_multiplicity
 _atom_site_fract_x
 _atom_site_fract_y
 _atom_site_fract_z
 _atom_site_occupancy
  Nd  Nd0  1  0.250000  0.581135  0.701082  1
  Nd  Nd1  1  0.250000  0.918865  0.201082  1
  Nd  Nd2  1  0.750000  0.418865  0.298918  1
  Nd  Nd3  1  0.750000  0.081135  0.798918  1
  Co  Co4  1  0.250000  0.216845  0.177067  1
  Co  Co5  1  0.250000  0.283155  0.677067  1
  Co  Co6  1  0.750000  0.783155  0.822933  1
  Co  Co7  1  0.750000  0.716845  0.322933  1
  Co  Co8  1  0.250000  0.881833  0.695631  1
  Co  Co9  1  0.250000  0.618167  0.195631  1
  Co  Co10  1  0.750000  0.118167  0.304369  1
  Co  Co11  1  0.750000  0.381833  0.804369  1
  Co  Co12  1  0.250000  0.470264  0.932629  1
  Co  Co13  1  0.250000  0.029736  0.432629  1
  Co  Co14  1  0.750000  0.529736  0.067371  1
  Co  Co15  1  0.750000  0.970264  0.567371  1
  Ni  Ni16  1  0.250000  0.706268  0.990867  1
  Ni  Ni17  1  0.250000  0.793732  0.490867  1
  Ni  Ni18  1  0.750000  0.293732  0.009133  1
  Ni  Ni19  1  0.750000  0.206268  0.509133  1
  Ni  Ni20  1  0.250000  0.409163  0.487600  1
  Ni  Ni21  1  0.250000  0.090837  0.987600  1
  Ni  Ni22  1  0.750000  0.590837  0.512400  1
  Ni  Ni23  1  0.750000  0.909163  0.012400  1
  As  As24  1  0.250000  0.416653  0.112489  1
  As  As25  1  0.250000  0.083347  0.612489  1
  As  As26  1  0.750000  0.583347  0.887511  1
  As  As27  1  0.750000  0.916653  0.387511  1
  As  As28  1  0.250000  0.273800  0.868228  1
  As  As29  1  0.250000  0.226200  0.368228  1
  As  As30  1  0.750000  0.726200  0.131772  1
  As  As31  1  0.750000  0.773800  0.631772  1
  As  As32  1  0.250000  0.608666  0.389385  1
  As  As33  1  0.250000  0.891334  0.889385  1
  As  As34  1  0.750000  0.391334  0.610615  1
  As  As35  1  0.750000  0.108666  0.110615  1
