# generated using pymatgen
data_La4SbRu3O16
_symmetry_space_group_name_H-M   'P 1'
_cell_length_a   5.13712572
_cell_length_b   5.43814438
_cell_length_c   13.45858420
_cell_angle_alpha   70.15256131
_cell_angle_beta   89.70939963
_cell_angle_gamma   90.02620489
_symmetry_Int_Tables_number   1
_chemical_formula_structural   La4SbRu3O16
_chemical_formula_sum   'La4 Sb1 Ru3 O16'
_cell_volume   353.64581251
_cell_formula_units_Z   1
loop_
 _symmetry_equiv_pos_site_id
 _symmetry_equiv_pos_as_xyz
  1  'x, y, z'
loop_
 _atom_site_type_symbol
 _atom_site_label
 _atom_site_symmetry_multiplicity
 _atom_site_fract_x
 _atom_site_fract_y
 _atom_site_fract_z
 _atom_site_occupancy
  La  La0  1  0.798218  0.655256  0.335921  1
  La  La1  1  0.693815  0.655132  0.842199  1
  La  La2  1  0.196527  0.344530  0.663166  1
  La  La3  1  0.299866  0.344041  0.157962  1
  Sb  Sb4  1  0.255501  0.080355  0.431191  1
  Ru  Ru5  1  0.750618  0.917433  0.067326  1
  Ru  Ru6  1  0.750172  0.916911  0.572174  1
  Ru  Ru7  1  0.247034  0.083001  0.930812  1
  O  O8  1  0.436541  0.753289  0.028026  1
  O  O9  1  0.065375  0.753879  0.534086  1
  O  O10  1  0.560856  0.247061  0.968972  1
  O  O11  1  0.942733  0.247650  0.473365  1
  O  O12  1  0.604866  0.990399  0.184086  1
  O  O13  1  0.890366  0.993260  0.688829  1
  O  O14  1  0.393481  0.012134  0.812657  1
  O  O15  1  0.104300  0.002738  0.311651  1
  O  O16  1  0.066129  0.130175  0.059069  1
  O  O17  1  0.435072  0.132951  0.560176  1
  O  O18  1  0.932330  0.870863  0.938007  1
  O  O19  1  0.573783  0.859753  0.445437  1
  O  O20  1  0.883668  0.595773  0.163009  1
  O  O21  1  0.617600  0.594341  0.669539  1
  O  O22  1  0.114703  0.406749  0.833883  1
  O  O23  1  0.386448  0.412325  0.328456  1
