# generated using pymatgen
data_Dy6Er2Sc11Si16Mo
_symmetry_space_group_name_H-M   'P 1'
_cell_length_a   7.06031794
_cell_length_b   7.31574722
_cell_length_c   13.87533244
_cell_angle_alpha   90.13936006
_cell_angle_beta   89.68415428
_cell_angle_gamma   89.74811448
_symmetry_Int_Tables_number   1
_chemical_formula_structural   Dy6Er2Sc11Si16Mo
_chemical_formula_sum   'Dy6 Er2 Sc11 Si16 Mo1'
_cell_volume   716.66177489
_cell_formula_units_Z   1
loop_
 _symmetry_equiv_pos_site_id
 _symmetry_equiv_pos_as_xyz
  1  'x, y, z'
loop_
 _atom_site_type_symbol
 _atom_site_label
 _atom_site_symmetry_multiplicity
 _atom_site_fract_x
 _atom_site_fract_y
 _atom_site_fract_z
 _atom_site_occupancy
  Dy  Dy0  1  0.011816  0.174844  0.097345  1
  Dy  Dy1  1  0.989680  0.825327  0.898833  1
  Dy  Dy2  1  0.487736  0.678243  0.899424  1
  Dy  Dy3  1  0.993010  0.829019  0.595676  1
  Dy  Dy4  1  0.512837  0.323105  0.096334  1
  Dy  Dy5  1  0.009167  0.175180  0.403710  1
  Er  Er6  1  0.506711  0.322886  0.410111  1
  Er  Er7  1  0.487525  0.676794  0.595959  1
  Sc  Sc8  1  0.164228  0.495481  0.744875  1
  Sc  Sc9  1  0.837146  0.497666  0.252012  1
  Sc  Sc10  1  0.336280  0.002847  0.252676  1
  Sc  Sc11  1  0.658581  0.002192  0.746859  1
  Sc  Sc12  1  0.664546  0.825451  0.379046  1
  Sc  Sc13  1  0.168553  0.678347  0.378153  1
  Sc  Sc14  1  0.668734  0.824149  0.124642  1
  Sc  Sc15  1  0.833402  0.323456  0.623648  1
  Sc  Sc16  1  0.333384  0.176685  0.874793  1
  Sc  Sc17  1  0.830449  0.323177  0.871820  1
  Sc  Sc18  1  0.170029  0.676642  0.126118  1
  Si  Si19  1  0.043193  0.120114  0.745321  1
  Si  Si20  1  0.963013  0.885559  0.251448  1
  Si  Si21  1  0.466775  0.615778  0.251144  1
  Si  Si22  1  0.531456  0.376220  0.745404  1
  Si  Si23  1  0.287382  0.879369  0.745835  1
  Si  Si24  1  0.710044  0.127652  0.251055  1
  Si  Si25  1  0.215293  0.372429  0.250998  1
  Si  Si26  1  0.784105  0.624911  0.746359  1
  Si  Si27  1  0.175999  0.451488  0.540475  1
  Si  Si28  1  0.842030  0.532124  0.460776  1
  Si  Si29  1  0.333308  0.969891  0.471239  1
  Si  Si30  1  0.845268  0.535137  0.038873  1
  Si  Si31  1  0.647435  0.035156  0.544507  1
  Si  Si32  1  0.155485  0.466313  0.959445  1
  Si  Si33  1  0.661641  0.035960  0.958959  1
  Si  Si34  1  0.340692  0.962661  0.038233  1
  Mo  Mo35  1  0.333066  0.177746  0.627894  1
