# generated using pymatgen
data_YTm7(CdNi)2
_symmetry_space_group_name_H-M   'P 1'
_cell_length_a   9.45546588
_cell_length_b   9.45546573
_cell_length_c   9.45367900
_cell_angle_alpha   60.00624715
_cell_angle_beta   60.00624766
_cell_angle_gamma   59.98749441
_symmetry_Int_Tables_number   1
_chemical_formula_structural   YTm7(CdNi)2
_chemical_formula_sum   'Y2 Tm14 Cd4 Ni4'
_cell_volume   597.65649614
_cell_formula_units_Z   2
loop_
 _symmetry_equiv_pos_site_id
 _symmetry_equiv_pos_as_xyz
  1  'x, y, z'
loop_
 _atom_site_type_symbol
 _atom_site_label
 _atom_site_symmetry_multiplicity
 _atom_site_fract_x
 _atom_site_fract_y
 _atom_site_fract_z
 _atom_site_occupancy
  Y  Y0  1  0.814317  0.814317  0.185683  1
  Y  Y1  1  0.185683  0.185683  0.814317  1
  Tm  Tm2  1  0.598205  0.598205  0.599613  1
  Tm  Tm3  1  0.598205  0.598205  0.203976  1
  Tm  Tm4  1  0.599613  0.203976  0.598205  1
  Tm  Tm5  1  0.203976  0.599613  0.598205  1
  Tm  Tm6  1  0.061472  0.438528  0.438528  1
  Tm  Tm7  1  0.438528  0.061472  0.061472  1
  Tm  Tm8  1  0.438528  0.061472  0.438528  1
  Tm  Tm9  1  0.061472  0.438528  0.061472  1
  Tm  Tm10  1  0.438406  0.438406  0.061594  1
  Tm  Tm11  1  0.061594  0.061594  0.438406  1
  Tm  Tm12  1  0.187130  0.812870  0.812870  1
  Tm  Tm13  1  0.812870  0.187130  0.187130  1
  Tm  Tm14  1  0.812870  0.187130  0.812870  1
  Tm  Tm15  1  0.187130  0.812870  0.187130  1
  Cd  Cd16  1  0.831713  0.831713  0.830823  1
  Cd  Cd17  1  0.831713  0.831713  0.505751  1
  Cd  Cd18  1  0.830823  0.505751  0.831713  1
  Cd  Cd19  1  0.505751  0.830823  0.831713  1
  Ni  Ni20  1  0.392696  0.392696  0.392075  1
  Ni  Ni21  1  0.392696  0.392696  0.822533  1
  Ni  Ni22  1  0.392075  0.822533  0.392696  1
  Ni  Ni23  1  0.822533  0.392075  0.392696  1
