# generated using pymatgen
data_Pr3Nd5(Ho3Sn4)4
_symmetry_space_group_name_H-M   'P 1'
_cell_length_a   8.11476949
_cell_length_b   8.29321014
_cell_length_c   15.64647900
_cell_angle_alpha   89.99160586
_cell_angle_beta   90.30567941
_cell_angle_gamma   89.58077523
_symmetry_Int_Tables_number   1
_chemical_formula_structural   Pr3Nd5(Ho3Sn4)4
_chemical_formula_sum   'Pr3 Nd5 Ho12 Sn16'
_cell_volume   1052.92555231
_cell_formula_units_Z   1
loop_
 _symmetry_equiv_pos_site_id
 _symmetry_equiv_pos_as_xyz
  1  'x, y, z'
loop_
 _atom_site_type_symbol
 _atom_site_label
 _atom_site_symmetry_multiplicity
 _atom_site_fract_x
 _atom_site_fract_y
 _atom_site_fract_z
 _atom_site_occupancy
  Pr  Pr0  1  0.986574  0.821246  0.403332  1
  Pr  Pr1  1  0.513282  0.322000  0.596300  1
  Pr  Pr2  1  0.014027  0.178649  0.903736  1
  Nd  Nd3  1  0.515336  0.321979  0.902833  1
  Nd  Nd4  1  0.014031  0.179091  0.596907  1
  Nd  Nd5  1  0.486155  0.678158  0.402870  1
  Nd  Nd6  1  0.984915  0.820615  0.097341  1
  Nd  Nd7  1  0.484792  0.678145  0.097057  1
  Ho  Ho8  1  0.361108  0.835648  0.876892  1
  Ho  Ho9  1  0.859158  0.664127  0.622914  1
  Ho  Ho10  1  0.640549  0.164429  0.376243  1
  Ho  Ho11  1  0.139290  0.336334  0.122523  1
  Ho  Ho12  1  0.638785  0.164463  0.123238  1
  Ho  Ho13  1  0.140702  0.335812  0.376799  1
  Ho  Ho14  1  0.359819  0.835461  0.623533  1
  Ho  Ho15  1  0.861266  0.663751  0.877469  1
  Ho  Ho16  1  0.193927  0.502675  0.750338  1
  Ho  Ho17  1  0.693251  0.997197  0.750306  1
  Ho  Ho18  1  0.806156  0.497389  0.249525  1
  Ho  Ho19  1  0.306689  0.002810  0.249639  1
  Sn  Sn20  1  0.303181  0.038432  0.042603  1
  Sn  Sn21  1  0.804246  0.458806  0.457707  1
  Sn  Sn22  1  0.695221  0.960535  0.542213  1
  Sn  Sn23  1  0.199152  0.541039  0.958181  1
  Sn  Sn24  1  0.696238  0.959361  0.958538  1
  Sn  Sn25  1  0.195428  0.542054  0.541482  1
  Sn  Sn26  1  0.305527  0.040293  0.458182  1
  Sn  Sn27  1  0.801079  0.459708  0.042072  1
  Sn  Sn28  1  0.559703  0.623248  0.750321  1
  Sn  Sn29  1  0.058913  0.875476  0.749881  1
  Sn  Sn30  1  0.440524  0.377187  0.249912  1
  Sn  Sn31  1  0.941121  0.124279  0.249700  1
  Sn  Sn32  1  0.323363  0.142750  0.750044  1
  Sn  Sn33  1  0.823227  0.357833  0.749643  1
  Sn  Sn34  1  0.675885  0.856932  0.249919  1
  Sn  Sn35  1  0.177381  0.642084  0.249811  1
