# generated using pymatgen
data_Nd3FeCo6(P3Rh)2
_symmetry_space_group_name_H-M   'P 1'
_cell_length_a   3.82210100
_cell_length_b   10.79786100
_cell_length_c   12.54641300
_cell_angle_alpha   90.00000000
_cell_angle_beta   90.00000000
_cell_angle_gamma   90.00000000
_symmetry_Int_Tables_number   1
_chemical_formula_structural   Nd3FeCo6(P3Rh)2
_chemical_formula_sum   'Nd6 Fe2 Co12 P12 Rh4'
_cell_volume   517.79693000
_cell_formula_units_Z   2
loop_
 _symmetry_equiv_pos_site_id
 _symmetry_equiv_pos_as_xyz
  1  'x, y, z'
loop_
 _atom_site_type_symbol
 _atom_site_label
 _atom_site_symmetry_multiplicity
 _atom_site_fract_x
 _atom_site_fract_y
 _atom_site_fract_z
 _atom_site_occupancy
  Nd  Nd0  1  0.000000  0.500000  0.520145  1
  Nd  Nd1  1  0.500000  0.000000  0.479855  1
  Nd  Nd2  1  0.500000  0.815473  0.205687  1
  Nd  Nd3  1  0.500000  0.184527  0.205687  1
  Nd  Nd4  1  0.000000  0.684527  0.794313  1
  Nd  Nd5  1  0.000000  0.315473  0.794313  1
  Fe  Fe6  1  0.000000  0.500000  0.991028  1
  Fe  Fe7  1  0.500000  0.000000  0.008972  1
  Co  Co8  1  0.500000  0.331396  0.995444  1
  Co  Co9  1  0.500000  0.668604  0.995444  1
  Co  Co10  1  0.000000  0.168604  0.004556  1
  Co  Co11  1  0.000000  0.831396  0.004556  1
  Co  Co12  1  0.500000  0.300485  0.428700  1
  Co  Co13  1  0.500000  0.699515  0.428700  1
  Co  Co14  1  0.000000  0.199515  0.571300  1
  Co  Co15  1  0.000000  0.800485  0.571300  1
  Co  Co16  1  0.500000  0.883143  0.712089  1
  Co  Co17  1  0.500000  0.116857  0.712089  1
  Co  Co18  1  0.000000  0.616857  0.287911  1
  Co  Co19  1  0.000000  0.383143  0.287911  1
  P  P20  1  0.500000  0.500000  0.894728  1
  P  P21  1  0.000000  0.000000  0.105272  1
  P  P22  1  0.500000  0.500000  0.344467  1
  P  P23  1  0.000000  0.000000  0.655533  1
  P  P24  1  0.500000  0.297040  0.611541  1
  P  P25  1  0.500000  0.702960  0.611541  1
  P  P26  1  0.000000  0.202960  0.388459  1
  P  P27  1  0.000000  0.797040  0.388459  1
  P  P28  1  0.500000  0.845713  0.898502  1
  P  P29  1  0.500000  0.154287  0.898502  1
  P  P30  1  0.000000  0.654287  0.101498  1
  P  P31  1  0.000000  0.345713  0.101498  1
  Rh  Rh32  1  0.500000  0.500000  0.156599  1
  Rh  Rh33  1  0.000000  0.000000  0.843401  1
  Rh  Rh34  1  0.500000  0.500000  0.703550  1
  Rh  Rh35  1  0.000000  0.000000  0.296450  1
