# generated using pymatgen
data_Nd3Y(ZrPt)4
_symmetry_space_group_name_H-M   'P 1'
_cell_length_a   4.70042500
_cell_length_b   7.47795766
_cell_length_c   8.22926901
_cell_angle_alpha   90.55547710
_cell_angle_beta   90.00000000
_cell_angle_gamma   90.00000000
_symmetry_Int_Tables_number   1
_chemical_formula_structural   Nd3Y(ZrPt)4
_chemical_formula_sum   'Nd3 Y1 Zr4 Pt4'
_cell_volume   289.24174848
_cell_formula_units_Z   1
loop_
 _symmetry_equiv_pos_site_id
 _symmetry_equiv_pos_as_xyz
  1  'x, y, z'
loop_
 _atom_site_type_symbol
 _atom_site_label
 _atom_site_symmetry_multiplicity
 _atom_site_fract_x
 _atom_site_fract_y
 _atom_site_fract_z
 _atom_site_occupancy
  Nd  Nd0  1  0.250000  0.519950  0.824603  1
  Nd  Nd1  1  0.750000  0.983436  0.326464  1
  Nd  Nd2  1  0.750000  0.479376  0.173616  1
  Y  Y3  1  0.250000  0.021161  0.677897  1
  Zr  Zr4  1  0.250000  0.143568  0.076685  1
  Zr  Zr5  1  0.250000  0.645487  0.422525  1
  Zr  Zr6  1  0.750000  0.855125  0.918063  1
  Zr  Zr7  1  0.750000  0.355743  0.579918  1
  Pt  Pt8  1  0.250000  0.280163  0.411768  1
  Pt  Pt9  1  0.250000  0.784991  0.094278  1
  Pt  Pt10  1  0.750000  0.720062  0.593631  1
  Pt  Pt11  1  0.750000  0.210938  0.900553  1
