# generated using pymatgen
data_Sm2Ho8Tl2In6Pd3Rh
_symmetry_space_group_name_H-M   'P 1'
_cell_length_a   3.62249000
_cell_length_b   8.15425390
_cell_length_c   18.33890500
_cell_angle_alpha   90.02689740
_cell_angle_beta   90.00000000
_cell_angle_gamma   90.00000000
_symmetry_Int_Tables_number   1
_chemical_formula_structural   Sm2Ho8Tl2In6Pd3Rh
_chemical_formula_sum   'Sm2 Ho8 Tl2 In6 Pd3 Rh1'
_cell_volume   541.70741221
_cell_formula_units_Z   1
loop_
 _symmetry_equiv_pos_site_id
 _symmetry_equiv_pos_as_xyz
  1  'x, y, z'
loop_
 _atom_site_type_symbol
 _atom_site_label
 _atom_site_symmetry_multiplicity
 _atom_site_fract_x
 _atom_site_fract_y
 _atom_site_fract_z
 _atom_site_occupancy
  Sm  Sm0  1  0.000000  0.499977  0.499949  1
  Sm  Sm1  1  0.000000  0.999227  0.000254  1
  Ho  Ho2  1  0.000000  0.731584  0.279292  1
  Ho  Ho3  1  0.000000  0.260855  0.718206  1
  Ho  Ho4  1  0.000000  0.760466  0.780452  1
  Ho  Ho5  1  0.000000  0.252751  0.219806  1
  Ho  Ho6  1  0.000000  0.615824  0.088995  1
  Ho  Ho7  1  0.000000  0.380608  0.914898  1
  Ho  Ho8  1  0.000000  0.881308  0.583604  1
  Ho  Ho9  1  0.000000  0.118630  0.414871  1
  Tl  Tl10  1  0.500000  0.704657  0.932659  1
  Tl  Tl11  1  0.500000  0.294013  0.068543  1
  In  In12  1  0.500000  0.795640  0.431185  1
  In  In13  1  0.500000  0.203574  0.567643  1
  In  In14  1  0.500000  0.581059  0.651515  1
  In  In15  1  0.500000  0.421451  0.348676  1
  In  In16  1  0.500000  0.919725  0.152390  1
  In  In17  1  0.500000  0.082587  0.847751  1
  Pd  Pd18  1  0.500000  0.473576  0.803133  1
  Pd  Pd19  1  0.500000  0.975927  0.695840  1
  Pd  Pd20  1  0.500000  0.021741  0.303583  1
  Rh  Rh21  1  0.500000  0.524819  0.196757  1
