# generated using pymatgen
data_Ho20(Bi3Sb)3
_symmetry_space_group_name_H-M   'P 1'
_cell_length_a   8.17982450
_cell_length_b   9.44891800
_cell_length_c   11.95755404
_cell_angle_alpha   90.00000000
_cell_angle_beta   90.02472761
_cell_angle_gamma   90.00000000
_symmetry_Int_Tables_number   1
_chemical_formula_structural   Ho20(Bi3Sb)3
_chemical_formula_sum   'Ho20 Bi9 Sb3'
_cell_volume   924.20513649
_cell_formula_units_Z   1
loop_
 _symmetry_equiv_pos_site_id
 _symmetry_equiv_pos_as_xyz
  1  'x, y, z'
loop_
 _atom_site_type_symbol
 _atom_site_label
 _atom_site_symmetry_multiplicity
 _atom_site_fract_x
 _atom_site_fract_y
 _atom_site_fract_z
 _atom_site_occupancy
  Ho  Ho0  1  0.352704  0.750000  0.213007  1
  Ho  Ho1  1  0.852965  0.750000  0.286546  1
  Ho  Ho2  1  0.647234  0.250000  0.786799  1
  Ho  Ho3  1  0.148158  0.250000  0.716505  1
  Ho  Ho4  1  0.689085  0.562819  0.057387  1
  Ho  Ho5  1  0.190320  0.933766  0.442570  1
  Ho  Ho6  1  0.311086  0.062405  0.942768  1
  Ho  Ho7  1  0.808376  0.440015  0.558932  1
  Ho  Ho8  1  0.311086  0.437595  0.942768  1
  Ho  Ho9  1  0.808376  0.059985  0.558932  1
  Ho  Ho10  1  0.689085  0.937181  0.057387  1
  Ho  Ho11  1  0.190320  0.566234  0.442570  1
  Ho  Ho12  1  0.475542  0.250000  0.487968  1
  Ho  Ho13  1  0.972644  0.250000  0.011948  1
  Ho  Ho14  1  0.528676  0.750000  0.512672  1
  Ho  Ho15  1  0.027826  0.750000  0.987892  1
  Ho  Ho16  1  0.318002  0.250000  0.216173  1
  Ho  Ho17  1  0.811419  0.250000  0.278995  1
  Ho  Ho18  1  0.683313  0.750000  0.782184  1
  Ho  Ho19  1  0.183821  0.750000  0.717810  1
  Bi  Bi20  1  0.092176  0.250000  0.456522  1
  Bi  Bi21  1  0.565375  0.995186  0.325573  1
  Bi  Bi22  1  0.065703  0.504053  0.174340  1
  Bi  Bi23  1  0.434077  0.495597  0.674581  1
  Bi  Bi24  1  0.934158  0.003967  0.825853  1
  Bi  Bi25  1  0.434077  0.004403  0.674581  1
  Bi  Bi26  1  0.934158  0.496033  0.825853  1
  Bi  Bi27  1  0.565375  0.504814  0.325573  1
  Bi  Bi28  1  0.065703  0.995947  0.174340  1
  Sb  Sb29  1  0.407731  0.750000  0.958015  1
  Sb  Sb30  1  0.908412  0.750000  0.541676  1
  Sb  Sb31  1  0.593015  0.250000  0.041278  1
