# generated using pymatgen
data_Zr6Ta4Mn(Al2Ir)6
_symmetry_space_group_name_H-M   'P 1'
_cell_length_a   8.81584189
_cell_length_b   8.81584283
_cell_length_c   8.81584300
_cell_angle_alpha   60.00000311
_cell_angle_beta   59.99999958
_cell_angle_gamma   60.00000542
_symmetry_Int_Tables_number   1
_chemical_formula_structural   Zr6Ta4Mn(Al2Ir)6
_chemical_formula_sum   'Zr6 Ta4 Mn1 Al12 Ir6'
_cell_volume   484.48072968
_cell_formula_units_Z   1
loop_
 _symmetry_equiv_pos_site_id
 _symmetry_equiv_pos_as_xyz
  1  'x, y, z'
loop_
 _atom_site_type_symbol
 _atom_site_label
 _atom_site_symmetry_multiplicity
 _atom_site_fract_x
 _atom_site_fract_y
 _atom_site_fract_z
 _atom_site_occupancy
  Zr  Zr0  1  0.691257  0.691257  0.308743  1
  Zr  Zr1  1  0.308743  0.691257  0.308743  1
  Zr  Zr2  1  0.691257  0.308743  0.308743  1
  Zr  Zr3  1  0.308743  0.308743  0.691257  1
  Zr  Zr4  1  0.691257  0.308743  0.691257  1
  Zr  Zr5  1  0.308743  0.691257  0.691257  1
  Ta  Ta6  1  0.882194  0.882194  0.353421  1
  Ta  Ta7  1  0.882194  0.353421  0.882194  1
  Ta  Ta8  1  0.353421  0.882194  0.882194  1
  Ta  Ta9  1  0.882194  0.882194  0.882194  1
  Mn  Mn10  1  0.000000  0.000000  0.000000  1
  Al  Al11  1  0.119095  0.119095  0.642712  1
  Al  Al12  1  0.119095  0.642712  0.119095  1
  Al  Al13  1  0.642712  0.119095  0.119095  1
  Al  Al14  1  0.119095  0.119095  0.119095  1
  Al  Al15  1  0.661078  0.661078  0.016767  1
  Al  Al16  1  0.661078  0.016767  0.661078  1
  Al  Al17  1  0.016767  0.661078  0.661078  1
  Al  Al18  1  0.661078  0.661078  0.661078  1
  Al  Al19  1  0.337009  0.337009  0.988973  1
  Al  Al20  1  0.337009  0.988973  0.337009  1
  Al  Al21  1  0.988973  0.337009  0.337009  1
  Al  Al22  1  0.337009  0.337009  0.337009  1
  Ir  Ir23  1  0.997715  0.997715  0.502285  1
  Ir  Ir24  1  0.502285  0.997715  0.502285  1
  Ir  Ir25  1  0.997715  0.502285  0.502285  1
  Ir  Ir26  1  0.502285  0.502285  0.997715  1
  Ir  Ir27  1  0.997715  0.502285  0.997715  1
  Ir  Ir28  1  0.502285  0.997715  0.997715  1
