# generated using pymatgen
data_DyYVPtF14
_symmetry_space_group_name_H-M   'P 1'
_cell_length_a   5.53850400
_cell_length_b   8.88048002
_cell_length_c   11.91010743
_cell_angle_alpha   62.85357559
_cell_angle_beta   90.00000000
_cell_angle_gamma   90.00000000
_symmetry_Int_Tables_number   1
_chemical_formula_structural   DyYVPtF14
_chemical_formula_sum   'Dy2 Y2 V2 Pt2 F28'
_cell_volume   521.26453605
_cell_formula_units_Z   2
loop_
 _symmetry_equiv_pos_site_id
 _symmetry_equiv_pos_as_xyz
  1  'x, y, z'
loop_
 _atom_site_type_symbol
 _atom_site_label
 _atom_site_symmetry_multiplicity
 _atom_site_fract_x
 _atom_site_fract_y
 _atom_site_fract_z
 _atom_site_occupancy
  Dy  Dy0  1  0.240047  0.190530  0.228518  1
  Dy  Dy1  1  0.740047  0.809470  0.271482  1
  Y  Y2  1  0.758835  0.811957  0.763785  1
  Y  Y3  1  0.258835  0.188043  0.736215  1
  V  V4  1  0.755261  0.275043  0.954747  1
  V  V5  1  0.255261  0.724957  0.545253  1
  Pt  Pt6  1  0.242591  0.729006  0.043466  1
  Pt  Pt7  1  0.742591  0.270994  0.456534  1
  F  F8  1  0.434669  0.700391  0.915603  1
  F  F9  1  0.934669  0.299609  0.584397  1
  F  F10  1  0.549264  0.290742  0.075927  1
  F  F11  1  0.049264  0.709258  0.424073  1
  F  F12  1  0.440823  0.281770  0.540886  1
  F  F13  1  0.940823  0.718230  0.959114  1
  F  F14  1  0.538352  0.718853  0.454508  1
  F  F15  1  0.038352  0.281147  0.045492  1
  F  F16  1  0.770784  0.508098  0.865018  1
  F  F17  1  0.270784  0.491902  0.634982  1
  F  F18  1  0.229864  0.481089  0.143415  1
  F  F19  1  0.729864  0.518911  0.356585  1
  F  F20  1  0.757227  0.044909  0.045646  1
  F  F21  1  0.257227  0.955091  0.454354  1
  F  F22  1  0.245057  0.977152  0.950851  1
  F  F23  1  0.745057  0.022848  0.549149  1
  F  F24  1  0.984425  0.725746  0.642768  1
  F  F25  1  0.484425  0.274254  0.857232  1
  F  F26  1  0.039172  0.267334  0.366740  1
  F  F27  1  0.539172  0.732666  0.133260  1
  F  F28  1  0.053783  0.751638  0.175319  1
  F  F29  1  0.553783  0.248362  0.324681  1
  F  F30  1  0.958109  0.257772  0.830779  1
  F  F31  1  0.458109  0.742228  0.669221  1
  F  F32  1  0.418981  0.971572  0.230827  1
  F  F33  1  0.918981  0.028428  0.269173  1
  F  F34  1  0.582755  0.029009  0.767054  1
  F  F35  1  0.082755  0.970991  0.732946  1
