# generated using pymatgen
data_Ho8Ta2Ti9Si16Ir
_symmetry_space_group_name_H-M   'P 1'
_cell_length_a   7.01832611
_cell_length_b   7.01832572
_cell_length_c   12.86451576
_cell_angle_alpha   90.16596018
_cell_angle_beta   89.83403932
_cell_angle_gamma   89.70330545
_symmetry_Int_Tables_number   1
_chemical_formula_structural   Ho8Ta2Ti9Si16Ir
_chemical_formula_sum   'Ho8 Ta2 Ti9 Si16 Ir1'
_cell_volume   633.65230926
_cell_formula_units_Z   1
loop_
 _symmetry_equiv_pos_site_id
 _symmetry_equiv_pos_as_xyz
  1  'x, y, z'
loop_
 _atom_site_type_symbol
 _atom_site_label
 _atom_site_symmetry_multiplicity
 _atom_site_fract_x
 _atom_site_fract_y
 _atom_site_fract_z
 _atom_site_occupancy
  Ho  Ho0  1  0.340938  0.003717  0.467214  1
  Ho  Ho1  1  0.496980  0.842255  0.718374  1
  Ho  Ho2  1  0.501298  0.157876  0.215410  1
  Ho  Ho3  1  0.842255  0.496980  0.281626  1
  Ho  Ho4  1  0.157876  0.501298  0.784590  1
  Ho  Ho5  1  0.658066  0.998535  0.968562  1
  Ho  Ho6  1  0.003717  0.340938  0.532786  1
  Ho  Ho7  1  0.998535  0.658066  0.031438  1
  Ta  Ta8  1  0.175102  0.826596  0.247873  1
  Ta  Ta9  1  0.826596  0.175102  0.752127  1
  Ti  Ti10  1  0.673726  0.673726  0.500000  1
  Ti  Ti11  1  0.148500  0.002298  0.874994  1
  Ti  Ti12  1  0.492808  0.657634  0.125218  1
  Ti  Ti13  1  0.507606  0.348069  0.628767  1
  Ti  Ti14  1  0.657634  0.492808  0.874782  1
  Ti  Ti15  1  0.348069  0.507606  0.371233  1
  Ti  Ti16  1  0.849305  0.993528  0.373844  1
  Ti  Ti17  1  0.002298  0.148500  0.125006  1
  Ti  Ti18  1  0.993528  0.849305  0.626156  1
  Si  Si19  1  0.202570  0.132868  0.684969  1
  Si  Si20  1  0.371945  0.701482  0.933521  1
  Si  Si21  1  0.631070  0.296314  0.434090  1
  Si  Si22  1  0.701482  0.371945  0.066479  1
  Si  Si23  1  0.296314  0.631070  0.565910  1
  Si  Si24  1  0.796688  0.867613  0.183895  1
  Si  Si25  1  0.132868  0.202570  0.315031  1
  Si  Si26  1  0.867613  0.796688  0.816105  1
  Si  Si27  1  0.287720  0.953018  0.062098  1
  Si  Si28  1  0.547561  0.792091  0.315667  1
  Si  Si29  1  0.449108  0.209312  0.818255  1
  Si  Si30  1  0.792091  0.547561  0.684333  1
  Si  Si31  1  0.209312  0.449108  0.181745  1
  Si  Si32  1  0.707593  0.047584  0.565110  1
  Si  Si33  1  0.953018  0.287720  0.937902  1
  Si  Si34  1  0.047584  0.707593  0.434890  1
  Ir  Ir35  1  0.330626  0.330626  0.000000  1
