# generated using pymatgen
data_Rb2SmY(SiSe4)2
_symmetry_space_group_name_H-M   'P 1'
_cell_length_a   7.06717994
_cell_length_b   6.76857151
_cell_length_c   9.45406840
_cell_angle_alpha   72.49094199
_cell_angle_beta   90.04746358
_cell_angle_gamma   90.10294313
_symmetry_Int_Tables_number   1
_chemical_formula_structural   Rb2SmY(SiSe4)2
_chemical_formula_sum   'Rb2 Sm1 Y1 Si2 Se8'
_cell_volume   431.27972088
_cell_formula_units_Z   1
loop_
 _symmetry_equiv_pos_site_id
 _symmetry_equiv_pos_as_xyz
  1  'x, y, z'
loop_
 _atom_site_type_symbol
 _atom_site_label
 _atom_site_symmetry_multiplicity
 _atom_site_fract_x
 _atom_site_fract_y
 _atom_site_fract_z
 _atom_site_occupancy
  Rb  Rb0  1  0.991738  0.738027  0.064155  1
  Rb  Rb1  1  0.491769  0.261775  0.935858  1
  Sm  Sm2  1  0.507569  0.228165  0.452576  1
  Y  Y3  1  0.009497  0.770346  0.547899  1
  Si  Si4  1  0.471396  0.779107  0.331820  1
  Si  Si5  1  0.971188  0.220966  0.668116  1
  Se  Se6  1  0.475761  0.581584  0.175894  1
  Se  Se7  1  0.236111  0.024876  0.284534  1
  Se  Se8  1  0.741934  0.977683  0.305230  1
  Se  Se9  1  0.909435  0.426971  0.432592  1
  Se  Se10  1  0.406331  0.578201  0.568367  1
  Se  Se11  1  0.237791  0.017831  0.696002  1
  Se  Se12  1  0.739116  0.971409  0.715913  1
  Se  Se13  1  0.976369  0.423060  0.821044  1
