# generated using pymatgen
data_Li3Sc5(Si3Ni4)4
_symmetry_space_group_name_H-M   'P 1'
_cell_length_a   12.17131200
_cell_length_b   12.17131253
_cell_length_c   3.71038000
_cell_angle_alpha   90.00000000
_cell_angle_beta   90.00000000
_cell_angle_gamma   119.99999856
_symmetry_Int_Tables_number   1
_chemical_formula_structural   Li3Sc5(Si3Ni4)4
_chemical_formula_sum   'Li3 Sc5 Si12 Ni16'
_cell_volume   476.01850689
_cell_formula_units_Z   1
loop_
 _symmetry_equiv_pos_site_id
 _symmetry_equiv_pos_as_xyz
  1  'x, y, z'
loop_
 _atom_site_type_symbol
 _atom_site_label
 _atom_site_symmetry_multiplicity
 _atom_site_fract_x
 _atom_site_fract_y
 _atom_site_fract_z
 _atom_site_occupancy
  Li  Li0  1  0.438336  0.438336  0.000000  1
  Li  Li1  1  0.561664  0.000000  0.000000  1
  Li  Li2  1  0.000000  0.561664  0.000000  1
  Sc  Sc3  1  0.666667  0.333333  0.000000  1
  Sc  Sc4  1  0.333333  0.666667  0.000000  1
  Sc  Sc5  1  0.813156  0.813156  0.500000  1
  Sc  Sc6  1  0.186844  0.000000  0.500000  1
  Sc  Sc7  1  0.000000  0.186844  0.500000  1
  Si  Si8  1  0.638917  0.638917  0.000000  1
  Si  Si9  1  0.361083  0.000000  0.000000  1
  Si  Si10  1  0.000000  0.361083  0.000000  1
  Si  Si11  1  0.485416  0.313751  0.500000  1
  Si  Si12  1  0.686249  0.171666  0.500000  1
  Si  Si13  1  0.828334  0.514584  0.500000  1
  Si  Si14  1  0.514584  0.828334  0.500000  1
  Si  Si15  1  0.171666  0.686249  0.500000  1
  Si  Si16  1  0.821980  0.000000  0.000000  1
  Si  Si17  1  0.000000  0.821980  0.000000  1
  Si  Si18  1  0.313751  0.485416  0.500000  1
  Si  Si19  1  0.178020  0.178020  0.000000  1
  Ni  Ni20  1  0.198596  0.376855  0.000000  1
  Ni  Ni21  1  0.178259  0.801404  0.000000  1
  Ni  Ni22  1  0.821741  0.623145  0.000000  1
  Ni  Ni23  1  0.801404  0.178259  0.000000  1
  Ni  Ni24  1  0.376855  0.198596  0.000000  1
  Ni  Ni25  1  0.123021  0.479005  0.500000  1
  Ni  Ni26  1  0.355984  0.876979  0.500000  1
  Ni  Ni27  1  0.520995  0.644016  0.500000  1
  Ni  Ni28  1  0.644016  0.520995  0.500000  1
  Ni  Ni29  1  0.876979  0.355984  0.500000  1
  Ni  Ni30  1  0.479005  0.123021  0.500000  1
  Ni  Ni31  1  0.000000  0.000000  0.000000  1
  Ni  Ni32  1  0.718125  0.000000  0.500000  1
  Ni  Ni33  1  0.000000  0.718125  0.500000  1
  Ni  Ni34  1  0.623145  0.821741  0.000000  1
  Ni  Ni35  1  0.281875  0.281875  0.500000  1
