# generated using pymatgen
data_NdTh2In3RuRh2
_symmetry_space_group_name_H-M   'P 1'
_cell_length_a   7.78759618
_cell_length_b   7.50750702
_cell_length_c   4.02783400
_cell_angle_alpha   90.00000000
_cell_angle_beta   90.00000000
_cell_angle_gamma   119.00717350
_symmetry_Int_Tables_number   1
_chemical_formula_structural   NdTh2In3RuRh2
_chemical_formula_sum   'Nd1 Th2 In3 Ru1 Rh2'
_cell_volume   205.94907619
_cell_formula_units_Z   1
loop_
 _symmetry_equiv_pos_site_id
 _symmetry_equiv_pos_as_xyz
  1  'x, y, z'
loop_
 _atom_site_type_symbol
 _atom_site_label
 _atom_site_symmetry_multiplicity
 _atom_site_fract_x
 _atom_site_fract_y
 _atom_site_fract_z
 _atom_site_occupancy
  Nd  Nd0  1  0.003019  0.592558  0.500000  1
  Th  Th1  1  0.580930  0.994484  0.500000  1
  Th  Th2  1  0.412464  0.418004  0.500000  1
  In  In3  1  0.238492  0.989372  0.000000  1
  In  In4  1  0.761525  0.750349  0.000000  1
  In  In5  1  0.999336  0.261444  0.000000  1
  Ru  Ru6  1  0.364874  0.671844  0.000000  1
  Rh  Rh7  1  0.000553  0.013927  0.500000  1
  Rh  Rh8  1  0.638806  0.308018  0.000000  1
