# generated using pymatgen
data_Tm3Cr(P3Rh4)2
_symmetry_space_group_name_H-M   'P 1'
_cell_length_a   3.91502900
_cell_length_b   11.21483900
_cell_length_c   12.55064500
_cell_angle_alpha   90.00000000
_cell_angle_beta   90.00000000
_cell_angle_gamma   90.00000000
_symmetry_Int_Tables_number   1
_chemical_formula_structural   Tm3Cr(P3Rh4)2
_chemical_formula_sum   'Tm6 Cr2 P12 Rh16'
_cell_volume   551.05388958
_cell_formula_units_Z   2
loop_
 _symmetry_equiv_pos_site_id
 _symmetry_equiv_pos_as_xyz
  1  'x, y, z'
loop_
 _atom_site_type_symbol
 _atom_site_label
 _atom_site_symmetry_multiplicity
 _atom_site_fract_x
 _atom_site_fract_y
 _atom_site_fract_z
 _atom_site_occupancy
  Tm  Tm0  1  0.000000  0.500000  0.521829  1
  Tm  Tm1  1  0.500000  0.000000  0.478171  1
  Tm  Tm2  1  0.500000  0.819812  0.200721  1
  Tm  Tm3  1  0.500000  0.180188  0.200721  1
  Tm  Tm4  1  0.000000  0.680188  0.799279  1
  Tm  Tm5  1  0.000000  0.319812  0.799279  1
  Cr  Cr6  1  0.000000  0.500000  0.988219  1
  Cr  Cr7  1  0.500000  0.000000  0.011781  1
  P  P8  1  0.500000  0.500000  0.880266  1
  P  P9  1  0.000000  0.000000  0.119734  1
  P  P10  1  0.500000  0.500000  0.350069  1
  P  P11  1  0.000000  0.000000  0.649931  1
  P  P12  1  0.500000  0.313620  0.620607  1
  P  P13  1  0.500000  0.686380  0.620607  1
  P  P14  1  0.000000  0.186380  0.379393  1
  P  P15  1  0.000000  0.813620  0.379393  1
  P  P16  1  0.500000  0.847809  0.896035  1
  P  P17  1  0.500000  0.152191  0.896035  1
  P  P18  1  0.000000  0.652191  0.103965  1
  P  P19  1  0.000000  0.347809  0.103965  1
  Rh  Rh20  1  0.500000  0.500000  0.163160  1
  Rh  Rh21  1  0.000000  0.000000  0.836840  1
  Rh  Rh22  1  0.500000  0.500000  0.696058  1
  Rh  Rh23  1  0.000000  0.000000  0.303942  1
  Rh  Rh24  1  0.500000  0.334460  0.990850  1
  Rh  Rh25  1  0.500000  0.665540  0.990850  1
  Rh  Rh26  1  0.000000  0.165540  0.009150  1
  Rh  Rh27  1  0.000000  0.834460  0.009150  1
  Rh  Rh28  1  0.500000  0.295677  0.430568  1
  Rh  Rh29  1  0.500000  0.704323  0.430568  1
  Rh  Rh30  1  0.000000  0.204323  0.569432  1
  Rh  Rh31  1  0.000000  0.795677  0.569432  1
  Rh  Rh32  1  0.500000  0.872433  0.711764  1
  Rh  Rh33  1  0.500000  0.127567  0.711764  1
  Rh  Rh34  1  0.000000  0.627567  0.288236  1
  Rh  Rh35  1  0.000000  0.372433  0.288236  1
