# generated using pymatgen
data_Dy9Mg(BiPt2)2
_symmetry_space_group_name_H-M   'P 1'
_cell_length_a   8.82928694
_cell_length_b   8.82928678
_cell_length_c   8.82928663
_cell_angle_alpha   127.53752911
_cell_angle_beta   127.53752812
_cell_angle_gamma   77.37541714
_symmetry_Int_Tables_number   1
_chemical_formula_structural   Dy9Mg(BiPt2)2
_chemical_formula_sum   'Dy9 Mg1 Bi2 Pt4'
_cell_volume   419.83657106
_cell_formula_units_Z   1
loop_
 _symmetry_equiv_pos_site_id
 _symmetry_equiv_pos_as_xyz
  1  'x, y, z'
loop_
 _atom_site_type_symbol
 _atom_site_label
 _atom_site_symmetry_multiplicity
 _atom_site_fract_x
 _atom_site_fract_y
 _atom_site_fract_z
 _atom_site_occupancy
  Dy  Dy0  1  0.500000  0.500000  0.000000  1
  Dy  Dy1  1  0.802037  0.283353  0.821217  1
  Dy  Dy2  1  0.197963  0.716647  0.178783  1
  Dy  Dy3  1  0.462136  0.980821  0.178783  1
  Dy  Dy4  1  0.283353  0.462136  0.481316  1
  Dy  Dy5  1  0.019179  0.197963  0.481316  1
  Dy  Dy6  1  0.537864  0.019179  0.821217  1
  Dy  Dy7  1  0.716647  0.537864  0.518684  1
  Dy  Dy8  1  0.980821  0.802037  0.518684  1
  Mg  Mg9  1  0.000000  0.000000  0.000000  1
  Bi  Bi10  1  0.258214  0.258214  0.000000  1
  Bi  Bi11  1  0.741786  0.741786  0.000000  1
  Pt  Pt12  1  0.138770  0.633304  0.772074  1
  Pt  Pt13  1  0.861230  0.366696  0.227926  1
  Pt  Pt14  1  0.633304  0.861230  0.494534  1
  Pt  Pt15  1  0.366696  0.138770  0.505466  1
