# generated using pymatgen
data_Pr8Dy2Si5Hg
_symmetry_space_group_name_H-M   'P 1'
_cell_length_a   7.73648059
_cell_length_b   7.73648117
_cell_length_c   9.16756376
_cell_angle_alpha   114.95766750
_cell_angle_beta   114.95767044
_cell_angle_gamma   90.00000041
_symmetry_Int_Tables_number   1
_chemical_formula_structural   Pr8Dy2Si5Hg
_chemical_formula_sum   'Pr8 Dy2 Si5 Hg1'
_cell_volume   440.30783822
_cell_formula_units_Z   1
loop_
 _symmetry_equiv_pos_site_id
 _symmetry_equiv_pos_as_xyz
  1  'x, y, z'
loop_
 _atom_site_type_symbol
 _atom_site_label
 _atom_site_symmetry_multiplicity
 _atom_site_fract_x
 _atom_site_fract_y
 _atom_site_fract_z
 _atom_site_occupancy
  Pr  Pr0  1  0.974530  0.828201  0.283710  1
  Pr  Pr1  1  0.309181  0.455509  0.283710  1
  Pr  Pr2  1  0.828201  0.309181  0.283710  1
  Pr  Pr3  1  0.455509  0.974530  0.283710  1
  Pr  Pr4  1  0.044491  0.190819  0.716290  1
  Pr  Pr5  1  0.671799  0.525470  0.716290  1
  Pr  Pr6  1  0.190819  0.671799  0.716290  1
  Pr  Pr7  1  0.525470  0.044491  0.716290  1
  Dy  Dy8  1  0.517505  0.517505  0.035010  1
  Dy  Dy9  1  0.982495  0.982495  0.964990  1
  Si  Si10  1  0.250000  0.250000  0.500000  1
  Si  Si11  1  0.617179  0.882821  0.000000  1
  Si  Si12  1  0.382821  0.117179  0.000000  1
  Si  Si13  1  0.882821  0.382821  0.000000  1
  Si  Si14  1  0.117179  0.617179  0.000000  1
  Hg  Hg15  1  0.750000  0.750000  0.500000  1
