# generated using pymatgen
data_PrHf(PaPt2)2
_symmetry_space_group_name_H-M   'P 1'
_cell_length_a   4.45368000
_cell_length_b   5.59971028
_cell_length_c   7.10186390
_cell_angle_alpha   93.07451804
_cell_angle_beta   90.00000000
_cell_angle_gamma   90.00000000
_symmetry_Int_Tables_number   1
_chemical_formula_structural   PrHf(PaPt2)2
_chemical_formula_sum   'Pr1 Hf1 Pa2 Pt4'
_cell_volume   176.86070371
_cell_formula_units_Z   1
loop_
 _symmetry_equiv_pos_site_id
 _symmetry_equiv_pos_as_xyz
  1  'x, y, z'
loop_
 _atom_site_type_symbol
 _atom_site_label
 _atom_site_symmetry_multiplicity
 _atom_site_fract_x
 _atom_site_fract_y
 _atom_site_fract_z
 _atom_site_occupancy
  Pr  Pr0  1  0.750000  0.844948  0.813137  1
  Hf  Hf1  1  0.750000  0.643760  0.323194  1
  Pa  Pa2  1  0.250000  0.360665  0.675945  1
  Pa  Pa3  1  0.250000  0.149350  0.183120  1
  Pt  Pt4  1  0.250000  0.835473  0.510259  1
  Pt  Pt5  1  0.250000  0.648905  0.090837  1
  Pt  Pt6  1  0.750000  0.178922  0.442378  1
  Pt  Pt7  1  0.750000  0.337977  0.961130  1
