# generated using pymatgen
data_HoSiPtRh
_symmetry_space_group_name_H-M   'P 1'
_cell_length_a   9.22604884
_cell_length_b   9.22604873
_cell_length_c   4.08023400
_cell_angle_alpha   90.00000000
_cell_angle_beta   90.00000000
_cell_angle_gamma   155.24316068
_symmetry_Int_Tables_number   1
_chemical_formula_structural   HoSiPtRh
_chemical_formula_sum   'Ho2 Si2 Pt2 Rh2'
_cell_volume   145.44211976
_cell_formula_units_Z   2
loop_
 _symmetry_equiv_pos_site_id
 _symmetry_equiv_pos_as_xyz
  1  'x, y, z'
loop_
 _atom_site_type_symbol
 _atom_site_label
 _atom_site_symmetry_multiplicity
 _atom_site_fract_x
 _atom_site_fract_y
 _atom_site_fract_z
 _atom_site_occupancy
  Ho  Ho0  1  0.103422  0.896578  0.750000  1
  Ho  Ho1  1  0.896578  0.103422  0.250000  1
  Si  Si2  1  0.321081  0.678919  0.750000  1
  Si  Si3  1  0.678919  0.321081  0.250000  1
  Pt  Pt4  1  0.548769  0.451231  0.250000  1
  Pt  Pt5  1  0.451231  0.548769  0.750000  1
  Rh  Rh6  1  0.250572  0.749428  0.250000  1
  Rh  Rh7  1  0.749428  0.250572  0.750000  1
