# generated using pymatgen
data_Zr6Ti4Al12Os7
_symmetry_space_group_name_H-M   'P 1'
_cell_length_a   8.81279710
_cell_length_b   8.81272938
_cell_length_c   8.81194800
_cell_angle_alpha   60.00390689
_cell_angle_beta   60.00400961
_cell_angle_gamma   60.00685594
_symmetry_Int_Tables_number   1
_chemical_formula_structural   Zr6Ti4Al12Os7
_chemical_formula_sum   'Zr6 Ti4 Al12 Os7'
_cell_volume   483.98245039
_cell_formula_units_Z   1
loop_
 _symmetry_equiv_pos_site_id
 _symmetry_equiv_pos_as_xyz
  1  'x, y, z'
loop_
 _atom_site_type_symbol
 _atom_site_label
 _atom_site_symmetry_multiplicity
 _atom_site_fract_x
 _atom_site_fract_y
 _atom_site_fract_z
 _atom_site_occupancy
  Zr  Zr0  1  0.705537  0.705544  0.294455  1
  Zr  Zr1  1  0.294476  0.705457  0.294559  1
  Zr  Zr2  1  0.705459  0.294474  0.294553  1
  Zr  Zr3  1  0.294560  0.294566  0.705435  1
  Zr  Zr4  1  0.705467  0.294463  0.705519  1
  Zr  Zr5  1  0.294464  0.705466  0.705513  1
  Ti  Ti6  1  0.879934  0.879948  0.360102  1
  Ti  Ti7  1  0.879931  0.360106  0.879980  1
  Ti  Ti8  1  0.360120  0.879929  0.879973  1
  Ti  Ti9  1  0.879935  0.879946  0.880007  1
  Al  Al10  1  0.119167  0.119167  0.642500  1
  Al  Al11  1  0.119180  0.642460  0.119180  1
  Al  Al12  1  0.642456  0.119182  0.119182  1
  Al  Al13  1  0.119165  0.119166  0.119165  1
  Al  Al14  1  0.664823  0.664823  0.005470  1
  Al  Al15  1  0.664803  0.005478  0.664856  1
  Al  Al16  1  0.005479  0.664806  0.664855  1
  Al  Al17  1  0.664825  0.664826  0.664880  1
  Al  Al18  1  0.334342  0.334339  0.997002  1
  Al  Al19  1  0.334351  0.996993  0.334330  1
  Al  Al20  1  0.996992  0.334350  0.334330  1
  Al  Al21  1  0.334341  0.334339  0.334320  1
  Os  Os22  1  0.999987  0.999993  0.000009  1
  Os  Os23  1  0.999697  0.999695  0.500307  1
  Os  Os24  1  0.500388  0.999674  0.500294  1
  Os  Os25  1  0.999677  0.500380  0.500298  1
  Os  Os26  1  0.500380  0.500374  0.999625  1
  Os  Os27  1  0.999679  0.500382  0.999652  1
  Os  Os28  1  0.500389  0.999678  0.999653  1
