# generated using pymatgen
data_Er2Tm2Tc5Os3
_symmetry_space_group_name_H-M   'P 1'
_cell_length_a   5.29776814
_cell_length_b   5.23274605
_cell_length_c   8.99234900
_cell_angle_alpha   89.99885265
_cell_angle_beta   90.00130525
_cell_angle_gamma   119.47457780
_symmetry_Int_Tables_number   1
_chemical_formula_structural   Er2Tm2Tc5Os3
_chemical_formula_sum   'Er2 Tm2 Tc5 Os3'
_cell_volume   217.02087056
_cell_formula_units_Z   1
loop_
 _symmetry_equiv_pos_site_id
 _symmetry_equiv_pos_as_xyz
  1  'x, y, z'
loop_
 _atom_site_type_symbol
 _atom_site_label
 _atom_site_symmetry_multiplicity
 _atom_site_fract_x
 _atom_site_fract_y
 _atom_site_fract_z
 _atom_site_occupancy
  Er  Er0  1  0.668262  0.334240  0.562852  1
  Er  Er1  1  0.330758  0.665279  0.435405  1
  Tm  Tm2  1  0.330746  0.665276  0.064561  1
  Tm  Tm3  1  0.668297  0.334256  0.937212  1
  Tc  Tc4  1  0.171414  0.343194  0.750195  1
  Tc  Tc5  1  0.170953  0.828847  0.750190  1
  Tc  Tc6  1  0.657545  0.828209  0.750206  1
  Tc  Tc7  1  0.829577  0.658974  0.249797  1
  Tc  Tc8  1  0.830118  0.170783  0.249805  1
  Os  Os9  1  0.998185  0.999054  0.499248  1
  Os  Os10  1  0.998176  0.999048  0.000755  1
  Os  Os11  1  0.345968  0.172838  0.249773  1
