# generated using pymatgen
data_Tb2Dy4TcRu
_symmetry_space_group_name_H-M   'P 1'
_cell_length_a   6.29234400
_cell_length_b   7.39212800
_cell_length_c   9.16006700
_cell_angle_alpha   90.00000000
_cell_angle_beta   90.00000000
_cell_angle_gamma   90.00000000
_symmetry_Int_Tables_number   1
_chemical_formula_structural   Tb2Dy4TcRu
_chemical_formula_sum   'Tb4 Dy8 Tc2 Ru2'
_cell_volume   426.06963680
_cell_formula_units_Z   2
loop_
 _symmetry_equiv_pos_site_id
 _symmetry_equiv_pos_as_xyz
  1  'x, y, z'
loop_
 _atom_site_type_symbol
 _atom_site_label
 _atom_site_symmetry_multiplicity
 _atom_site_fract_x
 _atom_site_fract_y
 _atom_site_fract_z
 _atom_site_occupancy
  Tb  Tb0  1  0.875679  0.540769  0.250000  1
  Tb  Tb1  1  0.624321  0.040769  0.250000  1
  Tb  Tb2  1  0.132557  0.455897  0.750000  1
  Tb  Tb3  1  0.367443  0.955897  0.750000  1
  Dy  Dy4  1  0.334481  0.676439  0.064104  1
  Dy  Dy5  1  0.165519  0.176439  0.435896  1
  Dy  Dy6  1  0.664293  0.324210  0.562699  1
  Dy  Dy7  1  0.835707  0.824210  0.937301  1
  Dy  Dy8  1  0.664293  0.324210  0.937301  1
  Dy  Dy9  1  0.835707  0.824210  0.562699  1
  Dy  Dy10  1  0.334481  0.676439  0.435896  1
  Dy  Dy11  1  0.165519  0.176439  0.064104  1
  Tc  Tc12  1  0.037747  0.886665  0.250000  1
  Tc  Tc13  1  0.462253  0.386665  0.250000  1
  Ru  Ru14  1  0.960745  0.115368  0.750000  1
  Ru  Ru15  1  0.539255  0.615368  0.750000  1
