# generated using pymatgen
data_Er2ThNi8Ir
_symmetry_space_group_name_H-M   'P 1'
_cell_length_a   8.77656381
_cell_length_b   8.77656405
_cell_length_c   8.77656419
_cell_angle_alpha   32.75061491
_cell_angle_beta   32.75061343
_cell_angle_gamma   32.75061529
_symmetry_Int_Tables_number   1
_chemical_formula_structural   Er2ThNi8Ir
_chemical_formula_sum   'Er2 Th1 Ni8 Ir1'
_cell_volume   176.00084068
_cell_formula_units_Z   1
loop_
 _symmetry_equiv_pos_site_id
 _symmetry_equiv_pos_as_xyz
  1  'x, y, z'
loop_
 _atom_site_type_symbol
 _atom_site_label
 _atom_site_symmetry_multiplicity
 _atom_site_fract_x
 _atom_site_fract_y
 _atom_site_fract_z
 _atom_site_occupancy
  Er  Er0  1  0.860257  0.860257  0.860257  1
  Er  Er1  1  0.139743  0.139743  0.139743  1
  Th  Th2  1  0.000000  0.000000  0.000000  1
  Ni  Ni3  1  0.666487  0.666487  0.666487  1
  Ni  Ni4  1  0.333513  0.333513  0.333513  1
  Ni  Ni5  1  0.416528  0.921761  0.416528  1
  Ni  Ni6  1  0.416528  0.416528  0.921761  1
  Ni  Ni7  1  0.921761  0.416528  0.416528  1
  Ni  Ni8  1  0.583472  0.078239  0.583472  1
  Ni  Ni9  1  0.583472  0.583472  0.078239  1
  Ni  Ni10  1  0.078239  0.583472  0.583472  1
  Ir  Ir11  1  0.500000  0.500000  0.500000  1
