# generated using pymatgen
data_Pu4MoW3N8
_symmetry_space_group_name_H-M   'P 1'
_cell_length_a   3.22621100
_cell_length_b   5.62268200
_cell_length_c   10.80066600
_cell_angle_alpha   89.99843597
_cell_angle_beta   90.00000000
_cell_angle_gamma   90.00000000
_symmetry_Int_Tables_number   1
_chemical_formula_structural   Pu4MoW3N8
_chemical_formula_sum   'Pu4 Mo1 W3 N8'
_cell_volume   195.92363317
_cell_formula_units_Z   1
loop_
 _symmetry_equiv_pos_site_id
 _symmetry_equiv_pos_as_xyz
  1  'x, y, z'
loop_
 _atom_site_type_symbol
 _atom_site_label
 _atom_site_symmetry_multiplicity
 _atom_site_fract_x
 _atom_site_fract_y
 _atom_site_fract_z
 _atom_site_occupancy
  Pu  Pu0  1  0.250000  0.576653  0.857630  1
  Pu  Pu1  1  0.750000  0.423187  0.143530  1
  Pu  Pu2  1  0.750000  0.924421  0.357354  1
  Pu  Pu3  1  0.250000  0.078014  0.642673  1
  Mo  Mo4  1  0.250000  0.428847  0.398796  1
  W  W5  1  0.250000  0.928653  0.100921  1
  W  W6  1  0.750000  0.070667  0.897838  1
  W  W7  1  0.750000  0.571063  0.601827  1
  N  N8  1  0.250000  0.664267  0.243063  1
  N  N9  1  0.750000  0.337333  0.755520  1
  N  N10  1  0.750000  0.836549  0.744225  1
  N  N11  1  0.250000  0.160149  0.253868  1
  N  N12  1  0.250000  0.753952  0.505693  1
  N  N13  1  0.750000  0.246547  0.497533  1
  N  N14  1  0.750000  0.745518  0.004517  1
  N  N15  1  0.250000  0.254181  0.995011  1
