# generated using pymatgen
data_Hf9Zr8Si16W3
_symmetry_space_group_name_H-M   'P 1'
_cell_length_a   7.00435219
_cell_length_b   7.00435250
_cell_length_c   12.84037938
_cell_angle_alpha   90.09497263
_cell_angle_beta   90.09497527
_cell_angle_gamma   90.13015682
_symmetry_Int_Tables_number   1
_chemical_formula_structural   Hf9Zr8Si16W3
_chemical_formula_sum   'Hf9 Zr8 Si16 W3'
_cell_volume   629.95787266
_cell_formula_units_Z   1
loop_
 _symmetry_equiv_pos_site_id
 _symmetry_equiv_pos_as_xyz
  1  'x, y, z'
loop_
 _atom_site_type_symbol
 _atom_site_label
 _atom_site_symmetry_multiplicity
 _atom_site_fract_x
 _atom_site_fract_y
 _atom_site_fract_z
 _atom_site_occupancy
  Hf  Hf0  1  0.674404  0.325596  0.750000  1
  Hf  Hf1  1  0.145582  0.996989  0.375398  1
  Hf  Hf2  1  0.855471  0.002103  0.877076  1
  Hf  Hf3  1  0.500995  0.647070  0.623031  1
  Hf  Hf4  1  0.352930  0.499005  0.876969  1
  Hf  Hf5  1  0.495313  0.354183  0.126949  1
  Hf  Hf6  1  0.645817  0.504687  0.373051  1
  Hf  Hf7  1  0.997897  0.144529  0.622924  1
  Hf  Hf8  1  0.003011  0.854418  0.124602  1
  Zr  Zr9  1  0.997069  0.345395  0.220679  1
  Zr  Zr10  1  0.003280  0.653691  0.717692  1
  Zr  Zr11  1  0.153957  0.498284  0.466703  1
  Zr  Zr12  1  0.501716  0.846043  0.033297  1
  Zr  Zr13  1  0.846689  0.503942  0.968877  1
  Zr  Zr14  1  0.496058  0.153311  0.531123  1
  Zr  Zr15  1  0.346309  0.996720  0.782308  1
  Zr  Zr16  1  0.654605  0.002931  0.279321  1
  Si  Si17  1  0.354117  0.297584  0.321179  1
  Si  Si18  1  0.645005  0.705507  0.820568  1
  Si  Si19  1  0.202719  0.854509  0.570980  1
  Si  Si20  1  0.145491  0.797281  0.929020  1
  Si  Si21  1  0.797266  0.146586  0.072233  1
  Si  Si22  1  0.853414  0.202734  0.427767  1
  Si  Si23  1  0.294493  0.354995  0.679432  1
  Si  Si24  1  0.702416  0.645883  0.178821  1
  Si  Si25  1  0.300501  0.046382  0.184542  1
  Si  Si26  1  0.700797  0.947922  0.683389  1
  Si  Si27  1  0.453017  0.801733  0.433119  1
  Si  Si28  1  0.198267  0.546983  0.066881  1
  Si  Si29  1  0.544145  0.196486  0.936170  1
  Si  Si30  1  0.803514  0.455855  0.563830  1
  Si  Si31  1  0.052078  0.299203  0.816611  1
  Si  Si32  1  0.953618  0.699499  0.315458  1
  W  W33  1  0.175594  0.173255  0.001678  1
  W  W34  1  0.826745  0.824406  0.498322  1
  W  W35  1  0.325700  0.674300  0.250000  1
