# generated using pymatgen
data_Dy3Pa(NiIr)2
_symmetry_space_group_name_H-M   'P 1'
_cell_length_a   4.19572900
_cell_length_b   5.60814281
_cell_length_c   7.06781827
_cell_angle_alpha   91.93663200
_cell_angle_beta   90.00000000
_cell_angle_gamma   90.00000000
_symmetry_Int_Tables_number   1
_chemical_formula_structural   Dy3Pa(NiIr)2
_chemical_formula_sum   'Dy3 Pa1 Ni2 Ir2'
_cell_volume   166.21252012
_cell_formula_units_Z   1
loop_
 _symmetry_equiv_pos_site_id
 _symmetry_equiv_pos_as_xyz
  1  'x, y, z'
loop_
 _atom_site_type_symbol
 _atom_site_label
 _atom_site_symmetry_multiplicity
 _atom_site_fract_x
 _atom_site_fract_y
 _atom_site_fract_z
 _atom_site_occupancy
  Dy  Dy0  1  0.750000  0.642863  0.318214  1
  Dy  Dy1  1  0.750000  0.857650  0.823008  1
  Dy  Dy2  1  0.250000  0.138629  0.182584  1
  Pa  Pa3  1  0.250000  0.350969  0.682276  1
  Ni  Ni4  1  0.250000  0.856275  0.551389  1
  Ni  Ni5  1  0.250000  0.632727  0.031386  1
  Ir  Ir6  1  0.750000  0.161521  0.470990  1
  Ir  Ir7  1  0.750000  0.359366  0.940152  1
