# generated using pymatgen
data_CsDyCr2O8
_symmetry_space_group_name_H-M   'P 1'
_cell_length_a   5.82592700
_cell_length_b   5.82592744
_cell_length_c   8.37101400
_cell_angle_alpha   90.00000000
_cell_angle_beta   90.00000000
_cell_angle_gamma   120.00000319
_symmetry_Int_Tables_number   1
_chemical_formula_structural   CsDyCr2O8
_chemical_formula_sum   'Cs1 Dy1 Cr2 O8'
_cell_volume   246.05873998
_cell_formula_units_Z   1
loop_
 _symmetry_equiv_pos_site_id
 _symmetry_equiv_pos_as_xyz
  1  'x, y, z'
loop_
 _atom_site_type_symbol
 _atom_site_label
 _atom_site_symmetry_multiplicity
 _atom_site_fract_x
 _atom_site_fract_y
 _atom_site_fract_z
 _atom_site_occupancy
  Cs  Cs0  1  0.000000  0.000000  0.500000  1
  Dy  Dy1  1  0.000000  0.000000  0.000000  1
  Cr  Cr2  1  0.666666  0.333333  0.230319  1
  Cr  Cr3  1  0.333333  0.666666  0.769680  1
  O  O4  1  0.351955  0.175978  0.165406  1
  O  O5  1  0.824022  0.175978  0.165406  1
  O  O6  1  0.824022  0.648045  0.165406  1
  O  O7  1  0.666666  0.333333  0.424483  1
  O  O8  1  0.333333  0.666666  0.575517  1
  O  O9  1  0.175978  0.351956  0.834593  1
  O  O10  1  0.175978  0.824023  0.834593  1
  O  O11  1  0.648045  0.824023  0.834593  1
