# generated using pymatgen
data_Tb8Al2CoNi
_symmetry_space_group_name_H-M   'P 1'
_cell_length_a   9.48176955
_cell_length_b   9.48176912
_cell_length_c   9.46822100
_cell_angle_alpha   60.04725158
_cell_angle_beta   60.04725306
_cell_angle_gamma   60.15725810
_symmetry_Int_Tables_number   1
_chemical_formula_structural   Tb8Al2CoNi
_chemical_formula_sum   'Tb16 Al4 Co2 Ni2'
_cell_volume   603.05400100
_cell_formula_units_Z   2
loop_
 _symmetry_equiv_pos_site_id
 _symmetry_equiv_pos_as_xyz
  1  'x, y, z'
loop_
 _atom_site_type_symbol
 _atom_site_label
 _atom_site_symmetry_multiplicity
 _atom_site_fract_x
 _atom_site_fract_y
 _atom_site_fract_z
 _atom_site_occupancy
  Tb  Tb0  1  0.804968  0.192720  0.191362  1
  Tb  Tb1  1  0.192720  0.804968  0.810950  1
  Tb  Tb2  1  0.192720  0.804968  0.191362  1
  Tb  Tb3  1  0.804968  0.192720  0.810950  1
  Tb  Tb4  1  0.192862  0.192862  0.807138  1
  Tb  Tb5  1  0.808291  0.808291  0.191709  1
  Tb  Tb6  1  0.938758  0.564382  0.561141  1
  Tb  Tb7  1  0.564382  0.938758  0.935719  1
  Tb  Tb8  1  0.564383  0.938758  0.561141  1
  Tb  Tb9  1  0.938758  0.564382  0.935719  1
  Tb  Tb10  1  0.563125  0.563124  0.936876  1
  Tb  Tb11  1  0.937208  0.937208  0.562792  1
  Tb  Tb12  1  0.349545  0.349545  0.346122  1
  Tb  Tb13  1  0.349545  0.349545  0.954786  1
  Tb  Tb14  1  0.352888  0.948140  0.349485  1
  Tb  Tb15  1  0.948140  0.352888  0.349485  1
  Al  Al16  1  0.576334  0.576334  0.576606  1
  Al  Al17  1  0.576334  0.576334  0.270726  1
  Al  Al18  1  0.575538  0.271201  0.576630  1
  Al  Al19  1  0.271201  0.575538  0.576630  1
  Co  Co20  1  0.140536  0.575328  0.142069  1
  Co  Co21  1  0.575328  0.140536  0.142069  1
  Ni  Ni22  1  0.140733  0.140733  0.144615  1
  Ni  Ni23  1  0.140733  0.140733  0.573920  1
