# generated using pymatgen
data_CaTb4(In2Rh)2
_symmetry_space_group_name_H-M   'P 1'
_cell_length_a   3.66946700
_cell_length_b   8.06861500
_cell_length_c   18.38889700
_cell_angle_alpha   90.00000000
_cell_angle_beta   90.00000000
_cell_angle_gamma   90.00000000
_symmetry_Int_Tables_number   1
_chemical_formula_structural   CaTb4(In2Rh)2
_chemical_formula_sum   'Ca2 Tb8 In8 Rh4'
_cell_volume   544.44957094
_cell_formula_units_Z   2
loop_
 _symmetry_equiv_pos_site_id
 _symmetry_equiv_pos_as_xyz
  1  'x, y, z'
loop_
 _atom_site_type_symbol
 _atom_site_label
 _atom_site_symmetry_multiplicity
 _atom_site_fract_x
 _atom_site_fract_y
 _atom_site_fract_z
 _atom_site_occupancy
  Ca  Ca0  1  0.000000  0.500000  0.500000  1
  Ca  Ca1  1  0.000000  0.000000  0.000000  1
  Tb  Tb2  1  0.000000  0.747291  0.278124  1
  Tb  Tb3  1  0.000000  0.252709  0.721876  1
  Tb  Tb4  1  0.000000  0.752709  0.778124  1
  Tb  Tb5  1  0.000000  0.247291  0.221876  1
  Tb  Tb6  1  0.000000  0.617646  0.088431  1
  Tb  Tb7  1  0.000000  0.382354  0.911569  1
  Tb  Tb8  1  0.000000  0.882354  0.588431  1
  Tb  Tb9  1  0.000000  0.117646  0.411569  1
  In  In10  1  0.500000  0.706011  0.930961  1
  In  In11  1  0.500000  0.293989  0.069039  1
  In  In12  1  0.500000  0.793989  0.430961  1
  In  In13  1  0.500000  0.206011  0.569039  1
  In  In14  1  0.500000  0.568797  0.651317  1
  In  In15  1  0.500000  0.431203  0.348683  1
  In  In16  1  0.500000  0.931203  0.151317  1
  In  In17  1  0.500000  0.068797  0.848683  1
  Rh  Rh18  1  0.500000  0.522209  0.194442  1
  Rh  Rh19  1  0.500000  0.477791  0.805558  1
  Rh  Rh20  1  0.500000  0.977791  0.694442  1
  Rh  Rh21  1  0.500000  0.022209  0.305558  1
