# generated using pymatgen
data_YbGdRuC2
_symmetry_space_group_name_H-M   'P 1'
_cell_length_a   5.11297100
_cell_length_b   6.40542500
_cell_length_c   10.22472900
_cell_angle_alpha   90.00000000
_cell_angle_beta   90.00000000
_cell_angle_gamma   90.00000000
_symmetry_Int_Tables_number   1
_chemical_formula_structural   YbGdRuC2
_chemical_formula_sum   'Yb4 Gd4 Ru4 C8'
_cell_volume   334.86756648
_cell_formula_units_Z   4
loop_
 _symmetry_equiv_pos_site_id
 _symmetry_equiv_pos_as_xyz
  1  'x, y, z'
loop_
 _atom_site_type_symbol
 _atom_site_label
 _atom_site_symmetry_multiplicity
 _atom_site_fract_x
 _atom_site_fract_y
 _atom_site_fract_z
 _atom_site_occupancy
  Yb  Yb0  1  0.750000  0.466188  0.776002  1
  Yb  Yb1  1  0.250000  0.033812  0.276002  1
  Yb  Yb2  1  0.750000  0.966188  0.723998  1
  Yb  Yb3  1  0.250000  0.533812  0.223998  1
  Gd  Gd4  1  0.750000  0.810541  0.057170  1
  Gd  Gd5  1  0.250000  0.189459  0.942830  1
  Gd  Gd6  1  0.750000  0.310541  0.442830  1
  Gd  Gd7  1  0.250000  0.689459  0.557170  1
  Ru  Ru8  1  0.750000  0.777708  0.358581  1
  Ru  Ru9  1  0.250000  0.722292  0.858581  1
  Ru  Ru10  1  0.250000  0.222292  0.641419  1
  Ru  Ru11  1  0.750000  0.277708  0.141419  1
  C  C12  1  0.250000  0.963178  0.745131  1
  C  C13  1  0.750000  0.536822  0.245131  1
  C  C14  1  0.250000  0.463178  0.754869  1
  C  C15  1  0.750000  0.036822  0.254869  1
  C  C16  1  0.250000  0.313407  0.464355  1
  C  C17  1  0.750000  0.186593  0.964355  1
  C  C18  1  0.250000  0.813407  0.035645  1
  C  C19  1  0.750000  0.686593  0.535645  1
