# generated using pymatgen
data_Ac7Eu3
_symmetry_space_group_name_H-M   'P 1'
_cell_length_a   17.44180800
_cell_length_b   17.44180763
_cell_length_c   6.94241500
_cell_angle_alpha   90.00000000
_cell_angle_beta   90.00000000
_cell_angle_gamma   167.42886363
_symmetry_Int_Tables_number   1
_chemical_formula_structural   Ac7Eu3
_chemical_formula_sum   'Ac7 Eu3'
_cell_volume   459.67976889
_cell_formula_units_Z   1
loop_
 _symmetry_equiv_pos_site_id
 _symmetry_equiv_pos_as_xyz
  1  'x, y, z'
loop_
 _atom_site_type_symbol
 _atom_site_label
 _atom_site_symmetry_multiplicity
 _atom_site_fract_x
 _atom_site_fract_y
 _atom_site_fract_z
 _atom_site_occupancy
  Ac  Ac0  1  0.000000  0.000000  0.000000  1
  Ac  Ac1  1  0.600535  0.399465  0.000000  1
  Ac  Ac2  1  0.399465  0.600535  0.000000  1
  Ac  Ac3  1  0.900809  0.099190  0.500000  1
  Ac  Ac4  1  0.698922  0.301078  0.500000  1
  Ac  Ac5  1  0.301078  0.698922  0.500000  1
  Ac  Ac6  1  0.099190  0.900809  0.500000  1
  Eu  Eu7  1  0.799221  0.200779  0.000000  1
  Eu  Eu8  1  0.200779  0.799221  0.000000  1
  Eu  Eu9  1  0.500000  0.500000  0.500000  1
