# generated using pymatgen
data_KLiGdF5
_symmetry_space_group_name_H-M   'P 1'
_cell_length_a   11.99601700
_cell_length_b   6.44763534
_cell_length_c   6.61759723
_cell_angle_alpha   66.30449039
_cell_angle_beta   90.00000000
_cell_angle_gamma   90.00000000
_symmetry_Int_Tables_number   1
_chemical_formula_structural   KLiGdF5
_chemical_formula_sum   'K4 Li4 Gd4 F20'
_cell_volume   468.69280093
_cell_formula_units_Z   4
loop_
 _symmetry_equiv_pos_site_id
 _symmetry_equiv_pos_as_xyz
  1  'x, y, z'
loop_
 _atom_site_type_symbol
 _atom_site_label
 _atom_site_symmetry_multiplicity
 _atom_site_fract_x
 _atom_site_fract_y
 _atom_site_fract_z
 _atom_site_occupancy
  K  K0  1  0.849384  0.036895  0.946575  1
  K  K1  1  0.650616  0.536895  0.946575  1
  K  K2  1  0.349384  0.463105  0.053425  1
  K  K3  1  0.150616  0.963105  0.053425  1
  Li  Li4  1  0.746013  0.460632  0.443209  1
  Li  Li5  1  0.753987  0.960632  0.443209  1
  Li  Li6  1  0.253987  0.539368  0.556791  1
  Li  Li7  1  0.246013  0.039368  0.556791  1
  Gd  Gd8  1  0.997835  0.320027  0.317830  1
  Gd  Gd9  1  0.002165  0.679973  0.682170  1
  Gd  Gd10  1  0.502165  0.820027  0.317830  1
  Gd  Gd11  1  0.497835  0.179973  0.682170  1
  F  F12  1  0.676265  0.283077  0.710159  1
  F  F13  1  0.606512  0.964774  0.535745  1
  F  F14  1  0.323735  0.716923  0.289841  1
  F  F15  1  0.007165  0.324253  0.956708  1
  F  F16  1  0.176265  0.216923  0.289841  1
  F  F17  1  0.393488  0.035226  0.464255  1
  F  F18  1  0.893488  0.464774  0.535745  1
  F  F19  1  0.532891  0.451799  0.334337  1
  F  F20  1  0.802226  0.276234  0.280441  1
  F  F21  1  0.302226  0.223766  0.719559  1
  F  F22  1  0.467109  0.548201  0.665663  1
  F  F23  1  0.992835  0.675747  0.043292  1
  F  F24  1  0.197774  0.723766  0.719559  1
  F  F25  1  0.507165  0.175747  0.043292  1
  F  F26  1  0.967109  0.951799  0.334337  1
  F  F27  1  0.697774  0.776234  0.280441  1
  F  F28  1  0.032891  0.048201  0.665663  1
  F  F29  1  0.823735  0.783077  0.710159  1
  F  F30  1  0.106512  0.535226  0.464255  1
  F  F31  1  0.492835  0.824253  0.956708  1
