# generated using pymatgen
data_Ho5InSn2Se
_symmetry_space_group_name_H-M   'P 1'
_cell_length_a   9.06213302
_cell_length_b   9.07495116
_cell_length_c   6.75733900
_cell_angle_alpha   90.00000000
_cell_angle_beta   90.00000000
_cell_angle_gamma   120.04680890
_symmetry_Int_Tables_number   1
_chemical_formula_structural   Ho5InSn2Se
_chemical_formula_sum   'Ho10 In2 Sn4 Se2'
_cell_volume   481.03428128
_cell_formula_units_Z   2
loop_
 _symmetry_equiv_pos_site_id
 _symmetry_equiv_pos_as_xyz
  1  'x, y, z'
loop_
 _atom_site_type_symbol
 _atom_site_label
 _atom_site_symmetry_multiplicity
 _atom_site_fract_x
 _atom_site_fract_y
 _atom_site_fract_z
 _atom_site_occupancy
  Ho  Ho0  1  0.666976  0.333355  0.998856  1
  Ho  Ho1  1  0.333024  0.666380  0.998856  1
  Ho  Ho2  1  0.333024  0.666380  0.501144  1
  Ho  Ho3  1  0.666976  0.333355  0.501144  1
  Ho  Ho4  1  0.747908  0.747449  0.750000  1
  Ho  Ho5  1  0.252092  0.999541  0.750000  1
  Ho  Ho6  1  0.000000  0.252850  0.750000  1
  Ho  Ho7  1  0.251838  0.252677  0.250000  1
  Ho  Ho8  1  0.748162  0.000839  0.250000  1
  Ho  Ho9  1  0.000000  0.748384  0.250000  1
  In  In10  1  0.396850  0.396832  0.750000  1
  In  In11  1  0.603150  0.999982  0.750000  1
  Sn  Sn12  1  0.000000  0.604354  0.750000  1
  Sn  Sn13  1  0.602992  0.602519  0.250000  1
  Sn  Sn14  1  0.397008  0.999528  0.250000  1
  Sn  Sn15  1  0.000000  0.395545  0.250000  1
  Se  Se16  1  0.000000  0.000016  0.000568  1
  Se  Se17  1  0.000000  0.000016  0.499432  1
