# generated using pymatgen
data_AcMoF7
_symmetry_space_group_name_H-M   'P 1'
_cell_length_a   6.00296300
_cell_length_b   9.62700318
_cell_length_c   12.87155900
_cell_angle_alpha   61.86044866
_cell_angle_beta   90.00000000
_cell_angle_gamma   90.00000000
_symmetry_Int_Tables_number   1
_chemical_formula_structural   AcMoF7
_chemical_formula_sum   'Ac4 Mo4 F28'
_cell_volume   655.93193359
_cell_formula_units_Z   4
loop_
 _symmetry_equiv_pos_site_id
 _symmetry_equiv_pos_as_xyz
  1  'x, y, z'
loop_
 _atom_site_type_symbol
 _atom_site_label
 _atom_site_symmetry_multiplicity
 _atom_site_fract_x
 _atom_site_fract_y
 _atom_site_fract_z
 _atom_site_occupancy
  Ac  Ac0  1  0.753940  0.808237  0.266773  1
  Ac  Ac1  1  0.253940  0.191763  0.233227  1
  Ac  Ac2  1  0.246060  0.191763  0.733227  1
  Ac  Ac3  1  0.746060  0.808237  0.766773  1
  Mo  Mo4  1  0.245204  0.726659  0.543106  1
  Mo  Mo5  1  0.745204  0.273341  0.956894  1
  Mo  Mo6  1  0.754796  0.273341  0.456894  1
  Mo  Mo7  1  0.254796  0.726659  0.043106  1
  F  F8  1  0.970515  0.716220  0.459308  1
  F  F9  1  0.470515  0.283780  0.040692  1
  F  F10  1  0.029485  0.283780  0.540692  1
  F  F11  1  0.529485  0.716220  0.959308  1
  F  F12  1  0.051481  0.709905  0.923341  1
  F  F13  1  0.551481  0.290095  0.576659  1
  F  F14  1  0.948519  0.290095  0.076659  1
  F  F15  1  0.448519  0.709905  0.423341  1
  F  F16  1  0.734771  0.506607  0.863755  1
  F  F17  1  0.234771  0.493393  0.636245  1
  F  F18  1  0.265229  0.493393  0.136245  1
  F  F19  1  0.765229  0.506607  0.363755  1
  F  F20  1  0.737738  0.040979  0.048741  1
  F  F21  1  0.237738  0.959021  0.451259  1
  F  F22  1  0.262262  0.959021  0.951259  1
  F  F23  1  0.762262  0.040979  0.548741  1
  F  F24  1  0.046044  0.743570  0.664875  1
  F  F25  1  0.546044  0.256430  0.835125  1
  F  F26  1  0.953956  0.256430  0.335125  1
  F  F27  1  0.453956  0.743570  0.164875  1
  F  F28  1  0.013274  0.268409  0.868023  1
  F  F29  1  0.513274  0.731591  0.631977  1
  F  F30  1  0.986726  0.731591  0.131977  1
  F  F31  1  0.486726  0.268409  0.368023  1
  F  F32  1  0.087778  0.966525  0.232121  1
  F  F33  1  0.587778  0.033475  0.267879  1
  F  F34  1  0.912222  0.033475  0.767879  1
  F  F35  1  0.412222  0.966525  0.732121  1
