# generated using pymatgen
data_Tm16Ga6CoNi
_symmetry_space_group_name_H-M   'P 1'
_cell_length_a   9.85535700
_cell_length_b   9.85535680
_cell_length_c   6.85631200
_cell_angle_alpha   90.00000000
_cell_angle_beta   90.00000000
_cell_angle_gamma   120.00000404
_symmetry_Int_Tables_number   1
_chemical_formula_structural   Tm16Ga6CoNi
_chemical_formula_sum   'Tm16 Ga6 Co1 Ni1'
_cell_volume   576.72117674
_cell_formula_units_Z   1
loop_
 _symmetry_equiv_pos_site_id
 _symmetry_equiv_pos_as_xyz
  1  'x, y, z'
loop_
 _atom_site_type_symbol
 _atom_site_label
 _atom_site_symmetry_multiplicity
 _atom_site_fract_x
 _atom_site_fract_y
 _atom_site_fract_z
 _atom_site_occupancy
  Tm  Tm0  1  0.173509  0.826491  0.989253  1
  Tm  Tm1  1  0.345362  0.172681  0.488088  1
  Tm  Tm2  1  0.827319  0.654638  0.488088  1
  Tm  Tm3  1  0.173509  0.347017  0.989253  1
  Tm  Tm4  1  0.652983  0.826491  0.989253  1
  Tm  Tm5  1  0.827319  0.172681  0.488088  1
  Tm  Tm6  1  0.333333  0.666667  0.671051  1
  Tm  Tm7  1  0.666667  0.333333  0.169325  1
  Tm  Tm8  1  0.463329  0.536671  0.292401  1
  Tm  Tm9  1  0.930488  0.465245  0.794937  1
  Tm  Tm10  1  0.534755  0.069512  0.794937  1
  Tm  Tm11  1  0.463329  0.926655  0.292401  1
  Tm  Tm12  1  0.073345  0.536671  0.292401  1
  Tm  Tm13  1  0.534755  0.465245  0.794937  1
  Tm  Tm14  1  0.000000  0.000000  0.267856  1
  Tm  Tm15  1  0.000000  0.000000  0.765824  1
  Ga  Ga16  1  0.162916  0.837084  0.540808  1
  Ga  Ga17  1  0.327362  0.163681  0.040897  1
  Ga  Ga18  1  0.836319  0.672638  0.040897  1
  Ga  Ga19  1  0.162916  0.325830  0.540808  1
  Ga  Ga20  1  0.674170  0.837084  0.540808  1
  Ga  Ga21  1  0.836319  0.163681  0.040897  1
  Co  Co22  1  0.333333  0.666667  0.054986  1
  Ni  Ni23  1  0.666667  0.333333  0.555809  1
