# generated using pymatgen
data_Li2Cr3Co7Ni2As7
_symmetry_space_group_name_H-M   'P 1'
_cell_length_a   9.41383340
_cell_length_b   9.41453438
_cell_length_c   3.63457500
_cell_angle_alpha   90.00000000
_cell_angle_beta   90.00000000
_cell_angle_gamma   119.91681159
_symmetry_Int_Tables_number   1
_chemical_formula_structural   Li2Cr3Co7Ni2As7
_chemical_formula_sum   'Li2 Cr3 Co7 Ni2 As7'
_cell_volume   279.19848849
_cell_formula_units_Z   1
loop_
 _symmetry_equiv_pos_site_id
 _symmetry_equiv_pos_as_xyz
  1  'x, y, z'
loop_
 _atom_site_type_symbol
 _atom_site_label
 _atom_site_symmetry_multiplicity
 _atom_site_fract_x
 _atom_site_fract_y
 _atom_site_fract_z
 _atom_site_occupancy
  Li  Li0  1  0.335964  0.667710  0.000000  1
  Li  Li1  1  0.997338  0.997057  0.500000  1
  Cr  Cr2  1  0.767110  0.562380  0.500000  1
  Cr  Cr3  1  0.435121  0.202568  0.500000  1
  Cr  Cr4  1  0.798082  0.233882  0.500000  1
  Co  Co5  1  0.278874  0.382332  0.500000  1
  Co  Co6  1  0.619212  0.897633  0.500000  1
  Co  Co7  1  0.101388  0.723900  0.500000  1
  Co  Co8  1  0.506725  0.450201  0.000000  1
  Co  Co9  1  0.549313  0.053824  0.000000  1
  Co  Co10  1  0.946074  0.495093  0.000000  1
  Co  Co11  1  0.720631  0.759216  0.000000  1
  Ni  Ni12  1  0.237749  0.961918  0.000000  1
  Ni  Ni13  1  0.037255  0.276892  0.000000  1
  As  As14  1  0.962484  0.754581  0.000000  1
  As  As15  1  0.245665  0.212796  0.000000  1
  As  As16  1  0.788418  0.031002  0.000000  1
  As  As17  1  0.667089  0.332290  0.000000  1
  As  As18  1  0.534070  0.623120  0.500000  1
  As  As19  1  0.378476  0.908626  0.500000  1
  As  As20  1  0.092961  0.472978  0.500000  1
