# generated using pymatgen
data_Nd8Tm10Sc2Si15S
_symmetry_space_group_name_H-M   'P 1'
_cell_length_a   7.44714595
_cell_length_b   7.61778953
_cell_length_c   14.46928000
_cell_angle_alpha   89.80505471
_cell_angle_beta   87.67739547
_cell_angle_gamma   90.19834540
_symmetry_Int_Tables_number   1
_chemical_formula_structural   Nd8Tm10Sc2Si15S
_chemical_formula_sum   'Nd8 Tm10 Sc2 Si15 S1'
_cell_volume   820.16927707
_cell_formula_units_Z   1
loop_
 _symmetry_equiv_pos_site_id
 _symmetry_equiv_pos_as_xyz
  1  'x, y, z'
loop_
 _atom_site_type_symbol
 _atom_site_label
 _atom_site_symmetry_multiplicity
 _atom_site_fract_x
 _atom_site_fract_y
 _atom_site_fract_z
 _atom_site_occupancy
  Nd  Nd0  1  0.009569  0.174425  0.097234  1
  Nd  Nd1  1  0.991120  0.828209  0.901791  1
  Nd  Nd2  1  0.491233  0.676868  0.902533  1
  Nd  Nd3  1  0.004724  0.824889  0.600259  1
  Nd  Nd4  1  0.509381  0.324694  0.096971  1
  Nd  Nd5  1  0.990494  0.170706  0.396818  1
  Nd  Nd6  1  0.493256  0.314515  0.399807  1
  Nd  Nd7  1  0.509082  0.682611  0.599369  1
  Tm  Tm8  1  0.176016  0.507496  0.752685  1
  Tm  Tm9  1  0.823482  0.494433  0.252352  1
  Tm  Tm10  1  0.319631  0.999225  0.250550  1
  Tm  Tm11  1  0.679922  0.000084  0.748877  1
  Tm  Tm12  1  0.357980  0.170641  0.622138  1
  Tm  Tm13  1  0.641604  0.831184  0.377475  1
  Tm  Tm14  1  0.144802  0.658074  0.384215  1
  Tm  Tm15  1  0.662810  0.820679  0.122314  1
  Tm  Tm16  1  0.858740  0.337656  0.616957  1
  Tm  Tm17  1  0.337333  0.179521  0.876359  1
  Sc  Sc18  1  0.837437  0.325250  0.874033  1
  Sc  Sc19  1  0.162802  0.674208  0.124570  1
  Si  Si20  1  0.050214  0.125865  0.750114  1
  Si  Si21  1  0.950230  0.873865  0.248176  1
  Si  Si22  1  0.441889  0.614601  0.247807  1
  Si  Si23  1  0.556953  0.385869  0.750642  1
  Si  Si24  1  0.297921  0.878747  0.751615  1
  Si  Si25  1  0.702189  0.121319  0.246533  1
  Si  Si26  1  0.203766  0.378245  0.246964  1
  Si  Si27  1  0.798089  0.622363  0.752099  1
  Si  Si28  1  0.796214  0.535169  0.454519  1
  Si  Si29  1  0.302242  0.959297  0.459082  1
  Si  Si30  1  0.850216  0.532410  0.036668  1
  Si  Si31  1  0.693453  0.040007  0.543149  1
  Si  Si32  1  0.149652  0.469850  0.961839  1
  Si  Si33  1  0.658246  0.039489  0.959548  1
  Si  Si34  1  0.340769  0.961596  0.039684  1
  S  S35  1  0.206545  0.465939  0.554255  1
