# generated using pymatgen
data_Ta7Be2(BRu)6
_symmetry_space_group_name_H-M   'P 1'
_cell_length_a   9.58379400
_cell_length_b   9.58379394
_cell_length_c   3.17806800
_cell_angle_alpha   90.00000000
_cell_angle_beta   90.00000000
_cell_angle_gamma   120.00000021
_symmetry_Int_Tables_number   1
_chemical_formula_structural   Ta7Be2(BRu)6
_chemical_formula_sum   'Ta7 Be2 B6 Ru6'
_cell_volume   252.79515948
_cell_formula_units_Z   1
loop_
 _symmetry_equiv_pos_site_id
 _symmetry_equiv_pos_as_xyz
  1  'x, y, z'
loop_
 _atom_site_type_symbol
 _atom_site_label
 _atom_site_symmetry_multiplicity
 _atom_site_fract_x
 _atom_site_fract_y
 _atom_site_fract_z
 _atom_site_occupancy
  Ta  Ta0  1  0.000000  0.000000  0.000000  1
  Ta  Ta1  1  0.722542  0.637146  0.000000  1
  Ta  Ta2  1  0.362854  0.085396  0.000000  1
  Ta  Ta3  1  0.914604  0.277458  0.000000  1
  Ta  Ta4  1  0.277458  0.362854  0.000000  1
  Ta  Ta5  1  0.637146  0.914604  0.000000  1
  Ta  Ta6  1  0.085396  0.722542  0.000000  1
  Be  Be7  1  0.666667  0.333333  0.000000  1
  Be  Be8  1  0.333333  0.666667  0.000000  1
  B  B9  1  0.153464  0.934692  0.500000  1
  B  B10  1  0.065308  0.218772  0.500000  1
  B  B11  1  0.781228  0.846536  0.500000  1
  B  B12  1  0.846536  0.065308  0.500000  1
  B  B13  1  0.934692  0.781228  0.500000  1
  B  B14  1  0.218772  0.153464  0.500000  1
  Ru  Ru15  1  0.356176  0.850106  0.500000  1
  Ru  Ru16  1  0.149894  0.506070  0.500000  1
  Ru  Ru17  1  0.493930  0.643824  0.500000  1
  Ru  Ru18  1  0.643824  0.149894  0.500000  1
  Ru  Ru19  1  0.850106  0.493930  0.500000  1
  Ru  Ru20  1  0.506070  0.356176  0.500000  1
