# generated using pymatgen
data_Sc6Co2Ni3Sn6Pt
_symmetry_space_group_name_H-M   'P 1'
_cell_length_a   7.35961500
_cell_length_b   7.35961477
_cell_length_c   6.89212500
_cell_angle_alpha   90.00000000
_cell_angle_beta   90.00000000
_cell_angle_gamma   120.00000552
_symmetry_Int_Tables_number   1
_chemical_formula_structural   Sc6Co2Ni3Sn6Pt
_chemical_formula_sum   'Sc6 Co2 Ni3 Sn6 Pt1'
_cell_volume   323.29123580
_cell_formula_units_Z   1
loop_
 _symmetry_equiv_pos_site_id
 _symmetry_equiv_pos_as_xyz
  1  'x, y, z'
loop_
 _atom_site_type_symbol
 _atom_site_label
 _atom_site_symmetry_multiplicity
 _atom_site_fract_x
 _atom_site_fract_y
 _atom_site_fract_z
 _atom_site_occupancy
  Sc  Sc0  1  0.392234  0.997966  0.248981  1
  Sc  Sc1  1  0.605731  0.607766  0.248981  1
  Sc  Sc2  1  0.002034  0.394269  0.248981  1
  Sc  Sc3  1  0.391568  0.996761  0.751203  1
  Sc  Sc4  1  0.605193  0.608432  0.751203  1
  Sc  Sc5  1  0.003239  0.394807  0.751203  1
  Co  Co6  1  0.000000  0.000000  0.768333  1
  Co  Co7  1  0.000000  0.000000  0.231829  1
  Ni  Ni8  1  0.666667  0.333333  0.997400  1
  Ni  Ni9  1  0.333333  0.666667  0.498169  1
  Ni  Ni10  1  0.333333  0.666667  0.001967  1
  Sn  Sn11  1  0.278242  0.276736  0.000025  1
  Sn  Sn12  1  0.998494  0.721758  0.000025  1
  Sn  Sn13  1  0.008286  0.743940  0.500068  1
  Sn  Sn14  1  0.735654  0.991714  0.500068  1
  Sn  Sn15  1  0.256060  0.264346  0.500068  1
  Sn  Sn16  1  0.723264  0.001506  0.000025  1
  Pt  Pt17  1  0.666667  0.333333  0.501471  1
