# generated using pymatgen
data_Hf16Co3NiHgMo3
_symmetry_space_group_name_H-M   'P 1'
_cell_length_a   8.72383981
_cell_length_b   8.72383956
_cell_length_c   8.72384055
_cell_angle_alpha   59.67660530
_cell_angle_beta   59.67659596
_cell_angle_gamma   59.67660684
_symmetry_Int_Tables_number   1
_chemical_formula_structural   Hf16Co3NiHgMo3
_chemical_formula_sum   'Hf16 Co3 Ni1 Hg1 Mo3'
_cell_volume   466.02105239
_cell_formula_units_Z   1
loop_
 _symmetry_equiv_pos_site_id
 _symmetry_equiv_pos_as_xyz
  1  'x, y, z'
loop_
 _atom_site_type_symbol
 _atom_site_label
 _atom_site_symmetry_multiplicity
 _atom_site_fract_x
 _atom_site_fract_y
 _atom_site_fract_z
 _atom_site_occupancy
  Hf  Hf0  1  0.703333  0.098010  0.098010  1
  Hf  Hf1  1  0.098010  0.703333  0.098010  1
  Hf  Hf2  1  0.098010  0.098010  0.703333  1
  Hf  Hf3  1  0.100845  0.100845  0.100845  1
  Hf  Hf4  1  0.315191  0.315191  0.695154  1
  Hf  Hf5  1  0.685201  0.685201  0.315703  1
  Hf  Hf6  1  0.315191  0.695154  0.315191  1
  Hf  Hf7  1  0.685201  0.315703  0.685201  1
  Hf  Hf8  1  0.695154  0.315191  0.315191  1
  Hf  Hf9  1  0.315703  0.685201  0.685201  1
  Hf  Hf10  1  0.954801  0.954801  0.540722  1
  Hf  Hf11  1  0.556323  0.556323  0.939465  1
  Hf  Hf12  1  0.954801  0.540722  0.954801  1
  Hf  Hf13  1  0.556323  0.939465  0.556323  1
  Hf  Hf14  1  0.540722  0.954801  0.954801  1
  Hf  Hf15  1  0.939465  0.556323  0.556323  1
  Co  Co16  1  0.326581  0.889340  0.889340  1
  Co  Co17  1  0.889340  0.326581  0.889340  1
  Co  Co18  1  0.889340  0.889340  0.326581  1
  Ni  Ni19  1  0.888560  0.888560  0.888560  1
  Hg  Hg20  1  0.331650  0.331650  0.331650  1
  Mo  Mo21  1  0.995983  0.332134  0.332134  1
  Mo  Mo22  1  0.332134  0.995983  0.332134  1
  Mo  Mo23  1  0.332134  0.332134  0.995983  1
