# generated using pymatgen
data_Ba4Mn(ReO6)2
_symmetry_space_group_name_H-M   'P 1'
_cell_length_a   10.01370865
_cell_length_b   10.01370878
_cell_length_c   10.01370904
_cell_angle_alpha   33.81707789
_cell_angle_beta   33.81707788
_cell_angle_gamma   33.81707835
_symmetry_Int_Tables_number   1
_chemical_formula_structural   Ba4Mn(ReO6)2
_chemical_formula_sum   'Ba4 Mn1 Re2 O12'
_cell_volume   277.14808076
_cell_formula_units_Z   1
loop_
 _symmetry_equiv_pos_site_id
 _symmetry_equiv_pos_as_xyz
  1  'x, y, z'
loop_
 _atom_site_type_symbol
 _atom_site_label
 _atom_site_symmetry_multiplicity
 _atom_site_fract_x
 _atom_site_fract_y
 _atom_site_fract_z
 _atom_site_occupancy
  Ba  Ba0  1  0.708488  0.708488  0.708488  1
  Ba  Ba1  1  0.291512  0.291512  0.291512  1
  Ba  Ba2  1  0.868939  0.868939  0.868939  1
  Ba  Ba3  1  0.131061  0.131061  0.131061  1
  Mn  Mn4  1  0.000000  0.000000  0.000000  1
  Re  Re5  1  0.580226  0.580226  0.580226  1
  Re  Re6  1  0.419774  0.419774  0.419774  1
  O  O7  1  0.222706  0.687665  0.222706  1
  O  O8  1  0.222706  0.222706  0.687665  1
  O  O9  1  0.687665  0.222706  0.222706  1
  O  O10  1  0.777294  0.312335  0.777294  1
  O  O11  1  0.777294  0.777294  0.312335  1
  O  O12  1  0.312335  0.777294  0.777294  1
  O  O13  1  0.389332  0.858176  0.389332  1
  O  O14  1  0.389332  0.389332  0.858176  1
  O  O15  1  0.858176  0.389332  0.389332  1
  O  O16  1  0.610668  0.141824  0.610668  1
  O  O17  1  0.610668  0.610668  0.141824  1
  O  O18  1  0.141824  0.610668  0.610668  1
