# generated using pymatgen
data_Li2Tm8Sc10Si15As
_symmetry_space_group_name_H-M   'P 1'
_cell_length_a   6.98199138
_cell_length_b   7.33893550
_cell_length_c   13.93231942
_cell_angle_alpha   90.09455590
_cell_angle_beta   89.44448194
_cell_angle_gamma   90.10754837
_symmetry_Int_Tables_number   1
_chemical_formula_structural   Li2Tm8Sc10Si15As
_chemical_formula_sum   'Li2 Tm8 Sc10 Si15 As1'
_cell_volume   713.86163968
_cell_formula_units_Z   1
loop_
 _symmetry_equiv_pos_site_id
 _symmetry_equiv_pos_as_xyz
  1  'x, y, z'
loop_
 _atom_site_type_symbol
 _atom_site_label
 _atom_site_symmetry_multiplicity
 _atom_site_fract_x
 _atom_site_fract_y
 _atom_site_fract_z
 _atom_site_occupancy
  Li  Li0  1  0.162335  0.508129  0.752952  1
  Li  Li1  1  0.838343  0.492552  0.249960  1
  Tm  Tm2  1  0.010875  0.183978  0.097903  1
  Tm  Tm3  1  0.989259  0.816330  0.901906  1
  Tm  Tm4  1  0.485742  0.675425  0.902826  1
  Tm  Tm5  1  0.990250  0.813693  0.596523  1
  Tm  Tm6  1  0.514760  0.324876  0.097355  1
  Tm  Tm7  1  0.007568  0.187807  0.402356  1
  Tm  Tm8  1  0.513960  0.324541  0.401652  1
  Tm  Tm9  1  0.491203  0.673907  0.597544  1
  Sc  Sc10  1  0.341269  0.004007  0.250893  1
  Sc  Sc11  1  0.658718  0.996046  0.749798  1
  Sc  Sc12  1  0.329435  0.178842  0.627324  1
  Sc  Sc13  1  0.672354  0.820253  0.373101  1
  Sc  Sc14  1  0.156831  0.673251  0.374206  1
  Sc  Sc15  1  0.673445  0.819715  0.126353  1
  Sc  Sc16  1  0.840108  0.326406  0.625675  1
  Sc  Sc17  1  0.325755  0.179881  0.873436  1
  Sc  Sc18  1  0.835053  0.324270  0.872743  1
  Sc  Sc19  1  0.165154  0.675862  0.126876  1
  Si  Si20  1  0.028875  0.098366  0.748854  1
  Si  Si21  1  0.971353  0.901258  0.249880  1
  Si  Si22  1  0.463271  0.613445  0.249454  1
  Si  Si23  1  0.536446  0.386937  0.750687  1
  Si  Si24  1  0.286783  0.873883  0.749742  1
  Si  Si25  1  0.713751  0.124954  0.249460  1
  Si  Si26  1  0.220818  0.371192  0.250107  1
  Si  Si27  1  0.780266  0.629057  0.749792  1
  Si  Si28  1  0.814233  0.542581  0.467541  1
  Si  Si29  1  0.339902  0.966153  0.461539  1
  Si  Si30  1  0.839746  0.538342  0.033882  1
  Si  Si31  1  0.659384  0.033829  0.538942  1
  Si  Si32  1  0.160034  0.461948  0.965833  1
  Si  Si33  1  0.656907  0.033349  0.960627  1
  Si  Si34  1  0.343049  0.966995  0.039401  1
  As  As35  1  0.182766  0.457938  0.532873  1
