# generated using pymatgen
data_Y8Nb11Si16W
_symmetry_space_group_name_H-M   'P 1'
_cell_length_a   6.87049924
_cell_length_b   7.07946077
_cell_length_c   13.39541202
_cell_angle_alpha   90.04002198
_cell_angle_beta   89.93391730
_cell_angle_gamma   89.88546311
_symmetry_Int_Tables_number   1
_chemical_formula_structural   Y8Nb11Si16W
_chemical_formula_sum   'Y8 Nb11 Si16 W1'
_cell_volume   651.54330860
_cell_formula_units_Z   1
loop_
 _symmetry_equiv_pos_site_id
 _symmetry_equiv_pos_as_xyz
  1  'x, y, z'
loop_
 _atom_site_type_symbol
 _atom_site_label
 _atom_site_symmetry_multiplicity
 _atom_site_fract_x
 _atom_site_fract_y
 _atom_site_fract_z
 _atom_site_occupancy
  Y  Y0  1  0.504043  0.328996  0.096058  1
  Y  Y1  1  0.002446  0.172002  0.404188  1
  Y  Y2  1  0.496363  0.670685  0.595733  1
  Y  Y3  1  0.996947  0.828763  0.903178  1
  Y  Y4  1  0.496123  0.671031  0.902877  1
  Y  Y5  1  0.997268  0.828884  0.595761  1
  Y  Y6  1  0.503354  0.328772  0.405338  1
  Y  Y7  1  0.004111  0.171413  0.096359  1
  Nb  Nb8  1  0.838234  0.325047  0.624757  1
  Nb  Nb9  1  0.337752  0.174355  0.873260  1
  Nb  Nb10  1  0.162872  0.674975  0.126020  1
  Nb  Nb11  1  0.660514  0.827075  0.375134  1
  Nb  Nb12  1  0.164321  0.675168  0.375919  1
  Nb  Nb13  1  0.663180  0.825246  0.126022  1
  Nb  Nb14  1  0.837066  0.324631  0.872826  1
  Nb  Nb15  1  0.661209  0.008801  0.748578  1
  Nb  Nb16  1  0.162107  0.490672  0.748708  1
  Nb  Nb17  1  0.338091  0.992945  0.250855  1
  Nb  Nb18  1  0.837999  0.508479  0.250345  1
  Si  Si19  1  0.657959  0.038475  0.542647  1
  Si  Si20  1  0.161648  0.461985  0.958366  1
  Si  Si21  1  0.338423  0.962408  0.041186  1
  Si  Si22  1  0.837981  0.538331  0.458495  1
  Si  Si23  1  0.335840  0.963925  0.461534  1
  Si  Si24  1  0.838371  0.537665  0.040762  1
  Si  Si25  1  0.661911  0.037447  0.958766  1
  Si  Si26  1  0.164844  0.457879  0.542551  1
  Si  Si27  1  0.539056  0.375091  0.748229  1
  Si  Si28  1  0.042943  0.123696  0.748571  1
  Si  Si29  1  0.459749  0.623496  0.250542  1
  Si  Si30  1  0.959364  0.876250  0.250752  1
  Si  Si31  1  0.794807  0.625475  0.749292  1
  Si  Si32  1  0.296617  0.875517  0.749051  1
  Si  Si33  1  0.204987  0.374451  0.250521  1
  Si  Si34  1  0.704048  0.126711  0.250139  1
  W  W35  1  0.337448  0.173258  0.626684  1
