# generated using pymatgen
data_HoTm3(Fe2Br)2
_symmetry_space_group_name_H-M   'P 1'
_cell_length_a   3.89518700
_cell_length_b   3.89518821
_cell_length_c   16.32097900
_cell_angle_alpha   90.00000000
_cell_angle_beta   90.00000000
_cell_angle_gamma   119.99999824
_symmetry_Int_Tables_number   1
_chemical_formula_structural   HoTm3(Fe2Br)2
_chemical_formula_sum   'Ho1 Tm3 Fe4 Br2'
_cell_volume   214.45372994
_cell_formula_units_Z   1
loop_
 _symmetry_equiv_pos_site_id
 _symmetry_equiv_pos_as_xyz
  1  'x, y, z'
loop_
 _atom_site_type_symbol
 _atom_site_label
 _atom_site_symmetry_multiplicity
 _atom_site_fract_x
 _atom_site_fract_y
 _atom_site_fract_z
 _atom_site_occupancy
  Ho  Ho0  1  0.000000  0.000000  0.109095  1
  Tm  Tm1  1  0.000000  0.000000  0.392450  1
  Tm  Tm2  1  0.000000  0.000000  0.608068  1
  Tm  Tm3  1  0.000000  0.000000  0.891363  1
  Fe  Fe4  1  0.333333  0.666665  0.005491  1
  Fe  Fe5  1  0.333333  0.666665  0.494148  1
  Fe  Fe6  1  0.666666  0.333333  0.506553  1
  Fe  Fe7  1  0.666666  0.333333  0.992433  1
  Br  Br8  1  0.666666  0.333333  0.250836  1
  Br  Br9  1  0.333333  0.666665  0.749563  1
