# generated using pymatgen
data_Pr2CdCu10Au
_symmetry_space_group_name_H-M   'P 1'
_cell_length_a   5.13877600
_cell_length_b   8.31123810
_cell_length_c   10.43418208
_cell_angle_alpha   90.33304718
_cell_angle_beta   90.00000000
_cell_angle_gamma   90.00000000
_symmetry_Int_Tables_number   1
_chemical_formula_structural   Pr2CdCu10Au
_chemical_formula_sum   'Pr4 Cd2 Cu20 Au2'
_cell_volume   445.63211879
_cell_formula_units_Z   2
loop_
 _symmetry_equiv_pos_site_id
 _symmetry_equiv_pos_as_xyz
  1  'x, y, z'
loop_
 _atom_site_type_symbol
 _atom_site_label
 _atom_site_symmetry_multiplicity
 _atom_site_fract_x
 _atom_site_fract_y
 _atom_site_fract_z
 _atom_site_occupancy
  Pr  Pr0  1  0.750000  0.246128  0.069385  1
  Pr  Pr1  1  0.250000  0.753872  0.930615  1
  Pr  Pr2  1  0.750000  0.736552  0.443516  1
  Pr  Pr3  1  0.250000  0.263448  0.556484  1
  Cd  Cd4  1  0.750000  0.859720  0.138114  1
  Cd  Cd5  1  0.250000  0.140280  0.861886  1
  Cu  Cu6  1  0.750000  0.683440  0.753272  1
  Cu  Cu7  1  0.250000  0.316560  0.246728  1
  Cu  Cu8  1  0.750000  0.183124  0.746290  1
  Cu  Cu9  1  0.250000  0.816876  0.253710  1
  Cu  Cu10  1  0.750000  0.943633  0.889807  1
  Cu  Cu11  1  0.250000  0.056367  0.110193  1
  Cu  Cu12  1  0.750000  0.441464  0.609173  1
  Cu  Cu13  1  0.250000  0.558536  0.390827  1
  Cu  Cu14  1  0.750000  0.586117  0.982926  1
  Cu  Cu15  1  0.250000  0.413883  0.017074  1
  Cu  Cu16  1  0.750000  0.088648  0.516635  1
  Cu  Cu17  1  0.250000  0.911352  0.483365  1
  Cu  Cu18  1  0.500360  0.067997  0.315132  1
  Cu  Cu19  1  0.000360  0.932003  0.684868  1
  Cu  Cu20  1  0.998769  0.566653  0.187677  1
  Cu  Cu21  1  0.498769  0.433347  0.812323  1
  Cu  Cu22  1  0.499640  0.932003  0.684868  1
  Cu  Cu23  1  0.999640  0.067997  0.315132  1
  Cu  Cu24  1  0.001231  0.433347  0.812323  1
  Cu  Cu25  1  0.501231  0.566653  0.187677  1
  Au  Au26  1  0.750000  0.359991  0.363037  1
  Au  Au27  1  0.250000  0.640009  0.636963  1
