# generated using pymatgen
data_Yb2Sc3Si12Ir19
_symmetry_space_group_name_H-M   'P 1'
_cell_length_a   12.75826700
_cell_length_b   12.75826696
_cell_length_c   3.95459900
_cell_angle_alpha   90.00000000
_cell_angle_beta   90.00000000
_cell_angle_gamma   120.00000269
_symmetry_Int_Tables_number   1
_chemical_formula_structural   Yb2Sc3Si12Ir19
_chemical_formula_sum   'Yb2 Sc3 Si12 Ir19'
_cell_volume   557.46350907
_cell_formula_units_Z   1
loop_
 _symmetry_equiv_pos_site_id
 _symmetry_equiv_pos_as_xyz
  1  'x, y, z'
loop_
 _atom_site_type_symbol
 _atom_site_label
 _atom_site_symmetry_multiplicity
 _atom_site_fract_x
 _atom_site_fract_y
 _atom_site_fract_z
 _atom_site_occupancy
  Yb  Yb0  1  0.333333  0.666667  0.000000  1
  Yb  Yb1  1  0.666667  0.333333  0.000000  1
  Sc  Sc2  1  0.817563  0.000000  0.500000  1
  Sc  Sc3  1  0.000000  0.817563  0.500000  1
  Sc  Sc4  1  0.182437  0.182437  0.500000  1
  Si  Si5  1  0.178824  0.000000  0.000000  1
  Si  Si6  1  0.000000  0.178824  0.000000  1
  Si  Si7  1  0.821176  0.821176  0.000000  1
  Si  Si8  1  0.166709  0.480258  0.500000  1
  Si  Si9  1  0.519742  0.686449  0.500000  1
  Si  Si10  1  0.313551  0.833291  0.500000  1
  Si  Si11  1  0.686449  0.519742  0.500000  1
  Si  Si12  1  0.833291  0.313551  0.500000  1
  Si  Si13  1  0.480258  0.166709  0.500000  1
  Si  Si14  1  0.633102  0.000000  0.000000  1
  Si  Si15  1  0.000000  0.633102  0.000000  1
  Si  Si16  1  0.366898  0.366898  0.000000  1
  Ir  Ir17  1  0.446864  0.000000  0.000000  1
  Ir  Ir18  1  0.000000  0.446864  0.000000  1
  Ir  Ir19  1  0.553136  0.553136  0.000000  1
  Ir  Ir20  1  0.359238  0.485999  0.500000  1
  Ir  Ir21  1  0.514001  0.873239  0.500000  1
  Ir  Ir22  1  0.126761  0.640762  0.500000  1
  Ir  Ir23  1  0.873239  0.514001  0.500000  1
  Ir  Ir24  1  0.640762  0.126761  0.500000  1
  Ir  Ir25  1  0.485999  0.359238  0.500000  1
  Ir  Ir26  1  0.182267  0.373213  0.000000  1
  Ir  Ir27  1  0.626787  0.809054  0.000000  1
  Ir  Ir28  1  0.190946  0.817733  0.000000  1
  Ir  Ir29  1  0.809054  0.626787  0.000000  1
  Ir  Ir30  1  0.817733  0.190946  0.000000  1
  Ir  Ir31  1  0.373213  0.182267  0.000000  1
  Ir  Ir32  1  0.279977  0.000000  0.500000  1
  Ir  Ir33  1  0.000000  0.279977  0.500000  1
  Ir  Ir34  1  0.720023  0.720023  0.500000  1
  Ir  Ir35  1  0.000000  0.000000  0.000000  1
