# generated using pymatgen
data_Er8Re3Si16Tc9
_symmetry_space_group_name_H-M   'P 1'
_cell_length_a   6.76545833
_cell_length_b   6.76545833
_cell_length_c   12.66093149
_cell_angle_alpha   89.97742078
_cell_angle_beta   90.02257922
_cell_angle_gamma   90.02745829
_symmetry_Int_Tables_number   1
_chemical_formula_structural   Er8Re3Si16Tc9
_chemical_formula_sum   'Er8 Re3 Si16 Tc9'
_cell_volume   579.50873683
_cell_formula_units_Z   1
loop_
 _symmetry_equiv_pos_site_id
 _symmetry_equiv_pos_as_xyz
  1  'x, y, z'
loop_
 _atom_site_type_symbol
 _atom_site_label
 _atom_site_symmetry_multiplicity
 _atom_site_fract_x
 _atom_site_fract_y
 _atom_site_fract_z
 _atom_site_occupancy
  Er  Er0  1  0.006901  0.661248  0.031260  1
  Er  Er1  1  0.993108  0.338748  0.531312  1
  Er  Er2  1  0.338748  0.993108  0.468688  1
  Er  Er3  1  0.161114  0.492976  0.781153  1
  Er  Er4  1  0.838970  0.506710  0.281191  1
  Er  Er5  1  0.492976  0.161114  0.218847  1
  Er  Er6  1  0.506710  0.838970  0.718809  1
  Er  Er7  1  0.661248  0.006901  0.968740  1
  Re  Re8  1  0.164919  0.835439  0.249697  1
  Re  Re9  1  0.335238  0.335238  0.000000  1
  Re  Re10  1  0.835439  0.164919  0.750303  1
  Si  Si11  1  0.020618  0.725773  0.437950  1
  Si  Si12  1  0.615495  0.305371  0.434914  1
  Si  Si13  1  0.384553  0.694896  0.934597  1
  Si  Si14  1  0.194975  0.115552  0.684508  1
  Si  Si15  1  0.305371  0.615495  0.565086  1
  Si  Si16  1  0.694896  0.384553  0.065403  1
  Si  Si17  1  0.805084  0.884521  0.184641  1
  Si  Si18  1  0.115552  0.194975  0.315492  1
  Si  Si19  1  0.979060  0.273809  0.937768  1
  Si  Si20  1  0.725773  0.020618  0.562050  1
  Si  Si21  1  0.225933  0.478928  0.187853  1
  Si  Si22  1  0.773866  0.520875  0.687927  1
  Si  Si23  1  0.478928  0.225933  0.812147  1
  Si  Si24  1  0.520875  0.773866  0.312073  1
  Si  Si25  1  0.273809  0.979060  0.062232  1
  Si  Si26  1  0.884521  0.805084  0.815359  1
  Tc  Tc27  1  0.665002  0.665002  0.500000  1
  Tc  Tc28  1  0.019704  0.815157  0.630303  1
  Tc  Tc29  1  0.980015  0.185507  0.130530  1
  Tc  Tc30  1  0.815157  0.019704  0.369697  1
  Tc  Tc31  1  0.315057  0.480171  0.380599  1
  Tc  Tc32  1  0.685143  0.519563  0.880452  1
  Tc  Tc33  1  0.480171  0.315057  0.619401  1
  Tc  Tc34  1  0.519563  0.685143  0.119548  1
  Tc  Tc35  1  0.185507  0.980015  0.869470  1
