# generated using pymatgen
data_Gd10Sn6Ir
_symmetry_space_group_name_H-M   'P 1'
_cell_length_a   9.18293400
_cell_length_b   9.18293562
_cell_length_c   6.69450700
_cell_angle_alpha   90.00000000
_cell_angle_beta   90.00000000
_cell_angle_gamma   119.99999415
_symmetry_Int_Tables_number   1
_chemical_formula_structural   Gd10Sn6Ir
_chemical_formula_sum   'Gd10 Sn6 Ir1'
_cell_volume   488.89124492
_cell_formula_units_Z   1
loop_
 _symmetry_equiv_pos_site_id
 _symmetry_equiv_pos_as_xyz
  1  'x, y, z'
loop_
 _atom_site_type_symbol
 _atom_site_label
 _atom_site_symmetry_multiplicity
 _atom_site_fract_x
 _atom_site_fract_y
 _atom_site_fract_z
 _atom_site_occupancy
  Gd  Gd0  1  0.666667  0.333333  0.500000  1
  Gd  Gd1  1  0.333333  0.666667  0.500000  1
  Gd  Gd2  1  0.333333  0.666667  0.000000  1
  Gd  Gd3  1  0.666667  0.333333  0.000000  1
  Gd  Gd4  1  0.753834  0.753834  0.254997  1
  Gd  Gd5  1  0.246166  0.000000  0.254997  1
  Gd  Gd6  1  0.000000  0.246166  0.254997  1
  Gd  Gd7  1  0.246166  0.246166  0.745003  1
  Gd  Gd8  1  0.753834  0.000000  0.745003  1
  Gd  Gd9  1  0.000000  0.753834  0.745003  1
  Sn  Sn10  1  0.396425  0.396425  0.245088  1
  Sn  Sn11  1  0.603575  0.000000  0.245088  1
  Sn  Sn12  1  0.000000  0.603575  0.245088  1
  Sn  Sn13  1  0.603575  0.603575  0.754912  1
  Sn  Sn14  1  0.396425  0.000000  0.754912  1
  Sn  Sn15  1  0.000000  0.396425  0.754912  1
  Ir  Ir16  1  0.000000  0.000000  0.500000  1
