# generated using pymatgen
data_MgHg2SO6
_symmetry_space_group_name_H-M   'P 1'
_cell_length_a   6.60557038
_cell_length_b   7.20937430
_cell_length_c   7.36929257
_cell_angle_alpha   73.68398717
_cell_angle_beta   65.57577034
_cell_angle_gamma   63.93710522
_symmetry_Int_Tables_number   1
_chemical_formula_structural   MgHg2SO6
_chemical_formula_sum   'Mg2 Hg4 S2 O12'
_cell_volume   284.92010366
_cell_formula_units_Z   2
loop_
 _symmetry_equiv_pos_site_id
 _symmetry_equiv_pos_as_xyz
  1  'x, y, z'
loop_
 _atom_site_type_symbol
 _atom_site_label
 _atom_site_symmetry_multiplicity
 _atom_site_fract_x
 _atom_site_fract_y
 _atom_site_fract_z
 _atom_site_occupancy
  Mg  Mg0  1  0.334348  0.125984  0.211803  1
  Mg  Mg1  1  0.665651  0.874015  0.788198  1
  Hg  Hg2  1  0.841576  0.637045  0.206037  1
  Hg  Hg3  1  0.339589  0.633489  0.208671  1
  Hg  Hg4  1  0.660412  0.366511  0.791329  1
  Hg  Hg5  1  0.158425  0.362955  0.793963  1
  S  S6  1  0.783017  0.127753  0.322581  1
  S  S7  1  0.216982  0.872249  0.677419  1
  O  O8  1  0.541947  0.816566  0.122780  1
  O  O9  1  0.655031  0.138519  0.190994  1
  O  O10  1  0.035619  0.103139  0.192980  1
  O  O11  1  0.159873  0.447098  0.249229  1
  O  O12  1  0.663488  0.321771  0.418376  1
  O  O13  1  0.783473  0.941943  0.476499  1
  O  O14  1  0.216527  0.058057  0.523501  1
  O  O15  1  0.336512  0.678229  0.581624  1
  O  O16  1  0.840127  0.552903  0.750771  1
  O  O17  1  0.964380  0.896861  0.807020  1
  O  O18  1  0.344969  0.861482  0.809006  1
  O  O19  1  0.458052  0.183436  0.877220  1
