# generated using pymatgen
data_Nd2Al4AgAu3
_symmetry_space_group_name_H-M   'P 1'
_cell_length_a   4.45233700
_cell_length_b   4.45233700
_cell_length_c   10.43142300
_cell_angle_alpha   90.00000000
_cell_angle_beta   90.00000000
_cell_angle_gamma   90.00000000
_symmetry_Int_Tables_number   1
_chemical_formula_structural   Nd2Al4AgAu3
_chemical_formula_sum   'Nd2 Al4 Ag1 Au3'
_cell_volume   206.78527723
_cell_formula_units_Z   1
loop_
 _symmetry_equiv_pos_site_id
 _symmetry_equiv_pos_as_xyz
  1  'x, y, z'
loop_
 _atom_site_type_symbol
 _atom_site_label
 _atom_site_symmetry_multiplicity
 _atom_site_fract_x
 _atom_site_fract_y
 _atom_site_fract_z
 _atom_site_occupancy
  Nd  Nd0  1  0.000000  0.500000  0.249293  1
  Nd  Nd1  1  0.500000  0.000000  0.750707  1
  Al  Al2  1  0.000000  0.000000  0.500000  1
  Al  Al3  1  0.500000  0.500000  0.500000  1
  Al  Al4  1  0.000000  0.500000  0.868145  1
  Al  Al5  1  0.500000  0.000000  0.131855  1
  Ag  Ag6  1  0.000000  0.000000  0.000000  1
  Au  Au7  1  0.500000  0.500000  0.000000  1
  Au  Au8  1  0.000000  0.500000  0.627806  1
  Au  Au9  1  0.500000  0.000000  0.372194  1
