# generated using pymatgen
data_EuP2OsRh
_symmetry_space_group_name_H-M   'P 1'
_cell_length_a   6.35529602
_cell_length_b   6.35529593
_cell_length_c   6.35529540
_cell_angle_alpha   143.37633329
_cell_angle_beta   143.37633411
_cell_angle_gamma   52.76092224
_symmetry_Int_Tables_number   1
_chemical_formula_structural   EuP2OsRh
_chemical_formula_sum   'Eu1 P2 Os1 Rh1'
_cell_volume   90.80080858
_cell_formula_units_Z   1
loop_
 _symmetry_equiv_pos_site_id
 _symmetry_equiv_pos_as_xyz
  1  'x, y, z'
loop_
 _atom_site_type_symbol
 _atom_site_label
 _atom_site_symmetry_multiplicity
 _atom_site_fract_x
 _atom_site_fract_y
 _atom_site_fract_z
 _atom_site_occupancy
  Eu  Eu0  1  0.000000  0.000000  0.000000  1
  P  P1  1  0.641006  0.641006  0.000000  1
  P  P2  1  0.358994  0.358994  0.000000  1
  Os  Os3  1  0.750000  0.250000  0.500000  1
  Rh  Rh4  1  0.250000  0.750000  0.500000  1
