# generated using pymatgen
data_Th2AlCuNi8
_symmetry_space_group_name_H-M   'P 1'
_cell_length_a   4.91196778
_cell_length_b   4.91196629
_cell_length_c   8.11902300
_cell_angle_alpha   90.00000000
_cell_angle_beta   90.00000000
_cell_angle_gamma   118.16453294
_symmetry_Int_Tables_number   1
_chemical_formula_structural   Th2AlCuNi8
_chemical_formula_sum   'Th2 Al1 Cu1 Ni8'
_cell_volume   172.69675272
_cell_formula_units_Z   1
loop_
 _symmetry_equiv_pos_site_id
 _symmetry_equiv_pos_as_xyz
  1  'x, y, z'
loop_
 _atom_site_type_symbol
 _atom_site_label
 _atom_site_symmetry_multiplicity
 _atom_site_fract_x
 _atom_site_fract_y
 _atom_site_fract_z
 _atom_site_occupancy
  Th  Th0  1  0.000000  0.000000  0.757937  1
  Th  Th1  1  0.000000  0.000000  0.242063  1
  Al  Al2  1  0.500000  0.500000  0.500000  1
  Cu  Cu3  1  0.500000  0.500000  0.000000  1
  Ni  Ni4  1  0.668570  0.331430  0.750467  1
  Ni  Ni5  1  0.668570  0.331430  0.249533  1
  Ni  Ni6  1  0.331430  0.668570  0.750467  1
  Ni  Ni7  1  0.500000  0.000000  0.500000  1
  Ni  Ni8  1  0.000000  0.500000  0.000000  1
  Ni  Ni9  1  0.500000  0.000000  0.000000  1
  Ni  Ni10  1  0.331430  0.668570  0.249533  1
  Ni  Ni11  1  0.000000  0.500000  0.500000  1
