# generated using pymatgen
data_Ce2DyMg3CuIr2
_symmetry_space_group_name_H-M   'P 1'
_cell_length_a   7.40645300
_cell_length_b   7.54219449
_cell_length_c   3.90834000
_cell_angle_alpha   90.00000000
_cell_angle_beta   90.00000000
_cell_angle_gamma   119.40642151
_symmetry_Int_Tables_number   1
_chemical_formula_structural   Ce2DyMg3CuIr2
_chemical_formula_sum   'Ce2 Dy1 Mg3 Cu1 Ir2'
_cell_volume   190.19437010
_cell_formula_units_Z   1
loop_
 _symmetry_equiv_pos_site_id
 _symmetry_equiv_pos_as_xyz
  1  'x, y, z'
loop_
 _atom_site_type_symbol
 _atom_site_label
 _atom_site_symmetry_multiplicity
 _atom_site_fract_x
 _atom_site_fract_y
 _atom_site_fract_z
 _atom_site_occupancy
  Ce  Ce0  1  0.001080  0.574715  0.000000  1
  Ce  Ce1  1  0.426365  0.425285  0.000000  1
  Dy  Dy2  1  0.584865  0.000000  0.000000  1
  Mg  Mg3  1  0.250893  0.000000  0.500000  1
  Mg  Mg4  1  0.995797  0.238611  0.500000  1
  Mg  Mg5  1  0.757186  0.761389  0.500000  1
  Cu  Cu6  1  0.996695  0.000000  0.000000  1
  Ir  Ir7  1  0.319305  0.651490  0.500000  1
  Ir  Ir8  1  0.667815  0.348510  0.500000  1
