# generated using pymatgen
data_Sm3(H6Os)2
_symmetry_space_group_name_H-M   'P 1'
_cell_length_a   4.84407300
_cell_length_b   4.84407388
_cell_length_c   8.39747400
_cell_angle_alpha   90.00000000
_cell_angle_beta   90.00000000
_cell_angle_gamma   120.00000084
_symmetry_Int_Tables_number   1
_chemical_formula_structural   Sm3(H6Os)2
_chemical_formula_sum   'Sm3 H12 Os2'
_cell_volume   170.64781551
_cell_formula_units_Z   1
loop_
 _symmetry_equiv_pos_site_id
 _symmetry_equiv_pos_as_xyz
  1  'x, y, z'
loop_
 _atom_site_type_symbol
 _atom_site_label
 _atom_site_symmetry_multiplicity
 _atom_site_fract_x
 _atom_site_fract_y
 _atom_site_fract_z
 _atom_site_occupancy
  Sm  Sm0  1  0.000000  0.000000  0.000000  1
  Sm  Sm1  1  0.666667  0.333333  0.363095  1
  Sm  Sm2  1  0.333333  0.666667  0.636905  1
  H  H3  1  0.169301  0.830699  0.368434  1
  H  H4  1  0.661399  0.830699  0.368434  1
  H  H5  1  0.169301  0.338601  0.368434  1
  H  H6  1  0.830699  0.169301  0.631566  1
  H  H7  1  0.338601  0.169301  0.631566  1
  H  H8  1  0.830699  0.661399  0.631566  1
  H  H9  1  0.500809  0.001618  0.877453  1
  H  H10  1  0.500809  0.499191  0.877453  1
  H  H11  1  0.998382  0.499191  0.877453  1
  H  H12  1  0.499191  0.998382  0.122547  1
  H  H13  1  0.499191  0.500809  0.122547  1
  H  H14  1  0.001618  0.500809  0.122547  1
  Os  Os15  1  0.666667  0.333333  0.757695  1
  Os  Os16  1  0.333333  0.666667  0.242305  1
