# generated using pymatgen
data_Lu6Ta3TiAl12Ru7
_symmetry_space_group_name_H-M   'P 1'
_cell_length_a   8.95470691
_cell_length_b   8.95470601
_cell_length_c   8.95470604
_cell_angle_alpha   60.03058582
_cell_angle_beta   60.03058781
_cell_angle_gamma   60.03059122
_symmetry_Int_Tables_number   1
_chemical_formula_structural   Lu6Ta3TiAl12Ru7
_chemical_formula_sum   'Lu6 Ta3 Ti1 Al12 Ru7'
_cell_volume   508.08932489
_cell_formula_units_Z   1
loop_
 _symmetry_equiv_pos_site_id
 _symmetry_equiv_pos_as_xyz
  1  'x, y, z'
loop_
 _atom_site_type_symbol
 _atom_site_label
 _atom_site_symmetry_multiplicity
 _atom_site_fract_x
 _atom_site_fract_y
 _atom_site_fract_z
 _atom_site_occupancy
  Lu  Lu0  1  0.708340  0.708340  0.288439  1
  Lu  Lu1  1  0.293370  0.706989  0.293370  1
  Lu  Lu2  1  0.706989  0.293370  0.293370  1
  Lu  Lu3  1  0.293370  0.293370  0.706989  1
  Lu  Lu4  1  0.708340  0.288439  0.708340  1
  Lu  Lu5  1  0.288439  0.708340  0.708340  1
  Ta  Ta6  1  0.879302  0.879302  0.360195  1
  Ta  Ta7  1  0.879302  0.360195  0.879302  1
  Ta  Ta8  1  0.360195  0.879302  0.879302  1
  Ti  Ti9  1  0.881080  0.881080  0.881080  1
  Al  Al10  1  0.119655  0.119655  0.639869  1
  Al  Al11  1  0.119655  0.639869  0.119655  1
  Al  Al12  1  0.639869  0.119655  0.119655  1
  Al  Al13  1  0.119874  0.119874  0.119874  1
  Al  Al14  1  0.669323  0.669323  0.996396  1
  Al  Al15  1  0.669323  0.996396  0.669323  1
  Al  Al16  1  0.996396  0.669323  0.669323  1
  Al  Al17  1  0.665907  0.665907  0.665907  1
  Al  Al18  1  0.331368  0.331368  0.006826  1
  Al  Al19  1  0.331368  0.006826  0.331368  1
  Al  Al20  1  0.006826  0.331368  0.331368  1
  Al  Al21  1  0.331660  0.331660  0.331660  1
  Ru  Ru22  1  0.000184  0.000184  0.000184  1
  Ru  Ru23  1  0.997331  0.997331  0.500957  1
  Ru  Ru24  1  0.504030  0.996184  0.504030  1
  Ru  Ru25  1  0.996184  0.504030  0.504030  1
  Ru  Ru26  1  0.504030  0.504030  0.996184  1
  Ru  Ru27  1  0.997331  0.500957  0.997331  1
  Ru  Ru28  1  0.500957  0.997331  0.997331  1
