# generated using pymatgen
data_Tb15Lu5Si15Au
_symmetry_space_group_name_H-M   'P 1'
_cell_length_a   7.36797556
_cell_length_b   7.74071465
_cell_length_c   14.54729200
_cell_angle_alpha   90.03767553
_cell_angle_beta   90.13537041
_cell_angle_gamma   90.17459495
_symmetry_Int_Tables_number   1
_chemical_formula_structural   Tb15Lu5Si15Au
_chemical_formula_sum   'Tb15 Lu5 Si15 Au1'
_cell_volume   829.67511992
_cell_formula_units_Z   1
loop_
 _symmetry_equiv_pos_site_id
 _symmetry_equiv_pos_as_xyz
  1  'x, y, z'
loop_
 _atom_site_type_symbol
 _atom_site_label
 _atom_site_symmetry_multiplicity
 _atom_site_fract_x
 _atom_site_fract_y
 _atom_site_fract_z
 _atom_site_occupancy
  Tb  Tb0  1  0.182859  0.322586  0.877052  1
  Tb  Tb1  1  0.317522  0.820517  0.124408  1
  Tb  Tb2  1  0.818041  0.677282  0.375866  1
  Tb  Tb3  1  0.318271  0.821111  0.376782  1
  Tb  Tb4  1  0.816769  0.676631  0.124607  1
  Tb  Tb5  1  0.685757  0.175298  0.876936  1
  Tb  Tb6  1  0.182526  0.321627  0.622039  1
  Tb  Tb7  1  0.524560  0.685542  0.593532  1
  Tb  Tb8  1  0.024287  0.818751  0.904404  1
  Tb  Tb9  1  0.473826  0.316284  0.097481  1
  Tb  Tb10  1  0.974055  0.183104  0.402695  1
  Tb  Tb11  1  0.476036  0.317194  0.404080  1
  Tb  Tb12  1  0.973741  0.183277  0.097917  1
  Tb  Tb13  1  0.524398  0.686362  0.905664  1
  Tb  Tb14  1  0.023647  0.818522  0.594163  1
  Lu  Lu15  1  0.683837  0.176056  0.623395  1
  Lu  Lu16  1  0.850219  0.514102  0.749044  1
  Lu  Lu17  1  0.353348  0.982334  0.749661  1
  Lu  Lu18  1  0.148847  0.484650  0.250378  1
  Lu  Lu19  1  0.648637  0.012747  0.250569  1
  Si  Si20  1  0.650752  0.972189  0.461099  1
  Si  Si21  1  0.145855  0.528878  0.040370  1
  Si  Si22  1  0.352368  0.027576  0.959884  1
  Si  Si23  1  0.847567  0.469625  0.540791  1
  Si  Si24  1  0.356291  0.027856  0.541383  1
  Si  Si25  1  0.851234  0.473296  0.958668  1
  Si  Si26  1  0.647251  0.971363  0.041378  1
  Si  Si27  1  0.145848  0.528448  0.459669  1
  Si  Si28  1  0.981098  0.099103  0.747815  1
  Si  Si29  1  0.517592  0.598661  0.250530  1
  Si  Si30  1  0.018265  0.899650  0.250194  1
  Si  Si31  1  0.735224  0.873534  0.748460  1
  Si  Si32  1  0.224143  0.634284  0.749549  1
  Si  Si33  1  0.270229  0.131087  0.250558  1
  Si  Si34  1  0.769099  0.367979  0.250394  1
  Au  Au35  1  0.485996  0.402495  0.748583  1
