# generated using pymatgen
data_La16CdIn3Os4
_symmetry_space_group_name_H-M   'P 1'
_cell_length_a   10.11278066
_cell_length_b   10.09836958
_cell_length_c   10.09836900
_cell_angle_alpha   59.99999861
_cell_angle_beta   60.04712725
_cell_angle_gamma   60.04712870
_symmetry_Int_Tables_number   1
_chemical_formula_structural   La16CdIn3Os4
_chemical_formula_sum   'La16 Cd1 In3 Os4'
_cell_volume   729.73819814
_cell_formula_units_Z   1
loop_
 _symmetry_equiv_pos_site_id
 _symmetry_equiv_pos_as_xyz
  1  'x, y, z'
loop_
 _atom_site_type_symbol
 _atom_site_label
 _atom_site_symmetry_multiplicity
 _atom_site_fract_x
 _atom_site_fract_y
 _atom_site_fract_z
 _atom_site_occupancy
  La  La0  1  0.557924  0.942660  0.556756  1
  La  La1  1  0.189448  0.189497  0.810528  1
  La  La2  1  0.557924  0.556756  0.942660  1
  La  La3  1  0.964570  0.345144  0.345144  1
  La  La4  1  0.808712  0.191175  0.808939  1
  La  La5  1  0.189448  0.810528  0.189497  1
  La  La6  1  0.344618  0.344922  0.965537  1
  La  La7  1  0.344618  0.965537  0.344922  1
  La  La8  1  0.942925  0.942023  0.557526  1
  La  La9  1  0.942925  0.557526  0.557526  1
  La  La10  1  0.344618  0.344922  0.344922  1
  La  La11  1  0.808712  0.808939  0.191175  1
  La  La12  1  0.808712  0.191175  0.191175  1
  La  La13  1  0.557924  0.942660  0.942660  1
  La  La14  1  0.942925  0.557526  0.942023  1
  La  La15  1  0.189448  0.810528  0.810528  1
  Cd  Cd16  1  0.267624  0.577459  0.577459  1
  In  In17  1  0.579189  0.579638  0.579638  1
  In  In18  1  0.579189  0.261536  0.579638  1
  In  In19  1  0.579189  0.579638  0.261536  1
  Os  Os20  1  0.137803  0.586702  0.137749  1
  Os  Os21  1  0.585954  0.138016  0.138016  1
  Os  Os22  1  0.137803  0.137749  0.586702  1
  Os  Os23  1  0.137803  0.137749  0.137749  1
