# generated using pymatgen
data_TbHo11(Si3Pt)4
_symmetry_space_group_name_H-M   'P 1'
_cell_length_a   4.24203400
_cell_length_b   10.63866613
_cell_length_c   12.29298300
_cell_angle_alpha   89.99093062
_cell_angle_beta   90.00000000
_cell_angle_gamma   90.00000000
_symmetry_Int_Tables_number   1
_chemical_formula_structural   TbHo11(Si3Pt)4
_chemical_formula_sum   'Tb1 Ho11 Si12 Pt4'
_cell_volume   554.77719522
_cell_formula_units_Z   1
loop_
 _symmetry_equiv_pos_site_id
 _symmetry_equiv_pos_as_xyz
  1  'x, y, z'
loop_
 _atom_site_type_symbol
 _atom_site_label
 _atom_site_symmetry_multiplicity
 _atom_site_fract_x
 _atom_site_fract_y
 _atom_site_fract_z
 _atom_site_occupancy
  Tb  Tb0  1  0.750000  0.160560  0.698058  1
  Ho  Ho1  1  0.250000  0.878955  0.020936  1
  Ho  Ho2  1  0.250000  0.620994  0.520941  1
  Ho  Ho3  1  0.750000  0.120968  0.979210  1
  Ho  Ho4  1  0.750000  0.379027  0.478926  1
  Ho  Ho5  1  0.250000  0.918938  0.601528  1
  Ho  Ho6  1  0.250000  0.580757  0.101641  1
  Ho  Ho7  1  0.750000  0.080703  0.398385  1
  Ho  Ho8  1  0.750000  0.419364  0.898393  1
  Ho  Ho9  1  0.250000  0.660838  0.801772  1
  Ho  Ho10  1  0.250000  0.839357  0.301795  1
  Ho  Ho11  1  0.750000  0.339046  0.198227  1
  Si  Si12  1  0.250000  0.015305  0.822915  1
  Si  Si13  1  0.250000  0.484244  0.322717  1
  Si  Si14  1  0.750000  0.984452  0.177297  1
  Si  Si15  1  0.750000  0.515597  0.677276  1
  Si  Si16  1  0.250000  0.245892  0.843461  1
  Si  Si17  1  0.250000  0.254358  0.343070  1
  Si  Si18  1  0.750000  0.754581  0.156988  1
  Si  Si19  1  0.750000  0.745547  0.656904  1
  Si  Si20  1  0.250000  0.195003  0.540241  1
  Si  Si21  1  0.250000  0.305288  0.040917  1
  Si  Si22  1  0.750000  0.805263  0.459115  1
  Si  Si23  1  0.750000  0.694759  0.959139  1
  Pt  Pt24  1  0.250000  0.390729  0.681508  1
  Pt  Pt25  1  0.250000  0.110075  0.181448  1
  Pt  Pt26  1  0.750000  0.610086  0.318440  1
  Pt  Pt27  1  0.750000  0.889313  0.818752  1
