# generated using pymatgen
data_TbTm2In3Ag2Ir
_symmetry_space_group_name_H-M   'P 1'
_cell_length_a   7.92136760
_cell_length_b   7.91019553
_cell_length_c   3.76697600
_cell_angle_alpha   90.00000000
_cell_angle_beta   90.00000000
_cell_angle_gamma   120.23823705
_symmetry_Int_Tables_number   1
_chemical_formula_structural   TbTm2In3Ag2Ir
_chemical_formula_sum   'Tb1 Tm2 In3 Ag2 Ir1'
_cell_volume   203.92162133
_cell_formula_units_Z   1
loop_
 _symmetry_equiv_pos_site_id
 _symmetry_equiv_pos_as_xyz
  1  'x, y, z'
loop_
 _atom_site_type_symbol
 _atom_site_label
 _atom_site_symmetry_multiplicity
 _atom_site_fract_x
 _atom_site_fract_y
 _atom_site_fract_z
 _atom_site_occupancy
  Tb  Tb0  1  0.579061  0.607989  0.000000  1
  Tm  Tm1  1  0.390709  0.967870  0.000000  1
  Tm  Tm2  1  0.032003  0.423377  0.000000  1
  In  In3  1  0.994614  0.726797  0.500000  1
  In  In4  1  0.272458  0.266297  0.500000  1
  In  In5  1  0.733193  0.007574  0.500000  1
  Ag  Ag6  1  0.000440  0.000626  0.000000  1
  Ag  Ag7  1  0.666970  0.331664  0.500000  1
  Ir  Ir8  1  0.330552  0.667806  0.500000  1
