# generated using pymatgen
data_Ho2AlB2Rh5
_symmetry_space_group_name_H-M   'P 1'
_cell_length_a   9.50275500
_cell_length_b   9.50275500
_cell_length_c   3.18026500
_cell_angle_alpha   90.00000000
_cell_angle_beta   90.00000000
_cell_angle_gamma   90.00000000
_symmetry_Int_Tables_number   1
_chemical_formula_structural   Ho2AlB2Rh5
_chemical_formula_sum   'Ho4 Al2 B4 Rh10'
_cell_volume   287.18541136
_cell_formula_units_Z   2
loop_
 _symmetry_equiv_pos_site_id
 _symmetry_equiv_pos_as_xyz
  1  'x, y, z'
loop_
 _atom_site_type_symbol
 _atom_site_label
 _atom_site_symmetry_multiplicity
 _atom_site_fract_x
 _atom_site_fract_y
 _atom_site_fract_z
 _atom_site_occupancy
  Ho  Ho0  1  0.825363  0.325363  0.000000  1
  Ho  Ho1  1  0.325363  0.174637  0.000000  1
  Ho  Ho2  1  0.674637  0.825363  0.000000  1
  Ho  Ho3  1  0.174637  0.674637  0.000000  1
  Al  Al4  1  0.000000  0.000000  0.000000  1
  Al  Al5  1  0.500000  0.500000  0.000000  1
  B  B6  1  0.622250  0.122250  0.000000  1
  B  B7  1  0.122250  0.377750  0.000000  1
  B  B8  1  0.877750  0.622250  0.000000  1
  B  B9  1  0.377750  0.877750  0.000000  1
  Rh  Rh10  1  0.070624  0.218664  0.500000  1
  Rh  Rh11  1  0.218664  0.929376  0.500000  1
  Rh  Rh12  1  0.781336  0.070624  0.500000  1
  Rh  Rh13  1  0.929376  0.781336  0.500000  1
  Rh  Rh14  1  0.429376  0.718664  0.500000  1
  Rh  Rh15  1  0.570624  0.281336  0.500000  1
  Rh  Rh16  1  0.718664  0.570624  0.500000  1
  Rh  Rh17  1  0.281336  0.429376  0.500000  1
  Rh  Rh18  1  0.500000  0.000000  0.500000  1
  Rh  Rh19  1  0.000000  0.500000  0.500000  1
