# generated using pymatgen
data_V2Sn(P2O7)2
_symmetry_space_group_name_H-M   'P 1'
_cell_length_a   4.90175648
_cell_length_b   7.16688665
_cell_length_c   8.08735880
_cell_angle_alpha   89.57247386
_cell_angle_beta   93.51723075
_cell_angle_gamma   105.25877905
_symmetry_Int_Tables_number   1
_chemical_formula_structural   V2Sn(P2O7)2
_chemical_formula_sum   'V2 Sn1 P4 O14'
_cell_volume   273.56841115
_cell_formula_units_Z   1
loop_
 _symmetry_equiv_pos_site_id
 _symmetry_equiv_pos_as_xyz
  1  'x, y, z'
loop_
 _atom_site_type_symbol
 _atom_site_label
 _atom_site_symmetry_multiplicity
 _atom_site_fract_x
 _atom_site_fract_y
 _atom_site_fract_z
 _atom_site_occupancy
  V  V0  1  0.500000  0.500000  0.500000  1
  V  V1  1  0.000000  0.000000  0.000000  1
  Sn  Sn2  1  0.000000  0.000000  0.500000  1
  P  P3  1  0.008628  0.612641  0.249509  1
  P  P4  1  0.991372  0.387359  0.750491  1
  P  P5  1  0.617794  0.223976  0.207281  1
  P  P6  1  0.382206  0.776024  0.792719  1
  O  O7  1  0.783133  0.440246  0.151091  1
  O  O8  1  0.216867  0.559754  0.848909  1
  O  O9  1  0.526631  0.238889  0.386325  1
  O  O10  1  0.473369  0.761111  0.613675  1
  O  O11  1  0.266867  0.542162  0.302177  1
  O  O12  1  0.733133  0.457838  0.697823  1
  O  O13  1  0.855586  0.661063  0.401371  1
  O  O14  1  0.170996  0.903590  0.789263  1
  O  O15  1  0.829004  0.096410  0.210737  1
  O  O16  1  0.919468  0.214861  0.862388  1
  O  O17  1  0.080532  0.785139  0.137612  1
  O  O18  1  0.620568  0.835730  0.924417  1
  O  O19  1  0.379432  0.164270  0.075583  1
  O  O20  1  0.144414  0.338937  0.598629  1
