# generated using pymatgen
data_Pr5TmIn6O18
_symmetry_space_group_name_H-M   'P 1'
_cell_length_a   6.53263700
_cell_length_b   6.53263710
_cell_length_c   12.53480400
_cell_angle_alpha   90.00000000
_cell_angle_beta   90.00000000
_cell_angle_gamma   119.99999443
_symmetry_Int_Tables_number   1
_chemical_formula_structural   Pr5TmIn6O18
_chemical_formula_sum   'Pr5 Tm1 In6 O18'
_cell_volume   463.26049081
_cell_formula_units_Z   1
loop_
 _symmetry_equiv_pos_site_id
 _symmetry_equiv_pos_as_xyz
  1  'x, y, z'
loop_
 _atom_site_type_symbol
 _atom_site_label
 _atom_site_symmetry_multiplicity
 _atom_site_fract_x
 _atom_site_fract_y
 _atom_site_fract_z
 _atom_site_occupancy
  Pr  Pr0  1  0.333333  0.666667  0.232028  1
  Pr  Pr1  1  0.000000  0.000000  0.266062  1
  Pr  Pr2  1  0.000000  0.000000  0.769546  1
  Pr  Pr3  1  0.333333  0.666667  0.729314  1
  Pr  Pr4  1  0.666667  0.333333  0.729897  1
  Tm  Tm5  1  0.666667  0.333333  0.230167  1
  In  In6  1  0.997308  0.664002  0.493880  1
  In  In7  1  0.997819  0.334384  0.998545  1
  In  In8  1  0.335998  0.333306  0.493880  1
  In  In9  1  0.665616  0.663435  0.998545  1
  In  In10  1  0.336565  0.002181  0.998545  1
  In  In11  1  0.666694  0.002692  0.493880  1
  O  O12  1  0.001489  0.694347  0.662693  1
  O  O13  1  0.984001  0.625807  0.326734  1
  O  O14  1  0.000208  0.359793  0.831000  1
  O  O15  1  0.984861  0.308890  0.167208  1
  O  O16  1  0.333333  0.666667  0.023986  1
  O  O17  1  0.000000  0.000000  0.466227  1
  O  O18  1  0.000000  0.000000  0.973511  1
  O  O19  1  0.333333  0.666667  0.515557  1
  O  O20  1  0.305653  0.307143  0.662693  1
  O  O21  1  0.374193  0.358193  0.326734  1
  O  O22  1  0.324029  0.015139  0.167208  1
  O  O23  1  0.640207  0.640415  0.831000  1
  O  O24  1  0.691110  0.675971  0.167208  1
  O  O25  1  0.359585  0.999792  0.831000  1
  O  O26  1  0.666667  0.333333  0.522812  1
  O  O27  1  0.666667  0.333333  0.023234  1
  O  O28  1  0.641807  0.015999  0.326734  1
  O  O29  1  0.692857  0.998511  0.662693  1
