# generated using pymatgen
data_Lu20Bi7Ir4Pb
_symmetry_space_group_name_H-M   'P 1'
_cell_length_a   7.85216310
_cell_length_b   8.82336914
_cell_length_c   12.22536500
_cell_angle_alpha   90.03977355
_cell_angle_beta   90.03028178
_cell_angle_gamma   89.99646592
_symmetry_Int_Tables_number   1
_chemical_formula_structural   Lu20Bi7Ir4Pb
_chemical_formula_sum   'Lu20 Bi7 Ir4 Pb1'
_cell_volume   847.00393704
_cell_formula_units_Z   1
loop_
 _symmetry_equiv_pos_site_id
 _symmetry_equiv_pos_as_xyz
  1  'x, y, z'
loop_
 _atom_site_type_symbol
 _atom_site_label
 _atom_site_symmetry_multiplicity
 _atom_site_fract_x
 _atom_site_fract_y
 _atom_site_fract_z
 _atom_site_occupancy
  Lu  Lu0  1  0.838181  0.747617  0.791938  1
  Lu  Lu1  1  0.159696  0.250652  0.206204  1
  Lu  Lu2  1  0.342102  0.251867  0.708520  1
  Lu  Lu3  1  0.659145  0.750792  0.293092  1
  Lu  Lu4  1  0.381639  0.747987  0.693050  1
  Lu  Lu5  1  0.620422  0.250061  0.307729  1
  Lu  Lu6  1  0.874517  0.252412  0.807263  1
  Lu  Lu7  1  0.120413  0.749484  0.192405  1
  Lu  Lu8  1  0.943684  0.750719  0.501298  1
  Lu  Lu9  1  0.057747  0.249366  0.498784  1
  Lu  Lu10  1  0.445372  0.252396  0.997002  1
  Lu  Lu11  1  0.557667  0.747589  0.000537  1
  Lu  Lu12  1  0.675298  0.044538  0.565714  1
  Lu  Lu13  1  0.325940  0.955811  0.434668  1
  Lu  Lu14  1  0.173935  0.956819  0.934644  1
  Lu  Lu15  1  0.326140  0.543123  0.434505  1
  Lu  Lu16  1  0.824888  0.043783  0.065412  1
  Lu  Lu17  1  0.673427  0.456553  0.568377  1
  Lu  Lu18  1  0.824614  0.455307  0.064244  1
  Lu  Lu19  1  0.176578  0.542200  0.934363  1
  Bi  Bi20  1  0.431501  0.510456  0.173188  1
  Bi  Bi21  1  0.069144  0.510019  0.671657  1
  Bi  Bi22  1  0.431106  0.990209  0.171327  1
  Bi  Bi23  1  0.931484  0.490192  0.328215  1
  Bi  Bi24  1  0.567863  0.008691  0.827990  1
  Bi  Bi25  1  0.932278  0.010116  0.327178  1
  Bi  Bi26  1  0.067617  0.990448  0.673271  1
  Ir  Ir27  1  0.573854  0.750051  0.509398  1
  Ir  Ir28  1  0.426842  0.249514  0.490882  1
  Ir  Ir29  1  0.071785  0.249573  0.989993  1
  Ir  Ir30  1  0.927590  0.749605  0.008923  1
  Pb  Pb31  1  0.567528  0.492048  0.828229  1
