# generated using pymatgen
data_Tb10AlSnBi4
_symmetry_space_group_name_H-M   'P 1'
_cell_length_a   9.11390142
_cell_length_b   9.11390040
_cell_length_c   6.48034500
_cell_angle_alpha   90.00000000
_cell_angle_beta   90.00000000
_cell_angle_gamma   119.91711884
_symmetry_Int_Tables_number   1
_chemical_formula_structural   Tb10AlSnBi4
_chemical_formula_sum   'Tb10 Al1 Sn1 Bi4'
_cell_volume   466.55136740
_cell_formula_units_Z   1
loop_
 _symmetry_equiv_pos_site_id
 _symmetry_equiv_pos_as_xyz
  1  'x, y, z'
loop_
 _atom_site_type_symbol
 _atom_site_label
 _atom_site_symmetry_multiplicity
 _atom_site_fract_x
 _atom_site_fract_y
 _atom_site_fract_z
 _atom_site_occupancy
  Tb  Tb0  1  0.658167  0.338821  0.998727  1
  Tb  Tb1  1  0.338821  0.658167  0.998727  1
  Tb  Tb2  1  0.338821  0.658167  0.501273  1
  Tb  Tb3  1  0.658167  0.338821  0.501273  1
  Tb  Tb4  1  0.751022  0.751022  0.750000  1
  Tb  Tb5  1  0.243023  0.012897  0.750000  1
  Tb  Tb6  1  0.012897  0.243023  0.750000  1
  Tb  Tb7  1  0.243029  0.243029  0.250000  1
  Tb  Tb8  1  0.758211  0.994662  0.250000  1
  Tb  Tb9  1  0.994662  0.758211  0.250000  1
  Al  Al10  1  0.397993  0.397993  0.750000  1
  Sn  Sn11  1  0.605258  0.605258  0.250000  1
  Bi  Bi12  1  0.610539  0.003959  0.750000  1
  Bi  Bi13  1  0.003959  0.610539  0.750000  1
  Bi  Bi14  1  0.390504  0.994929  0.250000  1
  Bi  Bi15  1  0.994929  0.390504  0.250000  1
