# generated using pymatgen
data_ReTc4RuRh2
_symmetry_space_group_name_H-M   'P 1'
_cell_length_a   5.53249506
_cell_length_b   5.53297992
_cell_length_c   4.36094600
_cell_angle_alpha   90.00000000
_cell_angle_beta   90.00000000
_cell_angle_gamma   120.12852862
_symmetry_Int_Tables_number   1
_chemical_formula_structural   ReTc4RuRh2
_chemical_formula_sum   'Re1 Tc4 Ru1 Rh2'
_cell_volume   115.45893305
_cell_formula_units_Z   1
loop_
 _symmetry_equiv_pos_site_id
 _symmetry_equiv_pos_as_xyz
  1  'x, y, z'
loop_
 _atom_site_type_symbol
 _atom_site_label
 _atom_site_symmetry_multiplicity
 _atom_site_fract_x
 _atom_site_fract_y
 _atom_site_fract_z
 _atom_site_occupancy
  Re  Re0  1  0.158424  0.322498  0.250000  1
  Tc  Tc1  1  0.678326  0.840480  0.250000  1
  Tc  Tc2  1  0.160144  0.837500  0.250000  1
  Tc  Tc3  1  0.839218  0.678423  0.750000  1
  Tc  Tc4  1  0.322429  0.160387  0.750000  1
  Ru  Ru5  1  0.837341  0.161272  0.750000  1
  Rh  Rh6  1  0.335680  0.666084  0.750000  1
  Rh  Rh7  1  0.668437  0.333357  0.250000  1
