# generated using pymatgen
data_Dy2SiCO7
_symmetry_space_group_name_H-M   'P 1'
_cell_length_a   6.63296314
_cell_length_b   6.71372500
_cell_length_c   6.51814124
_cell_angle_alpha   116.46762006
_cell_angle_beta   92.68627050
_cell_angle_gamma   95.59960807
_symmetry_Int_Tables_number   1
_chemical_formula_structural   Dy2SiCO7
_chemical_formula_sum   'Dy4 Si2 C2 O14'
_cell_volume   257.26805555
_cell_formula_units_Z   2
loop_
 _symmetry_equiv_pos_site_id
 _symmetry_equiv_pos_as_xyz
  1  'x, y, z'
loop_
 _atom_site_type_symbol
 _atom_site_label
 _atom_site_symmetry_multiplicity
 _atom_site_fract_x
 _atom_site_fract_y
 _atom_site_fract_z
 _atom_site_occupancy
  Dy  Dy0  1  0.913140  0.701080  0.251223  1
  Dy  Dy1  1  0.668044  0.188780  0.256290  1
  Dy  Dy2  1  0.331955  0.811219  0.743709  1
  Dy  Dy3  1  0.086860  0.298920  0.748777  1
  Si  Si4  1  0.157613  0.241531  0.263348  1
  Si  Si5  1  0.842387  0.758469  0.736651  1
  C  C6  1  0.410386  0.733885  0.194523  1
  C  C7  1  0.589614  0.266115  0.805477  1
  O  O8  1  0.647320  0.377084  0.023496  1
  O  O9  1  0.033475  0.341644  0.113235  1
  O  O10  1  0.332168  0.093011  0.126862  1
  O  O11  1  0.597004  0.834975  0.265284  1
  O  O12  1  0.982907  0.089080  0.332504  1
  O  O13  1  0.283822  0.749349  0.343393  1
  O  O14  1  0.751125  0.562281  0.478658  1
  O  O15  1  0.248875  0.437718  0.521342  1
  O  O16  1  0.716178  0.250650  0.656606  1
  O  O17  1  0.017093  0.910921  0.667496  1
  O  O18  1  0.402996  0.165025  0.734716  1
  O  O19  1  0.667831  0.906989  0.873138  1
  O  O20  1  0.966526  0.658357  0.886763  1
  O  O21  1  0.352680  0.622917  0.976503  1
