# generated using pymatgen
data_HoEr2Cd3Ga2Ag
_symmetry_space_group_name_H-M   'P 1'
_cell_length_a   7.33662400
_cell_length_b   7.33662342
_cell_length_c   4.32418500
_cell_angle_alpha   90.00000000
_cell_angle_beta   90.00000000
_cell_angle_gamma   120.00374479
_symmetry_Int_Tables_number   1
_chemical_formula_structural   HoEr2Cd3Ga2Ag
_chemical_formula_sum   'Ho1 Er2 Cd3 Ga2 Ag1'
_cell_volume   201.56308584
_cell_formula_units_Z   1
loop_
 _symmetry_equiv_pos_site_id
 _symmetry_equiv_pos_as_xyz
  1  'x, y, z'
loop_
 _atom_site_type_symbol
 _atom_site_label
 _atom_site_symmetry_multiplicity
 _atom_site_fract_x
 _atom_site_fract_y
 _atom_site_fract_z
 _atom_site_occupancy
  Ho  Ho0  1  0.421841  0.421841  0.500000  1
  Er  Er1  1  0.578354  0.000028  0.500000  1
  Er  Er2  1  0.000028  0.578354  0.500000  1
  Cd  Cd3  1  0.748356  0.748356  0.000000  1
  Cd  Cd4  1  0.251749  0.999921  0.000000  1
  Cd  Cd5  1  0.999921  0.251749  0.000000  1
  Ga  Ga6  1  0.666799  0.333222  0.000000  1
  Ga  Ga7  1  0.333222  0.666799  0.000000  1
  Ag  Ag8  1  0.999729  0.999729  0.500000  1
