# generated using pymatgen
data_Pr3Nd3Mg2(Co4P3)4
_symmetry_space_group_name_H-M   'P 1'
_cell_length_a   3.80109600
_cell_length_b   10.77183609
_cell_length_c   12.51719710
_cell_angle_alpha   90.01462830
_cell_angle_beta   89.99999542
_cell_angle_gamma   90.00000532
_symmetry_Int_Tables_number   1
_chemical_formula_structural   Pr3Nd3Mg2(Co4P3)4
_chemical_formula_sum   'Pr3 Nd3 Mg2 Co16 P12'
_cell_volume   512.51390323
_cell_formula_units_Z   1
loop_
 _symmetry_equiv_pos_site_id
 _symmetry_equiv_pos_as_xyz
  1  'x, y, z'
loop_
 _atom_site_type_symbol
 _atom_site_label
 _atom_site_symmetry_multiplicity
 _atom_site_fract_x
 _atom_site_fract_y
 _atom_site_fract_z
 _atom_site_occupancy
  Pr  Pr0  1  0.000000  0.499945  0.525497  1
  Pr  Pr1  1  0.500000  0.000138  0.474511  1
  Pr  Pr2  1  0.499999  0.820847  0.206744  1
  Nd  Nd3  1  0.500000  0.179424  0.206592  1
  Nd  Nd4  1  0.000000  0.679213  0.793503  1
  Nd  Nd5  1  0.000001  0.320776  0.793446  1
  Mg  Mg6  1  0.499999  0.499878  0.153665  1
  Mg  Mg7  1  0.000000  0.000007  0.846347  1
  Co  Co8  1  0.500000  0.499974  0.707046  1
  Co  Co9  1  0.999999  0.000710  0.293211  1
  Co  Co10  1  0.000000  0.499848  0.988656  1
  Co  Co11  1  0.500000  0.000256  0.010993  1
  Co  Co12  1  0.500000  0.332719  0.996839  1
  Co  Co13  1  0.500000  0.667039  0.996628  1
  Co  Co14  1  0.000000  0.167411  0.003055  1
  Co  Co15  1  0.000000  0.832709  0.002784  1
  Co  Co16  1  0.500000  0.296811  0.431436  1
  Co  Co17  1  0.500000  0.703009  0.431751  1
  Co  Co18  1  0.000000  0.203236  0.568557  1
  Co  Co19  1  0.000000  0.796790  0.568697  1
  Co  Co20  1  0.500000  0.879991  0.705594  1
  Co  Co21  1  0.500000  0.120018  0.705576  1
  Co  Co22  1  0.000000  0.619510  0.294773  1
  Co  Co23  1  0.000000  0.379936  0.294428  1
  P  P24  1  0.500000  0.499949  0.887830  1
  P  P25  1  0.000000  0.000716  0.111597  1
  P  P26  1  0.500000  0.500023  0.349963  1
  P  P27  1  0.000000  0.999998  0.650074  1
  P  P28  1  0.500000  0.303537  0.613475  1
  P  P29  1  0.500000  0.696425  0.613560  1
  P  P30  1  0.999999  0.196512  0.386523  1
  P  P31  1  0.000000  0.803244  0.387406  1
  P  P32  1  0.500000  0.840911  0.897039  1
  P  P33  1  0.500000  0.159135  0.896973  1
  P  P34  1  0.000000  0.658437  0.102285  1
  P  P35  1  0.000000  0.340919  0.102945  1
