# generated using pymatgen
data_SrY2Cd(Ir2O7)2
_symmetry_space_group_name_H-M   'P 1'
_cell_length_a   7.25281625
_cell_length_b   7.25286742
_cell_length_c   7.25281796
_cell_angle_alpha   61.00470037
_cell_angle_beta   60.93508340
_cell_angle_gamma   61.00469771
_symmetry_Int_Tables_number   1
_chemical_formula_structural   SrY2Cd(Ir2O7)2
_chemical_formula_sum   'Sr1 Y2 Cd1 Ir4 O14'
_cell_volume   275.74379725
_cell_formula_units_Z   1
loop_
 _symmetry_equiv_pos_site_id
 _symmetry_equiv_pos_as_xyz
  1  'x, y, z'
loop_
 _atom_site_type_symbol
 _atom_site_label
 _atom_site_symmetry_multiplicity
 _atom_site_fract_x
 _atom_site_fract_y
 _atom_site_fract_z
 _atom_site_occupancy
  Sr  Sr0  1  0.125000  0.625000  0.125000  1
  Y  Y1  1  0.625000  0.125000  0.125000  1
  Y  Y2  1  0.125000  0.125000  0.625000  1
  Cd  Cd3  1  0.125000  0.125000  0.125000  1
  Ir  Ir4  1  0.125000  0.625000  0.625000  1
  Ir  Ir5  1  0.625000  0.125000  0.625000  1
  Ir  Ir6  1  0.625000  0.625000  0.125000  1
  Ir  Ir7  1  0.625000  0.625000  0.625000  1
  O  O8  1  0.693869  0.718222  0.295795  1
  O  O9  1  0.301314  0.298675  0.690202  1
  O  O10  1  0.706747  0.294124  0.706747  1
  O  O11  1  0.301328  0.706902  0.301328  1
  O  O12  1  0.295795  0.718222  0.693869  1
  O  O13  1  0.690202  0.298675  0.301314  1
  O  O14  1  0.556131  0.531778  0.954205  1
  O  O15  1  0.948686  0.951325  0.559798  1
  O  O16  1  0.543253  0.955876  0.543253  1
  O  O17  1  0.948672  0.543098  0.948672  1
  O  O18  1  0.954205  0.531778  0.556131  1
  O  O19  1  0.559798  0.951325  0.948686  1
  O  O20  1  0.258246  0.224023  0.258246  1
  O  O21  1  0.991754  0.025977  0.991754  1
