# generated using pymatgen
data_TbHo5U4O20
_symmetry_space_group_name_H-M   'P 1'
_cell_length_a   6.63574784
_cell_length_b   7.48600953
_cell_length_c   8.39348075
_cell_angle_alpha   100.77253176
_cell_angle_beta   97.73435089
_cell_angle_gamma   107.31783070
_symmetry_Int_Tables_number   1
_chemical_formula_structural   TbHo5U4O20
_chemical_formula_sum   'Tb1 Ho5 U4 O20'
_cell_volume   382.90499859
_cell_formula_units_Z   1
loop_
 _symmetry_equiv_pos_site_id
 _symmetry_equiv_pos_as_xyz
  1  'x, y, z'
loop_
 _atom_site_type_symbol
 _atom_site_label
 _atom_site_symmetry_multiplicity
 _atom_site_fract_x
 _atom_site_fract_y
 _atom_site_fract_z
 _atom_site_occupancy
  Tb  Tb0  1  0.000000  0.500000  0.500000  1
  Ho  Ho1  1  0.615070  0.704615  0.699577  1
  Ho  Ho2  1  0.384930  0.295385  0.300423  1
  Ho  Ho3  1  0.197236  0.897135  0.892104  1
  Ho  Ho4  1  0.802764  0.102865  0.107896  1
  Ho  Ho5  1  0.000000  0.000000  0.500000  1
  U  U6  1  0.401959  0.804429  0.301804  1
  U  U7  1  0.199192  0.399583  0.899127  1
  U  U8  1  0.800808  0.600417  0.100873  1
  U  U9  1  0.598041  0.195571  0.698196  1
  O  O10  1  0.440029  0.531283  0.137884  1
  O  O11  1  0.555058  0.986065  0.841755  1
  O  O12  1  0.267655  0.142730  0.745140  1
  O  O13  1  0.361279  0.593283  0.442434  1
  O  O14  1  0.053506  0.729571  0.333982  1
  O  O15  1  0.444942  0.013935  0.158245  1
  O  O16  1  0.150277  0.182628  0.032574  1
  O  O17  1  0.559971  0.468717  0.862116  1
  O  O18  1  0.854214  0.335419  0.950203  1
  O  O19  1  0.258039  0.608516  0.759970  1
  O  O20  1  0.953050  0.773981  0.653528  1
  O  O21  1  0.353294  0.063249  0.453163  1
  O  O22  1  0.646706  0.936751  0.546837  1
  O  O23  1  0.046950  0.226019  0.346472  1
  O  O24  1  0.741961  0.391484  0.240030  1
  O  O25  1  0.145786  0.664581  0.049797  1
  O  O26  1  0.849723  0.817372  0.967426  1
  O  O27  1  0.946494  0.270429  0.666018  1
  O  O28  1  0.638721  0.406717  0.557566  1
  O  O29  1  0.732345  0.857270  0.254860  1
