# generated using pymatgen
data_Lu19InIr12
_symmetry_space_group_name_H-M   'P 1'
_cell_length_a   10.65731300
_cell_length_b   10.65731300
_cell_length_c   6.22822900
_cell_angle_alpha   90.00000000
_cell_angle_beta   90.00000000
_cell_angle_gamma   90.00000000
_symmetry_Int_Tables_number   1
_chemical_formula_structural   Lu19InIr12
_chemical_formula_sum   'Lu19 In1 Ir12'
_cell_volume   707.39178876
_cell_formula_units_Z   1
loop_
 _symmetry_equiv_pos_site_id
 _symmetry_equiv_pos_as_xyz
  1  'x, y, z'
loop_
 _atom_site_type_symbol
 _atom_site_label
 _atom_site_symmetry_multiplicity
 _atom_site_fract_x
 _atom_site_fract_y
 _atom_site_fract_z
 _atom_site_occupancy
  Lu  Lu0  1  0.285233  0.084519  0.379216  1
  Lu  Lu1  1  0.291964  0.912154  0.880008  1
  Lu  Lu2  1  0.708036  0.087846  0.880008  1
  Lu  Lu3  1  0.714767  0.915481  0.379216  1
  Lu  Lu4  1  0.588016  0.792289  0.880195  1
  Lu  Lu5  1  0.587628  0.208001  0.377040  1
  Lu  Lu6  1  0.412372  0.791999  0.377040  1
  Lu  Lu7  1  0.411984  0.207711  0.880195  1
  Lu  Lu8  1  0.208001  0.412372  0.622960  1
  Lu  Lu9  1  0.207711  0.588016  0.119805  1
  Lu  Lu10  1  0.792289  0.411984  0.119805  1
  Lu  Lu11  1  0.791999  0.587628  0.622960  1
  Lu  Lu12  1  0.912154  0.708036  0.119992  1
  Lu  Lu13  1  0.915481  0.285233  0.620784  1
  Lu  Lu14  1  0.084519  0.714767  0.620784  1
  Lu  Lu15  1  0.087846  0.291964  0.119992  1
  Lu  Lu16  1  0.000000  0.000000  0.000000  1
  Lu  Lu17  1  0.500000  0.500000  0.000000  1
  Lu  Lu18  1  0.500000  0.500000  0.500000  1
  In  In19  1  0.000000  0.000000  0.500000  1
  Ir  Ir20  1  0.844853  0.157056  0.244168  1
  Ir  Ir21  1  0.842944  0.844853  0.755832  1
  Ir  Ir22  1  0.157056  0.155147  0.755832  1
  Ir  Ir23  1  0.155147  0.842944  0.244168  1
  Ir  Ir24  1  0.654504  0.346727  0.747505  1
  Ir  Ir25  1  0.653273  0.654504  0.252495  1
  Ir  Ir26  1  0.346727  0.345496  0.252495  1
  Ir  Ir27  1  0.345496  0.653273  0.747505  1
  Ir  Ir28  1  0.500000  0.000000  0.127610  1
  Ir  Ir29  1  0.500000  0.000000  0.622427  1
  Ir  Ir30  1  0.000000  0.500000  0.872390  1
  Ir  Ir31  1  0.000000  0.500000  0.377573  1
