# generated using pymatgen
data_Ho7Tm9(CdRh)4
_symmetry_space_group_name_H-M   'P 1'
_cell_length_a   9.53004996
_cell_length_b   9.53146422
_cell_length_c   9.53437900
_cell_angle_alpha   59.99291806
_cell_angle_beta   59.98731365
_cell_angle_gamma   60.03258733
_symmetry_Int_Tables_number   1
_chemical_formula_structural   Ho7Tm9(CdRh)4
_chemical_formula_sum   'Ho7 Tm9 Cd4 Rh4'
_cell_volume   612.45491389
_cell_formula_units_Z   1
loop_
 _symmetry_equiv_pos_site_id
 _symmetry_equiv_pos_as_xyz
  1  'x, y, z'
loop_
 _atom_site_type_symbol
 _atom_site_label
 _atom_site_symmetry_multiplicity
 _atom_site_fract_x
 _atom_site_fract_y
 _atom_site_fract_z
 _atom_site_occupancy
  Ho  Ho0  1  0.311010  0.689188  0.310555  1
  Ho  Ho1  1  0.311006  0.689194  0.689213  1
  Ho  Ho2  1  0.935939  0.563760  0.563701  1
  Ho  Ho3  1  0.935972  0.563752  0.936602  1
  Ho  Ho4  1  0.563987  0.936369  0.563317  1
  Ho  Ho5  1  0.563998  0.936343  0.936320  1
  Ho  Ho6  1  0.311206  0.310669  0.689076  1
  Tm  Tm7  1  0.936183  0.936903  0.563478  1
  Tm  Tm8  1  0.563679  0.563180  0.936571  1
  Tm  Tm9  1  0.689257  0.688581  0.311075  1
  Tm  Tm10  1  0.149946  0.549278  0.150391  1
  Tm  Tm11  1  0.689426  0.310844  0.688762  1
  Tm  Tm12  1  0.149844  0.150379  0.150559  1
  Tm  Tm13  1  0.549803  0.150218  0.149986  1
  Tm  Tm14  1  0.689429  0.310828  0.310969  1
  Tm  Tm15  1  0.149836  0.150387  0.549233  1
  Cd  Cd16  1  0.918877  0.919161  0.243169  1
  Cd  Cd17  1  0.243188  0.918644  0.919091  1
  Cd  Cd18  1  0.918879  0.919145  0.918786  1
  Cd  Cd19  1  0.918481  0.243164  0.919187  1
  Rh  Rh20  1  0.357405  0.356892  0.929155  1
  Rh  Rh21  1  0.357070  0.929165  0.356877  1
  Rh  Rh22  1  0.928164  0.357056  0.357388  1
  Rh  Rh23  1  0.357414  0.356896  0.356536  1
