# generated using pymatgen
data_Hf12Al8CoNi3C4
_symmetry_space_group_name_H-M   'P 1'
_cell_length_a   8.49306277
_cell_length_b   8.49294854
_cell_length_c   8.49298733
_cell_angle_alpha   59.94331870
_cell_angle_beta   59.94333210
_cell_angle_gamma   59.94357984
_symmetry_Int_Tables_number   1
_chemical_formula_structural   Hf12Al8CoNi3C4
_chemical_formula_sum   'Hf12 Al8 Co1 Ni3 C4'
_cell_volume   432.62392677
_cell_formula_units_Z   1
loop_
 _symmetry_equiv_pos_site_id
 _symmetry_equiv_pos_as_xyz
  1  'x, y, z'
loop_
 _atom_site_type_symbol
 _atom_site_label
 _atom_site_symmetry_multiplicity
 _atom_site_fract_x
 _atom_site_fract_y
 _atom_site_fract_z
 _atom_site_occupancy
  Hf  Hf0  1  0.555614  0.943860  0.555622  1
  Hf  Hf1  1  0.306132  0.694381  0.694398  1
  Hf  Hf2  1  0.696684  0.304819  0.304814  1
  Hf  Hf3  1  0.304811  0.696680  0.304805  1
  Hf  Hf4  1  0.694399  0.694375  0.306132  1
  Hf  Hf5  1  0.304815  0.304814  0.696682  1
  Hf  Hf6  1  0.555601  0.555624  0.943869  1
  Hf  Hf7  1  0.943868  0.555619  0.555602  1
  Hf  Hf8  1  0.553316  0.945181  0.945186  1
  Hf  Hf9  1  0.945186  0.945186  0.553317  1
  Hf  Hf10  1  0.694386  0.306140  0.694378  1
  Hf  Hf11  1  0.945189  0.553320  0.945195  1
  Al  Al12  1  0.920221  0.920262  0.920231  1
  Al  Al13  1  0.011483  0.328362  0.328390  1
  Al  Al14  1  0.328398  0.011444  0.328390  1
  Al  Al15  1  0.328396  0.328358  0.011485  1
  Al  Al16  1  0.921602  0.238556  0.921610  1
  Al  Al17  1  0.921604  0.921643  0.238515  1
  Al  Al18  1  0.238517  0.921638  0.921610  1
  Al  Al19  1  0.329779  0.329738  0.329769  1
  Co  Co20  1  0.125000  0.125000  0.125000  1
  Ni  Ni21  1  0.625000  0.125000  0.125000  1
  Ni  Ni22  1  0.125000  0.625000  0.125000  1
  Ni  Ni23  1  0.125000  0.125000  0.625000  1
  C  C24  1  0.625000  0.625000  0.625000  1
  C  C25  1  0.125000  0.625000  0.625000  1
  C  C26  1  0.625000  0.125000  0.625000  1
  C  C27  1  0.625000  0.625000  0.125000  1
