# generated using pymatgen
data_PrP12IrOsRu2
_symmetry_space_group_name_H-M   'P 1'
_cell_length_a   7.03139692
_cell_length_b   7.02894631
_cell_length_c   7.02984115
_cell_angle_alpha   109.43163880
_cell_angle_beta   109.44648499
_cell_angle_gamma   109.43831074
_symmetry_Int_Tables_number   1
_chemical_formula_structural   PrP12IrOsRu2
_chemical_formula_sum   'Pr1 P12 Ir1 Os1 Ru2'
_cell_volume   267.77836175
_cell_formula_units_Z   1
loop_
 _symmetry_equiv_pos_site_id
 _symmetry_equiv_pos_as_xyz
  1  'x, y, z'
loop_
 _atom_site_type_symbol
 _atom_site_label
 _atom_site_symmetry_multiplicity
 _atom_site_fract_x
 _atom_site_fract_y
 _atom_site_fract_z
 _atom_site_occupancy
  Pr  Pr0  1  0.000000  0.000000  0.000000  1
  P  P1  1  0.787640  0.143172  0.644049  1
  P  P2  1  0.212360  0.856828  0.355951  1
  P  P3  1  0.501089  0.859844  0.645942  1
  P  P4  1  0.856006  0.355149  0.212442  1
  P  P5  1  0.645089  0.501048  0.859688  1
  P  P6  1  0.355437  0.212055  0.856257  1
  P  P7  1  0.143994  0.644851  0.787558  1
  P  P8  1  0.644563  0.787945  0.143743  1
  P  P9  1  0.859856  0.645933  0.501042  1
  P  P10  1  0.140144  0.354067  0.498958  1
  P  P11  1  0.498911  0.140156  0.354058  1
  P  P12  1  0.354911  0.498952  0.140312  1
  Ir  Ir13  1  0.500000  0.500000  0.500000  1
  Os  Os14  1  0.000000  0.500000  0.000000  1
  Ru  Ru15  1  0.500000  0.000000  0.000000  1
  Ru  Ru16  1  0.000000  0.000000  0.500000  1
