# generated using pymatgen
data_Er2Sc4B4Ir9Ru
_symmetry_space_group_name_H-M   'P 1'
_cell_length_a   3.09586900
_cell_length_b   9.70441113
_cell_length_c   9.70441131
_cell_angle_alpha   91.51492029
_cell_angle_beta   90.00000000
_cell_angle_gamma   90.00000000
_symmetry_Int_Tables_number   1
_chemical_formula_structural   Er2Sc4B4Ir9Ru
_chemical_formula_sum   'Er2 Sc4 B4 Ir9 Ru1'
_cell_volume   291.45340563
_cell_formula_units_Z   1
loop_
 _symmetry_equiv_pos_site_id
 _symmetry_equiv_pos_as_xyz
  1  'x, y, z'
loop_
 _atom_site_type_symbol
 _atom_site_label
 _atom_site_symmetry_multiplicity
 _atom_site_fract_x
 _atom_site_fract_y
 _atom_site_fract_z
 _atom_site_occupancy
  Er  Er0  1  0.000000  0.321491  0.178509  1
  Er  Er1  1  0.000000  0.678509  0.821491  1
  Sc  Sc2  1  0.000000  0.172456  0.672456  1
  Sc  Sc3  1  0.000000  0.827544  0.327544  1
  Sc  Sc4  1  0.000000  0.000000  0.000000  1
  Sc  Sc5  1  0.000000  0.500000  0.500000  1
  B  B6  1  0.000000  0.624184  0.124184  1
  B  B7  1  0.000000  0.375816  0.875816  1
  B  B8  1  0.000000  0.882279  0.617721  1
  B  B9  1  0.000000  0.117721  0.382279  1
  Ir  Ir10  1  0.500000  0.064799  0.225511  1
  Ir  Ir11  1  0.500000  0.935201  0.774489  1
  Ir  Ir12  1  0.500000  0.778771  0.075865  1
  Ir  Ir13  1  0.500000  0.424135  0.721229  1
  Ir  Ir14  1  0.500000  0.221229  0.924135  1
  Ir  Ir15  1  0.500000  0.575865  0.278771  1
  Ir  Ir16  1  0.500000  0.725511  0.564799  1
  Ir  Ir17  1  0.500000  0.274489  0.435201  1
  Ir  Ir18  1  0.500000  0.500000  0.000000  1
  Ru  Ru19  1  0.500000  0.000000  0.500000  1
