# generated using pymatgen
data_TbNdEr2SiBr6
_symmetry_space_group_name_H-M   'P 1'
_cell_length_a   4.07813800
_cell_length_b   13.40399815
_cell_length_c   14.10339006
_cell_angle_alpha   89.20852403
_cell_angle_beta   90.00000000
_cell_angle_gamma   90.00000000
_symmetry_Int_Tables_number   1
_chemical_formula_structural   TbNdEr2SiBr6
_chemical_formula_sum   'Tb2 Nd2 Er4 Si2 Br12'
_cell_volume   770.86505139
_cell_formula_units_Z   2
loop_
 _symmetry_equiv_pos_site_id
 _symmetry_equiv_pos_as_xyz
  1  'x, y, z'
loop_
 _atom_site_type_symbol
 _atom_site_label
 _atom_site_symmetry_multiplicity
 _atom_site_fract_x
 _atom_site_fract_y
 _atom_site_fract_z
 _atom_site_occupancy
  Tb  Tb0  1  0.000000  0.617695  0.921019  1
  Tb  Tb1  1  0.000000  0.382305  0.078981  1
  Nd  Nd2  1  0.000000  0.122383  0.581713  1
  Nd  Nd3  1  0.000000  0.877617  0.418287  1
  Er  Er4  1  0.500000  0.117677  0.341751  1
  Er  Er5  1  0.500000  0.882323  0.658249  1
  Er  Er6  1  0.500000  0.615586  0.155914  1
  Er  Er7  1  0.500000  0.384414  0.844086  1
  Si  Si8  1  0.500000  0.000000  0.500000  1
  Si  Si9  1  0.500000  0.500000  0.000000  1
  Br  Br10  1  0.500000  0.246000  0.164130  1
  Br  Br11  1  0.500000  0.754000  0.835870  1
  Br  Br12  1  0.500000  0.734342  0.329299  1
  Br  Br13  1  0.500000  0.265658  0.670701  1
  Br  Br14  1  0.000000  0.253479  0.402147  1
  Br  Br15  1  0.000000  0.746521  0.597853  1
  Br  Br16  1  0.000000  0.750284  0.089130  1
  Br  Br17  1  0.000000  0.249716  0.910870  1
  Br  Br18  1  0.000000  0.012121  0.240731  1
  Br  Br19  1  0.000000  0.987879  0.759269  1
  Br  Br20  1  0.000000  0.503742  0.253344  1
  Br  Br21  1  0.000000  0.496258  0.746656  1
