# generated using pymatgen
data_Yb20(InAg3)3
_symmetry_space_group_name_H-M   'P 1'
_cell_length_a   8.08967800
_cell_length_b   8.08967800
_cell_length_c   14.45287000
_cell_angle_alpha   90.00000000
_cell_angle_beta   90.00000000
_cell_angle_gamma   90.00000000
_symmetry_Int_Tables_number   1
_chemical_formula_structural   Yb20(InAg3)3
_chemical_formula_sum   'Yb20 In3 Ag9'
_cell_volume   945.83758367
_cell_formula_units_Z   1
loop_
 _symmetry_equiv_pos_site_id
 _symmetry_equiv_pos_as_xyz
  1  'x, y, z'
loop_
 _atom_site_type_symbol
 _atom_site_label
 _atom_site_symmetry_multiplicity
 _atom_site_fract_x
 _atom_site_fract_y
 _atom_site_fract_z
 _atom_site_occupancy
  Yb  Yb0  1  0.000000  0.000000  0.754612  1
  Yb  Yb1  1  0.500000  0.500000  0.251595  1
  Yb  Yb2  1  0.000000  0.000000  0.245388  1
  Yb  Yb3  1  0.500000  0.500000  0.748405  1
  Yb  Yb4  1  0.171112  0.661516  0.105678  1
  Yb  Yb5  1  0.667563  0.166572  0.608936  1
  Yb  Yb6  1  0.828888  0.338484  0.105678  1
  Yb  Yb7  1  0.332437  0.833428  0.608936  1
  Yb  Yb8  1  0.338484  0.171112  0.105678  1
  Yb  Yb9  1  0.833428  0.667563  0.608936  1
  Yb  Yb10  1  0.661516  0.828888  0.105678  1
  Yb  Yb11  1  0.166572  0.332437  0.608936  1
  Yb  Yb12  1  0.338484  0.828888  0.894322  1
  Yb  Yb13  1  0.833428  0.332437  0.391064  1
  Yb  Yb14  1  0.661516  0.171112  0.894322  1
  Yb  Yb15  1  0.166572  0.667563  0.391064  1
  Yb  Yb16  1  0.171112  0.338484  0.894322  1
  Yb  Yb17  1  0.667563  0.833428  0.391064  1
  Yb  Yb18  1  0.828888  0.661516  0.894322  1
  Yb  Yb19  1  0.332437  0.166572  0.391064  1
  In  In20  1  0.000000  0.000000  0.500000  1
  In  In21  1  0.000000  0.000000  0.000000  1
  In  In22  1  0.500000  0.500000  0.500000  1
  Ag  Ag23  1  0.628230  0.128269  0.248121  1
  Ag  Ag24  1  0.128269  0.628230  0.751879  1
  Ag  Ag25  1  0.871731  0.371770  0.751879  1
  Ag  Ag26  1  0.371770  0.871731  0.248121  1
  Ag  Ag27  1  0.371770  0.128269  0.751879  1
  Ag  Ag28  1  0.871731  0.628230  0.248121  1
  Ag  Ag29  1  0.128269  0.371770  0.248121  1
  Ag  Ag30  1  0.628230  0.871731  0.751879  1
  Ag  Ag31  1  0.500000  0.500000  0.000000  1
