# generated using pymatgen
data_Ce3Er13(CoAg)4
_symmetry_space_group_name_H-M   'P 1'
_cell_length_a   9.31026143
_cell_length_b   9.37463369
_cell_length_c   9.37463300
_cell_angle_alpha   60.00000597
_cell_angle_beta   59.77102402
_cell_angle_gamma   59.77102532
_symmetry_Int_Tables_number   1
_chemical_formula_structural   Ce3Er13(CoAg)4
_chemical_formula_sum   'Ce3 Er13 Co4 Ag4'
_cell_volume   576.55892745
_cell_formula_units_Z   1
loop_
 _symmetry_equiv_pos_site_id
 _symmetry_equiv_pos_as_xyz
  1  'x, y, z'
loop_
 _atom_site_type_symbol
 _atom_site_label
 _atom_site_symmetry_multiplicity
 _atom_site_fract_x
 _atom_site_fract_y
 _atom_site_fract_z
 _atom_site_occupancy
  Ce  Ce0  1  0.591532  0.596270  0.596270  1
  Ce  Ce1  1  0.591532  0.596270  0.215928  1
  Ce  Ce2  1  0.591532  0.215928  0.596270  1
  Er  Er3  1  0.196698  0.601101  0.601101  1
  Er  Er4  1  0.062629  0.438542  0.438542  1
  Er  Er5  1  0.439532  0.060865  0.060865  1
  Er  Er6  1  0.439532  0.060865  0.438737  1
  Er  Er7  1  0.062629  0.438542  0.060286  1
  Er  Er8  1  0.439532  0.438737  0.060865  1
  Er  Er9  1  0.062629  0.060286  0.438542  1
  Er  Er10  1  0.185257  0.814104  0.814104  1
  Er  Er11  1  0.812308  0.187396  0.187396  1
  Er  Er12  1  0.812308  0.187396  0.812901  1
  Er  Er13  1  0.185257  0.814104  0.186535  1
  Er  Er14  1  0.812308  0.812901  0.187396  1
  Er  Er15  1  0.185257  0.186535  0.814104  1
  Co  Co16  1  0.405559  0.389407  0.389407  1
  Co  Co17  1  0.405559  0.389407  0.815628  1
  Co  Co18  1  0.405559  0.815628  0.389407  1
  Co  Co19  1  0.814318  0.395227  0.395227  1
  Ag  Ag20  1  0.831976  0.831619  0.831619  1
  Ag  Ag21  1  0.831976  0.831619  0.504786  1
  Ag  Ag22  1  0.831976  0.504786  0.831619  1
  Ag  Ag23  1  0.502606  0.832464  0.832464  1
