# generated using pymatgen
data_HoEr2Tm2P12Ru19
_symmetry_space_group_name_H-M   'P 1'
_cell_length_a   12.51592500
_cell_length_b   12.51592588
_cell_length_c   3.96994700
_cell_angle_alpha   90.00000000
_cell_angle_beta   90.00000000
_cell_angle_gamma   120.00180607
_symmetry_Int_Tables_number   1
_chemical_formula_structural   HoEr2Tm2P12Ru19
_chemical_formula_sum   'Ho1 Er2 Tm2 P12 Ru19'
_cell_volume   538.55910319
_cell_formula_units_Z   1
loop_
 _symmetry_equiv_pos_site_id
 _symmetry_equiv_pos_as_xyz
  1  'x, y, z'
loop_
 _atom_site_type_symbol
 _atom_site_label
 _atom_site_symmetry_multiplicity
 _atom_site_fract_x
 _atom_site_fract_y
 _atom_site_fract_z
 _atom_site_occupancy
  Ho  Ho0  1  0.183444  0.183444  0.500000  1
  Er  Er1  1  0.816550  0.999986  0.500000  1
  Er  Er2  1  0.999986  0.816550  0.500000  1
  Tm  Tm3  1  0.333338  0.666671  0.000000  1
  Tm  Tm4  1  0.666671  0.333338  0.000000  1
  P  P5  1  0.816058  0.816058  0.000000  1
  P  P6  1  0.183952  0.999935  0.000000  1
  P  P7  1  0.999935  0.183952  0.000000  1
  P  P8  1  0.171357  0.478342  0.500000  1
  P  P9  1  0.521651  0.693008  0.500000  1
  P  P10  1  0.306998  0.828643  0.500000  1
  P  P11  1  0.693008  0.521651  0.500000  1
  P  P12  1  0.828643  0.306998  0.500000  1
  P  P13  1  0.478342  0.171357  0.500000  1
  P  P14  1  0.372107  0.372107  0.000000  1
  P  P15  1  0.627949  0.000000  0.000000  1
  P  P16  1  0.000000  0.627949  0.000000  1
  Ru  Ru17  1  0.554347  0.554347  0.000000  1
  Ru  Ru18  1  0.445653  0.000007  0.000000  1
  Ru  Ru19  1  0.000007  0.445653  0.000000  1
  Ru  Ru20  1  0.717175  0.717175  0.500000  1
  Ru  Ru21  1  0.282875  0.999936  0.500000  1
  Ru  Ru22  1  0.999936  0.282875  0.500000  1
  Ru  Ru23  1  0.184823  0.377233  0.000000  1
  Ru  Ru24  1  0.622893  0.807740  0.000000  1
  Ru  Ru25  1  0.192269  0.815158  0.000000  1
  Ru  Ru26  1  0.807740  0.622893  0.000000  1
  Ru  Ru27  1  0.815158  0.192269  0.000000  1
  Ru  Ru28  1  0.377233  0.184823  0.000000  1
  Ru  Ru29  1  0.365567  0.492085  0.500000  1
  Ru  Ru30  1  0.507950  0.873496  0.500000  1
  Ru  Ru31  1  0.126510  0.634456  0.500000  1
  Ru  Ru32  1  0.873496  0.507950  0.500000  1
  Ru  Ru33  1  0.634456  0.126510  0.500000  1
  Ru  Ru34  1  0.492085  0.365567  0.500000  1
  Ru  Ru35  1  0.999836  0.999836  0.000000  1
