# generated using pymatgen
data_Ti15Si16Tc5
_symmetry_space_group_name_H-M   'P 1'
_cell_length_a   6.36630485
_cell_length_b   6.55076581
_cell_length_c   12.67225135
_cell_angle_alpha   89.95426317
_cell_angle_beta   90.16470781
_cell_angle_gamma   89.88472904
_symmetry_Int_Tables_number   1
_chemical_formula_structural   Ti15Si16Tc5
_chemical_formula_sum   'Ti15 Si16 Tc5'
_cell_volume   528.48232805
_cell_formula_units_Z   1
loop_
 _symmetry_equiv_pos_site_id
 _symmetry_equiv_pos_as_xyz
  1  'x, y, z'
loop_
 _atom_site_type_symbol
 _atom_site_label
 _atom_site_symmetry_multiplicity
 _atom_site_fract_x
 _atom_site_fract_y
 _atom_site_fract_z
 _atom_site_occupancy
  Ti  Ti0  1  0.169933  0.337984  0.872266  1
  Ti  Ti1  1  0.333786  0.835976  0.125900  1
  Ti  Ti2  1  0.832195  0.662173  0.377249  1
  Ti  Ti3  1  0.333353  0.838435  0.376399  1
  Ti  Ti4  1  0.831793  0.665121  0.126251  1
  Ti  Ti5  1  0.664792  0.167336  0.872565  1
  Ti  Ti6  1  0.164732  0.333452  0.626163  1
  Ti  Ti7  1  0.492838  0.677174  0.584830  1
  Ti  Ti8  1  0.990067  0.828288  0.913608  1
  Ti  Ti9  1  0.507952  0.328441  0.084416  1
  Ti  Ti10  1  0.013374  0.171447  0.416747  1
  Ti  Ti11  1  0.504561  0.324091  0.411760  1
  Ti  Ti12  1  0.006647  0.176030  0.085119  1
  Ti  Ti13  1  0.488051  0.672215  0.915644  1
  Ti  Ti14  1  0.998866  0.825684  0.582678  1
  Si  Si15  1  0.675348  0.964098  0.459646  1
  Si  Si16  1  0.174610  0.537710  0.039072  1
  Si  Si17  1  0.322029  0.036986  0.959361  1
  Si  Si18  1  0.819404  0.456585  0.542596  1
  Si  Si19  1  0.333457  0.037224  0.543197  1
  Si  Si20  1  0.824081  0.464916  0.959352  1
  Si  Si21  1  0.676757  0.965336  0.039318  1
  Si  Si22  1  0.177820  0.536591  0.461371  1
  Si  Si23  1  0.475643  0.394588  0.745396  1
  Si  Si24  1  0.966163  0.102661  0.750252  1
  Si  Si25  1  0.529251  0.600947  0.251363  1
  Si  Si26  1  0.030190  0.899322  0.251102  1
  Si  Si27  1  0.693566  0.845527  0.751820  1
  Si  Si28  1  0.200252  0.655182  0.749545  1
  Si  Si29  1  0.299923  0.156467  0.249144  1
  Si  Si30  1  0.800054  0.342764  0.249977  1
  Tc  Tc31  1  0.675872  0.154243  0.623707  1
  Tc  Tc32  1  0.842488  0.503303  0.749357  1
  Tc  Tc33  1  0.333192  0.001160  0.753355  1
  Tc  Tc34  1  0.157188  0.507026  0.250442  1
  Tc  Tc35  1  0.659770  0.993513  0.249029  1
