# generated using pymatgen
data_DyHo(CoH4)2
_symmetry_space_group_name_H-M   'P 1'
_cell_length_a   6.01305466
_cell_length_b   6.01305490
_cell_length_c   4.71614300
_cell_angle_alpha   90.00021557
_cell_angle_beta   89.99978583
_cell_angle_gamma   145.53219613
_symmetry_Int_Tables_number   1
_chemical_formula_structural   DyHo(CoH4)2
_chemical_formula_sum   'Dy1 Ho1 Co2 H8'
_cell_volume   96.50504447
_cell_formula_units_Z   1
loop_
 _symmetry_equiv_pos_site_id
 _symmetry_equiv_pos_as_xyz
  1  'x, y, z'
loop_
 _atom_site_type_symbol
 _atom_site_label
 _atom_site_symmetry_multiplicity
 _atom_site_fract_x
 _atom_site_fract_y
 _atom_site_fract_z
 _atom_site_occupancy
  Dy  Dy0  1  0.132319  0.867681  0.249998  1
  Ho  Ho1  1  0.867356  0.132644  0.750000  1
  Co  Co2  1  0.597515  0.402485  0.750000  1
  Co  Co3  1  0.402382  0.597618  0.250002  1
  H  H4  1  0.089311  0.910689  0.750000  1
  H  H5  1  0.910555  0.089445  0.250000  1
  H  H6  1  0.693485  0.306515  0.501500  1
  H  H7  1  0.306806  0.693194  0.499387  1
  H  H8  1  0.693485  0.306515  0.998500  1
  H  H9  1  0.306806  0.693194  0.000613  1
  H  H10  1  0.499990  0.500010  0.000011  1
  H  H11  1  0.499990  0.500010  0.499989  1
