# generated using pymatgen
data_Tb3DyIn(FeB3)2
_symmetry_space_group_name_H-M   'P 1'
_cell_length_a   5.35772749
_cell_length_b   5.35772732
_cell_length_c   8.23579446
_cell_angle_alpha   71.01801579
_cell_angle_beta   71.01802712
_cell_angle_gamma   59.99998339
_symmetry_Int_Tables_number   1
_chemical_formula_structural   Tb3DyIn(FeB3)2
_chemical_formula_sum   'Tb3 Dy1 In1 Fe2 B6'
_cell_volume   189.74776284
_cell_formula_units_Z   1
loop_
 _symmetry_equiv_pos_site_id
 _symmetry_equiv_pos_as_xyz
  1  'x, y, z'
loop_
 _atom_site_type_symbol
 _atom_site_label
 _atom_site_symmetry_multiplicity
 _atom_site_fract_x
 _atom_site_fract_y
 _atom_site_fract_z
 _atom_site_occupancy
  Tb  Tb0  1  0.251379  0.251379  0.245864  1
  Tb  Tb1  1  0.748638  0.748638  0.754085  1
  Tb  Tb2  1  0.415558  0.415558  0.753327  1
  Dy  Dy3  1  0.583838  0.583838  0.248487  1
  In  In4  1  0.000129  0.000129  0.999614  1
  Fe  Fe5  1  0.116839  0.116839  0.649484  1
  Fe  Fe6  1  0.883371  0.883371  0.349884  1
  B  B7  1  0.168047  0.832118  0.499876  1
  B  B8  1  0.832118  0.499959  0.499876  1
  B  B9  1  0.499959  0.168047  0.499876  1
  B  B10  1  0.168047  0.499959  0.499876  1
  B  B11  1  0.499959  0.832118  0.499876  1
  B  B12  1  0.832118  0.168047  0.499876  1
