# generated using pymatgen
data_Hf4Nb4Si3Ge
_symmetry_space_group_name_H-M   'P 1'
_cell_length_a   3.65184300
_cell_length_b   6.99110821
_cell_length_c   8.48823536
_cell_angle_alpha   90.12837966
_cell_angle_beta   90.00000000
_cell_angle_gamma   90.00000000
_symmetry_Int_Tables_number   1
_chemical_formula_structural   Hf4Nb4Si3Ge
_chemical_formula_sum   'Hf4 Nb4 Si3 Ge1'
_cell_volume   216.70775100
_cell_formula_units_Z   1
loop_
 _symmetry_equiv_pos_site_id
 _symmetry_equiv_pos_as_xyz
  1  'x, y, z'
loop_
 _atom_site_type_symbol
 _atom_site_label
 _atom_site_symmetry_multiplicity
 _atom_site_fract_x
 _atom_site_fract_y
 _atom_site_fract_z
 _atom_site_occupancy
  Hf  Hf0  1  0.250000  0.041646  0.662084  1
  Hf  Hf1  1  0.250000  0.549933  0.834435  1
  Hf  Hf2  1  0.750000  0.456420  0.167984  1
  Hf  Hf3  1  0.750000  0.955821  0.334730  1
  Nb  Nb4  1  0.750000  0.865053  0.942953  1
  Nb  Nb5  1  0.250000  0.632559  0.441982  1
  Nb  Nb6  1  0.750000  0.367722  0.555457  1
  Nb  Nb7  1  0.250000  0.130543  0.061027  1
  Si  Si8  1  0.250000  0.252534  0.357892  1
  Si  Si9  1  0.250000  0.752411  0.142414  1
  Si  Si10  1  0.750000  0.746532  0.641773  1
  Ge  Ge11  1  0.750000  0.248825  0.857269  1
