# generated using pymatgen
data_HoTm4Zr3Pt4
_symmetry_space_group_name_H-M   'P 1'
_cell_length_a   4.71198200
_cell_length_b   7.03306688
_cell_length_c   8.33885243
_cell_angle_alpha   89.25382853
_cell_angle_beta   90.00000000
_cell_angle_gamma   90.00000000
_symmetry_Int_Tables_number   1
_chemical_formula_structural   HoTm4Zr3Pt4
_chemical_formula_sum   'Ho1 Tm4 Zr3 Pt4'
_cell_volume   276.32350476
_cell_formula_units_Z   1
loop_
 _symmetry_equiv_pos_site_id
 _symmetry_equiv_pos_as_xyz
  1  'x, y, z'
loop_
 _atom_site_type_symbol
 _atom_site_label
 _atom_site_symmetry_multiplicity
 _atom_site_fract_x
 _atom_site_fract_y
 _atom_site_fract_z
 _atom_site_occupancy
  Ho  Ho0  1  0.250000  0.481788  0.171329  1
  Tm  Tm1  1  0.750000  0.647979  0.418673  1
  Tm  Tm2  1  0.250000  0.988870  0.326745  1
  Tm  Tm3  1  0.750000  0.018104  0.680546  1
  Tm  Tm4  1  0.750000  0.515315  0.820724  1
  Zr  Zr5  1  0.250000  0.855354  0.922046  1
  Zr  Zr6  1  0.250000  0.352737  0.579599  1
  Zr  Zr7  1  0.750000  0.148222  0.080530  1
  Pt  Pt8  1  0.250000  0.232959  0.905212  1
  Pt  Pt9  1  0.250000  0.737922  0.603096  1
  Pt  Pt10  1  0.750000  0.767477  0.083360  1
  Pt  Pt11  1  0.750000  0.253275  0.408140  1
