# generated using pymatgen
data_TbAl5Zn3Cu4
_symmetry_space_group_name_H-M   'P 1'
_cell_length_a   6.69000376
_cell_length_b   6.69000383
_cell_length_c   6.69000361
_cell_angle_alpha   98.58997924
_cell_angle_beta   98.34375892
_cell_angle_gamma   134.87202202
_symmetry_Int_Tables_number   1
_chemical_formula_structural   TbAl5Zn3Cu4
_chemical_formula_sum   'Tb1 Al5 Zn3 Cu4'
_cell_volume   195.94977662
_cell_formula_units_Z   1
loop_
 _symmetry_equiv_pos_site_id
 _symmetry_equiv_pos_as_xyz
  1  'x, y, z'
loop_
 _atom_site_type_symbol
 _atom_site_label
 _atom_site_symmetry_multiplicity
 _atom_site_fract_x
 _atom_site_fract_y
 _atom_site_fract_z
 _atom_site_occupancy
  Tb  Tb0  1  0.000256  0.000000  0.000256  1
  Al  Al1  1  0.280758  0.500000  0.780758  1
  Al  Al2  1  0.999002  0.347087  0.346089  1
  Al  Al3  1  0.999002  0.652913  0.651916  1
  Al  Al4  1  0.652039  0.000000  0.652039  1
  Al  Al5  1  0.347554  0.000000  0.347554  1
  Zn  Zn6  1  0.501174  0.280913  0.782087  1
  Zn  Zn7  1  0.501174  0.719087  0.220260  1
  Zn  Zn8  1  0.717619  0.500000  0.217619  1
  Cu  Cu9  1  0.499833  0.500370  0.501250  1
  Cu  Cu10  1  0.000880  0.001418  0.501250  1
  Cu  Cu11  1  0.499833  0.998582  0.999463  1
  Cu  Cu12  1  0.000878  0.499632  0.999463  1
