# generated using pymatgen
data_Zr5Sc3(Co4P3)4
_symmetry_space_group_name_H-M   'P 1'
_cell_length_a   12.05645600
_cell_length_b   12.05645621
_cell_length_c   3.64610400
_cell_angle_alpha   90.00000000
_cell_angle_beta   90.00000000
_cell_angle_gamma   119.99999393
_symmetry_Int_Tables_number   1
_chemical_formula_structural   Zr5Sc3(Co4P3)4
_chemical_formula_sum   'Zr5 Sc3 Co16 P12'
_cell_volume   458.98558814
_cell_formula_units_Z   1
loop_
 _symmetry_equiv_pos_site_id
 _symmetry_equiv_pos_as_xyz
  1  'x, y, z'
loop_
 _atom_site_type_symbol
 _atom_site_label
 _atom_site_symmetry_multiplicity
 _atom_site_fract_x
 _atom_site_fract_y
 _atom_site_fract_z
 _atom_site_occupancy
  Zr  Zr0  1  0.666667  0.333333  0.000000  1
  Zr  Zr1  1  0.333333  0.666667  0.000000  1
  Zr  Zr2  1  0.820726  0.820726  0.500000  1
  Zr  Zr3  1  0.179274  0.000000  0.500000  1
  Zr  Zr4  1  0.000000  0.179274  0.500000  1
  Sc  Sc5  1  0.442791  0.442791  0.000000  1
  Sc  Sc6  1  0.557209  0.000000  0.000000  1
  Sc  Sc7  1  0.000000  0.557209  0.000000  1
  Co  Co8  1  0.194236  0.372363  0.000000  1
  Co  Co9  1  0.178126  0.805764  0.000000  1
  Co  Co10  1  0.821874  0.627637  0.000000  1
  Co  Co11  1  0.805764  0.178126  0.000000  1
  Co  Co12  1  0.372363  0.194236  0.000000  1
  Co  Co13  1  0.126161  0.480043  0.500000  1
  Co  Co14  1  0.353882  0.873839  0.500000  1
  Co  Co15  1  0.519957  0.646118  0.500000  1
  Co  Co16  1  0.646118  0.519957  0.500000  1
  Co  Co17  1  0.873839  0.353882  0.500000  1
  Co  Co18  1  0.480043  0.126161  0.500000  1
  Co  Co19  1  0.000000  0.000000  0.000000  1
  Co  Co20  1  0.720838  0.000000  0.500000  1
  Co  Co21  1  0.000000  0.720838  0.500000  1
  Co  Co22  1  0.627637  0.821874  0.000000  1
  Co  Co23  1  0.279162  0.279162  0.500000  1
  P  P24  1  0.650333  0.650333  0.000000  1
  P  P25  1  0.349667  0.000000  0.000000  1
  P  P26  1  0.000000  0.349667  0.000000  1
  P  P27  1  0.482431  0.310405  0.500000  1
  P  P28  1  0.689595  0.172026  0.500000  1
  P  P29  1  0.827974  0.517569  0.500000  1
  P  P30  1  0.517569  0.827974  0.500000  1
  P  P31  1  0.172026  0.689595  0.500000  1
  P  P32  1  0.824160  0.000000  0.000000  1
  P  P33  1  0.000000  0.824160  0.000000  1
  P  P34  1  0.310405  0.482431  0.500000  1
  P  P35  1  0.175840  0.175840  0.000000  1
