# generated using pymatgen
data_YbEr4(In2Ir)2
_symmetry_space_group_name_H-M   'P 1'
_cell_length_a   3.64908400
_cell_length_b   7.97296600
_cell_length_c   18.25300400
_cell_angle_alpha   90.00000000
_cell_angle_beta   90.00000000
_cell_angle_gamma   90.00000000
_symmetry_Int_Tables_number   1
_chemical_formula_structural   YbEr4(In2Ir)2
_chemical_formula_sum   'Yb2 Er8 In8 Ir4'
_cell_volume   531.05331205
_cell_formula_units_Z   2
loop_
 _symmetry_equiv_pos_site_id
 _symmetry_equiv_pos_as_xyz
  1  'x, y, z'
loop_
 _atom_site_type_symbol
 _atom_site_label
 _atom_site_symmetry_multiplicity
 _atom_site_fract_x
 _atom_site_fract_y
 _atom_site_fract_z
 _atom_site_occupancy
  Yb  Yb0  1  0.000000  0.500000  0.500000  1
  Yb  Yb1  1  0.000000  0.000000  0.000000  1
  Er  Er2  1  0.000000  0.746860  0.278173  1
  Er  Er3  1  0.000000  0.253140  0.721827  1
  Er  Er4  1  0.000000  0.753140  0.778173  1
  Er  Er5  1  0.000000  0.246860  0.221827  1
  Er  Er6  1  0.000000  0.618127  0.088766  1
  Er  Er7  1  0.000000  0.381873  0.911234  1
  Er  Er8  1  0.000000  0.881873  0.588766  1
  Er  Er9  1  0.000000  0.118127  0.411234  1
  In  In10  1  0.500000  0.704432  0.932117  1
  In  In11  1  0.500000  0.295568  0.067883  1
  In  In12  1  0.500000  0.795568  0.432117  1
  In  In13  1  0.500000  0.204432  0.567883  1
  In  In14  1  0.500000  0.569093  0.651001  1
  In  In15  1  0.500000  0.430907  0.348999  1
  In  In16  1  0.500000  0.930907  0.151001  1
  In  In17  1  0.500000  0.069093  0.848999  1
  Ir  Ir18  1  0.500000  0.522577  0.194938  1
  Ir  Ir19  1  0.500000  0.477423  0.805062  1
  Ir  Ir20  1  0.500000  0.977423  0.694938  1
  Ir  Ir21  1  0.500000  0.022577  0.305062  1
