# generated using pymatgen
data_Tm2Al9NiIr2
_symmetry_space_group_name_H-M   'P 1'
_cell_length_a   7.49411089
_cell_length_b   7.49410922
_cell_length_c   9.36289365
_cell_angle_alpha   89.81446558
_cell_angle_beta   89.81446811
_cell_angle_gamma   119.31490400
_symmetry_Int_Tables_number   1
_chemical_formula_structural   Tm2Al9NiIr2
_chemical_formula_sum   'Tm4 Al18 Ni2 Ir4'
_cell_volume   458.48894701
_cell_formula_units_Z   2
loop_
 _symmetry_equiv_pos_site_id
 _symmetry_equiv_pos_as_xyz
  1  'x, y, z'
loop_
 _atom_site_type_symbol
 _atom_site_label
 _atom_site_symmetry_multiplicity
 _atom_site_fract_x
 _atom_site_fract_y
 _atom_site_fract_z
 _atom_site_occupancy
  Tm  Tm0  1  0.995579  0.673446  0.250462  1
  Tm  Tm1  1  0.004421  0.326554  0.749538  1
  Tm  Tm2  1  0.673446  0.995579  0.250462  1
  Tm  Tm3  1  0.326554  0.004421  0.749538  1
  Al  Al4  1  0.130714  0.130714  0.248609  1
  Al  Al5  1  0.869286  0.869286  0.751391  1
  Al  Al6  1  0.997696  0.337504  0.074739  1
  Al  Al7  1  0.002304  0.662496  0.925261  1
  Al  Al8  1  0.998830  0.663514  0.575689  1
  Al  Al9  1  0.336486  0.001170  0.424311  1
  Al  Al10  1  0.001170  0.336486  0.424311  1
  Al  Al11  1  0.663514  0.998830  0.575689  1
  Al  Al12  1  0.662496  0.002304  0.925261  1
  Al  Al13  1  0.337504  0.997696  0.074739  1
  Al  Al14  1  0.333386  0.333386  0.552666  1
  Al  Al15  1  0.666614  0.666614  0.447334  1
  Al  Al16  1  0.665249  0.665249  0.053457  1
  Al  Al17  1  0.334751  0.334751  0.946543  1
  Al  Al18  1  0.340238  0.552262  0.246100  1
  Al  Al19  1  0.659762  0.447738  0.753900  1
  Al  Al20  1  0.552262  0.340238  0.246100  1
  Al  Al21  1  0.447738  0.659762  0.753900  1
  Ni  Ni22  1  0.672070  0.327930  0.000000  1
  Ni  Ni23  1  0.327930  0.672070  0.000000  1
  Ir  Ir24  1  0.328118  0.671882  0.500000  1
  Ir  Ir25  1  0.671882  0.328118  0.500000  1
  Ir  Ir26  1  0.000000  0.000000  0.000000  1
  Ir  Ir27  1  0.000000  0.000000  0.500000  1
