# generated using pymatgen
data_YTh2(CdPd)3
_symmetry_space_group_name_H-M   'P 1'
_cell_length_a   7.82955668
_cell_length_b   7.86261375
_cell_length_c   3.89056100
_cell_angle_alpha   90.00000000
_cell_angle_beta   90.00000000
_cell_angle_gamma   120.13975984
_symmetry_Int_Tables_number   1
_chemical_formula_structural   YTh2(CdPd)3
_chemical_formula_sum   'Y1 Th2 Cd3 Pd3'
_cell_volume   207.12552743
_cell_formula_units_Z   1
loop_
 _symmetry_equiv_pos_site_id
 _symmetry_equiv_pos_as_xyz
  1  'x, y, z'
loop_
 _atom_site_type_symbol
 _atom_site_label
 _atom_site_symmetry_multiplicity
 _atom_site_fract_x
 _atom_site_fract_y
 _atom_site_fract_z
 _atom_site_occupancy
  Y  Y0  1  0.000000  0.403491  0.000000  1
  Th  Th1  1  0.593380  0.595695  0.000000  1
  Th  Th2  1  0.406620  0.002315  0.000000  1
  Cd  Cd3  1  0.244651  0.257009  0.500000  1
  Cd  Cd4  1  0.755349  0.012358  0.500000  1
  Cd  Cd5  1  0.000000  0.731872  0.500000  1
  Pd  Pd6  1  0.000000  0.990268  0.000000  1
  Pd  Pd7  1  0.344170  0.675581  0.500000  1
  Pd  Pd8  1  0.655830  0.331410  0.500000  1
