# generated using pymatgen
data_Ba4CaEu(AlAs2)4
_symmetry_space_group_name_H-M   'P 1'
_cell_length_a   8.70595573
_cell_length_b   8.70595432
_cell_length_c   6.99024852
_cell_angle_alpha   92.02391583
_cell_angle_beta   92.02391161
_cell_angle_gamma   77.28216263
_symmetry_Int_Tables_number   1
_chemical_formula_structural   Ba4CaEu(AlAs2)4
_chemical_formula_sum   'Ba4 Ca1 Eu1 Al4 As8'
_cell_volume   516.28940885
_cell_formula_units_Z   1
loop_
 _symmetry_equiv_pos_site_id
 _symmetry_equiv_pos_as_xyz
  1  'x, y, z'
loop_
 _atom_site_type_symbol
 _atom_site_label
 _atom_site_symmetry_multiplicity
 _atom_site_fract_x
 _atom_site_fract_y
 _atom_site_fract_z
 _atom_site_occupancy
  Ba  Ba0  1  0.741698  0.003416  0.947865  1
  Ba  Ba1  1  0.996584  0.258302  0.552135  1
  Ba  Ba2  1  0.257114  0.996634  0.054301  1
  Ba  Ba3  1  0.003366  0.742886  0.445699  1
  Ca  Ca4  1  0.597570  0.402430  0.250000  1
  Eu  Eu5  1  0.400058  0.599942  0.750000  1
  Al  Al6  1  0.577029  0.825627  0.426273  1
  Al  Al7  1  0.174373  0.422971  0.073727  1
  Al  Al8  1  0.424921  0.176083  0.574836  1
  Al  Al9  1  0.823917  0.575079  0.925164  1
  As  As10  1  0.699487  0.064921  0.458700  1
  As  As11  1  0.935079  0.300513  0.041300  1
  As  As12  1  0.301509  0.937096  0.541576  1
  As  As13  1  0.062904  0.698491  0.958424  1
  As  As14  1  0.578919  0.721269  0.087773  1
  As  As15  1  0.278731  0.421081  0.412227  1
  As  As16  1  0.422389  0.275648  0.917466  1
  As  As17  1  0.724352  0.577611  0.582534  1
