# generated using pymatgen
data_Pr17Ho3(SnPb)8
_symmetry_space_group_name_H-M   'P 1'
_cell_length_a   8.37699900
_cell_length_b   16.20636900
_cell_length_c   8.48346504
_cell_angle_alpha   90.00000000
_cell_angle_beta   90.00577803
_cell_angle_gamma   90.00000000
_symmetry_Int_Tables_number   1
_chemical_formula_structural   Pr17Ho3(SnPb)8
_chemical_formula_sum   'Pr17 Ho3 Sn8 Pb8'
_cell_volume   1151.72145938
_cell_formula_units_Z   1
loop_
 _symmetry_equiv_pos_site_id
 _symmetry_equiv_pos_as_xyz
  1  'x, y, z'
loop_
 _atom_site_type_symbol
 _atom_site_label
 _atom_site_symmetry_multiplicity
 _atom_site_fract_x
 _atom_site_fract_y
 _atom_site_fract_z
 _atom_site_occupancy
  Pr  Pr0  1  0.622114  0.619787  0.160607  1
  Pr  Pr1  1  0.123561  0.879685  0.338571  1
  Pr  Pr2  1  0.377006  0.120644  0.839619  1
  Pr  Pr3  1  0.877073  0.378024  0.660672  1
  Pr  Pr4  1  0.377006  0.379356  0.839619  1
  Pr  Pr5  1  0.877073  0.121976  0.660672  1
  Pr  Pr6  1  0.622114  0.880213  0.160607  1
  Pr  Pr7  1  0.123561  0.620315  0.338571  1
  Pr  Pr8  1  0.468653  0.602555  0.679274  1
  Pr  Pr9  1  0.969295  0.897145  0.822587  1
  Pr  Pr10  1  0.531316  0.104218  0.321645  1
  Pr  Pr11  1  0.031187  0.396805  0.178355  1
  Pr  Pr12  1  0.531316  0.395782  0.321645  1
  Pr  Pr13  1  0.031187  0.103195  0.178355  1
  Pr  Pr14  1  0.468653  0.897445  0.679274  1
  Pr  Pr15  1  0.969295  0.602855  0.822587  1
  Pr  Pr16  1  0.793123  0.750000  0.497693  1
  Ho  Ho17  1  0.291004  0.750000  0.004069  1
  Ho  Ho18  1  0.209141  0.250000  0.502833  1
  Ho  Ho19  1  0.709241  0.250000  0.997155  1
  Sn  Sn20  1  0.421429  0.750000  0.379398  1
  Sn  Sn21  1  0.925707  0.750000  0.116277  1
  Sn  Sn22  1  0.573746  0.250000  0.620141  1
  Sn  Sn23  1  0.074926  0.250000  0.880821  1
  Sn  Sn24  1  0.663080  0.750000  0.858546  1
  Sn  Sn25  1  0.167956  0.750000  0.647767  1
  Sn  Sn26  1  0.334999  0.250000  0.145734  1
  Sn  Sn27  1  0.836147  0.250000  0.352392  1
  Pb  Pb28  1  0.718254  0.454359  0.969074  1
  Pb  Pb29  1  0.217893  0.045444  0.530070  1
  Pb  Pb30  1  0.281181  0.954986  0.030011  1
  Pb  Pb31  1  0.782221  0.542185  0.468102  1
  Pb  Pb32  1  0.281181  0.545014  0.030011  1
  Pb  Pb33  1  0.782221  0.957815  0.468102  1
  Pb  Pb34  1  0.718254  0.045641  0.969074  1
  Pb  Pb35  1  0.217893  0.454556  0.530070  1
