# generated using pymatgen
data_Er2Tm3VMoO12
_symmetry_space_group_name_H-M   'P 1'
_cell_length_a   6.74107240
_cell_length_b   6.74017871
_cell_length_c   7.23514568
_cell_angle_alpha   74.27999452
_cell_angle_beta   74.27776268
_cell_angle_gamma   51.80037545
_symmetry_Int_Tables_number   1
_chemical_formula_structural   Er2Tm3VMoO12
_chemical_formula_sum   'Er2 Tm3 V1 Mo1 O12'
_cell_volume   246.34311842
_cell_formula_units_Z   1
loop_
 _symmetry_equiv_pos_site_id
 _symmetry_equiv_pos_as_xyz
  1  'x, y, z'
loop_
 _atom_site_type_symbol
 _atom_site_label
 _atom_site_symmetry_multiplicity
 _atom_site_fract_x
 _atom_site_fract_y
 _atom_site_fract_z
 _atom_site_occupancy
  Er  Er0  1  0.692102  0.688241  0.175206  1
  Er  Er1  1  0.000076  0.999806  0.500285  1
  Tm  Tm2  1  0.310237  0.295648  0.362533  1
  Tm  Tm3  1  0.704415  0.689718  0.638275  1
  Tm  Tm4  1  0.312198  0.308386  0.824378  1
  V  V5  1  0.747194  0.252788  0.999664  1
  Mo  Mo6  1  0.234989  0.765030  0.999725  1
  O  O7  1  0.898898  0.425995  0.916635  1
  O  O8  1  0.432482  0.898735  0.915662  1
  O  O9  1  0.103324  0.565628  0.083067  1
  O  O10  1  0.572363  0.102840  0.082200  1
  O  O11  1  0.100282  0.592682  0.574849  1
  O  O12  1  0.596281  0.093464  0.575787  1
  O  O13  1  0.907363  0.403030  0.425598  1
  O  O14  1  0.406565  0.900513  0.426652  1
  O  O15  1  0.992404  0.007919  0.812357  1
  O  O16  1  0.991670  0.007069  0.187717  1
  O  O17  1  0.498390  0.501020  0.806927  1
  O  O18  1  0.498770  0.501486  0.192481  1
