# generated using pymatgen
data_Ho3Tm2Lu5Ru4
_symmetry_space_group_name_H-M   'P 1'
_cell_length_a   6.22704736
_cell_length_b   7.23110285
_cell_length_c   8.33074718
_cell_angle_alpha   97.11328214
_cell_angle_beta   111.89767260
_cell_angle_gamma   89.89234579
_symmetry_Int_Tables_number   1
_chemical_formula_structural   Ho3Tm2Lu5Ru4
_chemical_formula_sum   'Ho3 Tm2 Lu5 Ru4'
_cell_volume   344.97698802
_cell_formula_units_Z   1
loop_
 _symmetry_equiv_pos_site_id
 _symmetry_equiv_pos_as_xyz
  1  'x, y, z'
loop_
 _atom_site_type_symbol
 _atom_site_label
 _atom_site_symmetry_multiplicity
 _atom_site_fract_x
 _atom_site_fract_y
 _atom_site_fract_z
 _atom_site_occupancy
  Ho  Ho0  1  0.521493  0.083109  0.810925  1
  Ho  Ho1  1  0.477463  0.916639  0.188280  1
  Ho  Ho2  1  0.710510  0.417130  0.187926  1
  Tm  Tm3  1  0.290492  0.583781  0.812215  1
  Tm  Tm4  1  0.298819  0.314866  0.434135  1
  Lu  Lu5  1  0.702222  0.685757  0.566904  1
  Lu  Lu6  1  0.865387  0.185542  0.566357  1
  Lu  Lu7  1  0.135087  0.813791  0.434160  1
  Lu  Lu8  1  0.080035  0.250560  0.999408  1
  Lu  Lu9  1  0.919791  0.749403  0.999438  1
  Ru  Ru10  1  0.319410  0.576950  0.220998  1
  Ru  Ru11  1  0.678106  0.423615  0.778733  1
  Ru  Ru12  1  0.098634  0.922329  0.778034  1
  Ru  Ru13  1  0.902553  0.076528  0.222489  1
