# generated using pymatgen
data_HoTmB6Os
_symmetry_space_group_name_H-M   'P 1'
_cell_length_a   3.62803400
_cell_length_b   9.09305500
_cell_length_c   11.47508000
_cell_angle_alpha   90.00000000
_cell_angle_beta   90.00000000
_cell_angle_gamma   90.00000000
_symmetry_Int_Tables_number   1
_chemical_formula_structural   HoTmB6Os
_chemical_formula_sum   'Ho4 Tm4 B24 Os4'
_cell_volume   378.56188747
_cell_formula_units_Z   4
loop_
 _symmetry_equiv_pos_site_id
 _symmetry_equiv_pos_as_xyz
  1  'x, y, z'
loop_
 _atom_site_type_symbol
 _atom_site_label
 _atom_site_symmetry_multiplicity
 _atom_site_fract_x
 _atom_site_fract_y
 _atom_site_fract_z
 _atom_site_occupancy
  Ho  Ho0  1  0.000000  0.321716  0.414026  1
  Ho  Ho1  1  0.000000  0.678284  0.585974  1
  Ho  Ho2  1  0.000000  0.821716  0.085974  1
  Ho  Ho3  1  0.000000  0.178284  0.914026  1
  Tm  Tm4  1  0.000000  0.944096  0.373142  1
  Tm  Tm5  1  0.000000  0.055904  0.626859  1
  Tm  Tm6  1  0.000000  0.444096  0.126858  1
  Tm  Tm7  1  0.000000  0.555904  0.873141  1
  B  B8  1  0.500000  0.553976  0.433130  1
  B  B9  1  0.500000  0.446024  0.566870  1
  B  B10  1  0.500000  0.053976  0.066870  1
  B  B11  1  0.500000  0.946024  0.933130  1
  B  B12  1  0.500000  0.748908  0.419955  1
  B  B13  1  0.500000  0.251092  0.580045  1
  B  B14  1  0.500000  0.248908  0.080045  1
  B  B15  1  0.500000  0.751092  0.919955  1
  B  B16  1  0.500000  0.791632  0.266300  1
  B  B17  1  0.500000  0.208368  0.733700  1
  B  B18  1  0.500000  0.291631  0.233700  1
  B  B19  1  0.500000  0.708368  0.766300  1
  B  B20  1  0.500000  0.631342  0.184829  1
  B  B21  1  0.500000  0.368658  0.815171  1
  B  B22  1  0.500000  0.131342  0.315171  1
  B  B23  1  0.500000  0.868658  0.684829  1
  B  B24  1  0.500000  0.982753  0.213350  1
  B  B25  1  0.500000  0.017247  0.786650  1
  B  B26  1  0.500000  0.482753  0.286650  1
  B  B27  1  0.500000  0.517247  0.713350  1
  B  B28  1  0.500000  0.605948  0.029301  1
  B  B29  1  0.500000  0.394052  0.970699  1
  B  B30  1  0.500000  0.105948  0.470699  1
  B  B31  1  0.500000  0.894052  0.529301  1
  Os  Os32  1  0.000000  0.637868  0.320938  1
  Os  Os33  1  0.000000  0.362132  0.679062  1
  Os  Os34  1  0.000000  0.137868  0.179062  1
  Os  Os35  1  0.000000  0.862132  0.820938  1
