# generated using pymatgen
data_Y20Al3Ag3Os2
_symmetry_space_group_name_H-M   'P 1'
_cell_length_a   9.65336300
_cell_length_b   9.65336224
_cell_length_c   9.75262900
_cell_angle_alpha   90.00000000
_cell_angle_beta   90.00000000
_cell_angle_gamma   119.99999918
_symmetry_Int_Tables_number   1
_chemical_formula_structural   Y20Al3Ag3Os2
_chemical_formula_sum   'Y20 Al3 Ag3 Os2'
_cell_volume   787.06315029
_cell_formula_units_Z   1
loop_
 _symmetry_equiv_pos_site_id
 _symmetry_equiv_pos_as_xyz
  1  'x, y, z'
loop_
 _atom_site_type_symbol
 _atom_site_label
 _atom_site_symmetry_multiplicity
 _atom_site_fract_x
 _atom_site_fract_y
 _atom_site_fract_z
 _atom_site_occupancy
  Y  Y0  1  0.000000  0.000000  0.477574  1
  Y  Y1  1  0.000000  0.000000  0.022426  1
  Y  Y2  1  0.209974  0.790026  0.443326  1
  Y  Y3  1  0.209974  0.419949  0.443326  1
  Y  Y4  1  0.580051  0.790026  0.443326  1
  Y  Y5  1  0.793685  0.206315  0.562794  1
  Y  Y6  1  0.793685  0.587370  0.562794  1
  Y  Y7  1  0.412630  0.206315  0.562794  1
  Y  Y8  1  0.793685  0.206315  0.937206  1
  Y  Y9  1  0.793685  0.587370  0.937206  1
  Y  Y10  1  0.412630  0.206315  0.937206  1
  Y  Y11  1  0.209974  0.790026  0.056674  1
  Y  Y12  1  0.209974  0.419949  0.056674  1
  Y  Y13  1  0.580051  0.790026  0.056674  1
  Y  Y14  1  0.538275  0.461725  0.250000  1
  Y  Y15  1  0.538275  0.076550  0.250000  1
  Y  Y16  1  0.923450  0.461725  0.250000  1
  Y  Y17  1  0.460014  0.539986  0.750000  1
  Y  Y18  1  0.460014  0.920026  0.750000  1
  Y  Y19  1  0.079974  0.539986  0.750000  1
  Al  Al20  1  0.106088  0.893912  0.750000  1
  Al  Al21  1  0.106088  0.212174  0.750000  1
  Al  Al22  1  0.787826  0.893912  0.750000  1
  Ag  Ag23  1  0.876408  0.123592  0.250000  1
  Ag  Ag24  1  0.876408  0.752817  0.250000  1
  Ag  Ag25  1  0.247183  0.123592  0.250000  1
  Os  Os26  1  0.333333  0.666667  0.250000  1
  Os  Os27  1  0.666667  0.333333  0.750000  1
