# generated using pymatgen
data_Mn3Al12Si8Os
_symmetry_space_group_name_H-M   'P 1'
_cell_length_a   6.18857461
_cell_length_b   6.19685300
_cell_length_c   9.46224715
_cell_angle_alpha   90.00000000
_cell_angle_beta   90.08586451
_cell_angle_gamma   90.00000000
_symmetry_Int_Tables_number   1
_chemical_formula_structural   Mn3Al12Si8Os
_chemical_formula_sum   'Mn3 Al12 Si8 Os1'
_cell_volume   362.87381034
_cell_formula_units_Z   1
loop_
 _symmetry_equiv_pos_site_id
 _symmetry_equiv_pos_as_xyz
  1  'x, y, z'
loop_
 _atom_site_type_symbol
 _atom_site_label
 _atom_site_symmetry_multiplicity
 _atom_site_fract_x
 _atom_site_fract_y
 _atom_site_fract_z
 _atom_site_occupancy
  Mn  Mn0  1  0.500000  0.481720  0.750000  1
  Mn  Mn1  1  0.000000  0.981970  0.750000  1
  Mn  Mn2  1  0.500000  0.517347  0.250000  1
  Al  Al3  1  0.996390  0.000965  0.993626  1
  Al  Al4  1  0.500110  0.500072  0.998626  1
  Al  Al5  1  0.003610  0.000965  0.506374  1
  Al  Al6  1  0.499890  0.500072  0.501374  1
  Al  Al7  1  0.139625  0.629978  0.864621  1
  Al  Al8  1  0.633490  0.866198  0.133396  1
  Al  Al9  1  0.860375  0.629978  0.635379  1
  Al  Al10  1  0.366510  0.866198  0.366604  1
  Al  Al11  1  0.859777  0.378400  0.134225  1
  Al  Al12  1  0.362292  0.129980  0.864622  1
  Al  Al13  1  0.140223  0.378400  0.365775  1
  Al  Al14  1  0.637708  0.129980  0.635378  1
  Si  Si15  1  0.167895  0.668092  0.156177  1
  Si  Si16  1  0.662835  0.823360  0.838640  1
  Si  Si17  1  0.832105  0.668092  0.343823  1
  Si  Si18  1  0.337165  0.823360  0.661360  1
  Si  Si19  1  0.836374  0.325469  0.838220  1
  Si  Si20  1  0.347829  0.178113  0.158305  1
  Si  Si21  1  0.163626  0.325469  0.661780  1
  Si  Si22  1  0.652171  0.178113  0.341695  1
  Os  Os23  1  0.000000  0.017709  0.250000  1
