# generated using pymatgen
data_Y2Al2RuRh
_symmetry_space_group_name_H-M   'P 1'
_cell_length_a   4.17387000
_cell_length_b   6.95759527
_cell_length_c   8.02171106
_cell_angle_alpha   90.13456236
_cell_angle_beta   90.00000000
_cell_angle_gamma   90.00000000
_symmetry_Int_Tables_number   1
_chemical_formula_structural   Y2Al2RuRh
_chemical_formula_sum   'Y4 Al4 Ru2 Rh2'
_cell_volume   232.95063422
_cell_formula_units_Z   2
loop_
 _symmetry_equiv_pos_site_id
 _symmetry_equiv_pos_as_xyz
  1  'x, y, z'
loop_
 _atom_site_type_symbol
 _atom_site_label
 _atom_site_symmetry_multiplicity
 _atom_site_fract_x
 _atom_site_fract_y
 _atom_site_fract_z
 _atom_site_occupancy
  Y  Y0  1  0.250000  0.530390  0.178314  1
  Y  Y1  1  0.750000  0.469610  0.821686  1
  Y  Y2  1  0.750000  0.964924  0.682078  1
  Y  Y3  1  0.250000  0.035076  0.317922  1
  Al  Al4  1  0.250000  0.639685  0.561246  1
  Al  Al5  1  0.750000  0.360315  0.438754  1
  Al  Al6  1  0.750000  0.859925  0.059282  1
  Al  Al7  1  0.250000  0.140075  0.940718  1
  Ru  Ru8  1  0.250000  0.770002  0.879157  1
  Ru  Ru9  1  0.750000  0.229998  0.120843  1
  Rh  Rh10  1  0.750000  0.727801  0.381085  1
  Rh  Rh11  1  0.250000  0.272199  0.618915  1
