# generated using pymatgen
data_Ho8TiRe(Si8Tc5)2
_symmetry_space_group_name_H-M   'P 1'
_cell_length_a   6.77272975
_cell_length_b   6.77285599
_cell_length_c   12.80327596
_cell_angle_alpha   90.15282172
_cell_angle_beta   89.86860521
_cell_angle_gamma   90.29906467
_symmetry_Int_Tables_number   1
_chemical_formula_structural   Ho8TiRe(Si8Tc5)2
_chemical_formula_sum   'Ho8 Ti1 Re1 Si16 Tc10'
_cell_volume   587.28391330
_cell_formula_units_Z   1
loop_
 _symmetry_equiv_pos_site_id
 _symmetry_equiv_pos_as_xyz
  1  'x, y, z'
loop_
 _atom_site_type_symbol
 _atom_site_label
 _atom_site_symmetry_multiplicity
 _atom_site_fract_x
 _atom_site_fract_y
 _atom_site_fract_z
 _atom_site_occupancy
  Ho  Ho0  1  0.331284  0.991460  0.467694  1
  Ho  Ho1  1  0.501450  0.838808  0.722691  1
  Ho  Ho2  1  0.492655  0.160017  0.217445  1
  Ho  Ho3  1  0.838381  0.500885  0.277540  1
  Ho  Ho4  1  0.159684  0.492633  0.782042  1
  Ho  Ho5  1  0.663406  0.011541  0.967754  1
  Ho  Ho6  1  0.990952  0.331350  0.532437  1
  Ho  Ho7  1  0.011170  0.663647  0.032164  1
  Ti  Ti8  1  0.662125  0.661946  0.500225  1
  Re  Re9  1  0.833606  0.163128  0.748966  1
  Si  Si10  1  0.191314  0.112953  0.684460  1
  Si  Si11  1  0.387372  0.696168  0.933219  1
  Si  Si12  1  0.621101  0.294281  0.432677  1
  Si  Si13  1  0.695951  0.387532  0.067033  1
  Si  Si14  1  0.294235  0.621256  0.567046  1
  Si  Si15  1  0.808394  0.888188  0.186030  1
  Si  Si16  1  0.113189  0.190760  0.314872  1
  Si  Si17  1  0.888549  0.808086  0.814694  1
  Si  Si18  1  0.276009  0.984214  0.058596  1
  Si  Si19  1  0.515918  0.768719  0.305496  1
  Si  Si20  1  0.485655  0.240343  0.810236  1
  Si  Si21  1  0.767645  0.516237  0.694622  1
  Si  Si22  1  0.238922  0.485414  0.189902  1
  Si  Si23  1  0.707684  0.029883  0.567216  1
  Si  Si24  1  0.983875  0.276131  0.940853  1
  Si  Si25  1  0.029718  0.707400  0.433028  1
  Tc  Tc26  1  0.338198  0.338110  0.999236  1
  Tc  Tc27  1  0.162830  0.832873  0.251617  1
  Tc  Tc28  1  0.186510  0.987652  0.869029  1
  Tc  Tc29  1  0.524043  0.694299  0.114562  1
  Tc  Tc30  1  0.482196  0.323058  0.616210  1
  Tc  Tc31  1  0.695073  0.524774  0.886193  1
  Tc  Tc32  1  0.323138  0.482318  0.383367  1
  Tc  Tc33  1  0.815019  0.994512  0.377230  1
  Tc  Tc34  1  0.988028  0.185187  0.130414  1
  Tc  Tc35  1  0.994721  0.814231  0.623205  1
