# generated using pymatgen
data_Tb8Tm11Si16Tc
_symmetry_space_group_name_H-M   'P 1'
_cell_length_a   7.24092701
_cell_length_b   7.62199036
_cell_length_c   14.35363500
_cell_angle_alpha   90.00000000
_cell_angle_beta   90.00000000
_cell_angle_gamma   90.09163512
_symmetry_Int_Tables_number   1
_chemical_formula_structural   Tb8Tm11Si16Tc
_chemical_formula_sum   'Tb8 Tm11 Si16 Tc1'
_cell_volume   792.18006227
_cell_formula_units_Z   1
loop_
 _symmetry_equiv_pos_site_id
 _symmetry_equiv_pos_as_xyz
  1  'x, y, z'
loop_
 _atom_site_type_symbol
 _atom_site_label
 _atom_site_symmetry_multiplicity
 _atom_site_fract_x
 _atom_site_fract_y
 _atom_site_fract_z
 _atom_site_occupancy
  Tb  Tb0  1  0.019257  0.182170  0.092578  1
  Tb  Tb1  1  0.987378  0.812710  0.898512  1
  Tb  Tb2  1  0.480019  0.674965  0.902107  1
  Tb  Tb3  1  0.987378  0.812710  0.601488  1
  Tb  Tb4  1  0.520275  0.318539  0.095804  1
  Tb  Tb5  1  0.019257  0.182170  0.407422  1
  Tb  Tb6  1  0.520275  0.318539  0.404196  1
  Tb  Tb7  1  0.480019  0.674965  0.597893  1
  Tm  Tm8  1  0.844884  0.489588  0.250000  1
  Tm  Tm9  1  0.347076  0.011707  0.250000  1
  Tm  Tm10  1  0.650829  0.984469  0.750000  1
  Tm  Tm11  1  0.319318  0.181776  0.628016  1
  Tm  Tm12  1  0.678513  0.822502  0.376864  1
  Tm  Tm13  1  0.177032  0.676293  0.379829  1
  Tm  Tm14  1  0.678513  0.822502  0.123136  1
  Tm  Tm15  1  0.822678  0.329378  0.628928  1
  Tm  Tm16  1  0.319318  0.181776  0.871984  1
  Tm  Tm17  1  0.822678  0.329378  0.871072  1
  Tm  Tm18  1  0.177032  0.676293  0.120171  1
  Si  Si19  1  0.022394  0.102199  0.750000  1
  Si  Si20  1  0.976660  0.893001  0.250000  1
  Si  Si21  1  0.470814  0.609648  0.250000  1
  Si  Si22  1  0.508584  0.410481  0.750000  1
  Si  Si23  1  0.275064  0.850684  0.750000  1
  Si  Si24  1  0.729122  0.129118  0.250000  1
  Si  Si25  1  0.223881  0.373252  0.250000  1
  Si  Si26  1  0.789859  0.629170  0.750000  1
  Si  Si27  1  0.151352  0.472595  0.550435  1
  Si  Si28  1  0.846383  0.531855  0.464345  1
  Si  Si29  1  0.350325  0.970155  0.463809  1
  Si  Si30  1  0.846383  0.531855  0.035655  1
  Si  Si31  1  0.654022  0.031991  0.540503  1
  Si  Si32  1  0.151352  0.472595  0.949565  1
  Si  Si33  1  0.654022  0.031991  0.959497  1
  Si  Si34  1  0.350325  0.970155  0.036191  1
  Tc  Tc35  1  0.147732  0.506825  0.750000  1
