# generated using pymatgen
data_Th10Sn5BiP
_symmetry_space_group_name_H-M   'P 1'
_cell_length_a   6.46819967
_cell_length_b   9.48729376
_cell_length_c   9.48205800
_cell_angle_alpha   120.01828002
_cell_angle_beta   89.97394841
_cell_angle_gamma   90.05208254
_symmetry_Int_Tables_number   1
_chemical_formula_structural   Th10Sn5BiP
_chemical_formula_sum   'Th10 Sn5 Bi1 P1'
_cell_volume   503.82393819
_cell_formula_units_Z   1
loop_
 _symmetry_equiv_pos_site_id
 _symmetry_equiv_pos_as_xyz
  1  'x, y, z'
loop_
 _atom_site_type_symbol
 _atom_site_label
 _atom_site_symmetry_multiplicity
 _atom_site_fract_x
 _atom_site_fract_y
 _atom_site_fract_z
 _atom_site_occupancy
  Th  Th0  1  0.498458  0.330952  0.663381  1
  Th  Th1  1  0.498458  0.667571  0.336619  1
  Th  Th2  1  0.001545  0.667219  0.336279  1
  Th  Th3  1  0.001545  0.330941  0.663721  1
  Th  Th4  1  0.751962  0.252162  0.000000  1
  Th  Th5  1  0.751406  0.746500  0.742355  1
  Th  Th6  1  0.751406  0.004144  0.257645  1
  Th  Th7  1  0.248010  0.746658  0.000000  1
  Th  Th8  1  0.248518  0.254575  0.254999  1
  Th  Th9  1  0.248518  0.999576  0.745001  1
  Sn  Sn10  1  0.750239  0.388515  0.387935  1
  Sn  Sn11  1  0.750239  0.000579  0.612065  1
  Sn  Sn12  1  0.250465  0.387312  0.000000  1
  Sn  Sn13  1  0.249424  0.612370  0.612731  1
  Sn  Sn14  1  0.249424  0.999639  0.387269  1
  Bi  Bi15  1  0.749794  0.612280  0.000000  1
  P  P16  1  0.500584  0.999010  0.000000  1
