# generated using pymatgen
data_Pr5Nd3Sc12Ga5Si11
_symmetry_space_group_name_H-M   'P 1'
_cell_length_a   7.29719987
_cell_length_b   7.54358007
_cell_length_c   14.43654964
_cell_angle_alpha   90.00597489
_cell_angle_beta   90.07458341
_cell_angle_gamma   90.09106984
_symmetry_Int_Tables_number   1
_chemical_formula_structural   Pr5Nd3Sc12Ga5Si11
_chemical_formula_sum   'Pr5 Nd3 Sc12 Ga5 Si11'
_cell_volume   794.68723268
_cell_formula_units_Z   1
loop_
 _symmetry_equiv_pos_site_id
 _symmetry_equiv_pos_as_xyz
  1  'x, y, z'
loop_
 _atom_site_type_symbol
 _atom_site_label
 _atom_site_symmetry_multiplicity
 _atom_site_fract_x
 _atom_site_fract_y
 _atom_site_fract_z
 _atom_site_occupancy
  Pr  Pr0  1  0.488435  0.673741  0.598286  1
  Pr  Pr1  1  0.988503  0.826412  0.598217  1
  Pr  Pr2  1  0.987411  0.830464  0.900366  1
  Pr  Pr3  1  0.511738  0.327434  0.100031  1
  Pr  Pr4  1  0.010156  0.172157  0.100176  1
  Nd  Nd5  1  0.012983  0.172511  0.399952  1
  Nd  Nd6  1  0.512845  0.327637  0.400070  1
  Nd  Nd7  1  0.489189  0.673446  0.899301  1
  Sc  Sc8  1  0.328768  0.173313  0.625752  1
  Sc  Sc9  1  0.670766  0.823250  0.374122  1
  Sc  Sc10  1  0.662993  0.002135  0.751713  1
  Sc  Sc11  1  0.170553  0.676805  0.373903  1
  Sc  Sc12  1  0.826848  0.323783  0.873816  1
  Sc  Sc13  1  0.828914  0.326136  0.625786  1
  Sc  Sc14  1  0.837739  0.502759  0.251453  1
  Sc  Sc15  1  0.338316  0.996657  0.252106  1
  Sc  Sc16  1  0.332273  0.174997  0.872683  1
  Sc  Sc17  1  0.170444  0.673853  0.127760  1
  Sc  Sc18  1  0.669846  0.826127  0.126756  1
  Sc  Sc19  1  0.161872  0.496816  0.750628  1
  Ga  Ga20  1  0.154186  0.458428  0.538475  1
  Ga  Ga21  1  0.844562  0.541932  0.039806  1
  Ga  Ga22  1  0.345224  0.957895  0.038903  1
  Ga  Ga23  1  0.155995  0.458422  0.959441  1
  Ga  Ga24  1  0.654264  0.041869  0.538466  1
  Si  Si25  1  0.287597  0.881838  0.749902  1
  Si  Si26  1  0.466295  0.623460  0.251152  1
  Si  Si27  1  0.033858  0.124332  0.749365  1
  Si  Si28  1  0.533654  0.377935  0.749507  1
  Si  Si29  1  0.966224  0.877203  0.250661  1
  Si  Si30  1  0.711101  0.117995  0.251291  1
  Si  Si31  1  0.347485  0.961680  0.459452  1
  Si  Si32  1  0.847625  0.538404  0.459489  1
  Si  Si33  1  0.788576  0.617347  0.749757  1
  Si  Si34  1  0.211356  0.381834  0.251076  1
  Si  Si35  1  0.651407  0.038997  0.960384  1
