# generated using pymatgen
data_Tm8Fe(B8Mo)3
_symmetry_space_group_name_H-M   'P 1'
_cell_length_a   3.56383200
_cell_length_b   9.18961144
_cell_length_c   11.57504060
_cell_angle_alpha   90.15521199
_cell_angle_beta   90.00000000
_cell_angle_gamma   90.00000000
_symmetry_Int_Tables_number   1
_chemical_formula_structural   Tm8Fe(B8Mo)3
_chemical_formula_sum   'Tm8 Fe1 B24 Mo3'
_cell_volume   379.08386637
_cell_formula_units_Z   1
loop_
 _symmetry_equiv_pos_site_id
 _symmetry_equiv_pos_as_xyz
  1  'x, y, z'
loop_
 _atom_site_type_symbol
 _atom_site_label
 _atom_site_symmetry_multiplicity
 _atom_site_fract_x
 _atom_site_fract_y
 _atom_site_fract_z
 _atom_site_occupancy
  Tm  Tm0  1  0.000000  0.821045  0.086305  1
  Tm  Tm1  1  0.000000  0.178376  0.913963  1
  Tm  Tm2  1  0.000000  0.321882  0.416007  1
  Tm  Tm3  1  0.000000  0.676166  0.586721  1
  Tm  Tm4  1  0.000000  0.443704  0.127194  1
  Tm  Tm5  1  0.000000  0.553093  0.867493  1
  Tm  Tm6  1  0.000000  0.945343  0.373129  1
  Tm  Tm7  1  0.000000  0.062024  0.630105  1
  Fe  Fe8  1  0.000000  0.360862  0.679624  1
  B  B9  1  0.500000  0.050852  0.064608  1
  B  B10  1  0.500000  0.948270  0.934429  1
  B  B11  1  0.500000  0.549762  0.437481  1
  B  B12  1  0.500000  0.443996  0.569289  1
  B  B13  1  0.500000  0.251431  0.076737  1
  B  B14  1  0.500000  0.747084  0.921051  1
  B  B15  1  0.500000  0.752897  0.423600  1
  B  B16  1  0.500000  0.253977  0.583305  1
  B  B17  1  0.500000  0.295675  0.236169  1
  B  B18  1  0.500000  0.703194  0.761407  1
  B  B19  1  0.500000  0.794872  0.263991  1
  B  B20  1  0.500000  0.211463  0.734199  1
  B  B21  1  0.500000  0.132899  0.318207  1
  B  B22  1  0.500000  0.869225  0.681403  1
  B  B23  1  0.500000  0.630866  0.182963  1
  B  B24  1  0.500000  0.368274  0.812637  1
  B  B25  1  0.500000  0.477726  0.287991  1
  B  B26  1  0.500000  0.512786  0.710735  1
  B  B27  1  0.500000  0.978126  0.213010  1
  B  B28  1  0.500000  0.023392  0.787455  1
  B  B29  1  0.500000  0.104741  0.473472  1
  B  B30  1  0.500000  0.900912  0.529084  1
  B  B31  1  0.500000  0.600929  0.026705  1
  B  B32  1  0.500000  0.396774  0.969035  1
  Mo  Mo33  1  0.000000  0.138992  0.179811  1
  Mo  Mo34  1  0.000000  0.860109  0.818550  1
  Mo  Mo35  1  0.000000  0.638282  0.322136  1
