# generated using pymatgen
data_Rb3AuSe13
_symmetry_space_group_name_H-M   'P 1'
_cell_length_a   5.37477100
_cell_length_b   13.99632729
_cell_length_c   15.56143459
_cell_angle_alpha   85.57057324
_cell_angle_beta   90.00000000
_cell_angle_gamma   90.00000000
_symmetry_Int_Tables_number   1
_chemical_formula_structural   Rb3AuSe13
_chemical_formula_sum   'Rb6 Au2 Se26'
_cell_volume   1167.14443220
_cell_formula_units_Z   2
loop_
 _symmetry_equiv_pos_site_id
 _symmetry_equiv_pos_as_xyz
  1  'x, y, z'
loop_
 _atom_site_type_symbol
 _atom_site_label
 _atom_site_symmetry_multiplicity
 _atom_site_fract_x
 _atom_site_fract_y
 _atom_site_fract_z
 _atom_site_occupancy
  Rb  Rb0  1  0.206010  0.162352  0.720295  1
  Rb  Rb1  1  0.206010  0.337648  0.279705  1
  Rb  Rb2  1  0.169384  0.250000  0.000000  1
  Rb  Rb3  1  0.830616  0.750000  0.000000  1
  Rb  Rb4  1  0.793990  0.837648  0.279705  1
  Rb  Rb5  1  0.793990  0.662352  0.720295  1
  Au  Au6  1  0.000000  0.500000  0.500000  1
  Au  Au7  1  0.000000  0.000000  0.500000  1
  Se  Se8  1  0.290169  0.547176  0.617680  1
  Se  Se9  1  0.651246  0.575508  0.269431  1
  Se  Se10  1  0.348754  0.075508  0.269431  1
  Se  Se11  1  0.348754  0.424492  0.730569  1
  Se  Se12  1  0.913859  0.533737  0.152117  1
  Se  Se13  1  0.913859  0.966263  0.847883  1
  Se  Se14  1  0.086141  0.466263  0.847883  1
  Se  Se15  1  0.086141  0.033737  0.152117  1
  Se  Se16  1  0.683645  0.420567  0.075875  1
  Se  Se17  1  0.651246  0.924492  0.730569  1
  Se  Se18  1  0.316355  0.579433  0.924125  1
  Se  Se19  1  0.316355  0.920567  0.075875  1
  Se  Se20  1  0.693469  0.266988  0.150160  1
  Se  Se21  1  0.693469  0.233012  0.849840  1
  Se  Se22  1  0.306531  0.733012  0.849840  1
  Se  Se23  1  0.306531  0.766988  0.150160  1
  Se  Se24  1  0.098856  0.656700  0.415273  1
  Se  Se25  1  0.098856  0.843300  0.584727  1
  Se  Se26  1  0.901144  0.343300  0.584727  1
  Se  Se27  1  0.901144  0.156700  0.415273  1
  Se  Se28  1  0.641104  0.250000  0.500000  1
  Se  Se29  1  0.358896  0.750000  0.500000  1
  Se  Se30  1  0.709831  0.452824  0.382320  1
  Se  Se31  1  0.709831  0.047176  0.617680  1
  Se  Se32  1  0.683645  0.079433  0.924125  1
  Se  Se33  1  0.290169  0.952824  0.382320  1
