# generated using pymatgen
data_Nd9Tm(Sn3Br)2
_symmetry_space_group_name_H-M   'P 1'
_cell_length_a   9.48539700
_cell_length_b   9.48539832
_cell_length_c   6.80062300
_cell_angle_alpha   90.00000000
_cell_angle_beta   90.00000000
_cell_angle_gamma   119.99999889
_symmetry_Int_Tables_number   1
_chemical_formula_structural   Nd9Tm(Sn3Br)2
_chemical_formula_sum   'Nd9 Tm1 Sn6 Br2'
_cell_volume   529.89573228
_cell_formula_units_Z   1
loop_
 _symmetry_equiv_pos_site_id
 _symmetry_equiv_pos_as_xyz
  1  'x, y, z'
loop_
 _atom_site_type_symbol
 _atom_site_label
 _atom_site_symmetry_multiplicity
 _atom_site_fract_x
 _atom_site_fract_y
 _atom_site_fract_z
 _atom_site_occupancy
  Nd  Nd0  1  0.267448  0.267948  0.749343  1
  Nd  Nd1  1  0.000500  0.732552  0.749343  1
  Nd  Nd2  1  0.732052  0.999500  0.749343  1
  Nd  Nd3  1  0.000500  0.267948  0.250657  1
  Nd  Nd4  1  0.732052  0.732552  0.250657  1
  Nd  Nd5  1  0.666667  0.333333  0.500000  1
  Nd  Nd6  1  0.267448  0.999500  0.250657  1
  Nd  Nd7  1  0.333333  0.666667  0.000000  1
  Nd  Nd8  1  0.666667  0.333333  0.000000  1
  Tm  Tm9  1  0.333333  0.666667  0.500000  1
  Sn  Sn10  1  0.610619  0.997374  0.251858  1
  Sn  Sn11  1  0.002626  0.389381  0.748142  1
  Sn  Sn12  1  0.386754  0.997374  0.748142  1
  Sn  Sn13  1  0.610619  0.613246  0.748142  1
  Sn  Sn14  1  0.002626  0.613246  0.251858  1
  Sn  Sn15  1  0.386754  0.389381  0.251858  1
  Br  Br16  1  0.000000  0.000000  0.000000  1
  Br  Br17  1  0.000000  0.000000  0.500000  1
