# generated using pymatgen
data_Er16Cd4Ru2PtRh
_symmetry_space_group_name_H-M   'P 1'
_cell_length_a   9.57138801
_cell_length_b   9.56130068
_cell_length_c   9.61808300
_cell_angle_alpha   59.80334854
_cell_angle_beta   59.83848203
_cell_angle_gamma   59.64367232
_symmetry_Int_Tables_number   1
_chemical_formula_structural   Er16Cd4Ru2PtRh
_chemical_formula_sum   'Er16 Cd4 Ru2 Pt1 Rh1'
_cell_volume   619.02413283
_cell_formula_units_Z   1
loop_
 _symmetry_equiv_pos_site_id
 _symmetry_equiv_pos_as_xyz
  1  'x, y, z'
loop_
 _atom_site_type_symbol
 _atom_site_label
 _atom_site_symmetry_multiplicity
 _atom_site_fract_x
 _atom_site_fract_y
 _atom_site_fract_z
 _atom_site_occupancy
  Er  Er0  1  0.347809  0.350817  0.349656  1
  Er  Er1  1  0.347809  0.350817  0.951721  1
  Er  Er2  1  0.346488  0.955756  0.348878  1
  Er  Er3  1  0.957724  0.346593  0.347842  1
  Er  Er4  1  0.814777  0.188188  0.190696  1
  Er  Er5  1  0.187204  0.812670  0.810395  1
  Er  Er6  1  0.187204  0.812670  0.189732  1
  Er  Er7  1  0.814777  0.188188  0.806339  1
  Er  Er8  1  0.188467  0.187842  0.811846  1
  Er  Er9  1  0.811641  0.806049  0.191155  1
  Er  Er10  1  0.937295  0.559922  0.564949  1
  Er  Er11  1  0.558682  0.937567  0.937232  1
  Er  Er12  1  0.558682  0.937567  0.566519  1
  Er  Er13  1  0.937295  0.559922  0.937835  1
  Er  Er14  1  0.562592  0.565064  0.936172  1
  Er  Er15  1  0.938104  0.938139  0.561879  1
  Cd  Cd16  1  0.579825  0.579904  0.581627  1
  Cd  Cd17  1  0.579825  0.579904  0.258644  1
  Cd  Cd18  1  0.580850  0.255849  0.581650  1
  Cd  Cd19  1  0.255382  0.581103  0.581757  1
  Ru  Ru20  1  0.144470  0.143130  0.137156  1
  Ru  Ru21  1  0.144470  0.143130  0.575243  1
  Pt  Pt22  1  0.574835  0.144137  0.140513  1
  Rh  Rh23  1  0.143797  0.575076  0.140563  1
