# generated using pymatgen
data_Er8Ti12Si15Se
_symmetry_space_group_name_H-M   'P 1'
_cell_length_a   7.03345362
_cell_length_b   7.01804424
_cell_length_c   12.90987792
_cell_angle_alpha   89.92039124
_cell_angle_beta   89.66972746
_cell_angle_gamma   89.88483335
_symmetry_Int_Tables_number   1
_chemical_formula_structural   Er8Ti12Si15Se
_chemical_formula_sum   'Er8 Ti12 Si15 Se1'
_cell_volume   637.23314949
_cell_formula_units_Z   1
loop_
 _symmetry_equiv_pos_site_id
 _symmetry_equiv_pos_as_xyz
  1  'x, y, z'
loop_
 _atom_site_type_symbol
 _atom_site_label
 _atom_site_symmetry_multiplicity
 _atom_site_fract_x
 _atom_site_fract_y
 _atom_site_fract_z
 _atom_site_occupancy
  Er  Er0  1  0.342510  0.000715  0.465092  1
  Er  Er1  1  0.498067  0.843329  0.717892  1
  Er  Er2  1  0.501317  0.158243  0.216391  1
  Er  Er3  1  0.841087  0.497808  0.283181  1
  Er  Er4  1  0.158595  0.500824  0.783378  1
  Er  Er5  1  0.661118  0.994545  0.968317  1
  Er  Er6  1  0.997496  0.345130  0.530745  1
  Er  Er7  1  0.998625  0.658966  0.033509  1
  Ti  Ti8  1  0.325800  0.326620  0.999881  1
  Ti  Ti9  1  0.173039  0.827056  0.250079  1
  Ti  Ti10  1  0.822660  0.173493  0.750097  1
  Ti  Ti11  1  0.673089  0.672300  0.500181  1
  Ti  Ti12  1  0.155011  0.009055  0.874497  1
  Ti  Ti13  1  0.492149  0.651867  0.125366  1
  Ti  Ti14  1  0.508129  0.347879  0.627009  1
  Ti  Ti15  1  0.655562  0.496903  0.875974  1
  Ti  Ti16  1  0.347431  0.506485  0.374379  1
  Ti  Ti17  1  0.847628  0.992684  0.375039  1
  Ti  Ti18  1  0.007548  0.151559  0.124755  1
  Ti  Ti19  1  0.988829  0.842374  0.622966  1
  Si  Si20  1  0.367522  0.703560  0.933161  1
  Si  Si21  1  0.630445  0.297902  0.433929  1
  Si  Si22  1  0.703202  0.369042  0.067185  1
  Si  Si23  1  0.297253  0.631367  0.566766  1
  Si  Si24  1  0.796818  0.869193  0.183779  1
  Si  Si25  1  0.131301  0.202854  0.316909  1
  Si  Si26  1  0.869596  0.797656  0.815960  1
  Si  Si27  1  0.291631  0.953204  0.064307  1
  Si  Si28  1  0.546783  0.790743  0.314250  1
  Si  Si29  1  0.468376  0.212433  0.822927  1
  Si  Si30  1  0.791433  0.545959  0.685238  1
  Si  Si31  1  0.208468  0.453323  0.185734  1
  Si  Si32  1  0.707496  0.045956  0.563689  1
  Si  Si33  1  0.954054  0.291437  0.935669  1
  Si  Si34  1  0.046445  0.708929  0.434731  1
  Se  Se35  1  0.193488  0.128609  0.677038  1
