# generated using pymatgen
data_Nb7Fe3Co5Si14Mo
_symmetry_space_group_name_H-M   'P 1'
_cell_length_a   9.21671693
_cell_length_b   9.21644364
_cell_length_c   9.21612070
_cell_angle_alpha   94.27602968
_cell_angle_beta   94.21022628
_cell_angle_gamma   148.43834237
_symmetry_Int_Tables_number   1
_chemical_formula_structural   Nb7Fe3Co5Si14Mo
_chemical_formula_sum   'Nb7 Fe3 Co5 Si14 Mo1'
_cell_volume   394.30852582
_cell_formula_units_Z   1
loop_
 _symmetry_equiv_pos_site_id
 _symmetry_equiv_pos_as_xyz
  1  'x, y, z'
loop_
 _atom_site_type_symbol
 _atom_site_label
 _atom_site_symmetry_multiplicity
 _atom_site_fract_x
 _atom_site_fract_y
 _atom_site_fract_z
 _atom_site_occupancy
  Nb  Nb0  1  0.867064  0.867983  0.733292  1
  Nb  Nb1  1  0.864433  0.134583  0.998409  1
  Nb  Nb2  1  0.134117  0.864833  0.998685  1
  Nb  Nb3  1  0.499852  0.691297  0.192450  1
  Nb  Nb4  1  0.499461  0.308930  0.809537  1
  Nb  Nb5  1  0.310582  0.500550  0.809232  1
  Nb  Nb6  1  0.693040  0.500933  0.191873  1
  Fe  Fe7  1  0.900761  0.098238  0.498985  1
  Fe  Fe8  1  0.900126  0.400766  0.801644  1
  Fe  Fe9  1  0.599363  0.099918  0.199054  1
  Co  Co10  1  0.397252  0.897006  0.796159  1
  Co  Co11  1  0.103221  0.603032  0.204532  1
  Co  Co12  1  0.101481  0.897882  0.498803  1
  Co  Co13  1  0.396468  0.600399  0.499250  1
  Co  Co14  1  0.599105  0.399874  0.499535  1
  Si  Si15  1  0.291873  0.291554  0.581864  1
  Si  Si16  1  0.706476  0.706235  0.415748  1
  Si  Si17  1  0.708105  0.291267  0.000192  1
  Si  Si18  1  0.292397  0.708623  0.000085  1
  Si  Si19  1  0.996419  0.289981  0.295773  1
  Si  Si20  1  0.995681  0.698309  0.702092  1
  Si  Si21  1  0.707398  0.005252  0.701751  1
  Si  Si22  1  0.298448  0.005450  0.295618  1
  Si  Si23  1  0.512669  0.919751  0.406211  1
  Si  Si24  1  0.506996  0.100737  0.595834  1
  Si  Si25  1  0.081406  0.487235  0.594524  1
  Si  Si26  1  0.899090  0.491589  0.404929  1
  Si  Si27  1  0.752779  0.752865  0.003232  1
  Si  Si28  1  0.250530  0.250584  0.002922  1
  Mo  Mo29  1  0.133410  0.134342  0.267787  1
