# generated using pymatgen
data_Tm20Cd6TcNi
_symmetry_space_group_name_H-M   'P 1'
_cell_length_a   9.43881500
_cell_length_b   9.43881512
_cell_length_c   9.72375400
_cell_angle_alpha   90.00000000
_cell_angle_beta   90.00000000
_cell_angle_gamma   119.99999607
_symmetry_Int_Tables_number   1
_chemical_formula_structural   Tm20Cd6TcNi
_chemical_formula_sum   'Tm20 Cd6 Tc1 Ni1'
_cell_volume   750.23887762
_cell_formula_units_Z   1
loop_
 _symmetry_equiv_pos_site_id
 _symmetry_equiv_pos_as_xyz
  1  'x, y, z'
loop_
 _atom_site_type_symbol
 _atom_site_label
 _atom_site_symmetry_multiplicity
 _atom_site_fract_x
 _atom_site_fract_y
 _atom_site_fract_z
 _atom_site_occupancy
  Tm  Tm0  1  0.000000  0.000000  0.500420  1
  Tm  Tm1  1  0.000000  0.000000  0.999580  1
  Tm  Tm2  1  0.540757  0.459243  0.250000  1
  Tm  Tm3  1  0.540757  0.081514  0.250000  1
  Tm  Tm4  1  0.918486  0.459243  0.250000  1
  Tm  Tm5  1  0.457490  0.542510  0.750000  1
  Tm  Tm6  1  0.457490  0.914981  0.750000  1
  Tm  Tm7  1  0.085019  0.542510  0.750000  1
  Tm  Tm8  1  0.209473  0.790527  0.441358  1
  Tm  Tm9  1  0.209473  0.418945  0.441358  1
  Tm  Tm10  1  0.581055  0.790527  0.441358  1
  Tm  Tm11  1  0.788660  0.211340  0.561914  1
  Tm  Tm12  1  0.788660  0.577321  0.561914  1
  Tm  Tm13  1  0.422679  0.211340  0.561914  1
  Tm  Tm14  1  0.788660  0.211340  0.938086  1
  Tm  Tm15  1  0.788660  0.577321  0.938086  1
  Tm  Tm16  1  0.422679  0.211340  0.938086  1
  Tm  Tm17  1  0.209473  0.790527  0.058642  1
  Tm  Tm18  1  0.209473  0.418945  0.058642  1
  Tm  Tm19  1  0.581055  0.790527  0.058642  1
  Cd  Cd20  1  0.885435  0.114565  0.250000  1
  Cd  Cd21  1  0.885435  0.770870  0.250000  1
  Cd  Cd22  1  0.229130  0.114565  0.250000  1
  Cd  Cd23  1  0.114384  0.885616  0.750000  1
  Cd  Cd24  1  0.114384  0.228767  0.750000  1
  Cd  Cd25  1  0.771233  0.885616  0.750000  1
  Tc  Tc26  1  0.333333  0.666667  0.250000  1
  Ni  Ni27  1  0.666667  0.333333  0.750000  1
