# generated using pymatgen
data_Tb4MoOs6W
_symmetry_space_group_name_H-M   'P 1'
_cell_length_a   5.25320636
_cell_length_b   5.25320788
_cell_length_c   9.01187800
_cell_angle_alpha   90.00000000
_cell_angle_beta   90.00000000
_cell_angle_gamma   115.82371055
_symmetry_Int_Tables_number   1
_chemical_formula_structural   Tb4MoOs6W
_chemical_formula_sum   'Tb4 Mo1 Os6 W1'
_cell_volume   223.85857263
_cell_formula_units_Z   1
loop_
 _symmetry_equiv_pos_site_id
 _symmetry_equiv_pos_as_xyz
  1  'x, y, z'
loop_
 _atom_site_type_symbol
 _atom_site_label
 _atom_site_symmetry_multiplicity
 _atom_site_fract_x
 _atom_site_fract_y
 _atom_site_fract_z
 _atom_site_occupancy
  Tb  Tb0  1  0.329676  0.670324  0.436118  1
  Tb  Tb1  1  0.668241  0.331759  0.564233  1
  Tb  Tb2  1  0.668241  0.331759  0.935767  1
  Tb  Tb3  1  0.329676  0.670324  0.063882  1
  Mo  Mo4  1  0.168117  0.831883  0.750000  1
  Os  Os5  1  0.997599  0.002401  0.500965  1
  Os  Os6  1  0.997599  0.002401  0.999035  1
  Os  Os7  1  0.827032  0.650297  0.250000  1
  Os  Os8  1  0.349703  0.172968  0.250000  1
  Os  Os9  1  0.172185  0.345042  0.750000  1
  Os  Os10  1  0.654958  0.827815  0.750000  1
  W  W11  1  0.836974  0.163026  0.250000  1
