# generated using pymatgen
data_Lu10Zn4BiSb
_symmetry_space_group_name_H-M   'P 1'
_cell_length_a   8.46571797
_cell_length_b   8.46571776
_cell_length_c   8.46571836
_cell_angle_alpha   124.32603653
_cell_angle_beta   124.32603586
_cell_angle_gamma   82.65735531
_symmetry_Int_Tables_number   1
_chemical_formula_structural   Lu10Zn4BiSb
_chemical_formula_sum   'Lu10 Zn4 Bi1 Sb1'
_cell_volume   397.38154510
_cell_formula_units_Z   1
loop_
 _symmetry_equiv_pos_site_id
 _symmetry_equiv_pos_as_xyz
  1  'x, y, z'
loop_
 _atom_site_type_symbol
 _atom_site_label
 _atom_site_symmetry_multiplicity
 _atom_site_fract_x
 _atom_site_fract_y
 _atom_site_fract_z
 _atom_site_occupancy
  Lu  Lu0  1  0.002513  0.002513  0.000000  1
  Lu  Lu1  1  0.497487  0.497487  0.000000  1
  Lu  Lu2  1  0.799166  0.295488  0.807575  1
  Lu  Lu3  1  0.204512  0.700834  0.192425  1
  Lu  Lu4  1  0.487913  0.991592  0.192425  1
  Lu  Lu5  1  0.295488  0.487913  0.496322  1
  Lu  Lu6  1  0.012087  0.204512  0.503678  1
  Lu  Lu7  1  0.508408  0.012087  0.807575  1
  Lu  Lu8  1  0.700834  0.508408  0.496322  1
  Lu  Lu9  1  0.991592  0.799166  0.503678  1
  Zn  Zn10  1  0.136105  0.636105  0.772211  1
  Zn  Zn11  1  0.863895  0.363895  0.227789  1
  Zn  Zn12  1  0.636105  0.863895  0.500000  1
  Zn  Zn13  1  0.363895  0.136105  0.500000  1
  Bi  Bi14  1  0.750000  0.750000  0.000000  1
  Sb  Sb15  1  0.250000  0.250000  0.000000  1
