# generated using pymatgen
data_LiCo20B6MoW
_symmetry_space_group_name_H-M   'P 1'
_cell_length_a   7.40114151
_cell_length_b   7.40114120
_cell_length_c   7.40114200
_cell_angle_alpha   60.00000535
_cell_angle_beta   60.00000675
_cell_angle_gamma   60.00000826
_symmetry_Int_Tables_number   1
_chemical_formula_structural   LiCo20B6MoW
_chemical_formula_sum   'Li1 Co20 B6 Mo1 W1'
_cell_volume   286.66931144
_cell_formula_units_Z   1
loop_
 _symmetry_equiv_pos_site_id
 _symmetry_equiv_pos_as_xyz
  1  'x, y, z'
loop_
 _atom_site_type_symbol
 _atom_site_label
 _atom_site_symmetry_multiplicity
 _atom_site_fract_x
 _atom_site_fract_y
 _atom_site_fract_z
 _atom_site_occupancy
  Li  Li0  1  0.000000  0.000000  0.000000  1
  Co  Co1  1  0.999822  0.341759  0.658597  1
  Co  Co2  1  0.341759  0.658597  0.999822  1
  Co  Co3  1  0.341759  0.999822  0.999822  1
  Co  Co4  1  0.658597  0.341759  0.999822  1
  Co  Co5  1  0.341759  0.999822  0.658597  1
  Co  Co6  1  0.381887  0.381887  0.854341  1
  Co  Co7  1  0.617807  0.617807  0.617807  1
  Co  Co8  1  0.999822  0.999822  0.658597  1
  Co  Co9  1  0.146578  0.617807  0.617807  1
  Co  Co10  1  0.999822  0.341759  0.999822  1
  Co  Co11  1  0.999822  0.658597  0.341759  1
  Co  Co12  1  0.658597  0.999822  0.341759  1
  Co  Co13  1  0.617807  0.146578  0.617807  1
  Co  Co14  1  0.999822  0.999822  0.341759  1
  Co  Co15  1  0.999822  0.658597  0.999822  1
  Co  Co16  1  0.658597  0.999822  0.999822  1
  Co  Co17  1  0.381887  0.854341  0.381887  1
  Co  Co18  1  0.381887  0.381887  0.381887  1
  Co  Co19  1  0.854341  0.381887  0.381887  1
  Co  Co20  1  0.617807  0.617807  0.146578  1
  B  B21  1  0.727134  0.272866  0.272866  1
  B  B22  1  0.727134  0.727134  0.272866  1
  B  B23  1  0.272866  0.727134  0.727134  1
  B  B24  1  0.727134  0.272866  0.727134  1
  B  B25  1  0.272866  0.272866  0.727134  1
  B  B26  1  0.272866  0.727134  0.272866  1
  Mo  Mo27  1  0.250000  0.250000  0.250000  1
  W  W28  1  0.750000  0.750000  0.750000  1
