# generated using pymatgen
data_Er3LuSc2CoTe2
_symmetry_space_group_name_H-M   'P 1'
_cell_length_a   7.98891000
_cell_length_b   8.09397873
_cell_length_c   3.88166500
_cell_angle_alpha   90.00000000
_cell_angle_beta   90.00000000
_cell_angle_gamma   119.57151794
_symmetry_Int_Tables_number   1
_chemical_formula_structural   Er3LuSc2CoTe2
_chemical_formula_sum   'Er3 Lu1 Sc2 Co1 Te2'
_cell_volume   218.30177375
_cell_formula_units_Z   1
loop_
 _symmetry_equiv_pos_site_id
 _symmetry_equiv_pos_as_xyz
  1  'x, y, z'
loop_
 _atom_site_type_symbol
 _atom_site_label
 _atom_site_symmetry_multiplicity
 _atom_site_fract_x
 _atom_site_fract_y
 _atom_site_fract_z
 _atom_site_occupancy
  Er  Er0  1  0.000666  0.397978  0.500000  1
  Er  Er1  1  0.602689  0.602022  0.500000  1
  Er  Er2  1  0.382249  0.000000  0.500000  1
  Lu  Lu3  1  0.770637  0.000000  0.000000  1
  Sc  Sc4  1  0.992833  0.767143  0.000000  1
  Sc  Sc5  1  0.225690  0.232857  0.000000  1
  Co  Co6  1  0.030971  0.000000  0.500000  1
  Te  Te7  1  0.329615  0.664966  0.000000  1
  Te  Te8  1  0.664650  0.335034  0.000000  1
