# generated using pymatgen
data_LiTm9(PtPb2)4
_symmetry_space_group_name_H-M   'P 1'
_cell_length_a   3.65439800
_cell_length_b   8.23480489
_cell_length_c   18.35380700
_cell_angle_alpha   89.78516480
_cell_angle_beta   90.00000000
_cell_angle_gamma   90.00000000
_symmetry_Int_Tables_number   1
_chemical_formula_structural   LiTm9(PtPb2)4
_chemical_formula_sum   'Li1 Tm9 Pt4 Pb8'
_cell_volume   552.32190266
_cell_formula_units_Z   1
loop_
 _symmetry_equiv_pos_site_id
 _symmetry_equiv_pos_as_xyz
  1  'x, y, z'
loop_
 _atom_site_type_symbol
 _atom_site_label
 _atom_site_symmetry_multiplicity
 _atom_site_fract_x
 _atom_site_fract_y
 _atom_site_fract_z
 _atom_site_occupancy
  Li  Li0  1  0.000000  0.000000  0.000000  1
  Tm  Tm1  1  0.000000  0.112186  0.411289  1
  Tm  Tm2  1  0.000000  0.887814  0.588711  1
  Tm  Tm3  1  0.000000  0.383591  0.913232  1
  Tm  Tm4  1  0.000000  0.616409  0.086768  1
  Tm  Tm5  1  0.000000  0.242867  0.218530  1
  Tm  Tm6  1  0.000000  0.757133  0.781470  1
  Tm  Tm7  1  0.000000  0.258210  0.720468  1
  Tm  Tm8  1  0.000000  0.741790  0.279532  1
  Tm  Tm9  1  0.000000  0.500000  0.500000  1
  Pt  Pt10  1  0.500000  0.028467  0.301136  1
  Pt  Pt11  1  0.500000  0.971533  0.698864  1
  Pt  Pt12  1  0.500000  0.472428  0.803216  1
  Pt  Pt13  1  0.500000  0.527572  0.196784  1
  Pb  Pb14  1  0.500000  0.417841  0.351886  1
  Pb  Pb15  1  0.500000  0.582159  0.648114  1
  Pb  Pb16  1  0.500000  0.077494  0.856197  1
  Pb  Pb17  1  0.500000  0.922506  0.143803  1
  Pb  Pb18  1  0.500000  0.283170  0.060064  1
  Pb  Pb19  1  0.500000  0.716830  0.939936  1
  Pb  Pb20  1  0.500000  0.208660  0.561581  1
  Pb  Pb21  1  0.500000  0.791340  0.438419  1
