# generated using pymatgen
data_EuV(Sb4Os)3
_symmetry_space_group_name_H-M   'P 1'
_cell_length_a   8.22182432
_cell_length_b   8.22182454
_cell_length_c   8.19298800
_cell_angle_alpha   109.40018808
_cell_angle_beta   109.40018860
_cell_angle_gamma   109.54215864
_symmetry_Int_Tables_number   1
_chemical_formula_structural   EuV(Sb4Os)3
_chemical_formula_sum   'Eu1 V1 Sb12 Os3'
_cell_volume   426.71390556
_cell_formula_units_Z   1
loop_
 _symmetry_equiv_pos_site_id
 _symmetry_equiv_pos_as_xyz
  1  'x, y, z'
loop_
 _atom_site_type_symbol
 _atom_site_label
 _atom_site_symmetry_multiplicity
 _atom_site_fract_x
 _atom_site_fract_y
 _atom_site_fract_z
 _atom_site_occupancy
  Eu  Eu0  1  0.000000  0.000000  0.000000  1
  V  V1  1  0.000000  0.000000  0.500000  1
  Sb  Sb2  1  0.343232  0.159089  0.496244  1
  Sb  Sb3  1  0.338438  0.842742  0.181051  1
  Sb  Sb4  1  0.661562  0.157258  0.818949  1
  Sb  Sb5  1  0.815856  0.656768  0.153013  1
  Sb  Sb6  1  0.157258  0.495696  0.338309  1
  Sb  Sb7  1  0.504304  0.661562  0.842612  1
  Sb  Sb8  1  0.840911  0.184144  0.337155  1
  Sb  Sb9  1  0.656768  0.840911  0.503756  1
  Sb  Sb10  1  0.184144  0.343232  0.846987  1
  Sb  Sb11  1  0.159089  0.815856  0.662845  1
  Sb  Sb12  1  0.495696  0.338438  0.157388  1
  Sb  Sb13  1  0.842742  0.504304  0.661691  1
  Os  Os14  1  0.500000  0.500000  0.500000  1
  Os  Os15  1  0.000000  0.500000  0.000000  1
  Os  Os16  1  0.500000  0.000000  0.000000  1
