# generated using pymatgen
data_DyEr(AgO2)4
_symmetry_space_group_name_H-M   'P 1'
_cell_length_a   6.59773097
_cell_length_b   6.59773067
_cell_length_c   6.59773037
_cell_angle_alpha   126.11987611
_cell_angle_beta   126.11986547
_cell_angle_gamma   79.69121218
_symmetry_Int_Tables_number   1
_chemical_formula_structural   DyEr(AgO2)4
_chemical_formula_sum   'Dy1 Er1 Ag4 O8'
_cell_volume   181.04435713
_cell_formula_units_Z   1
loop_
 _symmetry_equiv_pos_site_id
 _symmetry_equiv_pos_as_xyz
  1  'x, y, z'
loop_
 _atom_site_type_symbol
 _atom_site_label
 _atom_site_symmetry_multiplicity
 _atom_site_fract_x
 _atom_site_fract_y
 _atom_site_fract_z
 _atom_site_occupancy
  Dy  Dy0  1  0.000000  0.000000  0.000000  1
  Er  Er1  1  0.750000  0.250000  0.500000  1
  Ag  Ag2  1  0.372837  0.125616  0.748027  1
  Ag  Ag3  1  0.377589  0.624809  0.251973  1
  Ag  Ag4  1  0.874384  0.622411  0.247221  1
  Ag  Ag5  1  0.375191  0.627163  0.752779  1
  O  O6  1  0.030395  0.011593  0.656053  1
  O  O7  1  0.625659  0.969605  0.981199  1
  O  O8  1  0.988407  0.644460  0.018801  1
  O  O9  1  0.400307  0.879347  0.164809  1
  O  O10  1  0.764500  0.599693  0.479040  1
  O  O11  1  0.120653  0.285461  0.520960  1
  O  O12  1  0.355540  0.374341  0.343947  1
  O  O13  1  0.714539  0.235500  0.835191  1
