# generated using pymatgen
data_YHo7B24Ir3Ru
_symmetry_space_group_name_H-M   'P 1'
_cell_length_a   3.64202000
_cell_length_b   9.18153270
_cell_length_c   11.50099600
_cell_angle_alpha   90.02193554
_cell_angle_beta   90.00000000
_cell_angle_gamma   90.00000000
_symmetry_Int_Tables_number   1
_chemical_formula_structural   YHo7B24Ir3Ru
_chemical_formula_sum   'Y1 Ho7 B24 Ir3 Ru1'
_cell_volume   384.58552305
_cell_formula_units_Z   1
loop_
 _symmetry_equiv_pos_site_id
 _symmetry_equiv_pos_as_xyz
  1  'x, y, z'
loop_
 _atom_site_type_symbol
 _atom_site_label
 _atom_site_symmetry_multiplicity
 _atom_site_fract_x
 _atom_site_fract_y
 _atom_site_fract_z
 _atom_site_occupancy
  Y  Y0  1  0.000000  0.321128  0.412944  1
  Ho  Ho1  1  0.000000  0.680127  0.588353  1
  Ho  Ho2  1  0.000000  0.821436  0.085227  1
  Ho  Ho3  1  0.000000  0.176802  0.912711  1
  Ho  Ho4  1  0.000000  0.944145  0.374058  1
  Ho  Ho5  1  0.000000  0.054134  0.626913  1
  Ho  Ho6  1  0.000000  0.444304  0.125600  1
  Ho  Ho7  1  0.000000  0.557536  0.874425  1
  B  B8  1  0.500000  0.553808  0.434444  1
  B  B9  1  0.500000  0.446956  0.566191  1
  B  B10  1  0.500000  0.052880  0.065848  1
  B  B11  1  0.500000  0.946142  0.933317  1
  B  B12  1  0.500000  0.749619  0.421097  1
  B  B13  1  0.500000  0.250542  0.579459  1
  B  B14  1  0.500000  0.249078  0.078998  1
  B  B15  1  0.500000  0.752211  0.920064  1
  B  B16  1  0.500000  0.793014  0.265426  1
  B  B17  1  0.500000  0.207116  0.734004  1
  B  B18  1  0.500000  0.293321  0.234221  1
  B  B19  1  0.500000  0.708026  0.766330  1
  B  B20  1  0.500000  0.632400  0.184293  1
  B  B21  1  0.500000  0.367698  0.815635  1
  B  B22  1  0.500000  0.132432  0.315301  1
  B  B23  1  0.500000  0.867830  0.685555  1
  B  B24  1  0.500000  0.981725  0.212956  1
  B  B25  1  0.500000  0.016419  0.786599  1
  B  B26  1  0.500000  0.482419  0.286340  1
  B  B27  1  0.500000  0.518018  0.713902  1
  B  B28  1  0.500000  0.611853  0.031078  1
  B  B29  1  0.500000  0.387645  0.969276  1
  B  B30  1  0.500000  0.111266  0.469273  1
  B  B31  1  0.500000  0.888366  0.530409  1
  Ir  Ir32  1  0.000000  0.638308  0.321854  1
  Ir  Ir33  1  0.000000  0.362242  0.678874  1
  Ir  Ir34  1  0.000000  0.137145  0.177522  1
  Ru  Ru35  1  0.000000  0.861912  0.821503  1
