# generated using pymatgen
data_KUSbO6
_symmetry_space_group_name_H-M   'P 1'
_cell_length_a   7.68100236
_cell_length_b   7.68100186
_cell_length_c   7.68100200
_cell_angle_alpha   122.14767654
_cell_angle_beta   117.40260629
_cell_angle_gamma   90.43869156
_symmetry_Int_Tables_number   1
_chemical_formula_structural   KUSbO6
_chemical_formula_sum   'K2 U2 Sb2 O12'
_cell_volume   320.82996540
_cell_formula_units_Z   2
loop_
 _symmetry_equiv_pos_site_id
 _symmetry_equiv_pos_as_xyz
  1  'x, y, z'
loop_
 _atom_site_type_symbol
 _atom_site_label
 _atom_site_symmetry_multiplicity
 _atom_site_fract_x
 _atom_site_fract_y
 _atom_site_fract_z
 _atom_site_occupancy
  K  K0  1  0.565164  0.927345  0.137819  1
  K  K1  1  0.210474  0.072655  0.637819  1
  U  U2  1  0.002033  0.498543  0.003490  1
  U  U3  1  0.504946  0.501457  0.503490  1
  Sb  Sb4  1  0.005534  0.500000  0.505534  1
  Sb  Sb5  1  0.005534  0.000000  0.005534  1
  O  O6  1  0.081335  0.819136  0.762199  1
  O  O7  1  0.688740  0.435601  0.753139  1
  O  O8  1  0.701346  0.821097  0.775066  1
  O  O9  1  0.062781  0.429744  0.741467  1
  O  O10  1  0.062781  0.821314  0.133038  1
  O  O11  1  0.701346  0.426280  0.380249  1
  O  O12  1  0.943063  0.180864  0.262199  1
  O  O13  1  0.317539  0.564399  0.253139  1
  O  O14  1  0.311723  0.178686  0.241467  1
  O  O15  1  0.953968  0.573720  0.275066  1
  O  O16  1  0.953968  0.178903  0.880249  1
  O  O17  1  0.311723  0.570256  0.633038  1
