# generated using pymatgen
data_Ti7Mn2Nb(B2P)2
_symmetry_space_group_name_H-M   'P 1'
_cell_length_a   7.04310406
_cell_length_b   7.04310430
_cell_length_c   7.02797322
_cell_angle_alpha   130.71411156
_cell_angle_beta   130.71411799
_cell_angle_gamma   72.26964710
_symmetry_Int_Tables_number   1
_chemical_formula_structural   Ti7Mn2Nb(B2P)2
_chemical_formula_sum   'Ti7 Mn2 Nb1 B4 P2'
_cell_volume   195.80549510
_cell_formula_units_Z   1
loop_
 _symmetry_equiv_pos_site_id
 _symmetry_equiv_pos_as_xyz
  1  'x, y, z'
loop_
 _atom_site_type_symbol
 _atom_site_label
 _atom_site_symmetry_multiplicity
 _atom_site_fract_x
 _atom_site_fract_y
 _atom_site_fract_z
 _atom_site_occupancy
  Ti  Ti0  1  0.460229  0.960229  0.151877  1
  Ti  Ti1  1  0.541447  0.041447  0.851472  1
  Ti  Ti2  1  0.039833  0.190770  0.499473  1
  Ti  Ti3  1  0.690770  0.539833  0.499473  1
  Ti  Ti4  1  0.960566  0.807598  0.498514  1
  Ti  Ti5  1  0.307598  0.460566  0.498514  1
  Ti  Ti6  1  0.808665  0.308665  0.847368  1
  Mn  Mn7  1  0.000215  0.002484  0.999628  1
  Mn  Mn8  1  0.502484  0.500215  0.999628  1
  Nb  Nb9  1  0.189896  0.689896  0.154009  1
  B  B10  1  0.885859  0.385859  0.271954  1
  B  B11  1  0.387333  0.118213  0.503010  1
  B  B12  1  0.618213  0.887333  0.503010  1
  B  B13  1  0.114012  0.614012  0.726644  1
  P  P14  1  0.743910  0.748970  0.997714  1
  P  P15  1  0.248970  0.243910  0.997714  1
