# generated using pymatgen
data_Li4Er3TmSi8
_symmetry_space_group_name_H-M   'P 1'
_cell_length_a   3.77121800
_cell_length_b   7.57699099
_cell_length_c   10.09122218
_cell_angle_alpha   90.04801098
_cell_angle_beta   90.00000000
_cell_angle_gamma   90.00000000
_symmetry_Int_Tables_number   1
_chemical_formula_structural   Li4Er3TmSi8
_chemical_formula_sum   'Li4 Er3 Tm1 Si8'
_cell_volume   288.35137356
_cell_formula_units_Z   1
loop_
 _symmetry_equiv_pos_site_id
 _symmetry_equiv_pos_as_xyz
  1  'x, y, z'
loop_
 _atom_site_type_symbol
 _atom_site_label
 _atom_site_symmetry_multiplicity
 _atom_site_fract_x
 _atom_site_fract_y
 _atom_site_fract_z
 _atom_site_occupancy
  Li  Li0  1  0.250000  0.989011  0.392910  1
  Li  Li1  1  0.250000  0.487871  0.107318  1
  Li  Li2  1  0.750000  0.012334  0.607231  1
  Li  Li3  1  0.750000  0.511576  0.893362  1
  Er  Er4  1  0.250000  0.138978  0.863144  1
  Er  Er5  1  0.250000  0.639511  0.636544  1
  Er  Er6  1  0.750000  0.859987  0.136982  1
  Tm  Tm7  1  0.750000  0.361642  0.363230  1
  Si  Si8  1  0.250000  0.234805  0.566151  1
  Si  Si9  1  0.250000  0.733916  0.933079  1
  Si  Si10  1  0.750000  0.765486  0.432771  1
  Si  Si11  1  0.750000  0.265958  0.067553  1
  Si  Si12  1  0.250000  0.652855  0.319604  1
  Si  Si13  1  0.250000  0.154100  0.181064  1
  Si  Si14  1  0.750000  0.346652  0.679958  1
  Si  Si15  1  0.750000  0.845320  0.819101  1
