# generated using pymatgen
data_Y4Ga18NiRh5
_symmetry_space_group_name_H-M   'P 1'
_cell_length_a   7.57036144
_cell_length_b   7.57036143
_cell_length_c   9.49679586
_cell_angle_alpha   90.17172721
_cell_angle_beta   90.17173163
_cell_angle_gamma   119.91327062
_symmetry_Int_Tables_number   1
_chemical_formula_structural   Y4Ga18NiRh5
_chemical_formula_sum   'Y4 Ga18 Ni1 Rh5'
_cell_volume   471.75017121
_cell_formula_units_Z   1
loop_
 _symmetry_equiv_pos_site_id
 _symmetry_equiv_pos_as_xyz
  1  'x, y, z'
loop_
 _atom_site_type_symbol
 _atom_site_label
 _atom_site_symmetry_multiplicity
 _atom_site_fract_x
 _atom_site_fract_y
 _atom_site_fract_z
 _atom_site_occupancy
  Y  Y0  1  0.996614  0.667895  0.249893  1
  Y  Y1  1  0.003386  0.332105  0.750107  1
  Y  Y2  1  0.667895  0.996614  0.249893  1
  Y  Y3  1  0.332105  0.003386  0.750107  1
  Ga  Ga4  1  0.122890  0.122890  0.246645  1
  Ga  Ga5  1  0.877110  0.877110  0.753355  1
  Ga  Ga6  1  0.999732  0.330902  0.078851  1
  Ga  Ga7  1  0.000268  0.669098  0.921149  1
  Ga  Ga8  1  0.999922  0.665869  0.579512  1
  Ga  Ga9  1  0.334131  0.000078  0.420488  1
  Ga  Ga10  1  0.000078  0.334131  0.420488  1
  Ga  Ga11  1  0.665869  0.999922  0.579512  1
  Ga  Ga12  1  0.669098  0.000268  0.921149  1
  Ga  Ga13  1  0.330902  0.999732  0.078851  1
  Ga  Ga14  1  0.332717  0.332717  0.564353  1
  Ga  Ga15  1  0.667283  0.667283  0.435647  1
  Ga  Ga16  1  0.670362  0.670362  0.063734  1
  Ga  Ga17  1  0.329638  0.329638  0.936266  1
  Ga  Ga18  1  0.338177  0.546756  0.249731  1
  Ga  Ga19  1  0.661823  0.453244  0.750269  1
  Ga  Ga20  1  0.546756  0.338177  0.249731  1
  Ga  Ga21  1  0.453244  0.661823  0.750269  1
  Ni  Ni22  1  0.000000  0.000000  0.000000  1
  Rh  Rh23  1  0.671658  0.328342  0.000000  1
  Rh  Rh24  1  0.328342  0.671658  0.000000  1
  Rh  Rh25  1  0.328381  0.671619  0.500000  1
  Rh  Rh26  1  0.671619  0.328381  0.500000  1
  Rh  Rh27  1  0.000000  0.000000  0.500000  1
