# generated using pymatgen
data_Lu2ThFe9
_symmetry_space_group_name_H-M   'P 1'
_cell_length_a   8.67869752
_cell_length_b   8.67869795
_cell_length_c   8.67869833
_cell_angle_alpha   33.99553261
_cell_angle_beta   33.99552830
_cell_angle_gamma   33.99552585
_symmetry_Int_Tables_number   1
_chemical_formula_structural   Lu2ThFe9
_chemical_formula_sum   'Lu2 Th1 Fe9'
_cell_volume   182.15634052
_cell_formula_units_Z   1
loop_
 _symmetry_equiv_pos_site_id
 _symmetry_equiv_pos_as_xyz
  1  'x, y, z'
loop_
 _atom_site_type_symbol
 _atom_site_label
 _atom_site_symmetry_multiplicity
 _atom_site_fract_x
 _atom_site_fract_y
 _atom_site_fract_z
 _atom_site_occupancy
  Lu  Lu0  1  0.856991  0.856991  0.856991  1
  Lu  Lu1  1  0.143009  0.143009  0.143009  1
  Th  Th2  1  0.000000  0.000000  0.000000  1
  Fe  Fe3  1  0.415553  0.916454  0.415553  1
  Fe  Fe4  1  0.415553  0.415553  0.916454  1
  Fe  Fe5  1  0.916454  0.415553  0.415553  1
  Fe  Fe6  1  0.584447  0.083546  0.584447  1
  Fe  Fe7  1  0.584447  0.584447  0.083546  1
  Fe  Fe8  1  0.083546  0.584447  0.584447  1
  Fe  Fe9  1  0.667412  0.667412  0.667412  1
  Fe  Fe10  1  0.332588  0.332588  0.332588  1
  Fe  Fe11  1  0.500000  0.500000  0.500000  1
