# generated using pymatgen
data_HoCo3(Ni3B2)3
_symmetry_space_group_name_H-M   'P 1'
_cell_length_a   5.98103640
_cell_length_b   5.98103610
_cell_length_c   5.98103585
_cell_angle_alpha   104.49014836
_cell_angle_beta   104.49015502
_cell_angle_gamma   104.49015339
_symmetry_Int_Tables_number   1
_chemical_formula_structural   HoCo3(Ni3B2)3
_chemical_formula_sum   'Ho1 Co3 Ni9 B6'
_cell_volume   189.06576056
_cell_formula_units_Z   1
loop_
 _symmetry_equiv_pos_site_id
 _symmetry_equiv_pos_as_xyz
  1  'x, y, z'
loop_
 _atom_site_type_symbol
 _atom_site_label
 _atom_site_symmetry_multiplicity
 _atom_site_fract_x
 _atom_site_fract_y
 _atom_site_fract_z
 _atom_site_occupancy
  Ho  Ho0  1  0.000000  0.000000  0.000000  1
  Co  Co1  1  0.867073  0.132927  0.500000  1
  Co  Co2  1  0.132927  0.500000  0.867073  1
  Co  Co3  1  0.500000  0.867073  0.132927  1
  Ni  Ni4  1  0.868962  0.500000  0.131038  1
  Ni  Ni5  1  0.500000  0.131038  0.868962  1
  Ni  Ni6  1  0.131038  0.868962  0.500000  1
  Ni  Ni7  1  0.813843  0.548755  0.547218  1
  Ni  Ni8  1  0.548755  0.547218  0.813843  1
  Ni  Ni9  1  0.547218  0.813843  0.548755  1
  Ni  Ni10  1  0.186157  0.452782  0.451245  1
  Ni  Ni11  1  0.452782  0.451245  0.186157  1
  Ni  Ni12  1  0.451245  0.186157  0.452782  1
  B  B13  1  0.327372  0.763719  0.769846  1
  B  B14  1  0.763719  0.769846  0.327372  1
  B  B15  1  0.769846  0.327372  0.763719  1
  B  B16  1  0.672628  0.230154  0.236281  1
  B  B17  1  0.230154  0.236281  0.672628  1
  B  B18  1  0.236281  0.672628  0.230154  1
