# generated using pymatgen
data_Tb2YZnGa7Ag3
_symmetry_space_group_name_H-M   'P 1'
_cell_length_a   4.32267189
_cell_length_b   8.35612442
_cell_length_c   8.35187327
_cell_angle_alpha   70.05831473
_cell_angle_beta   75.00202978
_cell_angle_gamma   75.00985651
_symmetry_Int_Tables_number   1
_chemical_formula_structural   Tb2YZnGa7Ag3
_chemical_formula_sum   'Tb2 Y1 Zn1 Ga7 Ag3'
_cell_volume   269.06122798
_cell_formula_units_Z   1
loop_
 _symmetry_equiv_pos_site_id
 _symmetry_equiv_pos_as_xyz
  1  'x, y, z'
loop_
 _atom_site_type_symbol
 _atom_site_label
 _atom_site_symmetry_multiplicity
 _atom_site_fract_x
 _atom_site_fract_y
 _atom_site_fract_z
 _atom_site_occupancy
  Tb  Tb0  1  0.998884  0.000974  0.001258  1
  Tb  Tb1  1  0.300115  0.697441  0.702329  1
  Y  Y2  1  0.700814  0.299944  0.298427  1
  Zn  Zn3  1  0.339492  0.294173  0.026842  1
  Ga  Ga4  1  0.659571  0.708744  0.972113  1
  Ga  Ga5  1  0.341863  0.032075  0.284200  1
  Ga  Ga6  1  0.658561  0.972269  0.710610  1
  Ga  Ga7  1  0.144710  0.573632  0.136948  1
  Ga  Ga8  1  0.857948  0.417778  0.866325  1
  Ga  Ga9  1  0.143237  0.138132  0.575394  1
  Ga  Ga10  1  0.856622  0.862496  0.424258  1
  Ag  Ag11  1  0.499413  0.304665  0.696510  1
  Ag  Ag12  1  0.499561  0.696887  0.303993  1
  Ag  Ag13  1  0.999208  0.500791  0.500794  1
