# generated using pymatgen
data_Pu2ReTcH18
_symmetry_space_group_name_H-M   'P 1'
_cell_length_a   4.80104597
_cell_length_b   4.80104514
_cell_length_c   8.75863900
_cell_angle_alpha   90.00000000
_cell_angle_beta   90.00000000
_cell_angle_gamma   119.96918005
_symmetry_Int_Tables_number   1
_chemical_formula_structural   Pu2ReTcH18
_chemical_formula_sum   'Pu2 Re1 Tc1 H18'
_cell_volume   174.89351412
_cell_formula_units_Z   1
loop_
 _symmetry_equiv_pos_site_id
 _symmetry_equiv_pos_as_xyz
  1  'x, y, z'
loop_
 _atom_site_type_symbol
 _atom_site_label
 _atom_site_symmetry_multiplicity
 _atom_site_fract_x
 _atom_site_fract_y
 _atom_site_fract_z
 _atom_site_occupancy
  Pu  Pu0  1  0.000553  0.999447  0.003064  1
  Pu  Pu1  1  0.000553  0.999447  0.496936  1
  Re  Re2  1  0.661120  0.338880  0.750000  1
  Tc  Tc3  1  0.338494  0.661506  0.250000  1
  H  H4  1  0.482406  0.517594  0.109800  1
  H  H5  1  0.515426  0.484574  0.890705  1
  H  H6  1  0.482406  0.517594  0.390200  1
  H  H7  1  0.515426  0.484574  0.609295  1
  H  H8  1  0.487115  0.956442  0.387434  1
  H  H9  1  0.956170  0.486525  0.610755  1
  H  H10  1  0.487115  0.956442  0.112566  1
  H  H11  1  0.956170  0.486525  0.889245  1
  H  H12  1  0.513475  0.043830  0.610755  1
  H  H13  1  0.043558  0.512885  0.387434  1
  H  H14  1  0.513475  0.043830  0.889245  1
  H  H15  1  0.043558  0.512885  0.112566  1
  H  H16  1  0.745205  0.856642  0.250000  1
  H  H17  1  0.860601  0.745961  0.750000  1
  H  H18  1  0.254039  0.139399  0.750000  1
  H  H19  1  0.143358  0.254795  0.250000  1
  H  H20  1  0.135613  0.864387  0.250000  1
  H  H21  1  0.864164  0.135836  0.750000  1
