# generated using pymatgen
data_Nd4AsI6
_symmetry_space_group_name_H-M   'P 1'
_cell_length_a   4.39685100
_cell_length_b   14.37421300
_cell_length_c   15.20179200
_cell_angle_alpha   90.00000000
_cell_angle_beta   90.00000000
_cell_angle_gamma   90.00000000
_symmetry_Int_Tables_number   1
_chemical_formula_structural   Nd4AsI6
_chemical_formula_sum   'Nd8 As2 I12'
_cell_volume   960.77260329
_cell_formula_units_Z   2
loop_
 _symmetry_equiv_pos_site_id
 _symmetry_equiv_pos_as_xyz
  1  'x, y, z'
loop_
 _atom_site_type_symbol
 _atom_site_label
 _atom_site_symmetry_multiplicity
 _atom_site_fract_x
 _atom_site_fract_y
 _atom_site_fract_z
 _atom_site_occupancy
  Nd  Nd0  1  0.500000  0.115803  0.346591  1
  Nd  Nd1  1  0.500000  0.884197  0.653409  1
  Nd  Nd2  1  0.500000  0.615803  0.153409  1
  Nd  Nd3  1  0.500000  0.384197  0.846591  1
  Nd  Nd4  1  0.000000  0.110562  0.574056  1
  Nd  Nd5  1  0.000000  0.889438  0.425944  1
  Nd  Nd6  1  0.000000  0.610562  0.925944  1
  Nd  Nd7  1  0.000000  0.389438  0.074056  1
  As  As8  1  0.500000  0.000000  0.500000  1
  As  As9  1  0.500000  0.500000  0.000000  1
  I  I10  1  0.500000  0.246382  0.161492  1
  I  I11  1  0.500000  0.753618  0.838508  1
  I  I12  1  0.500000  0.746382  0.338508  1
  I  I13  1  0.500000  0.253618  0.661492  1
  I  I14  1  0.000000  0.259037  0.415038  1
  I  I15  1  0.000000  0.740963  0.584962  1
  I  I16  1  0.000000  0.759037  0.084962  1
  I  I17  1  0.000000  0.240963  0.915038  1
  I  I18  1  0.000000  0.999634  0.240940  1
  I  I19  1  0.000000  0.000366  0.759060  1
  I  I20  1  0.000000  0.499634  0.259060  1
  I  I21  1  0.000000  0.500366  0.740940  1
