# generated using pymatgen
data_La8Nd8Cd3InIr4
_symmetry_space_group_name_H-M   'P 1'
_cell_length_a   10.03714580
_cell_length_b   10.03714583
_cell_length_c   10.08762908
_cell_angle_alpha   59.83265155
_cell_angle_beta   59.83264457
_cell_angle_gamma   60.34084545
_symmetry_Int_Tables_number   1
_chemical_formula_structural   La8Nd8Cd3InIr4
_chemical_formula_sum   'La8 Nd8 Cd3 In1 Ir4'
_cell_volume   718.60771592
_cell_formula_units_Z   1
loop_
 _symmetry_equiv_pos_site_id
 _symmetry_equiv_pos_as_xyz
  1  'x, y, z'
loop_
 _atom_site_type_symbol
 _atom_site_label
 _atom_site_symmetry_multiplicity
 _atom_site_fract_x
 _atom_site_fract_y
 _atom_site_fract_z
 _atom_site_occupancy
  La  La0  1  0.345970  0.345970  0.348826  1
  La  La1  1  0.347422  0.347422  0.956988  1
  La  La2  1  0.350384  0.957639  0.346776  1
  La  La3  1  0.957639  0.350384  0.346776  1
  La  La4  1  0.811427  0.188476  0.188630  1
  La  La5  1  0.189532  0.808643  0.808930  1
  La  La6  1  0.188476  0.811427  0.188630  1
  La  La7  1  0.808643  0.189532  0.808930  1
  Nd  Nd8  1  0.192441  0.192441  0.806964  1
  Nd  Nd9  1  0.804300  0.804300  0.194244  1
  Nd  Nd10  1  0.937892  0.564461  0.565092  1
  Nd  Nd11  1  0.563302  0.935239  0.935961  1
  Nd  Nd12  1  0.564461  0.937892  0.565092  1
  Nd  Nd13  1  0.935239  0.563302  0.935961  1
  Nd  Nd14  1  0.561690  0.561690  0.940646  1
  Nd  Nd15  1  0.938295  0.938295  0.561761  1
  Cd  Cd16  1  0.580807  0.580807  0.259279  1
  Cd  Cd17  1  0.578591  0.259386  0.580576  1
  Cd  Cd18  1  0.259386  0.578591  0.580576  1
  In  In19  1  0.581590  0.581590  0.578773  1
  Ir  Ir20  1  0.139333  0.139333  0.144285  1
  Ir  Ir21  1  0.139526  0.139526  0.577281  1
  Ir  Ir22  1  0.145764  0.577889  0.139509  1
  Ir  Ir23  1  0.577889  0.145764  0.139509  1
