# generated using pymatgen
data_Ti3MoP6PbO24
_symmetry_space_group_name_H-M   'P 1'
_cell_length_a   8.44970675
_cell_length_b   8.44970711
_cell_length_c   9.09995367
_cell_angle_alpha   62.33687584
_cell_angle_beta   117.66311968
_cell_angle_gamma   119.99999793
_symmetry_Int_Tables_number   1
_chemical_formula_structural   Ti3MoP6PbO24
_chemical_formula_sum   'Ti3 Mo1 P6 Pb1 O24'
_cell_volume   474.98140487
_cell_formula_units_Z   1
loop_
 _symmetry_equiv_pos_site_id
 _symmetry_equiv_pos_as_xyz
  1  'x, y, z'
loop_
 _atom_site_type_symbol
 _atom_site_label
 _atom_site_symmetry_multiplicity
 _atom_site_fract_x
 _atom_site_fract_y
 _atom_site_fract_z
 _atom_site_occupancy
  Ti  Ti0  1  0.149913  0.850088  0.449737  1
  Ti  Ti1  1  0.850251  0.149750  0.550751  1
  Ti  Ti2  1  0.646247  0.353753  0.938743  1
  Mo  Mo3  1  0.353712  0.646288  0.061135  1
  P  P4  1  0.028187  0.245584  0.246359  1
  P  P5  1  0.754415  0.536245  0.246359  1
  P  P6  1  0.463756  0.971813  0.246359  1
  P  P7  1  0.538102  0.035320  0.752236  1
  P  P8  1  0.249455  0.461898  0.752236  1
  P  P9  1  0.964680  0.750546  0.752236  1
  Pb  Pb10  1  0.000812  0.999188  0.002437  1
  O  O11  1  0.480625  0.159697  0.093253  1
  O  O12  1  0.840304  0.227674  0.093253  1
  O  O13  1  0.772327  0.519376  0.093253  1
  O  O14  1  0.177685  0.449740  0.211187  1
  O  O15  1  0.550259  0.516758  0.211187  1
  O  O16  1  0.483244  0.822316  0.211187  1
  O  O17  1  0.102386  0.096148  0.271968  1
  O  O18  1  0.903852  0.734272  0.271968  1
  O  O19  1  0.265729  0.897613  0.271968  1
  O  O20  1  0.994264  0.196145  0.418066  1
  O  O21  1  0.803855  0.380052  0.418066  1
  O  O22  1  0.619948  0.005737  0.418066  1
  O  O23  1  0.372523  0.002949  0.583193  1
  O  O24  1  0.213620  0.627477  0.583193  1
  O  O25  1  0.997051  0.786380  0.583193  1
  O  O26  1  0.732145  0.109500  0.721429  1
  O  O27  1  0.098784  0.267854  0.721429  1
  O  O28  1  0.890498  0.901216  0.721429  1
  O  O29  1  0.531148  0.183369  0.800464  1
  O  O30  1  0.452685  0.468852  0.800464  1
  O  O31  1  0.816632  0.547315  0.800464  1
  O  O32  1  0.219376  0.475319  0.900911  1
  O  O33  1  0.156853  0.780624  0.900911  1
  O  O34  1  0.524682  0.843148  0.900911  1
