# generated using pymatgen
data_Er2Al9NiOs2
_symmetry_space_group_name_H-M   'P 1'
_cell_length_a   7.51469500
_cell_length_b   7.51469475
_cell_length_c   9.42606100
_cell_angle_alpha   90.00000000
_cell_angle_beta   90.00000000
_cell_angle_gamma   120.54334404
_symmetry_Int_Tables_number   1
_chemical_formula_structural   Er2Al9NiOs2
_chemical_formula_sum   'Er4 Al18 Ni2 Os4'
_cell_volume   458.43698044
_cell_formula_units_Z   2
loop_
 _symmetry_equiv_pos_site_id
 _symmetry_equiv_pos_as_xyz
  1  'x, y, z'
loop_
 _atom_site_type_symbol
 _atom_site_label
 _atom_site_symmetry_multiplicity
 _atom_site_fract_x
 _atom_site_fract_y
 _atom_site_fract_z
 _atom_site_occupancy
  Er  Er0  1  0.995045  0.657274  0.250000  1
  Er  Er1  1  0.004955  0.342726  0.750000  1
  Er  Er2  1  0.657274  0.995045  0.250000  1
  Er  Er3  1  0.342726  0.004955  0.750000  1
  Al  Al4  1  0.113386  0.113386  0.250000  1
  Al  Al5  1  0.886614  0.886614  0.750000  1
  Al  Al6  1  0.000194  0.328630  0.071951  1
  Al  Al7  1  0.999806  0.671370  0.928049  1
  Al  Al8  1  0.999806  0.671370  0.571951  1
  Al  Al9  1  0.328630  0.000194  0.428049  1
  Al  Al10  1  0.000194  0.328630  0.428049  1
  Al  Al11  1  0.671370  0.999806  0.571951  1
  Al  Al12  1  0.671370  0.999806  0.928049  1
  Al  Al13  1  0.328630  0.000194  0.071951  1
  Al  Al14  1  0.332356  0.332356  0.548343  1
  Al  Al15  1  0.667644  0.667644  0.451657  1
  Al  Al16  1  0.667644  0.667644  0.048343  1
  Al  Al17  1  0.332356  0.332356  0.951657  1
  Al  Al18  1  0.334494  0.541993  0.250000  1
  Al  Al19  1  0.665506  0.458007  0.750000  1
  Al  Al20  1  0.541993  0.334494  0.250000  1
  Al  Al21  1  0.458007  0.665506  0.750000  1
  Ni  Ni22  1  0.000000  0.000000  0.000000  1
  Ni  Ni23  1  0.000000  0.000000  0.500000  1
  Os  Os24  1  0.672537  0.327463  0.000000  1
  Os  Os25  1  0.327463  0.672537  0.000000  1
  Os  Os26  1  0.327463  0.672537  0.500000  1
  Os  Os27  1  0.672537  0.327463  0.500000  1
