# generated using pymatgen
data_Mg3InP6N13
_symmetry_space_group_name_H-M   'P 1'
_cell_length_a   7.10150194
_cell_length_b   7.10150241
_cell_length_c   7.10150194
_cell_angle_alpha   109.40353492
_cell_angle_beta   109.40353933
_cell_angle_gamma   109.40353500
_symmetry_Int_Tables_number   1
_chemical_formula_structural   Mg3InP6N13
_chemical_formula_sum   'Mg3 In1 P6 N13'
_cell_volume   276.38363984
_cell_formula_units_Z   1
loop_
 _symmetry_equiv_pos_site_id
 _symmetry_equiv_pos_as_xyz
  1  'x, y, z'
loop_
 _atom_site_type_symbol
 _atom_site_label
 _atom_site_symmetry_multiplicity
 _atom_site_fract_x
 _atom_site_fract_y
 _atom_site_fract_z
 _atom_site_occupancy
  Mg  Mg0  1  0.998737  0.700215  0.998737  1
  Mg  Mg1  1  0.700215  0.998737  0.998737  1
  Mg  Mg2  1  0.998737  0.998737  0.700215  1
  In  In3  1  0.281432  0.281432  0.281432  1
  P  P4  1  0.501217  0.251137  0.753739  1
  P  P5  1  0.501217  0.753739  0.251137  1
  P  P6  1  0.753739  0.251137  0.501217  1
  P  P7  1  0.251137  0.501217  0.753739  1
  P  P8  1  0.753739  0.501217  0.251137  1
  P  P9  1  0.251137  0.753739  0.501217  1
  N  N10  1  0.989095  0.989095  0.989095  1
  N  N11  1  0.000951  0.732754  0.451457  1
  N  N12  1  0.269509  0.720834  0.269509  1
  N  N13  1  0.283361  0.553032  0.553032  1
  N  N14  1  0.553032  0.553032  0.283361  1
  N  N15  1  0.553032  0.283361  0.553032  1
  N  N16  1  0.732754  0.000951  0.451457  1
  N  N17  1  0.451457  0.000951  0.732754  1
  N  N18  1  0.732754  0.451457  0.000951  1
  N  N19  1  0.269509  0.269509  0.720834  1
  N  N20  1  0.720834  0.269509  0.269509  1
  N  N21  1  0.000951  0.451457  0.732754  1
  N  N22  1  0.451457  0.732754  0.000951  1
