# generated using pymatgen
data_HoFe3CoP3W
_symmetry_space_group_name_H-M   'P 1'
_cell_length_a   3.68975900
_cell_length_b   10.39014700
_cell_length_c   11.94280900
_cell_angle_alpha   90.00000000
_cell_angle_beta   90.00000000
_cell_angle_gamma   90.00000000
_symmetry_Int_Tables_number   1
_chemical_formula_structural   HoFe3CoP3W
_chemical_formula_sum   'Ho4 Fe12 Co4 P12 W4'
_cell_volume   457.85312157
_cell_formula_units_Z   4
loop_
 _symmetry_equiv_pos_site_id
 _symmetry_equiv_pos_as_xyz
  1  'x, y, z'
loop_
 _atom_site_type_symbol
 _atom_site_label
 _atom_site_symmetry_multiplicity
 _atom_site_fract_x
 _atom_site_fract_y
 _atom_site_fract_z
 _atom_site_occupancy
  Ho  Ho0  1  0.250000  0.581042  0.706050  1
  Ho  Ho1  1  0.250000  0.918958  0.206050  1
  Ho  Ho2  1  0.750000  0.418958  0.293950  1
  Ho  Ho3  1  0.750000  0.081042  0.793950  1
  Fe  Fe4  1  0.250000  0.218289  0.176444  1
  Fe  Fe5  1  0.250000  0.281711  0.676444  1
  Fe  Fe6  1  0.750000  0.781711  0.823556  1
  Fe  Fe7  1  0.750000  0.718289  0.323556  1
  Fe  Fe8  1  0.250000  0.878494  0.700842  1
  Fe  Fe9  1  0.250000  0.621506  0.200842  1
  Fe  Fe10  1  0.750000  0.121506  0.299158  1
  Fe  Fe11  1  0.750000  0.378494  0.799158  1
  Fe  Fe12  1  0.250000  0.462730  0.933819  1
  Fe  Fe13  1  0.250000  0.037270  0.433819  1
  Fe  Fe14  1  0.750000  0.537270  0.066181  1
  Fe  Fe15  1  0.750000  0.962730  0.566181  1
  Co  Co16  1  0.250000  0.405968  0.487139  1
  Co  Co17  1  0.250000  0.094032  0.987139  1
  Co  Co18  1  0.750000  0.594032  0.512861  1
  Co  Co19  1  0.750000  0.905968  0.012861  1
  P  P20  1  0.250000  0.424489  0.115457  1
  P  P21  1  0.250000  0.075511  0.615457  1
  P  P22  1  0.750000  0.575511  0.884543  1
  P  P23  1  0.750000  0.924489  0.384543  1
  P  P24  1  0.250000  0.266633  0.863957  1
  P  P25  1  0.250000  0.233367  0.363957  1
  P  P26  1  0.750000  0.733367  0.136043  1
  P  P27  1  0.750000  0.766633  0.636043  1
  P  P28  1  0.250000  0.594147  0.390134  1
  P  P29  1  0.250000  0.905853  0.890134  1
  P  P30  1  0.750000  0.405853  0.609866  1
  P  P31  1  0.750000  0.094147  0.109866  1
  W  W32  1  0.250000  0.703299  0.988385  1
  W  W33  1  0.250000  0.796701  0.488385  1
  W  W34  1  0.750000  0.296701  0.011615  1
  W  W35  1  0.750000  0.203299  0.511615  1
