# generated using pymatgen
data_TbNdAlZnPd2
_symmetry_space_group_name_H-M   'P 1'
_cell_length_a   4.41815300
_cell_length_b   7.04841085
_cell_length_c   7.97427919
_cell_angle_alpha   91.12486733
_cell_angle_beta   90.00000000
_cell_angle_gamma   90.00000000
_symmetry_Int_Tables_number   1
_chemical_formula_structural   TbNdAlZnPd2
_chemical_formula_sum   'Tb2 Nd2 Al2 Zn2 Pd4'
_cell_volume   248.27883367
_cell_formula_units_Z   2
loop_
 _symmetry_equiv_pos_site_id
 _symmetry_equiv_pos_as_xyz
  1  'x, y, z'
loop_
 _atom_site_type_symbol
 _atom_site_label
 _atom_site_symmetry_multiplicity
 _atom_site_fract_x
 _atom_site_fract_y
 _atom_site_fract_z
 _atom_site_occupancy
  Tb  Tb0  1  0.250000  0.033410  0.681635  1
  Tb  Tb1  1  0.750000  0.966590  0.318365  1
  Nd  Nd2  1  0.250000  0.531188  0.808579  1
  Nd  Nd3  1  0.750000  0.468812  0.191421  1
  Al  Al4  1  0.250000  0.143319  0.061587  1
  Al  Al5  1  0.750000  0.856681  0.938413  1
  Zn  Zn6  1  0.250000  0.654066  0.432094  1
  Zn  Zn7  1  0.750000  0.345934  0.567906  1
  Pd  Pd8  1  0.750000  0.743103  0.618234  1
  Pd  Pd9  1  0.250000  0.256897  0.381766  1
  Pd  Pd10  1  0.750000  0.219539  0.889154  1
  Pd  Pd11  1  0.250000  0.780461  0.110846  1
