# generated using pymatgen
data_Sc8V11Si16W
_symmetry_space_group_name_H-M   'P 1'
_cell_length_a   6.48712587
_cell_length_b   6.64825491
_cell_length_c   12.58280000
_cell_angle_alpha   90.00000000
_cell_angle_beta   90.00000000
_cell_angle_gamma   90.05967656
_symmetry_Int_Tables_number   1
_chemical_formula_structural   Sc8V11Si16W
_chemical_formula_sum   'Sc8 V11 Si16 W1'
_cell_volume   542.67153988
_cell_formula_units_Z   1
loop_
 _symmetry_equiv_pos_site_id
 _symmetry_equiv_pos_as_xyz
  1  'x, y, z'
loop_
 _atom_site_type_symbol
 _atom_site_label
 _atom_site_symmetry_multiplicity
 _atom_site_fract_x
 _atom_site_fract_y
 _atom_site_fract_z
 _atom_site_occupancy
  Sc  Sc0  1  0.496583  0.670860  0.594353  1
  Sc  Sc1  1  0.996898  0.828180  0.905666  1
  Sc  Sc2  1  0.503839  0.328141  0.093480  1
  Sc  Sc3  1  0.003100  0.171145  0.406504  1
  Sc  Sc4  1  0.503839  0.328141  0.406520  1
  Sc  Sc5  1  0.003100  0.171145  0.093496  1
  Sc  Sc6  1  0.496583  0.670860  0.905647  1
  Sc  Sc7  1  0.996898  0.828180  0.594334  1
  V  V8  1  0.662974  0.170227  0.626849  1
  V  V9  1  0.163240  0.329962  0.873454  1
  V  V10  1  0.336393  0.830998  0.126012  1
  V  V11  1  0.836907  0.669659  0.373888  1
  V  V12  1  0.336393  0.830998  0.373988  1
  V  V13  1  0.836907  0.669659  0.126112  1
  V  V14  1  0.662974  0.170227  0.873151  1
  V  V15  1  0.163240  0.329962  0.626546  1
  V  V16  1  0.837299  0.488867  0.750000  1
  V  V17  1  0.337474  0.011423  0.750000  1
  V  V18  1  0.162964  0.511287  0.250000  1
  Si  Si19  1  0.666912  0.959011  0.460119  1
  Si  Si20  1  0.166611  0.539719  0.041654  1
  Si  Si21  1  0.332755  0.039901  0.957497  1
  Si  Si22  1  0.833309  0.460074  0.542365  1
  Si  Si23  1  0.332755  0.039901  0.542503  1
  Si  Si24  1  0.833309  0.460074  0.957635  1
  Si  Si25  1  0.666912  0.959011  0.039881  1
  Si  Si26  1  0.166611  0.539719  0.458346  1
  Si  Si27  1  0.462741  0.377257  0.750000  1
  Si  Si28  1  0.962643  0.123305  0.750000  1
  Si  Si29  1  0.535150  0.619614  0.250000  1
  Si  Si30  1  0.040667  0.874922  0.250000  1
  Si  Si31  1  0.698663  0.864523  0.750000  1
  Si  Si32  1  0.198749  0.635327  0.750000  1
  Si  Si33  1  0.297430  0.139252  0.250000  1
  Si  Si34  1  0.803763  0.367103  0.250000  1
  W  W35  1  0.663413  0.991367  0.250000  1
