# generated using pymatgen
data_SrZn9Au2
_symmetry_space_group_name_H-M   'P 1'
_cell_length_a   8.51924836
_cell_length_b   8.51924766
_cell_length_c   8.51924829
_cell_angle_alpha   99.56863035
_cell_angle_beta   99.56862538
_cell_angle_gamma   131.87766175
_symmetry_Int_Tables_number   1
_chemical_formula_structural   SrZn9Au2
_chemical_formula_sum   'Sr2 Zn18 Au4'
_cell_volume   420.37206898
_cell_formula_units_Z   2
loop_
 _symmetry_equiv_pos_site_id
 _symmetry_equiv_pos_as_xyz
  1  'x, y, z'
loop_
 _atom_site_type_symbol
 _atom_site_label
 _atom_site_symmetry_multiplicity
 _atom_site_fract_x
 _atom_site_fract_y
 _atom_site_fract_z
 _atom_site_occupancy
  Sr  Sr0  1  0.000000  0.000000  0.000000  1
  Sr  Sr1  1  0.250000  0.750000  0.500000  1
  Zn  Zn2  1  0.071071  0.656580  0.830947  1
  Zn  Zn3  1  0.825633  0.240124  0.169053  1
  Zn  Zn4  1  0.750000  0.250000  0.500000  1
  Zn  Zn5  1  0.500000  0.500000  0.000000  1
  Zn  Zn6  1  0.825633  0.656580  0.585509  1
  Zn  Zn7  1  0.906580  0.821071  0.330947  1
  Zn  Zn8  1  0.490124  0.575633  0.669053  1
  Zn  Zn9  1  0.071071  0.240124  0.414491  1
  Zn  Zn10  1  0.759876  0.928929  0.585509  1
  Zn  Zn11  1  0.343420  0.174367  0.414491  1
  Zn  Zn12  1  0.424367  0.509876  0.330947  1
  Zn  Zn13  1  0.178929  0.093420  0.669053  1
  Zn  Zn14  1  0.424367  0.093420  0.914491  1
  Zn  Zn15  1  0.343420  0.928929  0.169053  1
  Zn  Zn16  1  0.759876  0.174367  0.830947  1
  Zn  Zn17  1  0.178929  0.509876  0.085509  1
  Zn  Zn18  1  0.490124  0.821071  0.914491  1
  Zn  Zn19  1  0.906580  0.575633  0.085509  1
  Au  Au20  1  0.625000  0.375000  0.750000  1
  Au  Au21  1  0.625000  0.375000  0.250000  1
  Au  Au22  1  0.125000  0.375000  0.750000  1
  Au  Au23  1  0.625000  0.875000  0.250000  1
