# generated using pymatgen
data_Sc6TlFe2
_symmetry_space_group_name_H-M   'P 1'
_cell_length_a   7.85924840
_cell_length_b   7.85925053
_cell_length_c   7.85924915
_cell_angle_alpha   111.12425291
_cell_angle_beta   110.94599241
_cell_angle_gamma   106.38679347
_symmetry_Int_Tables_number   1
_chemical_formula_structural   Sc6TlFe2
_chemical_formula_sum   'Sc12 Tl2 Fe4'
_cell_volume   372.89088934
_cell_formula_units_Z   2
loop_
 _symmetry_equiv_pos_site_id
 _symmetry_equiv_pos_as_xyz
  1  'x, y, z'
loop_
 _atom_site_type_symbol
 _atom_site_label
 _atom_site_symmetry_multiplicity
 _atom_site_fract_x
 _atom_site_fract_y
 _atom_site_fract_z
 _atom_site_occupancy
  Sc  Sc0  1  0.457598  0.234389  0.223209  1
  Sc  Sc1  1  0.542402  0.765611  0.776791  1
  Sc  Sc2  1  0.011180  0.234389  0.776791  1
  Sc  Sc3  1  0.988820  0.765611  0.223209  1
  Sc  Sc4  1  0.193141  0.289937  0.483079  1
  Sc  Sc5  1  0.806859  0.710063  0.516921  1
  Sc  Sc6  1  0.193141  0.710063  0.903204  1
  Sc  Sc7  1  0.806859  0.289937  0.096796  1
  Sc  Sc8  1  0.312530  0.609203  0.296673  1
  Sc  Sc9  1  0.687470  0.390797  0.703327  1
  Sc  Sc10  1  0.312530  0.015857  0.703327  1
  Sc  Sc11  1  0.687470  0.984143  0.296673  1
  Tl  Tl12  1  0.500000  0.500000  0.000000  1
  Tl  Tl13  1  0.000000  0.000000  0.000000  1
  Fe  Fe14  1  0.378892  0.000000  0.378892  1
  Fe  Fe15  1  0.621108  0.000000  0.621108  1
  Fe  Fe16  1  0.113482  0.613482  0.500000  1
  Fe  Fe17  1  0.886518  0.386518  0.500000  1
