# generated using pymatgen
data_KInGa2Se5
_symmetry_space_group_name_H-M   'P 1'
_cell_length_a   10.27920221
_cell_length_b   10.35525338
_cell_length_c   10.28720462
_cell_angle_alpha   91.39362646
_cell_angle_beta   90.68832506
_cell_angle_gamma   91.21833065
_symmetry_Int_Tables_number   1
_chemical_formula_structural   KInGa2Se5
_chemical_formula_sum   'K4 In4 Ga8 Se20'
_cell_volume   1094.35118336
_cell_formula_units_Z   4
loop_
 _symmetry_equiv_pos_site_id
 _symmetry_equiv_pos_as_xyz
  1  'x, y, z'
loop_
 _atom_site_type_symbol
 _atom_site_label
 _atom_site_symmetry_multiplicity
 _atom_site_fract_x
 _atom_site_fract_y
 _atom_site_fract_z
 _atom_site_occupancy
  K  K0  1  0.247627  0.001203  0.750083  1
  K  K1  1  0.747031  0.247348  0.998777  1
  K  K2  1  0.000901  0.752302  0.248312  1
  K  K3  1  0.499418  0.497313  0.498672  1
  In  In4  1  0.841882  0.887073  0.571953  1
  In  In5  1  0.571327  0.843672  0.886609  1
  In  In6  1  0.883368  0.573811  0.841676  1
  In  In7  1  0.164261  0.423303  0.120225  1
  Ga  Ga8  1  0.116680  0.163294  0.426355  1
  Ga  Ga9  1  0.427781  0.113405  0.170432  1
  Ga  Ga10  1  0.739791  0.159229  0.349826  1
  Ga  Ga11  1  0.351294  0.741708  0.162571  1
  Ga  Ga12  1  0.161660  0.351418  0.736150  1
  Ga  Ga13  1  0.261949  0.646744  0.834994  1
  Ga  Ga14  1  0.838629  0.259468  0.646568  1
  Ga  Ga15  1  0.648423  0.837500  0.259192  1
  Se  Se16  1  0.195210  0.801784  0.998595  1
  Se  Se17  1  0.805923  0.997872  0.192493  1
  Se  Se18  1  0.187217  0.171515  0.188954  1
  Se  Se19  1  0.827944  0.829263  0.827525  1
  Se  Se20  1  0.998935  0.196928  0.805136  1
  Se  Se21  1  0.923904  0.496737  0.079505  1
  Se  Se22  1  0.078834  0.939999  0.490858  1
  Se  Se23  1  0.487374  0.077494  0.942733  1
  Se  Se24  1  0.736782  0.703115  0.424539  1
  Se  Se25  1  0.426457  0.740097  0.699513  1
  Se  Se26  1  0.701683  0.424323  0.734754  1
  Se  Se27  1  0.263140  0.579423  0.301459  1
  Se  Se28  1  0.288840  0.260345  0.563391  1
  Se  Se29  1  0.567123  0.286845  0.262548  1
  Se  Se30  1  0.680930  0.084749  0.572227  1
  Se  Se31  1  0.571878  0.681579  0.083403  1
  Se  Se32  1  0.084136  0.571776  0.680689  1
  Se  Se33  1  0.318265  0.426519  0.912238  1
  Se  Se34  1  0.924988  0.307298  0.424390  1
  Se  Se35  1  0.428416  0.923548  0.312658  1
