# generated using pymatgen
data_Ti5Ga(PtRh4)2
_symmetry_space_group_name_H-M   'P 1'
_cell_length_a   4.05328000
_cell_length_b   5.44350725
_cell_length_c   10.70469740
_cell_angle_alpha   91.01600885
_cell_angle_beta   90.00000000
_cell_angle_gamma   90.00000000
_symmetry_Int_Tables_number   1
_chemical_formula_structural   Ti5Ga(PtRh4)2
_chemical_formula_sum   'Ti5 Ga1 Pt2 Rh8'
_cell_volume   236.15194228
_cell_formula_units_Z   1
loop_
 _symmetry_equiv_pos_site_id
 _symmetry_equiv_pos_as_xyz
  1  'x, y, z'
loop_
 _atom_site_type_symbol
 _atom_site_label
 _atom_site_symmetry_multiplicity
 _atom_site_fract_x
 _atom_site_fract_y
 _atom_site_fract_z
 _atom_site_occupancy
  Ti  Ti0  1  0.000000  0.000000  0.000000  1
  Ti  Ti1  1  0.500000  0.339625  0.143429  1
  Ti  Ti2  1  0.500000  0.660375  0.856571  1
  Ti  Ti3  1  0.500000  0.818186  0.363160  1
  Ti  Ti4  1  0.500000  0.181814  0.636840  1
  Ga  Ga5  1  0.000000  0.500000  0.500000  1
  Pt  Pt6  1  0.000000  0.078825  0.242678  1
  Pt  Pt7  1  0.000000  0.921175  0.757322  1
  Rh  Rh8  1  0.000000  0.000000  0.500000  1
  Rh  Rh9  1  0.000000  0.500000  0.000000  1
  Rh  Rh10  1  0.000000  0.577770  0.257833  1
  Rh  Rh11  1  0.000000  0.422230  0.742167  1
  Rh  Rh12  1  0.500000  0.303520  0.388041  1
  Rh  Rh13  1  0.500000  0.696480  0.611959  1
  Rh  Rh14  1  0.500000  0.810865  0.106569  1
  Rh  Rh15  1  0.500000  0.189135  0.893431  1
