# generated using pymatgen
data_U2Pd5Pt
_symmetry_space_group_name_H-M   'P 1'
_cell_length_a   5.84919567
_cell_length_b   5.84919616
_cell_length_c   9.71438572
_cell_angle_alpha   90.27270154
_cell_angle_beta   89.72729786
_cell_angle_gamma   120.13661002
_symmetry_Int_Tables_number   1
_chemical_formula_structural   U2Pd5Pt
_chemical_formula_sum   'U4 Pd10 Pt2'
_cell_volume   287.43011967
_cell_formula_units_Z   2
loop_
 _symmetry_equiv_pos_site_id
 _symmetry_equiv_pos_as_xyz
  1  'x, y, z'
loop_
 _atom_site_type_symbol
 _atom_site_label
 _atom_site_symmetry_multiplicity
 _atom_site_fract_x
 _atom_site_fract_y
 _atom_site_fract_z
 _atom_site_occupancy
  U  U0  1  0.000807  0.999193  0.498711  1
  U  U1  1  0.000728  0.999272  0.001109  1
  U  U2  1  0.334078  0.665922  0.749740  1
  U  U3  1  0.665142  0.334858  0.250469  1
  Pd  Pd4  1  0.501060  0.999702  0.500482  1
  Pd  Pd5  1  0.000298  0.498940  0.500482  1
  Pd  Pd6  1  0.500324  0.499676  0.999276  1
  Pd  Pd7  1  0.501163  0.999834  0.999486  1
  Pd  Pd8  1  0.000166  0.498837  0.999486  1
  Pd  Pd9  1  0.170442  0.345613  0.249370  1
  Pd  Pd10  1  0.654387  0.829558  0.249370  1
  Pd  Pd11  1  0.829061  0.170939  0.750966  1
  Pd  Pd12  1  0.829635  0.656727  0.750655  1
  Pd  Pd13  1  0.343273  0.170365  0.750655  1
  Pt  Pt14  1  0.500364  0.499636  0.501028  1
  Pt  Pt15  1  0.169073  0.830927  0.248716  1
