# generated using pymatgen
data_Tb5DyY6Co5Bi
_symmetry_space_group_name_H-M   'P 1'
_cell_length_a   8.34957409
_cell_length_b   8.36066389
_cell_length_c   8.34957401
_cell_angle_alpha   110.73703948
_cell_angle_beta   110.63116718
_cell_angle_gamma   107.02031120
_symmetry_Int_Tables_number   1
_chemical_formula_structural   Tb5DyY6Co5Bi
_chemical_formula_sum   'Tb5 Dy1 Y6 Co5 Bi1'
_cell_volume   448.37577028
_cell_formula_units_Z   1
loop_
 _symmetry_equiv_pos_site_id
 _symmetry_equiv_pos_as_xyz
  1  'x, y, z'
loop_
 _atom_site_type_symbol
 _atom_site_label
 _atom_site_symmetry_multiplicity
 _atom_site_fract_x
 _atom_site_fract_y
 _atom_site_fract_z
 _atom_site_occupancy
  Tb  Tb0  1  0.311421  0.001291  0.689870  1
  Tb  Tb1  1  0.601983  0.796473  0.806242  1
  Tb  Tb2  1  0.398031  0.203522  0.193775  1
  Tb  Tb3  1  0.990231  0.796473  0.194488  1
  Tb  Tb4  1  0.009747  0.203522  0.805493  1
  Dy  Dy5  1  0.688568  0.998727  0.310160  1
  Y  Y6  1  0.815492  0.708229  0.524147  1
  Y  Y7  1  0.184488  0.291769  0.475841  1
  Y  Y8  1  0.184082  0.708229  0.892738  1
  Y  Y9  1  0.815928  0.291769  0.107280  1
  Y  Y10  1  0.688378  0.380002  0.691624  1
  Y  Y11  1  0.311635  0.619996  0.308361  1
  Co  Co12  1  0.622480  0.000005  0.622458  1
  Co  Co13  1  0.377547  0.000005  0.377525  1
  Co  Co14  1  0.110721  0.611440  0.500719  1
  Co  Co15  1  0.889263  0.388537  0.499274  1
  Co  Co16  1  0.000000  0.999999  0.999999  1
  Bi  Bi17  1  0.500005  0.500013  0.000007  1
