# generated using pymatgen
data_SmCo2(PRh)3
_symmetry_space_group_name_H-M   'P 1'
_cell_length_a   3.81061700
_cell_length_b   10.67032700
_cell_length_c   12.24498500
_cell_angle_alpha   90.00000000
_cell_angle_beta   90.00000000
_cell_angle_gamma   90.00000000
_symmetry_Int_Tables_number   1
_chemical_formula_structural   SmCo2(PRh)3
_chemical_formula_sum   'Sm4 Co8 P12 Rh12'
_cell_volume   497.88757335
_cell_formula_units_Z   4
loop_
 _symmetry_equiv_pos_site_id
 _symmetry_equiv_pos_as_xyz
  1  'x, y, z'
loop_
 _atom_site_type_symbol
 _atom_site_label
 _atom_site_symmetry_multiplicity
 _atom_site_fract_x
 _atom_site_fract_y
 _atom_site_fract_z
 _atom_site_occupancy
  Sm  Sm0  1  0.250000  0.583314  0.708625  1
  Sm  Sm1  1  0.250000  0.916686  0.208625  1
  Sm  Sm2  1  0.750000  0.416686  0.291375  1
  Sm  Sm3  1  0.750000  0.083314  0.791375  1
  Co  Co4  1  0.250000  0.883374  0.696188  1
  Co  Co5  1  0.250000  0.616626  0.196188  1
  Co  Co6  1  0.750000  0.116626  0.303812  1
  Co  Co7  1  0.750000  0.383374  0.803812  1
  Co  Co8  1  0.250000  0.463915  0.933493  1
  Co  Co9  1  0.250000  0.036085  0.433493  1
  Co  Co10  1  0.750000  0.536085  0.066507  1
  Co  Co11  1  0.750000  0.963915  0.566507  1
  P  P12  1  0.250000  0.431058  0.109847  1
  P  P13  1  0.250000  0.068942  0.609847  1
  P  P14  1  0.750000  0.568942  0.890153  1
  P  P15  1  0.750000  0.931058  0.390153  1
  P  P16  1  0.250000  0.275836  0.871340  1
  P  P17  1  0.250000  0.224164  0.371340  1
  P  P18  1  0.750000  0.724164  0.128660  1
  P  P19  1  0.750000  0.775836  0.628660  1
  P  P20  1  0.250000  0.601770  0.382341  1
  P  P21  1  0.250000  0.898230  0.882341  1
  P  P22  1  0.750000  0.398230  0.617659  1
  P  P23  1  0.750000  0.101770  0.117659  1
  Rh  Rh24  1  0.250000  0.715313  0.990805  1
  Rh  Rh25  1  0.250000  0.784687  0.490805  1
  Rh  Rh26  1  0.750000  0.284687  0.009195  1
  Rh  Rh27  1  0.750000  0.215313  0.509195  1
  Rh  Rh28  1  0.250000  0.408380  0.481125  1
  Rh  Rh29  1  0.250000  0.091620  0.981125  1
  Rh  Rh30  1  0.750000  0.591620  0.518875  1
  Rh  Rh31  1  0.750000  0.908380  0.018875  1
  Rh  Rh32  1  0.250000  0.225135  0.179694  1
  Rh  Rh33  1  0.250000  0.274865  0.679694  1
  Rh  Rh34  1  0.750000  0.774865  0.820306  1
  Rh  Rh35  1  0.750000  0.725135  0.320306  1
