# generated using pymatgen
data_Ac6Mg3Cd20P
_symmetry_space_group_name_H-M   'P 1'
_cell_length_a   10.27255562
_cell_length_b   10.31528956
_cell_length_c   10.31528944
_cell_angle_alpha   60.41347021
_cell_angle_beta   60.55369391
_cell_angle_gamma   60.55369262
_symmetry_Int_Tables_number   1
_chemical_formula_structural   Ac6Mg3Cd20P
_chemical_formula_sum   'Ac6 Mg3 Cd20 P1'
_cell_volume   781.75716168
_cell_formula_units_Z   1
loop_
 _symmetry_equiv_pos_site_id
 _symmetry_equiv_pos_as_xyz
  1  'x, y, z'
loop_
 _atom_site_type_symbol
 _atom_site_label
 _atom_site_symmetry_multiplicity
 _atom_site_fract_x
 _atom_site_fract_y
 _atom_site_fract_z
 _atom_site_occupancy
  Ac  Ac0  1  0.789405  0.791063  0.211018  1
  Ac  Ac1  1  0.210595  0.788982  0.208937  1
  Ac  Ac2  1  0.788094  0.209402  0.209402  1
  Ac  Ac3  1  0.210595  0.208937  0.788982  1
  Ac  Ac4  1  0.789405  0.211018  0.791063  1
  Ac  Ac5  1  0.211906  0.790598  0.790598  1
  Mg  Mg6  1  0.000000  0.000000  0.500000  1
  Mg  Mg7  1  0.000000  0.500000  0.000000  1
  Mg  Mg8  1  0.500000  0.500000  0.500000  1
  Cd  Cd9  1  0.829789  0.828747  0.514625  1
  Cd  Cd10  1  0.829789  0.514625  0.828747  1
  Cd  Cd11  1  0.516046  0.827764  0.827764  1
  Cd  Cd12  1  0.830867  0.827864  0.827864  1
  Cd  Cd13  1  0.170211  0.171253  0.485375  1
  Cd  Cd14  1  0.170211  0.485375  0.171253  1
  Cd  Cd15  1  0.483954  0.172236  0.172236  1
  Cd  Cd16  1  0.169133  0.172136  0.172136  1
  Cd  Cd17  1  0.625890  0.621180  0.135633  1
  Cd  Cd18  1  0.625890  0.135633  0.621180  1
  Cd  Cd19  1  0.135440  0.623826  0.623826  1
  Cd  Cd20  1  0.622499  0.621198  0.621198  1
  Cd  Cd21  1  0.374110  0.378820  0.864367  1
  Cd  Cd22  1  0.374110  0.864367  0.378820  1
  Cd  Cd23  1  0.864560  0.376174  0.376174  1
  Cd  Cd24  1  0.377501  0.378802  0.378802  1
  Cd  Cd25  1  0.500000  0.000000  0.500000  1
  Cd  Cd26  1  0.000000  0.500000  0.500000  1
  Cd  Cd27  1  0.500000  0.500000  0.000000  1
  Cd  Cd28  1  0.500000  0.000000  0.000000  1
  P  P29  1  0.000000  0.000000  0.000000  1
