# generated using pymatgen
data_Y3Ho7TlSb5
_symmetry_space_group_name_H-M   'P 1'
_cell_length_a   8.90998000
_cell_length_b   8.90538574
_cell_length_c   6.36917200
_cell_angle_alpha   90.00000000
_cell_angle_beta   90.00000000
_cell_angle_gamma   120.01707462
_symmetry_Int_Tables_number   1
_chemical_formula_structural   Y3Ho7TlSb5
_chemical_formula_sum   'Y3 Ho7 Tl1 Sb5'
_cell_volume   437.59094398
_cell_formula_units_Z   1
loop_
 _symmetry_equiv_pos_site_id
 _symmetry_equiv_pos_as_xyz
  1  'x, y, z'
loop_
 _atom_site_type_symbol
 _atom_site_label
 _atom_site_symmetry_multiplicity
 _atom_site_fract_x
 _atom_site_fract_y
 _atom_site_fract_z
 _atom_site_occupancy
  Y  Y0  1  0.757916  0.000000  0.750000  1
  Y  Y1  1  0.753984  0.755170  0.250000  1
  Y  Y2  1  0.998814  0.244830  0.250000  1
  Ho  Ho3  1  0.333925  0.668828  0.000753  1
  Ho  Ho4  1  0.665098  0.331172  0.499247  1
  Ho  Ho5  1  0.665098  0.331172  0.000753  1
  Ho  Ho6  1  0.333925  0.668828  0.499247  1
  Ho  Ho7  1  0.003671  0.759230  0.750000  1
  Ho  Ho8  1  0.244441  0.240770  0.750000  1
  Ho  Ho9  1  0.241239  0.000000  0.250000  1
  Tl  Tl10  1  0.394799  0.000000  0.750000  1
  Sb  Sb11  1  0.389638  0.391232  0.250000  1
  Sb  Sb12  1  0.998405  0.608768  0.250000  1
  Sb  Sb13  1  0.001847  0.392461  0.750000  1
  Sb  Sb14  1  0.609386  0.607539  0.750000  1
  Sb  Sb15  1  0.607812  0.000000  0.250000  1
