# generated using pymatgen
data_Tb4OsWC4
_symmetry_space_group_name_H-M   'P 1'
_cell_length_a   5.15057500
_cell_length_b   6.61171712
_cell_length_c   9.94952196
_cell_angle_alpha   89.25823732
_cell_angle_beta   90.00000000
_cell_angle_gamma   90.00000000
_symmetry_Int_Tables_number   1
_chemical_formula_structural   Tb4OsWC4
_chemical_formula_sum   'Tb8 Os2 W2 C8'
_cell_volume   338.79406892
_cell_formula_units_Z   2
loop_
 _symmetry_equiv_pos_site_id
 _symmetry_equiv_pos_as_xyz
  1  'x, y, z'
loop_
 _atom_site_type_symbol
 _atom_site_label
 _atom_site_symmetry_multiplicity
 _atom_site_fract_x
 _atom_site_fract_y
 _atom_site_fract_z
 _atom_site_occupancy
  Tb  Tb0  1  0.250000  0.679941  0.555419  1
  Tb  Tb1  1  0.750000  0.320059  0.444581  1
  Tb  Tb2  1  0.750000  0.821093  0.056325  1
  Tb  Tb3  1  0.250000  0.178907  0.943675  1
  Tb  Tb4  1  0.250000  0.537296  0.217824  1
  Tb  Tb5  1  0.750000  0.462704  0.782176  1
  Tb  Tb6  1  0.750000  0.970441  0.716284  1
  Tb  Tb7  1  0.250000  0.029559  0.283716  1
  Os  Os8  1  0.750000  0.777812  0.364922  1
  Os  Os9  1  0.250000  0.222188  0.635078  1
  W  W10  1  0.250000  0.718137  0.865986  1
  W  W11  1  0.750000  0.281863  0.134014  1
  C  C12  1  0.250000  0.452115  0.757779  1
  C  C13  1  0.750000  0.547885  0.242221  1
  C  C14  1  0.750000  0.043890  0.259824  1
  C  C15  1  0.250000  0.956110  0.740176  1
  C  C16  1  0.250000  0.823232  0.051046  1
  C  C17  1  0.750000  0.176768  0.948954  1
  C  C18  1  0.750000  0.678432  0.546634  1
  C  C19  1  0.250000  0.321568  0.453366  1
