# generated using pymatgen
data_Er16In4Ni3Ir
_symmetry_space_group_name_H-M   'P 1'
_cell_length_a   9.52806669
_cell_length_b   9.56456940
_cell_length_c   9.52806700
_cell_angle_alpha   60.12616948
_cell_angle_beta   60.00000239
_cell_angle_gamma   60.12616869
_symmetry_Int_Tables_number   1
_chemical_formula_structural   Er16In4Ni3Ir
_chemical_formula_sum   'Er16 In4 Ni3 Ir1'
_cell_volume   615.15649754
_cell_formula_units_Z   1
loop_
 _symmetry_equiv_pos_site_id
 _symmetry_equiv_pos_as_xyz
  1  'x, y, z'
loop_
 _atom_site_type_symbol
 _atom_site_label
 _atom_site_symmetry_multiplicity
 _atom_site_fract_x
 _atom_site_fract_y
 _atom_site_fract_z
 _atom_site_occupancy
  Er  Er0  1  0.062287  0.062128  0.437792  1
  Er  Er1  1  0.652961  0.041117  0.652961  1
  Er  Er2  1  0.188169  0.811716  0.188169  1
  Er  Er3  1  0.437792  0.062128  0.437792  1
  Er  Er4  1  0.190016  0.187139  0.811422  1
  Er  Er5  1  0.651061  0.653908  0.651061  1
  Er  Er6  1  0.043970  0.653908  0.651061  1
  Er  Er7  1  0.437792  0.062128  0.062287  1
  Er  Er8  1  0.651061  0.653908  0.043970  1
  Er  Er9  1  0.188169  0.811716  0.811947  1
  Er  Er10  1  0.811422  0.187139  0.811422  1
  Er  Er11  1  0.811422  0.187139  0.190016  1
  Er  Er12  1  0.811947  0.811716  0.188169  1
  Er  Er13  1  0.060683  0.437412  0.441222  1
  Er  Er14  1  0.441222  0.437412  0.060683  1
  Er  Er15  1  0.060683  0.437412  0.060683  1
  In  In16  1  0.748068  0.416306  0.417813  1
  In  In17  1  0.417813  0.416306  0.748068  1
  In  In18  1  0.416413  0.750760  0.416413  1
  In  In19  1  0.417813  0.416306  0.417813  1
  Ni  Ni20  1  0.857942  0.858543  0.857942  1
  Ni  Ni21  1  0.425573  0.858543  0.857942  1
  Ni  Ni22  1  0.857942  0.858543  0.425573  1
  Ir  Ir23  1  0.857779  0.426663  0.857779  1
