# generated using pymatgen
data_Hf3Zr2(Re3Tc)6
_symmetry_space_group_name_H-M   'P 1'
_cell_length_a   8.47434217
_cell_length_b   8.47553533
_cell_length_c   8.46228501
_cell_angle_alpha   109.47328123
_cell_angle_beta   109.46758020
_cell_angle_gamma   109.53329858
_symmetry_Int_Tables_number   1
_chemical_formula_structural   Hf3Zr2(Re3Tc)6
_chemical_formula_sum   'Hf3 Zr2 Re18 Tc6'
_cell_volume   467.53494806
_cell_formula_units_Z   1
loop_
 _symmetry_equiv_pos_site_id
 _symmetry_equiv_pos_as_xyz
  1  'x, y, z'
loop_
 _atom_site_type_symbol
 _atom_site_label
 _atom_site_symmetry_multiplicity
 _atom_site_fract_x
 _atom_site_fract_y
 _atom_site_fract_z
 _atom_site_occupancy
  Hf  Hf0  1  0.999828  0.625980  0.000000  1
  Hf  Hf1  1  0.999806  0.999823  0.627765  1
  Hf  Hf2  1  0.372041  0.372059  0.372235  1
  Zr  Zr3  1  0.999838  0.999644  0.000000  1
  Zr  Zr4  1  0.625999  0.999869  0.000000  1
  Re  Re5  1  0.324040  0.323989  0.720464  1
  Re  Re6  1  0.000976  0.676353  0.396222  1
  Re  Re7  1  0.676346  0.000923  0.396333  1
  Re  Re8  1  0.603578  0.603527  0.279536  1
  Re  Re9  1  0.280012  0.604590  0.603667  1
  Re  Re10  1  0.604754  0.280129  0.603778  1
  Re  Re11  1  0.375902  0.195020  0.000000  1
  Re  Re12  1  0.180388  0.805812  0.805419  1
  Re  Re13  1  0.374968  0.000393  0.194581  1
  Re  Re14  1  0.194864  0.376065  0.000000  1
  Re  Re15  1  0.000709  0.375452  0.194688  1
  Re  Re16  1  0.806023  0.180765  0.805312  1
  Re  Re17  1  0.806835  0.806542  0.182432  1
  Re  Re18  1  0.000828  0.194300  0.377423  1
  Re  Re19  1  0.194058  0.000528  0.377144  1
  Re  Re20  1  0.624404  0.624110  0.817568  1
  Re  Re21  1  0.816913  0.623383  0.622856  1
  Re  Re22  1  0.623404  0.816877  0.622577  1
  Tc  Tc23  1  0.396098  0.677132  0.000000  1
  Tc  Tc24  1  0.719300  0.322948  0.322166  1
  Tc  Tc25  1  0.397133  0.000781  0.677834  1
  Tc  Tc26  1  0.677320  0.396376  0.000000  1
  Tc  Tc27  1  0.000828  0.397326  0.678023  1
  Tc  Tc28  1  0.322806  0.719305  0.321977  1
