# generated using pymatgen
data_Dy5RuPt2
_symmetry_space_group_name_H-M   'P 1'
_cell_length_a   10.99573700
_cell_length_b   10.99573700
_cell_length_c   6.43540800
_cell_angle_alpha   90.00000000
_cell_angle_beta   90.00000000
_cell_angle_gamma   90.00000000
_symmetry_Int_Tables_number   1
_chemical_formula_structural   Dy5RuPt2
_chemical_formula_sum   'Dy20 Ru4 Pt8'
_cell_volume   778.08093378
_cell_formula_units_Z   4
loop_
 _symmetry_equiv_pos_site_id
 _symmetry_equiv_pos_as_xyz
  1  'x, y, z'
loop_
 _atom_site_type_symbol
 _atom_site_label
 _atom_site_symmetry_multiplicity
 _atom_site_fract_x
 _atom_site_fract_y
 _atom_site_fract_z
 _atom_site_occupancy
  Dy  Dy0  1  0.296789  0.086682  0.374292  1
  Dy  Dy1  1  0.296789  0.913318  0.874292  1
  Dy  Dy2  1  0.703211  0.086682  0.874292  1
  Dy  Dy3  1  0.703211  0.913318  0.374292  1
  Dy  Dy4  1  0.586682  0.796789  0.874292  1
  Dy  Dy5  1  0.586682  0.203211  0.374292  1
  Dy  Dy6  1  0.413318  0.796789  0.374292  1
  Dy  Dy7  1  0.413318  0.203211  0.874292  1
  Dy  Dy8  1  0.203211  0.413318  0.625708  1
  Dy  Dy9  1  0.203211  0.586682  0.125708  1
  Dy  Dy10  1  0.796789  0.413318  0.125708  1
  Dy  Dy11  1  0.796789  0.586682  0.625708  1
  Dy  Dy12  1  0.913318  0.703211  0.125708  1
  Dy  Dy13  1  0.913318  0.296789  0.625708  1
  Dy  Dy14  1  0.086682  0.703211  0.625708  1
  Dy  Dy15  1  0.086682  0.296789  0.125708  1
  Dy  Dy16  1  0.000000  0.000000  0.500000  1
  Dy  Dy17  1  0.000000  0.000000  0.000000  1
  Dy  Dy18  1  0.500000  0.500000  0.000000  1
  Dy  Dy19  1  0.500000  0.500000  0.500000  1
  Ru  Ru20  1  0.500000  0.000000  0.123950  1
  Ru  Ru21  1  0.500000  0.000000  0.623950  1
  Ru  Ru22  1  0.000000  0.500000  0.876050  1
  Ru  Ru23  1  0.000000  0.500000  0.376050  1
  Pt  Pt24  1  0.846439  0.153561  0.250000  1
  Pt  Pt25  1  0.846439  0.846439  0.750000  1
  Pt  Pt26  1  0.153561  0.153561  0.750000  1
  Pt  Pt27  1  0.153561  0.846439  0.250000  1
  Pt  Pt28  1  0.653561  0.346439  0.750000  1
  Pt  Pt29  1  0.653561  0.653561  0.250000  1
  Pt  Pt30  1  0.346439  0.346439  0.250000  1
  Pt  Pt31  1  0.346439  0.653561  0.750000  1
