# generated using pymatgen
data_Ho5Er15Cd6CoRu
_symmetry_space_group_name_H-M   'P 1'
_cell_length_a   9.50695209
_cell_length_b   9.50709078
_cell_length_c   9.73770800
_cell_angle_alpha   90.00000000
_cell_angle_beta   90.00000000
_cell_angle_gamma   119.97819406
_symmetry_Int_Tables_number   1
_chemical_formula_structural   Ho5Er15Cd6CoRu
_chemical_formula_sum   'Ho5 Er15 Cd6 Co1 Ru1'
_cell_volume   762.38037977
_cell_formula_units_Z   1
loop_
 _symmetry_equiv_pos_site_id
 _symmetry_equiv_pos_as_xyz
  1  'x, y, z'
loop_
 _atom_site_type_symbol
 _atom_site_label
 _atom_site_symmetry_multiplicity
 _atom_site_fract_x
 _atom_site_fract_y
 _atom_site_fract_z
 _atom_site_occupancy
  Ho  Ho0  1  0.541465  0.083217  0.250000  1
  Ho  Ho1  1  0.916773  0.458531  0.250000  1
  Ho  Ho2  1  0.458454  0.541555  0.750000  1
  Ho  Ho3  1  0.458550  0.917193  0.750000  1
  Ho  Ho4  1  0.082804  0.541457  0.750000  1
  Er  Er5  1  0.000024  0.999969  0.499572  1
  Er  Er6  1  0.000024  0.999969  0.000428  1
  Er  Er7  1  0.212209  0.787786  0.436088  1
  Er  Er8  1  0.212399  0.424272  0.436075  1
  Er  Er9  1  0.575727  0.787599  0.436074  1
  Er  Er10  1  0.790563  0.209439  0.559273  1
  Er  Er11  1  0.790258  0.580977  0.559175  1
  Er  Er12  1  0.419019  0.209742  0.559176  1
  Er  Er13  1  0.790563  0.209439  0.940727  1
  Er  Er14  1  0.790258  0.580977  0.940825  1
  Er  Er15  1  0.419019  0.209742  0.940824  1
  Er  Er16  1  0.212209  0.787786  0.063912  1
  Er  Er17  1  0.212399  0.424272  0.063925  1
  Er  Er18  1  0.575727  0.787599  0.063926  1
  Er  Er19  1  0.541344  0.458663  0.250000  1
  Cd  Cd20  1  0.885575  0.114431  0.250000  1
  Cd  Cd21  1  0.885106  0.770942  0.250000  1
  Cd  Cd22  1  0.229059  0.114903  0.250000  1
  Cd  Cd23  1  0.114141  0.885869  0.750000  1
  Cd  Cd24  1  0.114344  0.228280  0.750000  1
  Cd  Cd25  1  0.771723  0.885655  0.750000  1
  Co  Co26  1  0.333498  0.666492  0.250000  1
  Ru  Ru27  1  0.666758  0.333245  0.750000  1
