# generated using pymatgen
data_Dy16CdNi2Hg3Os2
_symmetry_space_group_name_H-M   'P 1'
_cell_length_a   9.57102556
_cell_length_b   9.56935125
_cell_length_c   9.65651000
_cell_angle_alpha   59.69824584
_cell_angle_beta   59.70410306
_cell_angle_gamma   59.63475702
_symmetry_Int_Tables_number   1
_chemical_formula_structural   Dy16CdNi2Hg3Os2
_chemical_formula_sum   'Dy16 Cd1 Ni2 Hg3 Os2'
_cell_volume   620.82251953
_cell_formula_units_Z   1
loop_
 _symmetry_equiv_pos_site_id
 _symmetry_equiv_pos_as_xyz
  1  'x, y, z'
loop_
 _atom_site_type_symbol
 _atom_site_label
 _atom_site_symmetry_multiplicity
 _atom_site_fract_x
 _atom_site_fract_y
 _atom_site_fract_z
 _atom_site_occupancy
  Dy  Dy0  1  0.601682  0.601211  0.593211  1
  Dy  Dy1  1  0.601682  0.601211  0.203898  1
  Dy  Dy2  1  0.602936  0.202972  0.597047  1
  Dy  Dy3  1  0.200031  0.603560  0.598205  1
  Dy  Dy4  1  0.060061  0.436688  0.441393  1
  Dy  Dy5  1  0.435667  0.060911  0.062494  1
  Dy  Dy6  1  0.435667  0.060911  0.440928  1
  Dy  Dy7  1  0.060061  0.436688  0.061858  1
  Dy  Dy8  1  0.438166  0.439224  0.061305  1
  Dy  Dy9  1  0.058303  0.058695  0.441501  1
  Dy  Dy10  1  0.188621  0.805466  0.816292  1
  Dy  Dy11  1  0.805153  0.189721  0.188755  1
  Dy  Dy12  1  0.805153  0.189721  0.816371  1
  Dy  Dy13  1  0.188621  0.805466  0.189620  1
  Dy  Dy14  1  0.814947  0.815537  0.184758  1
  Dy  Dy15  1  0.190931  0.192048  0.808511  1
  Cd  Cd16  1  0.508771  0.829564  0.830832  1
  Ni  Ni17  1  0.392531  0.826404  0.390533  1
  Ni  Ni18  1  0.826564  0.392806  0.390316  1
  Hg  Hg19  1  0.832260  0.833834  0.837258  1
  Hg  Hg20  1  0.832260  0.833834  0.496646  1
  Hg  Hg21  1  0.833259  0.494704  0.836018  1
  Os  Os22  1  0.393335  0.394411  0.388470  1
  Os  Os23  1  0.393335  0.394411  0.823785  1
