# generated using pymatgen
data_ThPN3
_symmetry_space_group_name_H-M   'P 1'
_cell_length_a   7.22070811
_cell_length_b   7.22070781
_cell_length_c   5.35934174
_cell_angle_alpha   81.46442241
_cell_angle_beta   81.46443372
_cell_angle_gamma   90.34205444
_symmetry_Int_Tables_number   1
_chemical_formula_structural   ThPN3
_chemical_formula_sum   'Th4 P4 N12'
_cell_volume   273.16100184
_cell_formula_units_Z   4
loop_
 _symmetry_equiv_pos_site_id
 _symmetry_equiv_pos_as_xyz
  1  'x, y, z'
loop_
 _atom_site_type_symbol
 _atom_site_label
 _atom_site_symmetry_multiplicity
 _atom_site_fract_x
 _atom_site_fract_y
 _atom_site_fract_z
 _atom_site_occupancy
  Th  Th0  1  0.343111  0.656889  0.750000  1
  Th  Th1  1  0.656889  0.343111  0.250000  1
  Th  Th2  1  0.110122  0.889878  0.250000  1
  Th  Th3  1  0.889878  0.110122  0.750000  1
  P  P4  1  0.373144  0.199711  0.756390  1
  P  P5  1  0.626856  0.800289  0.243610  1
  P  P6  1  0.800289  0.626856  0.743610  1
  P  P7  1  0.199711  0.373144  0.256390  1
  N  N8  1  0.974827  0.774927  0.678233  1
  N  N9  1  0.845395  0.413114  0.842336  1
  N  N10  1  0.774927  0.974827  0.178233  1
  N  N11  1  0.154605  0.586886  0.157664  1
  N  N12  1  0.025173  0.225073  0.321767  1
  N  N13  1  0.225073  0.025173  0.821767  1
  N  N14  1  0.586886  0.154605  0.657664  1
  N  N15  1  0.628218  0.680954  0.986014  1
  N  N16  1  0.371782  0.319046  0.013986  1
  N  N17  1  0.413114  0.845395  0.342336  1
  N  N18  1  0.680954  0.628218  0.486014  1
  N  N19  1  0.319046  0.371782  0.513986  1
