# generated using pymatgen
data_Nb3V4Si6BW3
_symmetry_space_group_name_H-M   'P 1'
_cell_length_a   7.39715300
_cell_length_b   7.39715289
_cell_length_c   4.95326200
_cell_angle_alpha   90.00000000
_cell_angle_beta   90.00000000
_cell_angle_gamma   120.00000496
_symmetry_Int_Tables_number   1
_chemical_formula_structural   Nb3V4Si6BW3
_chemical_formula_sum   'Nb3 V4 Si6 B1 W3'
_cell_volume   234.72054623
_cell_formula_units_Z   1
loop_
 _symmetry_equiv_pos_site_id
 _symmetry_equiv_pos_as_xyz
  1  'x, y, z'
loop_
 _atom_site_type_symbol
 _atom_site_label
 _atom_site_symmetry_multiplicity
 _atom_site_fract_x
 _atom_site_fract_y
 _atom_site_fract_z
 _atom_site_occupancy
  Nb  Nb0  1  0.000000  0.246490  0.754895  1
  Nb  Nb1  1  0.753510  0.753510  0.754895  1
  Nb  Nb2  1  0.246490  0.000000  0.754895  1
  V  V3  1  0.333333  0.666667  0.503644  1
  V  V4  1  0.666667  0.333333  0.503644  1
  V  V5  1  0.666667  0.333333  0.998602  1
  V  V6  1  0.333333  0.666667  0.998602  1
  Si  Si7  1  0.000000  0.403092  0.251169  1
  Si  Si8  1  0.596908  0.596908  0.251169  1
  Si  Si9  1  0.403092  0.000000  0.251169  1
  Si  Si10  1  0.000000  0.595353  0.750817  1
  Si  Si11  1  0.404647  0.404647  0.750817  1
  Si  Si12  1  0.595353  0.000000  0.750817  1
  B  B13  1  0.000000  0.000000  0.485535  1
  W  W14  1  0.000000  0.750762  0.246444  1
  W  W15  1  0.249238  0.249238  0.246444  1
  W  W16  1  0.750762  0.000000  0.246444  1
