# generated using pymatgen
data_Ba4YbMn2O9
_symmetry_space_group_name_H-M   'P 1'
_cell_length_a   10.17527500
_cell_length_b   10.17527556
_cell_length_c   8.40623200
_cell_angle_alpha   90.00000000
_cell_angle_beta   90.00000000
_cell_angle_gamma   120.00000143
_symmetry_Int_Tables_number   1
_chemical_formula_structural   Ba4YbMn2O9
_chemical_formula_sum   'Ba12 Yb3 Mn6 O27'
_cell_volume   753.74480521
_cell_formula_units_Z   3
loop_
 _symmetry_equiv_pos_site_id
 _symmetry_equiv_pos_as_xyz
  1  'x, y, z'
loop_
 _atom_site_type_symbol
 _atom_site_label
 _atom_site_symmetry_multiplicity
 _atom_site_fract_x
 _atom_site_fract_y
 _atom_site_fract_z
 _atom_site_occupancy
  Ba  Ba0  1  0.000000  0.357575  0.500000  1
  Ba  Ba1  1  0.672756  0.672756  0.000000  1
  Ba  Ba2  1  0.662556  0.973308  0.242804  1
  Ba  Ba3  1  0.000000  0.327244  0.000000  1
  Ba  Ba4  1  0.337444  0.310752  0.757196  1
  Ba  Ba5  1  0.357575  0.000000  0.500000  1
  Ba  Ba6  1  0.973308  0.662556  0.757196  1
  Ba  Ba7  1  0.026692  0.689248  0.242804  1
  Ba  Ba8  1  0.689248  0.026692  0.757196  1
  Ba  Ba9  1  0.310752  0.337444  0.242804  1
  Ba  Ba10  1  0.327244  0.000000  0.000000  1
  Ba  Ba11  1  0.642425  0.642425  0.500000  1
  Yb  Yb12  1  0.666667  0.333333  0.254305  1
  Yb  Yb13  1  0.000000  0.000000  0.500000  1
  Yb  Yb14  1  0.333333  0.666667  0.745695  1
  Mn  Mn15  1  0.666667  0.333333  0.595017  1
  Mn  Mn16  1  0.000000  0.000000  0.840977  1
  Mn  Mn17  1  0.000000  0.000000  0.159023  1
  Mn  Mn18  1  0.333333  0.666667  0.404983  1
  Mn  Mn19  1  0.333333  0.666667  0.082987  1
  Mn  Mn20  1  0.666667  0.333333  0.917013  1
  O  O21  1  0.655700  0.475496  0.755107  1
  O  O22  1  0.855486  0.000000  0.000000  1
  O  O23  1  0.007290  0.159427  0.707993  1
  O  O24  1  0.184921  0.678665  0.538235  1
  O  O25  1  0.510226  0.325855  0.047959  1
  O  O26  1  0.325855  0.510226  0.952041  1
  O  O27  1  0.815628  0.489774  0.047959  1
  O  O28  1  0.524504  0.180203  0.755107  1
  O  O29  1  0.674145  0.184372  0.047959  1
  O  O30  1  0.184372  0.674145  0.952041  1
  O  O31  1  0.506257  0.321335  0.461765  1
  O  O32  1  0.489774  0.815628  0.952041  1
  O  O33  1  0.144514  0.144514  0.000000  1
  O  O34  1  0.344300  0.819797  0.244893  1
  O  O35  1  0.321335  0.506257  0.538235  1
  O  O36  1  0.475496  0.655700  0.244893  1
  O  O37  1  0.815079  0.493743  0.461765  1
  O  O38  1  0.493743  0.815079  0.538235  1
  O  O39  1  0.180203  0.524504  0.244893  1
  O  O40  1  0.992710  0.152137  0.292007  1
  O  O41  1  0.000000  0.855486  0.000000  1
  O  O42  1  0.847863  0.840573  0.292007  1
  O  O43  1  0.159427  0.007290  0.292007  1
  O  O44  1  0.819797  0.344300  0.755107  1
  O  O45  1  0.678665  0.184921  0.461765  1
  O  O46  1  0.152137  0.992710  0.707993  1
  O  O47  1  0.840573  0.847863  0.707993  1
