# generated using pymatgen
data_Ba2Yb3Si7
_symmetry_space_group_name_H-M   'P 1'
_cell_length_a   9.15320400
_cell_length_b   9.15320434
_cell_length_c   4.07346900
_cell_angle_alpha   90.00000000
_cell_angle_beta   90.00000000
_cell_angle_gamma   120.00000602
_symmetry_Int_Tables_number   1
_chemical_formula_structural   Ba2Yb3Si7
_chemical_formula_sum   'Ba2 Yb3 Si7'
_cell_volume   295.55704805
_cell_formula_units_Z   1
loop_
 _symmetry_equiv_pos_site_id
 _symmetry_equiv_pos_as_xyz
  1  'x, y, z'
loop_
 _atom_site_type_symbol
 _atom_site_label
 _atom_site_symmetry_multiplicity
 _atom_site_fract_x
 _atom_site_fract_y
 _atom_site_fract_z
 _atom_site_occupancy
  Ba  Ba0  1  0.333333  0.666667  0.000000  1
  Ba  Ba1  1  0.666667  0.333333  0.000000  1
  Yb  Yb2  1  0.000000  0.751190  0.500000  1
  Yb  Yb3  1  0.248810  0.248810  0.500000  1
  Yb  Yb4  1  0.751190  0.000000  0.500000  1
  Si  Si5  1  0.000000  0.000000  0.000000  1
  Si  Si6  1  0.000000  0.259377  0.000000  1
  Si  Si7  1  0.740623  0.740623  0.000000  1
  Si  Si8  1  0.259377  0.000000  0.000000  1
  Si  Si9  1  0.000000  0.404340  0.500000  1
  Si  Si10  1  0.595660  0.595660  0.500000  1
  Si  Si11  1  0.404340  0.000000  0.500000  1
