# generated using pymatgen
data_Er8Zr5Sc7Si16
_symmetry_space_group_name_H-M   'P 1'
_cell_length_a   7.08562360
_cell_length_b   7.31771255
_cell_length_c   13.94363018
_cell_angle_alpha   90.00604620
_cell_angle_beta   90.01713889
_cell_angle_gamma   90.04394578
_symmetry_Int_Tables_number   1
_chemical_formula_structural   Er8Zr5Sc7Si16
_chemical_formula_sum   'Er8 Zr5 Sc7 Si16'
_cell_volume   722.98473842
_cell_formula_units_Z   1
loop_
 _symmetry_equiv_pos_site_id
 _symmetry_equiv_pos_as_xyz
  1  'x, y, z'
loop_
 _atom_site_type_symbol
 _atom_site_label
 _atom_site_symmetry_multiplicity
 _atom_site_fract_x
 _atom_site_fract_y
 _atom_site_fract_z
 _atom_site_occupancy
  Er  Er0  1  0.010394  0.175601  0.096635  1
  Er  Er1  1  0.986908  0.823078  0.902884  1
  Er  Er2  1  0.487680  0.677174  0.903357  1
  Er  Er3  1  0.987472  0.825307  0.595078  1
  Er  Er4  1  0.513524  0.322905  0.097355  1
  Er  Er5  1  0.013634  0.175308  0.404099  1
  Er  Er6  1  0.512481  0.325096  0.404855  1
  Er  Er7  1  0.486694  0.675202  0.595118  1
  Zr  Zr8  1  0.330370  0.179754  0.625070  1
  Zr  Zr9  1  0.668700  0.819311  0.375353  1
  Zr  Zr10  1  0.169265  0.679642  0.375219  1
  Zr  Zr11  1  0.668398  0.821951  0.124583  1
  Zr  Zr12  1  0.831598  0.319676  0.625646  1
  Sc  Sc13  1  0.159092  0.503314  0.750341  1
  Sc  Sc14  1  0.841548  0.497939  0.250018  1
  Sc  Sc15  1  0.341572  0.002193  0.249979  1
  Sc  Sc16  1  0.659556  0.997290  0.750821  1
  Sc  Sc17  1  0.329813  0.175751  0.876059  1
  Sc  Sc18  1  0.831893  0.324107  0.874599  1
  Sc  Sc19  1  0.169260  0.676266  0.123946  1
  Si  Si20  1  0.033103  0.113607  0.749445  1
  Si  Si21  1  0.967251  0.884248  0.249774  1
  Si  Si22  1  0.466909  0.615550  0.250412  1
  Si  Si23  1  0.532208  0.385089  0.749592  1
  Si  Si24  1  0.284398  0.873097  0.748380  1
  Si  Si25  1  0.717482  0.125810  0.250983  1
  Si  Si26  1  0.217258  0.373734  0.250936  1
  Si  Si27  1  0.782927  0.627820  0.748509  1
  Si  Si28  1  0.157824  0.466492  0.538210  1
  Si  Si29  1  0.842065  0.532560  0.461837  1
  Si  Si30  1  0.341845  0.966982  0.461779  1
  Si  Si31  1  0.838131  0.535349  0.039731  1
  Si  Si32  1  0.658545  0.033937  0.537872  1
  Si  Si33  1  0.157772  0.465925  0.959308  1
  Si  Si34  1  0.659142  0.035188  0.961197  1
  Si  Si35  1  0.343288  0.967748  0.041021  1
