# generated using pymatgen
data_LiH3Pd
_symmetry_space_group_name_H-M   'P 1'
_cell_length_a   4.86419300
_cell_length_b   4.93717200
_cell_length_c   6.98528900
_cell_angle_alpha   90.00000000
_cell_angle_beta   90.00000000
_cell_angle_gamma   90.00000000
_symmetry_Int_Tables_number   1
_chemical_formula_structural   LiH3Pd
_chemical_formula_sum   'Li4 H12 Pd4'
_cell_volume   167.75421245
_cell_formula_units_Z   4
loop_
 _symmetry_equiv_pos_site_id
 _symmetry_equiv_pos_as_xyz
  1  'x, y, z'
loop_
 _atom_site_type_symbol
 _atom_site_label
 _atom_site_symmetry_multiplicity
 _atom_site_fract_x
 _atom_site_fract_y
 _atom_site_fract_z
 _atom_site_occupancy
  Li  Li0  1  0.497529  0.473753  0.750000  1
  Li  Li1  1  0.997529  0.026247  0.250000  1
  Li  Li2  1  0.002471  0.973753  0.750000  1
  Li  Li3  1  0.502471  0.526247  0.250000  1
  H  H4  1  0.558026  0.012312  0.750000  1
  H  H5  1  0.058026  0.487688  0.250000  1
  H  H6  1  0.941974  0.512312  0.750000  1
  H  H7  1  0.441974  0.987688  0.250000  1
  H  H8  1  0.284465  0.716517  0.529947  1
  H  H9  1  0.784465  0.783483  0.470053  1
  H  H10  1  0.215535  0.216517  0.970053  1
  H  H11  1  0.715535  0.283483  0.029947  1
  H  H12  1  0.284465  0.716517  0.970053  1
  H  H13  1  0.784465  0.783483  0.029947  1
  H  H14  1  0.215535  0.216517  0.529947  1
  H  H15  1  0.715535  0.283483  0.470053  1
  Pd  Pd16  1  0.500000  0.000000  0.000000  1
  Pd  Pd17  1  0.000000  0.500000  0.000000  1
  Pd  Pd18  1  0.000000  0.500000  0.500000  1
  Pd  Pd19  1  0.500000  0.000000  0.500000  1
