# generated using pymatgen
data_LuTlBi2(Rh2O7)2
_symmetry_space_group_name_H-M   'P 1'
_cell_length_a   7.24023401
_cell_length_b   7.24023394
_cell_length_c   7.18441371
_cell_angle_alpha   60.72280353
_cell_angle_beta   60.72280449
_cell_angle_gamma   60.95965653
_symmetry_Int_Tables_number   1
_chemical_formula_structural   LuTlBi2(Rh2O7)2
_chemical_formula_sum   'Lu1 Tl1 Bi2 Rh4 O14'
_cell_volume   271.11909151
_cell_formula_units_Z   1
loop_
 _symmetry_equiv_pos_site_id
 _symmetry_equiv_pos_as_xyz
  1  'x, y, z'
loop_
 _atom_site_type_symbol
 _atom_site_label
 _atom_site_symmetry_multiplicity
 _atom_site_fract_x
 _atom_site_fract_y
 _atom_site_fract_z
 _atom_site_occupancy
  Lu  Lu0  1  0.125000  0.125000  0.625000  1
  Tl  Tl1  1  0.125000  0.125000  0.125000  1
  Bi  Bi2  1  0.125000  0.625000  0.125000  1
  Bi  Bi3  1  0.625000  0.125000  0.125000  1
  Rh  Rh4  1  0.625000  0.625000  0.625000  1
  Rh  Rh5  1  0.625000  0.625000  0.125000  1
  Rh  Rh6  1  0.125000  0.625000  0.625000  1
  Rh  Rh7  1  0.625000  0.125000  0.625000  1
  O  O8  1  0.248314  0.248314  0.262384  1
  O  O9  1  0.291732  0.708782  0.291294  1
  O  O10  1  0.959049  0.959049  0.546236  1
  O  O11  1  0.530657  0.961742  0.543489  1
  O  O12  1  0.708812  0.708812  0.292548  1
  O  O13  1  0.961742  0.530657  0.543489  1
  O  O14  1  0.719343  0.288258  0.706511  1
  O  O15  1  0.290951  0.290951  0.703764  1
  O  O16  1  0.708782  0.291732  0.291294  1
  O  O17  1  0.288258  0.719343  0.706511  1
  O  O18  1  0.958268  0.541218  0.958706  1
  O  O19  1  0.541188  0.541188  0.957452  1
  O  O20  1  0.001686  0.001686  0.987616  1
  O  O21  1  0.541218  0.958268  0.958706  1
