# generated using pymatgen
data_MgCrTc5P4
_symmetry_space_group_name_H-M   'P 1'
_cell_length_a   7.49772400
_cell_length_b   7.50677972
_cell_length_c   3.09073400
_cell_angle_alpha   90.00000000
_cell_angle_beta   90.00000000
_cell_angle_gamma   119.96010264
_symmetry_Int_Tables_number   1
_chemical_formula_structural   MgCrTc5P4
_chemical_formula_sum   'Mg1 Cr1 Tc5 P4'
_cell_volume   150.71269751
_cell_formula_units_Z   1
loop_
 _symmetry_equiv_pos_site_id
 _symmetry_equiv_pos_as_xyz
  1  'x, y, z'
loop_
 _atom_site_type_symbol
 _atom_site_label
 _atom_site_symmetry_multiplicity
 _atom_site_fract_x
 _atom_site_fract_y
 _atom_site_fract_z
 _atom_site_occupancy
  Mg  Mg0  1  0.998394  0.996787  0.000000  1
  Cr  Cr1  1  0.458210  0.916418  0.000000  1
  Tc  Tc2  1  0.085775  0.543738  0.000000  1
  Tc  Tc3  1  0.457963  0.543738  0.000000  1
  Tc  Tc4  1  0.389182  0.190401  0.500000  1
  Tc  Tc5  1  0.801219  0.190401  0.500000  1
  Tc  Tc6  1  0.808954  0.617908  0.500000  1
  P  P7  1  0.667449  0.334899  0.000000  1
  P  P8  1  0.174337  0.348674  0.500000  1
  P  P9  1  0.180616  0.825184  0.500000  1
  P  P10  1  0.644569  0.825184  0.500000  1
