# generated using pymatgen
data_La2CoNi(As2Pd)2
_symmetry_space_group_name_H-M   'P 1'
_cell_length_a   4.32943500
_cell_length_b   4.32943500
_cell_length_c   9.76889300
_cell_angle_alpha   90.00000000
_cell_angle_beta   90.00000000
_cell_angle_gamma   90.00000000
_symmetry_Int_Tables_number   1
_chemical_formula_structural   La2CoNi(As2Pd)2
_chemical_formula_sum   'La2 Co1 Ni1 As4 Pd2'
_cell_volume   183.10820287
_cell_formula_units_Z   1
loop_
 _symmetry_equiv_pos_site_id
 _symmetry_equiv_pos_as_xyz
  1  'x, y, z'
loop_
 _atom_site_type_symbol
 _atom_site_label
 _atom_site_symmetry_multiplicity
 _atom_site_fract_x
 _atom_site_fract_y
 _atom_site_fract_z
 _atom_site_occupancy
  La  La0  1  0.000000  0.500000  0.760224  1
  La  La1  1  0.500000  0.000000  0.243407  1
  Co  Co2  1  0.000000  0.500000  0.106494  1
  Ni  Ni3  1  0.500000  0.000000  0.890037  1
  As  As4  1  0.000000  0.500000  0.346785  1
  As  As5  1  0.000000  0.000000  0.001970  1
  As  As6  1  0.500000  0.000000  0.648805  1
  As  As7  1  0.500000  0.500000  0.001970  1
  Pd  Pd8  1  0.000000  0.000000  0.500154  1
  Pd  Pd9  1  0.500000  0.500000  0.500154  1
