# generated using pymatgen
data_K2MnSi3O8
_symmetry_space_group_name_H-M   'P 1'
_cell_length_a   5.24564402
_cell_length_b   6.91649681
_cell_length_c   6.98269337
_cell_angle_alpha   78.54749244
_cell_angle_beta   67.90768162
_cell_angle_gamma   68.07498515
_symmetry_Int_Tables_number   1
_chemical_formula_structural   K2MnSi3O8
_chemical_formula_sum   'K2 Mn1 Si3 O8'
_cell_volume   217.26530477
_cell_formula_units_Z   1
loop_
 _symmetry_equiv_pos_site_id
 _symmetry_equiv_pos_as_xyz
  1  'x, y, z'
loop_
 _atom_site_type_symbol
 _atom_site_label
 _atom_site_symmetry_multiplicity
 _atom_site_fract_x
 _atom_site_fract_y
 _atom_site_fract_z
 _atom_site_occupancy
  K  K0  1  0.972992  0.312791  0.813731  1
  K  K1  1  0.065569  0.677004  0.192912  1
  Mn  Mn2  1  0.699353  0.884602  0.776209  1
  Si  Si3  1  0.301253  0.085494  0.262009  1
  Si  Si4  1  0.634206  0.290558  0.405193  1
  Si  Si5  1  0.367567  0.704230  0.594959  1
  O  O6  1  0.981559  0.273446  0.278084  1
  O  O7  1  0.668492  0.667234  0.630758  1
  O  O8  1  0.531907  0.206504  0.245612  1
  O  O9  1  0.097734  0.687049  0.801149  1
  O  O10  1  0.248270  0.943513  0.482950  1
  O  O11  1  0.580043  0.175508  0.631107  1
  O  O12  1  0.409197  0.951914  0.068179  1
  O  O13  1  0.441857  0.542153  0.415149  1
