# generated using pymatgen
data_Li3La3U2O12
_symmetry_space_group_name_H-M   'P 1'
_cell_length_a   11.36985502
_cell_length_b   11.36985369
_cell_length_c   11.36985500
_cell_angle_alpha   109.47121941
_cell_angle_beta   109.47122238
_cell_angle_gamma   109.47121801
_symmetry_Int_Tables_number   1
_chemical_formula_structural   Li3La3U2O12
_chemical_formula_sum   'Li12 La12 U8 O48'
_cell_volume   1131.46949476
_cell_formula_units_Z   4
loop_
 _symmetry_equiv_pos_site_id
 _symmetry_equiv_pos_as_xyz
  1  'x, y, z'
loop_
 _atom_site_type_symbol
 _atom_site_label
 _atom_site_symmetry_multiplicity
 _atom_site_fract_x
 _atom_site_fract_y
 _atom_site_fract_z
 _atom_site_occupancy
  Li  Li0  1  0.874990  0.250004  0.125015  1
  Li  Li1  1  0.749997  0.874989  0.125008  1
  Li  Li2  1  0.125011  0.874996  0.250005  1
  Li  Li3  1  0.624999  0.374996  0.249988  1
  Li  Li4  1  0.624991  0.749997  0.374980  1
  Li  Li5  1  0.249989  0.625009  0.375007  1
  Li  Li6  1  0.749982  0.374973  0.624974  1
  Li  Li7  1  0.375009  0.249997  0.625008  1
  Li  Li8  1  0.374984  0.624987  0.750002  1
  Li  Li9  1  0.874986  0.124998  0.749995  1
  Li  Li10  1  0.250008  0.125015  0.874998  1
  Li  Li11  1  0.125006  0.750003  0.875002  1
  La  La12  1  0.250045  0.375033  0.125016  1
  La  La13  1  0.375000  0.750009  0.125007  1
  La  La14  1  0.375025  0.124992  0.250040  1
  La  La15  1  0.875012  0.625008  0.249996  1
  La  La16  1  0.749983  0.125012  0.374968  1
  La  La17  1  0.124991  0.249999  0.375028  1
  La  La18  1  0.249996  0.874998  0.624957  1
  La  La19  1  0.875014  0.749985  0.625016  1
  La  La20  1  0.625001  0.875013  0.750023  1
  La  La21  1  0.125051  0.375034  0.749990  1
  La  La22  1  0.750004  0.625012  0.875026  1
  La  La23  1  0.624949  0.250003  0.874981  1
  U  U24  1  0.999972  0.999949  0.999982  1
  U  U25  1  0.499989  0.000004  0.999977  1
  U  U26  1  0.000052  0.500042  0.000044  1
  U  U27  1  0.499977  0.499993  0.999994  1
  U  U28  1  0.000029  0.500005  0.499973  1
  U  U29  1  0.000011  0.999978  0.499968  1
  U  U30  1  0.500021  0.499980  0.500015  1
  U  U31  1  0.499972  0.000026  0.500026  1
  O  O32  1  0.326585  0.907227  0.029146  1
  O  O33  1  0.202555  0.121909  0.029129  1
  O  O34  1  0.702557  0.673419  0.080645  1
  O  O35  1  0.878091  0.407223  0.080646  1
  O  O36  1  0.621904  0.419354  0.092783  1
  O  O37  1  0.970865  0.673422  0.092777  1
  O  O38  1  0.592784  0.919354  0.121913  1
  O  O39  1  0.029126  0.202548  0.121915  1
  O  O40  1  0.202535  0.580652  0.173426  1
  O  O41  1  0.470878  0.592782  0.173417  1
  O  O42  1  0.580651  0.173429  0.202562  1
  O  O43  1  0.121908  0.029117  0.202559  1
  O  O44  1  0.326575  0.919356  0.297444  1
  O  O45  1  0.470877  0.378091  0.297450  1
  O  O46  1  0.919351  0.297453  0.326576  1
  O  O47  1  0.907221  0.029125  0.326577  1
  O  O48  1  0.297448  0.470873  0.378098  1
  O  O49  1  0.580640  0.907216  0.378083  1
  O  O50  1  0.826580  0.529125  0.407219  1
  O  O51  1  0.080647  0.878104  0.407215  1
  O  O52  1  0.092775  0.621895  0.419357  1
  O  O53  1  0.826583  0.797449  0.419350  1
  O  O54  1  0.378095  0.297441  0.470877  1
  O  O55  1  0.592775  0.173421  0.470859  1
  O  O56  1  0.407219  0.826589  0.529127  1
  O  O57  1  0.621898  0.702536  0.529116  1
  O  O58  1  0.907214  0.378087  0.580638  1
  O  O59  1  0.173425  0.202558  0.580644  1
  O  O60  1  0.173415  0.470863  0.592770  1
  O  O61  1  0.919354  0.121904  0.592776  1
  O  O62  1  0.419357  0.092784  0.621894  1
  O  O63  1  0.702533  0.529109  0.621892  1
  O  O64  1  0.080647  0.702537  0.673420  1
  O  O65  1  0.092775  0.970873  0.673408  1
  O  O66  1  0.673407  0.080641  0.702536  1
  O  O67  1  0.529114  0.621892  0.702543  1
  O  O68  1  0.878098  0.970873  0.797467  1
  O  O69  1  0.419352  0.826579  0.797462  1
  O  O70  1  0.529127  0.407221  0.826579  1
  O  O71  1  0.797447  0.419350  0.826568  1
  O  O72  1  0.407217  0.080640  0.878102  1
  O  O73  1  0.970878  0.797456  0.878104  1
  O  O74  1  0.378104  0.580647  0.907215  1
  O  O75  1  0.029134  0.326596  0.907228  1
  O  O76  1  0.297463  0.326596  0.919362  1
  O  O77  1  0.121905  0.592787  0.919360  1
  O  O78  1  0.797455  0.878093  0.970884  1
  O  O79  1  0.673407  0.092774  0.970872  1
