# generated using pymatgen
data_ErPa3Co3NiSn2
_symmetry_space_group_name_H-M   'P 1'
_cell_length_a   7.37197368
_cell_length_b   7.37197348
_cell_length_c   3.53459200
_cell_angle_alpha   90.00000000
_cell_angle_beta   90.00000000
_cell_angle_gamma   92.33452431
_symmetry_Int_Tables_number   1
_chemical_formula_structural   ErPa3Co3NiSn2
_chemical_formula_sum   'Er1 Pa3 Co3 Ni1 Sn2'
_cell_volume   191.93148801
_cell_formula_units_Z   1
loop_
 _symmetry_equiv_pos_site_id
 _symmetry_equiv_pos_as_xyz
  1  'x, y, z'
loop_
 _atom_site_type_symbol
 _atom_site_label
 _atom_site_symmetry_multiplicity
 _atom_site_fract_x
 _atom_site_fract_y
 _atom_site_fract_z
 _atom_site_occupancy
  Er  Er0  1  0.829776  0.670224  0.500000  1
  Pa  Pa1  1  0.671077  0.180288  0.500000  1
  Pa  Pa2  1  0.319712  0.828923  0.500000  1
  Pa  Pa3  1  0.169686  0.330314  0.500000  1
  Co  Co4  1  0.877793  0.347712  0.000000  1
  Co  Co5  1  0.152288  0.622207  0.000000  1
  Co  Co6  1  0.367406  0.132594  0.000000  1
  Ni  Ni7  1  0.614383  0.885617  0.000000  1
  Sn  Sn8  1  0.505302  0.507424  0.000000  1
  Sn  Sn9  1  0.992576  0.994698  0.000000  1
