# generated using pymatgen
data_Lu2Al2HgAu
_symmetry_space_group_name_H-M   'P 1'
_cell_length_a   7.18991200
_cell_length_b   7.18991248
_cell_length_c   8.39671100
_cell_angle_alpha   90.00000000
_cell_angle_beta   90.00000000
_cell_angle_gamma   119.99999778
_symmetry_Int_Tables_number   1
_chemical_formula_structural   Lu2Al2HgAu
_chemical_formula_sum   'Lu6 Al6 Hg3 Au3'
_cell_volume   375.91272409
_cell_formula_units_Z   3
loop_
 _symmetry_equiv_pos_site_id
 _symmetry_equiv_pos_as_xyz
  1  'x, y, z'
loop_
 _atom_site_type_symbol
 _atom_site_label
 _atom_site_symmetry_multiplicity
 _atom_site_fract_x
 _atom_site_fract_y
 _atom_site_fract_z
 _atom_site_occupancy
  Lu  Lu0  1  0.584841  0.997372  0.754706  1
  Lu  Lu1  1  0.002628  0.587469  0.754706  1
  Lu  Lu2  1  0.412531  0.415159  0.754706  1
  Lu  Lu3  1  0.003592  0.588053  0.244944  1
  Lu  Lu4  1  0.584461  0.996408  0.244944  1
  Lu  Lu5  1  0.411947  0.415539  0.244944  1
  Al  Al6  1  0.755546  0.765584  0.000175  1
  Al  Al7  1  0.234416  0.989962  0.000175  1
  Al  Al8  1  0.010038  0.244454  0.000175  1
  Al  Al9  1  0.764068  0.762923  0.500363  1
  Al  Al10  1  0.237077  0.001146  0.500363  1
  Al  Al11  1  0.998854  0.235932  0.500363  1
  Hg  Hg12  1  0.666667  0.333333  0.000173  1
  Hg  Hg13  1  0.666667  0.333333  0.498864  1
  Hg  Hg14  1  0.333333  0.666667  0.500392  1
  Au  Au15  1  0.000000  0.000000  0.751138  1
  Au  Au16  1  0.000000  0.000000  0.249763  1
  Au  Au17  1  0.333333  0.666667  0.999108  1
