# generated using pymatgen
data_TbDy(ZrIr)2
_symmetry_space_group_name_H-M   'P 1'
_cell_length_a   4.56277700
_cell_length_b   7.14507400
_cell_length_c   8.33695700
_cell_angle_alpha   90.00000000
_cell_angle_beta   90.00000000
_cell_angle_gamma   90.00000000
_symmetry_Int_Tables_number   1
_chemical_formula_structural   TbDy(ZrIr)2
_chemical_formula_sum   'Tb2 Dy2 Zr4 Ir4'
_cell_volume   271.79629745
_cell_formula_units_Z   2
loop_
 _symmetry_equiv_pos_site_id
 _symmetry_equiv_pos_as_xyz
  1  'x, y, z'
loop_
 _atom_site_type_symbol
 _atom_site_label
 _atom_site_symmetry_multiplicity
 _atom_site_fract_x
 _atom_site_fract_y
 _atom_site_fract_z
 _atom_site_occupancy
  Tb  Tb0  1  0.750000  0.015706  0.675807  1
  Tb  Tb1  1  0.750000  0.515706  0.824193  1
  Dy  Dy2  1  0.250000  0.983970  0.324307  1
  Dy  Dy3  1  0.250000  0.483970  0.175693  1
  Zr  Zr4  1  0.250000  0.357449  0.574298  1
  Zr  Zr5  1  0.250000  0.857449  0.925702  1
  Zr  Zr6  1  0.750000  0.642663  0.424330  1
  Zr  Zr7  1  0.750000  0.142663  0.075670  1
  Ir  Ir8  1  0.250000  0.232400  0.907913  1
  Ir  Ir9  1  0.250000  0.732400  0.592087  1
  Ir  Ir10  1  0.750000  0.767811  0.093321  1
  Ir  Ir11  1  0.750000  0.267811  0.406679  1
