# generated using pymatgen
data_Dy9YBi6
_symmetry_space_group_name_H-M   'P 1'
_cell_length_a   8.26907200
_cell_length_b   9.53145000
_cell_length_c   12.08645000
_cell_angle_alpha   90.00000000
_cell_angle_beta   90.00000000
_cell_angle_gamma   90.00000000
_symmetry_Int_Tables_number   1
_chemical_formula_structural   Dy9YBi6
_chemical_formula_sum   'Dy18 Y2 Bi12'
_cell_volume   952.60862027
_cell_formula_units_Z   2
loop_
 _symmetry_equiv_pos_site_id
 _symmetry_equiv_pos_as_xyz
  1  'x, y, z'
loop_
 _atom_site_type_symbol
 _atom_site_label
 _atom_site_symmetry_multiplicity
 _atom_site_fract_x
 _atom_site_fract_y
 _atom_site_fract_z
 _atom_site_occupancy
  Dy  Dy0  1  0.026360  0.750000  0.988831  1
  Dy  Dy1  1  0.526360  0.750000  0.511169  1
  Dy  Dy2  1  0.973603  0.250000  0.011234  1
  Dy  Dy3  1  0.473603  0.250000  0.488766  1
  Dy  Dy4  1  0.186182  0.750000  0.718976  1
  Dy  Dy5  1  0.686182  0.750000  0.781024  1
  Dy  Dy6  1  0.813822  0.250000  0.281016  1
  Dy  Dy7  1  0.313822  0.250000  0.218984  1
  Dy  Dy8  1  0.306259  0.437038  0.940070  1
  Dy  Dy9  1  0.806259  0.062962  0.559930  1
  Dy  Dy10  1  0.693717  0.936888  0.060057  1
  Dy  Dy11  1  0.193717  0.563112  0.439943  1
  Dy  Dy12  1  0.693717  0.563112  0.060057  1
  Dy  Dy13  1  0.193717  0.936888  0.439943  1
  Dy  Dy14  1  0.306259  0.062962  0.940070  1
  Dy  Dy15  1  0.806259  0.437038  0.559930  1
  Dy  Dy16  1  0.354015  0.750000  0.215321  1
  Dy  Dy17  1  0.854015  0.750000  0.284679  1
  Y  Y18  1  0.646070  0.250000  0.784947  1
  Y  Y19  1  0.146070  0.250000  0.715053  1
  Bi  Bi20  1  0.433589  0.003589  0.673892  1
  Bi  Bi21  1  0.933589  0.496411  0.826108  1
  Bi  Bi22  1  0.566445  0.503732  0.326069  1
  Bi  Bi23  1  0.066445  0.996268  0.173931  1
  Bi  Bi24  1  0.566445  0.996268  0.326069  1
  Bi  Bi25  1  0.066445  0.503732  0.173931  1
  Bi  Bi26  1  0.433589  0.496411  0.673892  1
  Bi  Bi27  1  0.933589  0.003589  0.826108  1
  Bi  Bi28  1  0.409732  0.750000  0.957999  1
  Bi  Bi29  1  0.909732  0.750000  0.542001  1
  Bi  Bi30  1  0.590196  0.250000  0.041996  1
  Bi  Bi31  1  0.090196  0.250000  0.458004  1
