# generated using pymatgen
data_DyErAl6
_symmetry_space_group_name_H-M   'P 1'
_cell_length_a   14.49127250
_cell_length_b   14.49127223
_cell_length_c   14.49127204
_cell_angle_alpha   24.55177292
_cell_angle_beta   24.55177652
_cell_angle_gamma   24.55177513
_symmetry_Int_Tables_number   1
_chemical_formula_structural   DyErAl6
_chemical_formula_sum   'Dy3 Er3 Al18'
_cell_volume   461.97156938
_cell_formula_units_Z   3
loop_
 _symmetry_equiv_pos_site_id
 _symmetry_equiv_pos_as_xyz
  1  'x, y, z'
loop_
 _atom_site_type_symbol
 _atom_site_label
 _atom_site_symmetry_multiplicity
 _atom_site_fract_x
 _atom_site_fract_y
 _atom_site_fract_z
 _atom_site_occupancy
  Dy  Dy0  1  0.110393  0.110393  0.110393  1
  Dy  Dy1  1  0.892487  0.892487  0.892487  1
  Dy  Dy2  1  0.392275  0.392275  0.392275  1
  Er  Er3  1  0.001358  0.001358  0.001358  1
  Er  Er4  1  0.501421  0.501421  0.501421  1
  Er  Er5  1  0.610468  0.610468  0.610468  1
  Al  Al6  1  0.924553  0.372448  0.372448  1
  Al  Al7  1  0.425030  0.871911  0.871911  1
  Al  Al8  1  0.372448  0.372448  0.924553  1
  Al  Al9  1  0.871911  0.871911  0.425030  1
  Al  Al10  1  0.372448  0.924553  0.372448  1
  Al  Al11  1  0.871911  0.425030  0.871911  1
  Al  Al12  1  0.578274  0.130696  0.130696  1
  Al  Al13  1  0.078566  0.630552  0.630552  1
  Al  Al14  1  0.130696  0.130696  0.578274  1
  Al  Al15  1  0.630552  0.630552  0.078566  1
  Al  Al16  1  0.130696  0.578274  0.130696  1
  Al  Al17  1  0.630552  0.078566  0.630552  1
  Al  Al18  1  0.502360  0.502360  0.999089  1
  Al  Al19  1  0.002077  0.002077  0.500228  1
  Al  Al20  1  0.502360  0.999089  0.502360  1
  Al  Al21  1  0.002077  0.500228  0.002077  1
  Al  Al22  1  0.999089  0.502360  0.502360  1
  Al  Al23  1  0.500228  0.002077  0.002077  1
