# generated using pymatgen
data_Lu7(RuSe)2
_symmetry_space_group_name_H-M   'P 1'
_cell_length_a   8.94615987
_cell_length_b   8.94616097
_cell_length_c   8.94615971
_cell_angle_alpha   155.37956870
_cell_angle_beta   119.54054985
_cell_angle_gamma   66.28878039
_symmetry_Int_Tables_number   1
_chemical_formula_structural   Lu7(RuSe)2
_chemical_formula_sum   'Lu7 Ru2 Se2'
_cell_volume   257.40521203
_cell_formula_units_Z   1
loop_
 _symmetry_equiv_pos_site_id
 _symmetry_equiv_pos_as_xyz
  1  'x, y, z'
loop_
 _atom_site_type_symbol
 _atom_site_label
 _atom_site_symmetry_multiplicity
 _atom_site_fract_x
 _atom_site_fract_y
 _atom_site_fract_z
 _atom_site_occupancy
  Lu  Lu0  1  0.614342  0.356954  0.257389  1
  Lu  Lu1  1  0.900435  0.643046  0.257389  1
  Lu  Lu2  1  0.999928  0.000000  0.999928  1
  Lu  Lu3  1  0.544773  0.127331  0.417442  1
  Lu  Lu4  1  0.290111  0.872669  0.417442  1
  Lu  Lu5  1  0.946210  0.316955  0.629256  1
  Lu  Lu6  1  0.312300  0.683045  0.629256  1
  Ru  Ru7  1  0.167365  0.237382  0.929983  1
  Ru  Ru8  1  0.692600  0.762618  0.929983  1
  Se  Se9  1  0.261620  0.500000  0.761620  1
  Se  Se10  1  0.661176  0.000000  0.661176  1
