# generated using pymatgen
data_Dy2Er5Sc(Ge4Mo3)4
_symmetry_space_group_name_H-M   'P 1'
_cell_length_a   6.90097410
_cell_length_b   7.03192318
_cell_length_c   13.10902180
_cell_angle_alpha   90.03335106
_cell_angle_beta   90.02246919
_cell_angle_gamma   89.98440527
_symmetry_Int_Tables_number   1
_chemical_formula_structural   Dy2Er5Sc(Ge4Mo3)4
_chemical_formula_sum   'Dy2 Er5 Sc1 Ge16 Mo12'
_cell_volume   636.14289107
_cell_formula_units_Z   1
loop_
 _symmetry_equiv_pos_site_id
 _symmetry_equiv_pos_as_xyz
  1  'x, y, z'
loop_
 _atom_site_type_symbol
 _atom_site_label
 _atom_site_symmetry_multiplicity
 _atom_site_fract_x
 _atom_site_fract_y
 _atom_site_fract_z
 _atom_site_occupancy
  Dy  Dy0  1  0.011056  0.169835  0.092191  1
  Dy  Dy1  1  0.488414  0.670143  0.906266  1
  Er  Er2  1  0.488114  0.670632  0.592020  1
  Er  Er3  1  0.988920  0.830035  0.908049  1
  Er  Er4  1  0.511976  0.330149  0.092503  1
  Er  Er5  1  0.011015  0.169260  0.409450  1
  Er  Er6  1  0.510868  0.329235  0.409487  1
  Sc  Sc7  1  0.985029  0.827710  0.592691  1
  Ge  Ge8  1  0.673004  0.953424  0.454041  1
  Ge  Ge9  1  0.171101  0.546559  0.047831  1
  Ge  Ge10  1  0.330059  0.047576  0.951289  1
  Ge  Ge11  1  0.830583  0.457458  0.548240  1
  Ge  Ge12  1  0.322653  0.042065  0.548405  1
  Ge  Ge13  1  0.829607  0.453675  0.951734  1
  Ge  Ge14  1  0.669950  0.953404  0.048114  1
  Ge  Ge15  1  0.169783  0.548535  0.453536  1
  Ge  Ge16  1  0.468950  0.367469  0.749301  1
  Ge  Ge17  1  0.969683  0.128543  0.747714  1
  Ge  Ge18  1  0.531753  0.631480  0.250473  1
  Ge  Ge19  1  0.031758  0.868398  0.250838  1
  Ge  Ge20  1  0.692514  0.854269  0.747917  1
  Ge  Ge21  1  0.184291  0.648899  0.746953  1
  Ge  Ge22  1  0.312220  0.146146  0.250959  1
  Ge  Ge23  1  0.811625  0.355063  0.251484  1
  Mo  Mo24  1  0.669475  0.154745  0.626057  1
  Mo  Mo25  1  0.167439  0.344619  0.871436  1
  Mo  Mo26  1  0.331517  0.844717  0.127029  1
  Mo  Mo27  1  0.831324  0.656809  0.374578  1
  Mo  Mo28  1  0.332098  0.844106  0.373553  1
  Mo  Mo29  1  0.831910  0.655864  0.127415  1
  Mo  Mo30  1  0.670361  0.154871  0.872603  1
  Mo  Mo31  1  0.169470  0.344675  0.626209  1
  Mo  Mo32  1  0.833240  0.495012  0.749022  1
  Mo  Mo33  1  0.333020  0.003961  0.748713  1
  Mo  Mo34  1  0.167738  0.505165  0.250698  1
  Mo  Mo35  1  0.667484  0.995492  0.251200  1
