# generated using pymatgen
data_Tb3Dy2(SnBi)2
_symmetry_space_group_name_H-M   'P 1'
_cell_length_a   8.19297100
_cell_length_b   8.23433200
_cell_length_c   15.66812100
_cell_angle_alpha   90.00000000
_cell_angle_beta   90.00000000
_cell_angle_gamma   90.00000000
_symmetry_Int_Tables_number   1
_chemical_formula_structural   Tb3Dy2(SnBi)2
_chemical_formula_sum   'Tb12 Dy8 Sn8 Bi8'
_cell_volume   1057.02852602
_cell_formula_units_Z   4
loop_
 _symmetry_equiv_pos_site_id
 _symmetry_equiv_pos_as_xyz
  1  'x, y, z'
loop_
 _atom_site_type_symbol
 _atom_site_label
 _atom_site_symmetry_multiplicity
 _atom_site_fract_x
 _atom_site_fract_y
 _atom_site_fract_z
 _atom_site_occupancy
  Tb  Tb0  1  0.613765  0.161770  0.123423  1
  Tb  Tb1  1  0.113765  0.338230  0.376577  1
  Tb  Tb2  1  0.386235  0.838230  0.623423  1
  Tb  Tb3  1  0.886235  0.661770  0.876577  1
  Tb  Tb4  1  0.552877  0.328024  0.889879  1
  Tb  Tb5  1  0.052877  0.171976  0.610121  1
  Tb  Tb6  1  0.447123  0.671976  0.389879  1
  Tb  Tb7  1  0.947123  0.828024  0.110121  1
  Tb  Tb8  1  0.447116  0.671934  0.110112  1
  Tb  Tb9  1  0.947116  0.828066  0.389888  1
  Tb  Tb10  1  0.552884  0.328066  0.610112  1
  Tb  Tb11  1  0.052884  0.171934  0.889888  1
  Dy  Dy12  1  0.386137  0.838270  0.876464  1
  Dy  Dy13  1  0.886137  0.661730  0.623536  1
  Dy  Dy14  1  0.613863  0.161730  0.376464  1
  Dy  Dy15  1  0.113863  0.338270  0.123536  1
  Dy  Dy16  1  0.217484  0.498100  0.749997  1
  Dy  Dy17  1  0.717484  0.001900  0.750003  1
  Dy  Dy18  1  0.782516  0.501900  0.249997  1
  Dy  Dy19  1  0.282516  0.998100  0.250003  1
  Sn  Sn20  1  0.582660  0.626411  0.750051  1
  Sn  Sn21  1  0.082660  0.873589  0.749949  1
  Sn  Sn22  1  0.417340  0.373589  0.250051  1
  Sn  Sn23  1  0.917340  0.126411  0.249949  1
  Sn  Sn24  1  0.356369  0.143725  0.750053  1
  Sn  Sn25  1  0.856369  0.356275  0.749947  1
  Sn  Sn26  1  0.643631  0.856275  0.250053  1
  Sn  Sn27  1  0.143631  0.643725  0.249947  1
  Bi  Bi28  1  0.270352  0.020868  0.044201  1
  Bi  Bi29  1  0.770352  0.479132  0.455799  1
  Bi  Bi30  1  0.729648  0.979132  0.544201  1
  Bi  Bi31  1  0.229648  0.520868  0.955799  1
  Bi  Bi32  1  0.729372  0.979163  0.955682  1
  Bi  Bi33  1  0.229372  0.520837  0.544318  1
  Bi  Bi34  1  0.270628  0.020837  0.455682  1
  Bi  Bi35  1  0.770628  0.479163  0.044318  1
