# generated using pymatgen
data_Tb16Ho4Ir7Rh5
_symmetry_space_group_name_H-M   'P 1'
_cell_length_a   10.90974813
_cell_length_b   10.90974848
_cell_length_c   6.39981100
_cell_angle_alpha   89.99068942
_cell_angle_beta   89.99068972
_cell_angle_gamma   89.94799530
_symmetry_Int_Tables_number   1
_chemical_formula_structural   Tb16Ho4Ir7Rh5
_chemical_formula_sum   'Tb16 Ho4 Ir7 Rh5'
_cell_volume   761.72186311
_cell_formula_units_Z   1
loop_
 _symmetry_equiv_pos_site_id
 _symmetry_equiv_pos_as_xyz
  1  'x, y, z'
loop_
 _atom_site_type_symbol
 _atom_site_label
 _atom_site_symmetry_multiplicity
 _atom_site_fract_x
 _atom_site_fract_y
 _atom_site_fract_z
 _atom_site_occupancy
  Tb  Tb0  1  0.289958  0.088658  0.379525  1
  Tb  Tb1  1  0.290201  0.911256  0.878967  1
  Tb  Tb2  1  0.709209  0.088281  0.878287  1
  Tb  Tb3  1  0.709274  0.909724  0.379615  1
  Tb  Tb4  1  0.588707  0.790044  0.879461  1
  Tb  Tb5  1  0.587320  0.210071  0.379204  1
  Tb  Tb6  1  0.410974  0.790142  0.379299  1
  Tb  Tb7  1  0.411147  0.209759  0.879120  1
  Tb  Tb8  1  0.209956  0.411293  0.620539  1
  Tb  Tb9  1  0.209858  0.589026  0.120701  1
  Tb  Tb10  1  0.789929  0.412680  0.120796  1
  Tb  Tb11  1  0.790241  0.588853  0.620880  1
  Tb  Tb12  1  0.911342  0.710042  0.120475  1
  Tb  Tb13  1  0.911719  0.290791  0.621713  1
  Tb  Tb14  1  0.088744  0.709799  0.621033  1
  Tb  Tb15  1  0.090276  0.290726  0.120385  1
  Ho  Ho16  1  0.000063  0.999718  0.499985  1
  Ho  Ho17  1  0.000282  0.999937  0.000015  1
  Ho  Ho18  1  0.499927  0.499788  0.999869  1
  Ho  Ho19  1  0.500212  0.500073  0.500131  1
  Ir  Ir20  1  0.846484  0.847196  0.749985  1
  Ir  Ir21  1  0.152804  0.153516  0.750015  1
  Ir  Ir22  1  0.153512  0.846488  0.250000  1
  Ir  Ir23  1  0.654131  0.345869  0.750000  1
  Ir  Ir24  1  0.653680  0.653242  0.249767  1
  Ir  Ir25  1  0.346758  0.346320  0.250233  1
  Ir  Ir26  1  0.346499  0.653501  0.750000  1
  Rh  Rh27  1  0.846273  0.153727  0.250000  1
  Rh  Rh28  1  0.500605  0.000255  0.122727  1
  Rh  Rh29  1  0.500406  0.000235  0.622149  1
  Rh  Rh30  1  0.999765  0.499594  0.877851  1
  Rh  Rh31  1  0.999745  0.499395  0.377273  1
