# generated using pymatgen
data_Eu6C6BrCl3
_symmetry_space_group_name_H-M   'P 1'
_cell_length_a   7.42291907
_cell_length_b   7.42291957
_cell_length_c   11.73222844
_cell_angle_alpha   89.01151903
_cell_angle_beta   90.98848210
_cell_angle_gamma   148.77743652
_symmetry_Int_Tables_number   1
_chemical_formula_structural   Eu6C6BrCl3
_chemical_formula_sum   'Eu6 C6 Br1 Cl3'
_cell_volume   335.03871073
_cell_formula_units_Z   1
loop_
 _symmetry_equiv_pos_site_id
 _symmetry_equiv_pos_as_xyz
  1  'x, y, z'
loop_
 _atom_site_type_symbol
 _atom_site_label
 _atom_site_symmetry_multiplicity
 _atom_site_fract_x
 _atom_site_fract_y
 _atom_site_fract_z
 _atom_site_occupancy
  Eu  Eu0  1  0.656559  0.343441  0.559479  1
  Eu  Eu1  1  0.343441  0.656559  0.440521  1
  Eu  Eu2  1  0.339797  0.660203  0.065011  1
  Eu  Eu3  1  0.660203  0.339797  0.934989  1
  Eu  Eu4  1  0.124367  0.875633  0.249842  1
  Eu  Eu5  1  0.875633  0.124367  0.750158  1
  C  C6  1  0.266808  0.733192  0.636206  1
  C  C7  1  0.733192  0.266808  0.363794  1
  C  C8  1  0.731793  0.268207  0.136557  1
  C  C9  1  0.268207  0.731793  0.863443  1
  C  C10  1  0.743078  0.256922  0.250209  1
  C  C11  1  0.256922  0.743078  0.749791  1
  Br  Br12  1  0.000000  0.000000  0.000000  1
  Cl  Cl13  1  0.525388  0.474612  0.746542  1
  Cl  Cl14  1  0.474612  0.525388  0.253458  1
  Cl  Cl15  1  0.000000  0.000000  0.500000  1
