# generated using pymatgen
data_Dy2Y2ZnCo
_symmetry_space_group_name_H-M   'P 1'
_cell_length_a   9.36073160
_cell_length_b   9.36002908
_cell_length_c   9.36939602
_cell_angle_alpha   59.96547996
_cell_angle_beta   59.96804594
_cell_angle_gamma   60.06292030
_symmetry_Int_Tables_number   1
_chemical_formula_structural   Dy2Y2ZnCo
_chemical_formula_sum   'Dy8 Y8 Zn4 Co4'
_cell_volume   580.45840987
_cell_formula_units_Z   4
loop_
 _symmetry_equiv_pos_site_id
 _symmetry_equiv_pos_as_xyz
  1  'x, y, z'
loop_
 _atom_site_type_symbol
 _atom_site_label
 _atom_site_symmetry_multiplicity
 _atom_site_fract_x
 _atom_site_fract_y
 _atom_site_fract_z
 _atom_site_occupancy
  Dy  Dy0  1  0.599704  0.599706  0.599922  1
  Dy  Dy1  1  0.599711  0.599709  0.200647  1
  Dy  Dy2  1  0.599861  0.200735  0.599705  1
  Dy  Dy3  1  0.200630  0.599928  0.599726  1
  Dy  Dy4  1  0.059295  0.440751  0.440703  1
  Dy  Dy5  1  0.440689  0.059284  0.059303  1
  Dy  Dy6  1  0.440688  0.059278  0.440732  1
  Dy  Dy7  1  0.059303  0.440752  0.059252  1
  Y  Y8  1  0.440784  0.440863  0.059167  1
  Y  Y9  1  0.059192  0.059164  0.440827  1
  Y  Y10  1  0.188341  0.811685  0.811671  1
  Y  Y11  1  0.811741  0.188226  0.188287  1
  Y  Y12  1  0.811742  0.188225  0.811752  1
  Y  Y13  1  0.188342  0.811683  0.188310  1
  Y  Y14  1  0.811507  0.811557  0.188468  1
  Y  Y15  1  0.188492  0.188421  0.811542  1
  Zn  Zn16  1  0.826857  0.826915  0.826643  1
  Zn  Zn17  1  0.826855  0.826912  0.519590  1
  Zn  Zn18  1  0.826645  0.519555  0.826900  1
  Zn  Zn19  1  0.519603  0.826677  0.826861  1
  Co  Co20  1  0.391154  0.391153  0.393650  1
  Co  Co21  1  0.391153  0.391150  0.824043  1
  Co  Co22  1  0.393660  0.824029  0.391150  1
  Co  Co23  1  0.824051  0.393645  0.391149  1
