# generated using pymatgen
data_HoErLuGa5Co
_symmetry_space_group_name_H-M   'P 1'
_cell_length_a   6.80972622
_cell_length_b   6.81885461
_cell_length_c   4.22078800
_cell_angle_alpha   90.00000000
_cell_angle_beta   90.00000000
_cell_angle_gamma   119.66324424
_symmetry_Int_Tables_number   1
_chemical_formula_structural   HoErLuGa5Co
_chemical_formula_sum   'Ho1 Er1 Lu1 Ga5 Co1'
_cell_volume   170.30562691
_cell_formula_units_Z   1
loop_
 _symmetry_equiv_pos_site_id
 _symmetry_equiv_pos_as_xyz
  1  'x, y, z'
loop_
 _atom_site_type_symbol
 _atom_site_label
 _atom_site_symmetry_multiplicity
 _atom_site_fract_x
 _atom_site_fract_y
 _atom_site_fract_z
 _atom_site_occupancy
  Ho  Ho0  1  0.596597  0.999425  0.000000  1
  Er  Er1  1  0.999307  0.597293  0.000000  1
  Lu  Lu2  1  0.399163  0.399311  0.000000  1
  Ga  Ga3  1  0.232575  0.000029  0.500000  1
  Ga  Ga4  1  0.000199  0.232642  0.500000  1
  Ga  Ga5  1  0.768513  0.768414  0.500000  1
  Ga  Ga6  1  0.334104  0.664537  0.500000  1
  Ga  Ga7  1  0.665510  0.335009  0.500000  1
  Co  Co8  1  0.004029  0.003340  0.000000  1
