# generated using pymatgen
data_YTmB6Ir
_symmetry_space_group_name_H-M   'P 1'
_cell_length_a   3.62803200
_cell_length_b   9.15756700
_cell_length_c   11.51595700
_cell_angle_alpha   90.00000000
_cell_angle_beta   90.00000000
_cell_angle_gamma   90.00000000
_symmetry_Int_Tables_number   1
_chemical_formula_structural   YTmB6Ir
_chemical_formula_sum   'Y4 Tm4 B24 Ir4'
_cell_volume   382.60553487
_cell_formula_units_Z   4
loop_
 _symmetry_equiv_pos_site_id
 _symmetry_equiv_pos_as_xyz
  1  'x, y, z'
loop_
 _atom_site_type_symbol
 _atom_site_label
 _atom_site_symmetry_multiplicity
 _atom_site_fract_x
 _atom_site_fract_y
 _atom_site_fract_z
 _atom_site_occupancy
  Y  Y0  1  0.000000  0.321432  0.413120  1
  Y  Y1  1  0.000000  0.678568  0.586880  1
  Y  Y2  1  0.000000  0.821432  0.086880  1
  Y  Y3  1  0.000000  0.178568  0.913120  1
  Tm  Tm4  1  0.000000  0.944195  0.374385  1
  Tm  Tm5  1  0.000000  0.055805  0.625615  1
  Tm  Tm6  1  0.000000  0.444195  0.125615  1
  Tm  Tm7  1  0.000000  0.555805  0.874385  1
  B  B8  1  0.500000  0.553803  0.433792  1
  B  B9  1  0.500000  0.446197  0.566208  1
  B  B10  1  0.500000  0.053803  0.066208  1
  B  B11  1  0.500000  0.946197  0.933792  1
  B  B12  1  0.500000  0.750262  0.420391  1
  B  B13  1  0.500000  0.249738  0.579609  1
  B  B14  1  0.500000  0.250262  0.079609  1
  B  B15  1  0.500000  0.749738  0.920391  1
  B  B16  1  0.500000  0.793459  0.265653  1
  B  B17  1  0.500000  0.206541  0.734347  1
  B  B18  1  0.500000  0.293459  0.234347  1
  B  B19  1  0.500000  0.706541  0.765653  1
  B  B20  1  0.500000  0.631401  0.184004  1
  B  B21  1  0.500000  0.368599  0.815996  1
  B  B22  1  0.500000  0.131401  0.315996  1
  B  B23  1  0.500000  0.868599  0.684004  1
  B  B24  1  0.500000  0.981991  0.213855  1
  B  B25  1  0.500000  0.018009  0.786145  1
  B  B26  1  0.500000  0.481991  0.286145  1
  B  B27  1  0.500000  0.518009  0.713855  1
  B  B28  1  0.500000  0.608186  0.029576  1
  B  B29  1  0.500000  0.391814  0.970424  1
  B  B30  1  0.500000  0.108186  0.470424  1
  B  B31  1  0.500000  0.891814  0.529576  1
  Ir  Ir32  1  0.000000  0.638848  0.320668  1
  Ir  Ir33  1  0.000000  0.361152  0.679332  1
  Ir  Ir34  1  0.000000  0.138848  0.179332  1
  Ir  Ir35  1  0.000000  0.861152  0.820668  1
