# generated using pymatgen
data_La5CoPdAu
_symmetry_space_group_name_H-M   'P 1'
_cell_length_a   8.80255940
_cell_length_b   8.26824398
_cell_length_c   12.09794200
_cell_angle_alpha   89.95640576
_cell_angle_beta   90.08806668
_cell_angle_gamma   89.95474735
_symmetry_Int_Tables_number   1
_chemical_formula_structural   La5CoPdAu
_chemical_formula_sum   'La20 Co4 Pd4 Au4'
_cell_volume   880.50732070
_cell_formula_units_Z   4
loop_
 _symmetry_equiv_pos_site_id
 _symmetry_equiv_pos_as_xyz
  1  'x, y, z'
loop_
 _atom_site_type_symbol
 _atom_site_label
 _atom_site_symmetry_multiplicity
 _atom_site_fract_x
 _atom_site_fract_y
 _atom_site_fract_z
 _atom_site_occupancy
  La  La0  1  0.835726  0.757007  0.791828  1
  La  La1  1  0.161621  0.250379  0.208712  1
  La  La2  1  0.331994  0.243012  0.704868  1
  La  La3  1  0.670542  0.749663  0.295676  1
  La  La4  1  0.380747  0.752089  0.698834  1
  La  La5  1  0.624357  0.248802  0.303395  1
  La  La6  1  0.880535  0.248040  0.802301  1
  La  La7  1  0.115286  0.750934  0.200183  1
  La  La8  1  0.965036  0.757641  0.492982  1
  La  La9  1  0.033184  0.245411  0.502044  1
  La  La10  1  0.459743  0.242051  0.002799  1
  La  La11  1  0.542636  0.755471  0.991058  1
  La  La12  1  0.671823  0.037013  0.579281  1
  La  La13  1  0.327853  0.964415  0.425941  1
  La  La14  1  0.170801  0.962401  0.922039  1
  La  La15  1  0.327113  0.532943  0.425267  1
  La  La16  1  0.828841  0.035984  0.078123  1
  La  La17  1  0.673740  0.468500  0.574398  1
  La  La18  1  0.827121  0.466356  0.078355  1
  La  La19  1  0.172577  0.532232  0.926803  1
  Co  Co20  1  0.562105  0.750407  0.510641  1
  Co  Co21  1  0.439444  0.249723  0.489907  1
  Co  Co22  1  0.060662  0.249595  0.991250  1
  Co  Co23  1  0.938100  0.750202  0.009814  1
  Pd  Pd24  1  0.929717  0.473401  0.326083  1
  Pd  Pd25  1  0.568151  0.027800  0.823677  1
  Pd  Pd26  1  0.929704  0.028022  0.323172  1
  Pd  Pd27  1  0.068451  0.974057  0.673582  1
  Au  Au28  1  0.573985  0.471897  0.823902  1
  Au  Au29  1  0.427164  0.526559  0.172809  1
  Au  Au30  1  0.074863  0.526723  0.674036  1
  Au  Au31  1  0.426380  0.971270  0.176241  1
