# generated using pymatgen
data_Dy19MgIr11Ru
_symmetry_space_group_name_H-M   'P 1'
_cell_length_a   10.85226803
_cell_length_b   10.85620303
_cell_length_c   6.34024000
_cell_angle_alpha   90.00000000
_cell_angle_beta   90.00000000
_cell_angle_gamma   89.99089960
_symmetry_Int_Tables_number   1
_chemical_formula_structural   Dy19MgIr11Ru
_chemical_formula_sum   'Dy19 Mg1 Ir11 Ru1'
_cell_volume   746.97172156
_cell_formula_units_Z   1
loop_
 _symmetry_equiv_pos_site_id
 _symmetry_equiv_pos_as_xyz
  1  'x, y, z'
loop_
 _atom_site_type_symbol
 _atom_site_label
 _atom_site_symmetry_multiplicity
 _atom_site_fract_x
 _atom_site_fract_y
 _atom_site_fract_z
 _atom_site_occupancy
  Dy  Dy0  1  0.284868  0.084477  0.378844  1
  Dy  Dy1  1  0.291705  0.912308  0.880791  1
  Dy  Dy2  1  0.708295  0.087692  0.880791  1
  Dy  Dy3  1  0.715132  0.915523  0.378844  1
  Dy  Dy4  1  0.588519  0.793225  0.881374  1
  Dy  Dy5  1  0.587067  0.206722  0.377703  1
  Dy  Dy6  1  0.412933  0.793278  0.377703  1
  Dy  Dy7  1  0.411481  0.206775  0.881374  1
  Dy  Dy8  1  0.208059  0.412077  0.621409  1
  Dy  Dy9  1  0.208161  0.589172  0.119528  1
  Dy  Dy10  1  0.791839  0.410828  0.119528  1
  Dy  Dy11  1  0.791941  0.587923  0.621409  1
  Dy  Dy12  1  0.911774  0.709749  0.119780  1
  Dy  Dy13  1  0.915220  0.283588  0.620035  1
  Dy  Dy14  1  0.084780  0.716412  0.620035  1
  Dy  Dy15  1  0.088226  0.290251  0.119780  1
  Dy  Dy16  1  0.000000  0.000000  0.999988  1
  Dy  Dy17  1  0.500000  0.500000  0.999713  1
  Dy  Dy18  1  0.500000  0.500000  0.499933  1
  Mg  Mg19  1  0.000000  0.000000  0.499870  1
  Ir  Ir20  1  0.846860  0.154199  0.248108  1
  Ir  Ir21  1  0.846310  0.846620  0.751790  1
  Ir  Ir22  1  0.153690  0.153380  0.751790  1
  Ir  Ir23  1  0.153140  0.845801  0.248108  1
  Ir  Ir24  1  0.654570  0.346362  0.748029  1
  Ir  Ir25  1  0.654225  0.654270  0.251942  1
  Ir  Ir26  1  0.345775  0.345730  0.251942  1
  Ir  Ir27  1  0.345430  0.653638  0.748029  1
  Ir  Ir28  1  0.500000  0.000000  0.621689  1
  Ir  Ir29  1  0.000000  0.500000  0.875075  1
  Ir  Ir30  1  0.000000  0.500000  0.379157  1
  Ru  Ru31  1  0.500000  0.000000  0.125911  1
