# generated using pymatgen
data_LaNd3Ni(RhO4)3
_symmetry_space_group_name_H-M   'P 1'
_cell_length_a   5.44246094
_cell_length_b   5.86369804
_cell_length_c   7.85095749
_cell_angle_alpha   89.83033624
_cell_angle_beta   90.13930102
_cell_angle_gamma   90.41939871
_symmetry_Int_Tables_number   1
_chemical_formula_structural   LaNd3Ni(RhO4)3
_chemical_formula_sum   'La1 Nd3 Ni1 Rh3 O12'
_cell_volume   250.53865675
_cell_formula_units_Z   1
loop_
 _symmetry_equiv_pos_site_id
 _symmetry_equiv_pos_as_xyz
  1  'x, y, z'
loop_
 _atom_site_type_symbol
 _atom_site_label
 _atom_site_symmetry_multiplicity
 _atom_site_fract_x
 _atom_site_fract_y
 _atom_site_fract_z
 _atom_site_occupancy
  La  La0  1  0.478133  0.572599  0.741874  1
  Nd  Nd1  1  0.980080  0.930533  0.257232  1
  Nd  Nd2  1  0.019825  0.069367  0.742406  1
  Nd  Nd3  1  0.525074  0.422037  0.257712  1
  Ni  Ni4  1  0.499579  0.999179  0.499303  1
  Rh  Rh5  1  0.000656  0.500657  0.498884  1
  Rh  Rh6  1  0.000549  0.500423  0.001139  1
  Rh  Rh7  1  0.499235  0.999023  0.000843  1
  O  O8  1  0.812588  0.199106  0.449312  1
  O  O9  1  0.306213  0.302608  0.545876  1
  O  O10  1  0.690226  0.698371  0.058697  1
  O  O11  1  0.184386  0.806270  0.947580  1
  O  O12  1  0.183165  0.804853  0.547681  1
  O  O13  1  0.692949  0.695875  0.449052  1
  O  O14  1  0.308912  0.299309  0.945142  1
  O  O15  1  0.810085  0.197956  0.057148  1
  O  O16  1  0.396122  0.032823  0.249174  1
  O  O17  1  0.898283  0.462561  0.750049  1
  O  O18  1  0.110148  0.536450  0.250109  1
  O  O19  1  0.603793  0.970001  0.750789  1
