# generated using pymatgen
data_Ca3La17Ga11Sb
_symmetry_space_group_name_H-M   'P 1'
_cell_length_a   7.98474900
_cell_length_b   7.98474900
_cell_length_c   14.63167300
_cell_angle_alpha   90.00000000
_cell_angle_beta   90.00000000
_cell_angle_gamma   90.00000000
_symmetry_Int_Tables_number   1
_chemical_formula_structural   Ca3La17Ga11Sb
_chemical_formula_sum   'Ca3 La17 Ga11 Sb1'
_cell_volume   932.86011291
_cell_formula_units_Z   1
loop_
 _symmetry_equiv_pos_site_id
 _symmetry_equiv_pos_as_xyz
  1  'x, y, z'
loop_
 _atom_site_type_symbol
 _atom_site_label
 _atom_site_symmetry_multiplicity
 _atom_site_fract_x
 _atom_site_fract_y
 _atom_site_fract_z
 _atom_site_occupancy
  Ca  Ca0  1  0.000000  0.500000  0.739462  1
  Ca  Ca1  1  0.000000  0.500000  0.242736  1
  Ca  Ca2  1  0.500000  0.000000  0.248637  1
  La  La3  1  0.815763  0.836878  0.602810  1
  La  La4  1  0.175125  0.830017  0.098918  1
  La  La5  1  0.172189  0.830266  0.396543  1
  La  La6  1  0.827811  0.169734  0.396543  1
  La  La7  1  0.669734  0.672189  0.396543  1
  La  La8  1  0.663122  0.315763  0.602810  1
  La  La9  1  0.336878  0.684237  0.602810  1
  La  La10  1  0.669983  0.675125  0.098918  1
  La  La11  1  0.677614  0.337374  0.898894  1
  La  La12  1  0.837374  0.822386  0.898894  1
  La  La13  1  0.330266  0.327811  0.396543  1
  La  La14  1  0.184237  0.163122  0.602810  1
  La  La15  1  0.824875  0.169983  0.098918  1
  La  La16  1  0.322386  0.662626  0.898894  1
  La  La17  1  0.330017  0.324875  0.098918  1
  La  La18  1  0.162626  0.177614  0.898894  1
  La  La19  1  0.500000  0.000000  0.790438  1
  Ga  Ga20  1  0.619006  0.383004  0.249152  1
  Ga  Ga21  1  0.118554  0.880963  0.748032  1
  Ga  Ga22  1  0.380963  0.381446  0.748032  1
  Ga  Ga23  1  0.380994  0.616996  0.249152  1
  Ga  Ga24  1  0.883004  0.880994  0.249152  1
  Ga  Ga25  1  0.619037  0.618554  0.748032  1
  Ga  Ga26  1  0.881446  0.119037  0.748032  1
  Ga  Ga27  1  0.500000  0.000000  0.489880  1
  Ga  Ga28  1  0.500000  0.000000  0.004336  1
  Ga  Ga29  1  0.116996  0.119006  0.249152  1
  Ga  Ga30  1  0.000000  0.500000  0.003144  1
  Sb  Sb31  1  0.000000  0.500000  0.503983  1
