# generated using pymatgen
data_NaV3(SnO6)2
_symmetry_space_group_name_H-M   'P 1'
_cell_length_a   9.50202050
_cell_length_b   9.50202032
_cell_length_c   9.50202093
_cell_angle_alpha   58.95323357
_cell_angle_beta   58.95323201
_cell_angle_gamma   58.95323969
_symmetry_Int_Tables_number   1
_chemical_formula_structural   NaV3(SnO6)2
_chemical_formula_sum   'Na2 V6 Sn4 O24'
_cell_volume   592.15372409
_cell_formula_units_Z   2
loop_
 _symmetry_equiv_pos_site_id
 _symmetry_equiv_pos_as_xyz
  1  'x, y, z'
loop_
 _atom_site_type_symbol
 _atom_site_label
 _atom_site_symmetry_multiplicity
 _atom_site_fract_x
 _atom_site_fract_y
 _atom_site_fract_z
 _atom_site_occupancy
  Na  Na0  1  0.500000  0.500000  0.500000  1
  Na  Na1  1  0.000000  0.000000  0.000000  1
  V  V2  1  0.962478  0.537522  0.250000  1
  V  V3  1  0.250000  0.962478  0.537522  1
  V  V4  1  0.537522  0.250000  0.962478  1
  V  V5  1  0.750000  0.037522  0.462478  1
  V  V6  1  0.462478  0.750000  0.037522  1
  V  V7  1  0.037522  0.462478  0.750000  1
  Sn  Sn8  1  0.358690  0.358690  0.358690  1
  Sn  Sn9  1  0.858690  0.858690  0.858690  1
  Sn  Sn10  1  0.641310  0.641310  0.641310  1
  Sn  Sn11  1  0.141310  0.141310  0.141310  1
  O  O12  1  0.136405  0.502597  0.291979  1
  O  O13  1  0.291979  0.136405  0.502597  1
  O  O14  1  0.502597  0.291979  0.136405  1
  O  O15  1  0.791979  0.002597  0.636405  1
  O  O16  1  0.636405  0.791979  0.002597  1
  O  O17  1  0.002597  0.636405  0.791979  1
  O  O18  1  0.863595  0.497403  0.708021  1
  O  O19  1  0.708021  0.863595  0.497403  1
  O  O20  1  0.497403  0.708021  0.863595  1
  O  O21  1  0.208021  0.997403  0.363595  1
  O  O22  1  0.363595  0.208021  0.997403  1
  O  O23  1  0.997403  0.363595  0.208021  1
  O  O24  1  0.232022  0.440181  0.571751  1
  O  O25  1  0.571751  0.232022  0.440181  1
  O  O26  1  0.440181  0.571751  0.232022  1
  O  O27  1  0.071751  0.940181  0.732022  1
  O  O28  1  0.732022  0.071751  0.940181  1
  O  O29  1  0.940181  0.732022  0.071751  1
  O  O30  1  0.767978  0.559819  0.428249  1
  O  O31  1  0.428249  0.767978  0.559819  1
  O  O32  1  0.559819  0.428249  0.767978  1
  O  O33  1  0.928249  0.059819  0.267978  1
  O  O34  1  0.267978  0.928249  0.059819  1
  O  O35  1  0.059819  0.267978  0.928249  1
