# generated using pymatgen
data_Li7Nd8CdPb8
_symmetry_space_group_name_H-M   'P 1'
_cell_length_a   9.76980900
_cell_length_b   9.76127701
_cell_length_c   7.67253996
_cell_angle_alpha   90.06160234
_cell_angle_beta   90.00000000
_cell_angle_gamma   120.02892143
_symmetry_Int_Tables_number   1
_chemical_formula_structural   Li7Nd8CdPb8
_chemical_formula_sum   'Li7 Nd8 Cd1 Pb8'
_cell_volume   633.48381824
_cell_formula_units_Z   1
loop_
 _symmetry_equiv_pos_site_id
 _symmetry_equiv_pos_as_xyz
  1  'x, y, z'
loop_
 _atom_site_type_symbol
 _atom_site_label
 _atom_site_symmetry_multiplicity
 _atom_site_fract_x
 _atom_site_fract_y
 _atom_site_fract_z
 _atom_site_occupancy
  Li  Li0  1  0.163584  0.831626  0.288674  1
  Li  Li1  1  0.668041  0.831626  0.288674  1
  Li  Li2  1  0.833128  0.666255  0.789592  1
  Li  Li3  1  0.832454  0.166406  0.787297  1
  Li  Li4  1  0.333951  0.166406  0.787297  1
  Li  Li5  1  0.333440  0.666880  0.674378  1
  Li  Li6  1  0.669005  0.338008  0.171875  1
  Nd  Nd7  1  0.511967  0.023936  0.499426  1
  Nd  Nd8  1  0.514703  0.489288  0.495173  1
  Nd  Nd9  1  0.974584  0.489288  0.495173  1
  Nd  Nd10  1  0.488545  0.977089  0.988611  1
  Nd  Nd11  1  0.487698  0.511688  0.994174  1
  Nd  Nd12  1  0.023991  0.511688  0.994174  1
  Nd  Nd13  1  0.997410  0.994821  0.503271  1
  Nd  Nd14  1  0.000948  0.001897  0.001500  1
  Cd  Cd15  1  0.166634  0.333269  0.296324  1
  Pb  Pb16  1  0.166334  0.332668  0.732155  1
  Pb  Pb17  1  0.165879  0.832387  0.728316  1
  Pb  Pb18  1  0.666507  0.832387  0.728316  1
  Pb  Pb19  1  0.833603  0.667205  0.228893  1
  Pb  Pb20  1  0.821665  0.160825  0.223571  1
  Pb  Pb21  1  0.339160  0.160825  0.223571  1
  Pb  Pb22  1  0.339675  0.679350  0.259011  1
  Pb  Pb23  1  0.667092  0.334183  0.762527  1
