# generated using pymatgen
data_Tb2(UPt3)3
_symmetry_space_group_name_H-M   'P 1'
_cell_length_a   9.88641606
_cell_length_b   9.88641606
_cell_length_c   5.77365000
_cell_angle_alpha   90.00000000
_cell_angle_beta   90.00000000
_cell_angle_gamma   89.25656030
_symmetry_Int_Tables_number   1
_chemical_formula_structural   Tb2(UPt3)3
_chemical_formula_sum   'Tb4 U6 Pt18'
_cell_volume   564.27610473
_cell_formula_units_Z   2
loop_
 _symmetry_equiv_pos_site_id
 _symmetry_equiv_pos_as_xyz
  1  'x, y, z'
loop_
 _atom_site_type_symbol
 _atom_site_label
 _atom_site_symmetry_multiplicity
 _atom_site_fract_x
 _atom_site_fract_y
 _atom_site_fract_z
 _atom_site_occupancy
  Tb  Tb0  1  0.307329  0.046500  0.500000  1
  Tb  Tb1  1  0.692671  0.953500  0.500000  1
  Tb  Tb2  1  0.953500  0.692671  0.500000  1
  Tb  Tb3  1  0.046500  0.307329  0.500000  1
  U  U4  1  0.453493  0.808647  0.000000  1
  U  U5  1  0.546507  0.191353  0.000000  1
  U  U6  1  0.191353  0.546507  0.000000  1
  U  U7  1  0.808647  0.453493  0.000000  1
  U  U8  1  0.500000  0.500000  0.500000  1
  U  U9  1  0.000000  0.000000  0.000000  1
  Pt  Pt10  1  0.193242  0.806758  0.249293  1
  Pt  Pt11  1  0.806758  0.193242  0.750707  1
  Pt  Pt12  1  0.806758  0.193242  0.249293  1
  Pt  Pt13  1  0.193242  0.806758  0.750707  1
  Pt  Pt14  1  0.441307  0.779837  0.500000  1
  Pt  Pt15  1  0.558693  0.220163  0.500000  1
  Pt  Pt16  1  0.220163  0.558693  0.500000  1
  Pt  Pt17  1  0.779837  0.441307  0.500000  1
  Pt  Pt18  1  0.310302  0.310302  0.250336  1
  Pt  Pt19  1  0.689698  0.689698  0.749664  1
  Pt  Pt20  1  0.689698  0.689698  0.250336  1
  Pt  Pt21  1  0.310302  0.310302  0.749664  1
  Pt  Pt22  1  0.285990  0.058405  0.000000  1
  Pt  Pt23  1  0.714010  0.941595  0.000000  1
  Pt  Pt24  1  0.941595  0.714010  0.000000  1
  Pt  Pt25  1  0.058405  0.285990  0.000000  1
  Pt  Pt26  1  0.000000  0.000000  0.500000  1
  Pt  Pt27  1  0.500000  0.500000  0.000000  1
