# generated using pymatgen
data_LiPr2Nd6CdIr2
_symmetry_space_group_name_H-M   'P 1'
_cell_length_a   9.99934693
_cell_length_b   10.00015354
_cell_length_c   9.98607903
_cell_angle_alpha   60.04120734
_cell_angle_beta   60.04922834
_cell_angle_gamma   60.06772394
_symmetry_Int_Tables_number   1
_chemical_formula_structural   LiPr2Nd6CdIr2
_chemical_formula_sum   'Li2 Pr4 Nd12 Cd2 Ir4'
_cell_volume   706.93076578
_cell_formula_units_Z   2
loop_
 _symmetry_equiv_pos_site_id
 _symmetry_equiv_pos_as_xyz
  1  'x, y, z'
loop_
 _atom_site_type_symbol
 _atom_site_label
 _atom_site_symmetry_multiplicity
 _atom_site_fract_x
 _atom_site_fract_y
 _atom_site_fract_z
 _atom_site_occupancy
  Li  Li0  1  0.571895  0.571835  0.576536  1
  Li  Li1  1  0.571835  0.571895  0.279733  1
  Pr  Pr2  1  0.561784  0.938761  0.562021  1
  Pr  Pr3  1  0.938761  0.561784  0.937434  1
  Pr  Pr4  1  0.562207  0.562207  0.937793  1
  Pr  Pr5  1  0.938606  0.938606  0.561394  1
  Nd  Nd6  1  0.347272  0.347442  0.348599  1
  Nd  Nd7  1  0.347442  0.347272  0.956687  1
  Nd  Nd8  1  0.346581  0.960742  0.346215  1
  Nd  Nd9  1  0.960742  0.346581  0.346460  1
  Nd  Nd10  1  0.811726  0.188660  0.189451  1
  Nd  Nd11  1  0.188660  0.811726  0.810162  1
  Nd  Nd12  1  0.188704  0.811690  0.189474  1
  Nd  Nd13  1  0.811690  0.188704  0.810131  1
  Nd  Nd14  1  0.191657  0.191657  0.808343  1
  Nd  Nd15  1  0.815103  0.815103  0.184897  1
  Nd  Nd16  1  0.939149  0.561560  0.561812  1
  Nd  Nd17  1  0.561560  0.939149  0.937479  1
  Cd  Cd18  1  0.582141  0.258482  0.579762  1
  Cd  Cd19  1  0.258482  0.582141  0.579614  1
  Ir  Ir20  1  0.142423  0.142147  0.140284  1
  Ir  Ir21  1  0.142147  0.142423  0.575144  1
  Ir  Ir22  1  0.143322  0.576107  0.140394  1
  Ir  Ir23  1  0.576107  0.143322  0.140178  1
