# generated using pymatgen
data_BaBi2F8
_symmetry_space_group_name_H-M   'P 1'
_cell_length_a   6.56322269
_cell_length_b   6.56322224
_cell_length_c   4.45241509
_cell_angle_alpha   84.57126823
_cell_angle_beta   84.57127325
_cell_angle_gamma   112.84139126
_symmetry_Int_Tables_number   1
_chemical_formula_structural   BaBi2F8
_chemical_formula_sum   'Ba1 Bi2 F8'
_cell_volume   174.14701554
_cell_formula_units_Z   1
loop_
 _symmetry_equiv_pos_site_id
 _symmetry_equiv_pos_as_xyz
  1  'x, y, z'
loop_
 _atom_site_type_symbol
 _atom_site_label
 _atom_site_symmetry_multiplicity
 _atom_site_fract_x
 _atom_site_fract_y
 _atom_site_fract_z
 _atom_site_occupancy
  Ba  Ba0  1  0.000000  0.000000  0.500000  1
  Bi  Bi1  1  0.676283  0.323717  0.000000  1
  Bi  Bi2  1  0.323717  0.676283  0.000000  1
  F  F3  1  0.952449  0.678105  0.063822  1
  F  F4  1  0.678105  0.952449  0.063822  1
  F  F5  1  0.614568  0.614568  0.716531  1
  F  F6  1  0.254011  0.745989  0.500000  1
  F  F7  1  0.745989  0.254011  0.500000  1
  F  F8  1  0.385432  0.385432  0.283469  1
  F  F9  1  0.321895  0.047551  0.936178  1
  F  F10  1  0.047551  0.321895  0.936178  1
