# generated using pymatgen
data_Eu2SbO
_symmetry_space_group_name_H-M   'P 1'
_cell_length_a   4.71242700
_cell_length_b   4.71242700
_cell_length_c   9.19481800
_cell_angle_alpha   90.00000000
_cell_angle_beta   90.00000000
_cell_angle_gamma   90.00000000
_symmetry_Int_Tables_number   1
_chemical_formula_structural   Eu2SbO
_chemical_formula_sum   'Eu4 Sb2 O2'
_cell_volume   204.18903121
_cell_formula_units_Z   2
loop_
 _symmetry_equiv_pos_site_id
 _symmetry_equiv_pos_as_xyz
  1  'x, y, z'
loop_
 _atom_site_type_symbol
 _atom_site_label
 _atom_site_symmetry_multiplicity
 _atom_site_fract_x
 _atom_site_fract_y
 _atom_site_fract_z
 _atom_site_occupancy
  Eu  Eu0  1  0.000000  0.000000  0.000000  1
  Eu  Eu1  1  0.500000  0.500000  0.000000  1
  Eu  Eu2  1  0.000000  0.500000  0.667125  1
  Eu  Eu3  1  0.500000  0.000000  0.332875  1
  Sb  Sb4  1  0.000000  0.500000  0.300814  1
  Sb  Sb5  1  0.500000  0.000000  0.699186  1
  O  O6  1  0.000000  0.500000  0.919919  1
  O  O7  1  0.500000  0.000000  0.080081  1
