# generated using pymatgen
data_Ba3Sr3(W2O9)2
_symmetry_space_group_name_H-M   'P 1'
_cell_length_a   9.13940199
_cell_length_b   7.24889310
_cell_length_c   7.29264906
_cell_angle_alpha   84.78947713
_cell_angle_beta   78.99661880
_cell_angle_gamma   78.25729352
_symmetry_Int_Tables_number   1
_chemical_formula_structural   Ba3Sr3(W2O9)2
_chemical_formula_sum   'Ba3 Sr3 W4 O18'
_cell_volume   463.65487562
_cell_formula_units_Z   1
loop_
 _symmetry_equiv_pos_site_id
 _symmetry_equiv_pos_as_xyz
  1  'x, y, z'
loop_
 _atom_site_type_symbol
 _atom_site_label
 _atom_site_symmetry_multiplicity
 _atom_site_fract_x
 _atom_site_fract_y
 _atom_site_fract_z
 _atom_site_occupancy
  Ba  Ba0  1  0.250313  0.610729  0.888728  1
  Ba  Ba1  1  0.749719  0.395955  0.107624  1
  Ba  Ba2  1  0.984113  0.767279  0.365154  1
  Sr  Sr3  1  0.479977  0.862682  0.266239  1
  Sr  Sr4  1  0.026227  0.230482  0.632798  1
  Sr  Sr5  1  0.515132  0.136467  0.735839  1
  W  W6  1  0.151289  0.165049  0.153753  1
  W  W7  1  0.357202  0.335864  0.336651  1
  W  W8  1  0.847053  0.840125  0.845434  1
  W  W9  1  0.644181  0.660678  0.663273  1
  O  O10  1  0.209844  0.912268  0.102784  1
  O  O11  1  0.083278  0.277880  0.940830  1
  O  O12  1  0.963788  0.158124  0.309088  1
  O  O13  1  0.292615  0.393600  0.585270  1
  O  O14  1  0.543072  0.180030  0.356526  1
  O  O15  1  0.425411  0.547652  0.221295  1
  O  O16  1  0.785315  0.085929  0.913241  1
  O  O17  1  0.920040  0.703076  0.045557  1
  O  O18  1  0.035337  0.864809  0.699213  1
  O  O19  1  0.697999  0.615904  0.411013  1
  O  O20  1  0.146579  0.427902  0.264823  1
  O  O21  1  0.368284  0.216142  0.068756  1
  O  O22  1  0.252198  0.101067  0.395123  1
  O  O23  1  0.859886  0.568919  0.716413  1
  O  O24  1  0.636034  0.770440  0.934420  1
  O  O25  1  0.743587  0.903254  0.614138  1
  O  O26  1  0.574916  0.448522  0.774729  1
  O  O27  1  0.456612  0.819171  0.651288  1
