# generated using pymatgen
data_Nb12Al9Fe(NiC2)2
_symmetry_space_group_name_H-M   'P 1'
_cell_length_a   8.30304816
_cell_length_b   8.28868638
_cell_length_c   8.27811300
_cell_angle_alpha   60.04219285
_cell_angle_beta   60.09929719
_cell_angle_gamma   60.15475533
_symmetry_Int_Tables_number   1
_chemical_formula_structural   Nb12Al9Fe(NiC2)2
_chemical_formula_sum   'Nb12 Al9 Fe1 Ni2 C4'
_cell_volume   403.74710307
_cell_formula_units_Z   1
loop_
 _symmetry_equiv_pos_site_id
 _symmetry_equiv_pos_as_xyz
  1  'x, y, z'
loop_
 _atom_site_type_symbol
 _atom_site_label
 _atom_site_symmetry_multiplicity
 _atom_site_fract_x
 _atom_site_fract_y
 _atom_site_fract_z
 _atom_site_occupancy
  Nb  Nb0  1  0.814783  0.816458  0.184379  1
  Nb  Nb1  1  0.192131  0.190047  0.808911  1
  Nb  Nb2  1  0.811813  0.184227  0.810840  1
  Nb  Nb3  1  0.182977  0.814417  0.190341  1
  Nb  Nb4  1  0.182977  0.814417  0.812264  1
  Nb  Nb5  1  0.811813  0.184227  0.193119  1
  Nb  Nb6  1  0.435217  0.433542  0.065621  1
  Nb  Nb7  1  0.057869  0.059953  0.441089  1
  Nb  Nb8  1  0.438187  0.065773  0.439160  1
  Nb  Nb9  1  0.067023  0.435583  0.059659  1
  Nb  Nb10  1  0.067023  0.435583  0.437736  1
  Nb  Nb11  1  0.438187  0.065773  0.056881  1
  Al  Al12  1  0.625000  0.125000  0.625000  1
  Al  Al13  1  0.752562  0.430433  0.408503  1
  Al  Al14  1  0.415433  0.753131  0.415719  1
  Al  Al15  1  0.410778  0.431885  0.747971  1
  Al  Al16  1  0.410778  0.431885  0.409368  1
  Al  Al17  1  0.497438  0.819567  0.841497  1
  Al  Al18  1  0.834567  0.496869  0.834281  1
  Al  Al19  1  0.839222  0.818115  0.502029  1
  Al  Al20  1  0.839222  0.818115  0.840632  1
  Fe  Fe21  1  0.125000  0.625000  0.625000  1
  Ni  Ni22  1  0.625000  0.625000  0.125000  1
  Ni  Ni23  1  0.625000  0.625000  0.625000  1
  C  C24  1  0.625000  0.125000  0.125000  1
  C  C25  1  0.125000  0.625000  0.125000  1
  C  C26  1  0.125000  0.125000  0.625000  1
  C  C27  1  0.125000  0.125000  0.125000  1
