# generated using pymatgen
data_LuHf(Ga3Rh)3
_symmetry_space_group_name_H-M   'P 1'
_cell_length_a   7.50730502
_cell_length_b   7.49858804
_cell_length_c   9.38337200
_cell_angle_alpha   90.00000000
_cell_angle_beta   90.00000000
_cell_angle_gamma   119.97357071
_symmetry_Int_Tables_number   1
_chemical_formula_structural   LuHf(Ga3Rh)3
_chemical_formula_sum   'Lu2 Hf2 Ga18 Rh6'
_cell_volume   457.58177754
_cell_formula_units_Z   2
loop_
 _symmetry_equiv_pos_site_id
 _symmetry_equiv_pos_as_xyz
  1  'x, y, z'
loop_
 _atom_site_type_symbol
 _atom_site_label
 _atom_site_symmetry_multiplicity
 _atom_site_fract_x
 _atom_site_fract_y
 _atom_site_fract_z
 _atom_site_occupancy
  Lu  Lu0  1  0.668517  0.995850  0.250000  1
  Lu  Lu1  1  0.331483  0.004150  0.750000  1
  Hf  Hf2  1  0.995836  0.669253  0.250000  1
  Hf  Hf3  1  0.004164  0.330747  0.750000  1
  Ga  Ga4  1  0.124537  0.124146  0.250000  1
  Ga  Ga5  1  0.875463  0.875854  0.750000  1
  Ga  Ga6  1  0.998161  0.336982  0.080164  1
  Ga  Ga7  1  0.001839  0.663018  0.919836  1
  Ga  Ga8  1  0.001839  0.663018  0.580164  1
  Ga  Ga9  1  0.331279  0.996133  0.417032  1
  Ga  Ga10  1  0.998161  0.336982  0.419836  1
  Ga  Ga11  1  0.668721  0.003867  0.582968  1
  Ga  Ga12  1  0.668721  0.003867  0.917032  1
  Ga  Ga13  1  0.331279  0.996133  0.082968  1
  Ga  Ga14  1  0.329740  0.332240  0.569934  1
  Ga  Ga15  1  0.670260  0.667760  0.430066  1
  Ga  Ga16  1  0.670260  0.667760  0.069934  1
  Ga  Ga17  1  0.329740  0.332240  0.930066  1
  Ga  Ga18  1  0.336064  0.547372  0.250000  1
  Ga  Ga19  1  0.663936  0.452628  0.750000  1
  Ga  Ga20  1  0.551919  0.340076  0.250000  1
  Ga  Ga21  1  0.448081  0.659924  0.750000  1
  Rh  Rh22  1  0.671451  0.327570  0.999459  1
  Rh  Rh23  1  0.328549  0.672430  0.000541  1
  Rh  Rh24  1  0.328549  0.672430  0.499459  1
  Rh  Rh25  1  0.671451  0.327570  0.500541  1
  Rh  Rh26  1  0.000000  0.000000  0.000000  1
  Rh  Rh27  1  0.000000  0.000000  0.500000  1
