# generated using pymatgen
data_Pa(MnAl5)2
_symmetry_space_group_name_H-M   'P 1'
_cell_length_a   6.79006181
_cell_length_b   6.79006230
_cell_length_c   8.98725500
_cell_angle_alpha   90.00000000
_cell_angle_beta   90.00000000
_cell_angle_gamma   97.70697667
_symmetry_Int_Tables_number   1
_chemical_formula_structural   Pa(MnAl5)2
_chemical_formula_sum   'Pa2 Mn4 Al20'
_cell_volume   410.61394087
_cell_formula_units_Z   2
loop_
 _symmetry_equiv_pos_site_id
 _symmetry_equiv_pos_as_xyz
  1  'x, y, z'
loop_
 _atom_site_type_symbol
 _atom_site_label
 _atom_site_symmetry_multiplicity
 _atom_site_fract_x
 _atom_site_fract_y
 _atom_site_fract_z
 _atom_site_occupancy
  Pa  Pa0  1  0.871430  0.128570  0.750000  1
  Pa  Pa1  1  0.128570  0.871430  0.250000  1
  Mn  Mn2  1  0.000000  0.500000  0.500000  1
  Mn  Mn3  1  0.000000  0.500000  0.000000  1
  Mn  Mn4  1  0.500000  0.000000  0.000000  1
  Mn  Mn5  1  0.500000  0.000000  0.500000  1
  Al  Al6  1  0.624804  0.375196  0.547448  1
  Al  Al7  1  0.375196  0.624804  0.452552  1
  Al  Al8  1  0.375196  0.624804  0.047448  1
  Al  Al9  1  0.624804  0.375196  0.952552  1
  Al  Al10  1  0.226758  0.226758  0.500000  1
  Al  Al11  1  0.773242  0.773242  0.500000  1
  Al  Al12  1  0.773242  0.773242  0.000000  1
  Al  Al13  1  0.226758  0.226758  0.000000  1
  Al  Al14  1  0.841846  0.158154  0.098342  1
  Al  Al15  1  0.158154  0.841846  0.901658  1
  Al  Al16  1  0.158154  0.841846  0.598342  1
  Al  Al17  1  0.841846  0.158154  0.401658  1
  Al  Al18  1  0.866453  0.589460  0.750000  1
  Al  Al19  1  0.133547  0.410540  0.250000  1
  Al  Al20  1  0.410540  0.133547  0.750000  1
  Al  Al21  1  0.589460  0.866453  0.250000  1
  Al  Al22  1  0.218529  0.477272  0.750000  1
  Al  Al23  1  0.781471  0.522728  0.250000  1
  Al  Al24  1  0.522728  0.781471  0.750000  1
  Al  Al25  1  0.477272  0.218529  0.250000  1
