# generated using pymatgen
data_Ta2PtRh3
_symmetry_space_group_name_H-M   'P 1'
_cell_length_a   4.01119200
_cell_length_b   5.59546600
_cell_length_c   8.37952900
_cell_angle_alpha   90.00000000
_cell_angle_beta   90.00000000
_cell_angle_gamma   90.00000000
_symmetry_Int_Tables_number   1
_chemical_formula_structural   Ta2PtRh3
_chemical_formula_sum   'Ta4 Pt2 Rh6'
_cell_volume   188.07424190
_cell_formula_units_Z   2
loop_
 _symmetry_equiv_pos_site_id
 _symmetry_equiv_pos_as_xyz
  1  'x, y, z'
loop_
 _atom_site_type_symbol
 _atom_site_label
 _atom_site_symmetry_multiplicity
 _atom_site_fract_x
 _atom_site_fract_y
 _atom_site_fract_z
 _atom_site_occupancy
  Ta  Ta0  1  0.250000  0.342109  0.903361  1
  Ta  Ta1  1  0.250000  0.842109  0.596639  1
  Ta  Ta2  1  0.750000  0.658362  0.106431  1
  Ta  Ta3  1  0.750000  0.158362  0.393569  1
  Pt  Pt4  1  0.250000  0.356247  0.577264  1
  Pt  Pt5  1  0.250000  0.856247  0.922736  1
  Rh  Rh6  1  0.750000  0.645528  0.425197  1
  Rh  Rh7  1  0.750000  0.145528  0.074803  1
  Rh  Rh8  1  0.250000  0.394722  0.235719  1
  Rh  Rh9  1  0.250000  0.894722  0.264281  1
  Rh  Rh10  1  0.750000  0.603031  0.766133  1
  Rh  Rh11  1  0.750000  0.103031  0.733867  1
