# generated using pymatgen
data_K2Ba2As3PPt4
_symmetry_space_group_name_H-M   'P 1'
_cell_length_a   6.75724467
_cell_length_b   6.71438742
_cell_length_c   6.72451468
_cell_angle_alpha   89.83941944
_cell_angle_beta   89.63882983
_cell_angle_gamma   89.56522065
_symmetry_Int_Tables_number   1
_chemical_formula_structural   K2Ba2As3PPt4
_chemical_formula_sum   'K2 Ba2 As3 P1 Pt4'
_cell_volume   305.08032936
_cell_formula_units_Z   1
loop_
 _symmetry_equiv_pos_site_id
 _symmetry_equiv_pos_as_xyz
  1  'x, y, z'
loop_
 _atom_site_type_symbol
 _atom_site_label
 _atom_site_symmetry_multiplicity
 _atom_site_fract_x
 _atom_site_fract_y
 _atom_site_fract_z
 _atom_site_occupancy
  K  K0  1  0.626815  0.368708  0.873188  1
  K  K1  1  0.129004  0.131338  0.123387  1
  Ba  Ba2  1  0.369311  0.872242  0.634119  1
  Ba  Ba3  1  0.867435  0.624228  0.366726  1
  As  As4  1  0.584640  0.913276  0.089842  1
  As  As5  1  0.090608  0.584667  0.915745  1
  As  As6  1  0.915057  0.090419  0.582425  1
  P  P7  1  0.408981  0.408658  0.409170  1
  Pt  Pt8  1  0.165867  0.350786  0.641487  1
  Pt  Pt9  1  0.642507  0.164284  0.350803  1
  Pt  Pt10  1  0.849003  0.848608  0.846217  1
  Pt  Pt11  1  0.350771  0.642789  0.166892  1
