# generated using pymatgen
data_La6Dy2YRh6
_symmetry_space_group_name_H-M   'P 1'
_cell_length_a   7.63762276
_cell_length_b   7.63762282
_cell_length_c   7.63762283
_cell_angle_alpha   70.84438126
_cell_angle_beta   70.84438746
_cell_angle_gamma   70.84438127
_symmetry_Int_Tables_number   1
_chemical_formula_structural   La6Dy2YRh6
_chemical_formula_sum   'La6 Dy2 Y1 Rh6'
_cell_volume   385.23186552
_cell_formula_units_Z   1
loop_
 _symmetry_equiv_pos_site_id
 _symmetry_equiv_pos_as_xyz
  1  'x, y, z'
loop_
 _atom_site_type_symbol
 _atom_site_label
 _atom_site_symmetry_multiplicity
 _atom_site_fract_x
 _atom_site_fract_y
 _atom_site_fract_z
 _atom_site_occupancy
  La  La0  1  0.160363  0.389306  0.670668  1
  La  La1  1  0.670668  0.160363  0.389306  1
  La  La2  1  0.389306  0.670668  0.160363  1
  La  La3  1  0.839574  0.610694  0.329454  1
  La  La4  1  0.329454  0.839574  0.610694  1
  La  La5  1  0.610694  0.329454  0.839574  1
  Dy  Dy6  1  0.000002  0.000002  0.000002  1
  Dy  Dy7  1  0.197854  0.197854  0.197854  1
  Y  Y8  1  0.801984  0.801984  0.801984  1
  Rh  Rh9  1  0.958509  0.160809  0.592536  1
  Rh  Rh10  1  0.592536  0.958509  0.160809  1
  Rh  Rh11  1  0.160809  0.592536  0.958509  1
  Rh  Rh12  1  0.041899  0.839517  0.406830  1
  Rh  Rh13  1  0.406830  0.041899  0.839517  1
  Rh  Rh14  1  0.839517  0.406830  0.041899  1
