# generated using pymatgen
data_Li19NiIr4N9
_symmetry_space_group_name_H-M   'P 1'
_cell_length_a   7.49071639
_cell_length_b   7.49583971
_cell_length_c   11.17532625
_cell_angle_alpha   59.72699410
_cell_angle_beta   59.69087629
_cell_angle_gamma   51.08877256
_symmetry_Int_Tables_number   1
_chemical_formula_structural   Li19NiIr4N9
_chemical_formula_sum   'Li19 Ni1 Ir4 N9'
_cell_volume   404.83612438
_cell_formula_units_Z   1
loop_
 _symmetry_equiv_pos_site_id
 _symmetry_equiv_pos_as_xyz
  1  'x, y, z'
loop_
 _atom_site_type_symbol
 _atom_site_label
 _atom_site_symmetry_multiplicity
 _atom_site_fract_x
 _atom_site_fract_y
 _atom_site_fract_z
 _atom_site_occupancy
  Li  Li0  1  0.277978  0.016952  0.079658  1
  Li  Li1  1  0.694404  0.956112  0.116739  1
  Li  Li2  1  0.804211  0.212109  0.186929  1
  Li  Li3  1  0.242602  0.991661  0.443064  1
  Li  Li4  1  0.668490  0.650752  0.041554  1
  Li  Li5  1  0.346262  0.326030  0.258314  1
  Li  Li6  1  0.701030  0.294033  0.503815  1
  Li  Li7  1  0.987279  0.731428  0.279073  1
  Li  Li8  1  0.273975  0.012595  0.719540  1
  Li  Li9  1  0.635338  0.689193  0.395225  1
  Li  Li10  1  0.308092  0.366571  0.601944  1
  Li  Li11  1  0.399187  0.575117  0.341566  1
  Li  Li12  1  0.785866  0.200254  0.808417  1
  Li  Li13  1  0.002065  0.776346  0.553473  1
  Li  Li14  1  0.673268  0.660498  0.731566  1
  Li  Li15  1  0.340034  0.336490  0.968938  1
  Li  Li16  1  0.411860  0.585832  0.665915  1
  Li  Li17  1  0.055722  0.315303  0.879647  1
  Li  Li18  1  0.986907  0.711740  0.929518  1
  Ni  Ni19  1  0.987184  0.390120  0.212554  1
  Ir  Ir20  1  0.617809  0.015851  0.455861  1
  Ir  Ir21  1  0.990037  0.379165  0.536531  1
  Ir  Ir22  1  0.594460  0.018843  0.794697  1
  Ir  Ir23  1  0.312238  0.695617  0.997060  1
  N  N24  1  0.645743  0.009200  0.280329  1
  N  N25  1  0.000475  0.372560  0.054032  1
  N  N26  1  0.339917  0.662547  0.159930  1
  N  N27  1  0.602087  0.019610  0.625678  1
  N  N28  1  0.988175  0.387788  0.369216  1
  N  N29  1  0.352587  0.648268  0.498070  1
  N  N30  1  0.626280  0.997387  0.960581  1
  N  N31  1  0.989204  0.356647  0.711329  1
  N  N32  1  0.337050  0.659566  0.839235  1
