# generated using pymatgen
data_Dy8SnHg2PbAu8
_symmetry_space_group_name_H-M   'P 1'
_cell_length_a   8.06638100
_cell_length_b   8.06638100
_cell_length_c   7.36252200
_cell_angle_alpha   90.00000000
_cell_angle_beta   90.00000000
_cell_angle_gamma   90.00000000
_symmetry_Int_Tables_number   1
_chemical_formula_structural   Dy8SnHg2PbAu8
_chemical_formula_sum   'Dy8 Sn1 Hg2 Pb1 Au8'
_cell_volume   479.05355566
_cell_formula_units_Z   1
loop_
 _symmetry_equiv_pos_site_id
 _symmetry_equiv_pos_as_xyz
  1  'x, y, z'
loop_
 _atom_site_type_symbol
 _atom_site_label
 _atom_site_symmetry_multiplicity
 _atom_site_fract_x
 _atom_site_fract_y
 _atom_site_fract_z
 _atom_site_occupancy
  Dy  Dy0  1  0.843140  0.163337  0.499365  1
  Dy  Dy1  1  0.156860  0.836663  0.499365  1
  Dy  Dy2  1  0.336663  0.343140  0.000635  1
  Dy  Dy3  1  0.663337  0.656860  0.000635  1
  Dy  Dy4  1  0.684490  0.679607  0.499390  1
  Dy  Dy5  1  0.315510  0.320393  0.499390  1
  Dy  Dy6  1  0.179607  0.815510  0.000610  1
  Dy  Dy7  1  0.820393  0.184490  0.000610  1
  Sn  Sn8  1  0.000000  0.500000  0.250000  1
  Hg  Hg9  1  0.500000  0.000000  0.250000  1
  Hg  Hg10  1  0.000000  0.500000  0.750000  1
  Pb  Pb11  1  0.500000  0.000000  0.750000  1
  Au  Au12  1  0.625118  0.370397  0.272302  1
  Au  Au13  1  0.374882  0.629603  0.272302  1
  Au  Au14  1  0.124757  0.129401  0.771898  1
  Au  Au15  1  0.875243  0.870599  0.771898  1
  Au  Au16  1  0.370599  0.624757  0.728102  1
  Au  Au17  1  0.629401  0.375243  0.728102  1
  Au  Au18  1  0.870397  0.874882  0.227698  1
  Au  Au19  1  0.129603  0.125118  0.227698  1
