# generated using pymatgen
data_Tb3Tl2InIrPd2
_symmetry_space_group_name_H-M   'P 1'
_cell_length_a   7.83369131
_cell_length_b   7.85321528
_cell_length_c   3.81490700
_cell_angle_alpha   90.00000000
_cell_angle_beta   90.00000000
_cell_angle_gamma   120.11276852
_symmetry_Int_Tables_number   1
_chemical_formula_structural   Tb3Tl2InIrPd2
_chemical_formula_sum   'Tb3 Tl2 In1 Ir1 Pd2'
_cell_volume   203.01770746
_cell_formula_units_Z   1
loop_
 _symmetry_equiv_pos_site_id
 _symmetry_equiv_pos_as_xyz
  1  'x, y, z'
loop_
 _atom_site_type_symbol
 _atom_site_label
 _atom_site_symmetry_multiplicity
 _atom_site_fract_x
 _atom_site_fract_y
 _atom_site_fract_z
 _atom_site_occupancy
  Tb  Tb0  1  0.416833  0.395213  0.000000  1
  Tb  Tb1  1  0.602825  0.019318  0.000000  1
  Tb  Tb2  1  0.980491  0.582800  0.000000  1
  Tl  Tl3  1  0.008470  0.269908  0.500000  1
  Tl  Tl4  1  0.730594  0.737842  0.500000  1
  In  In5  1  0.261349  0.993623  0.500000  1
  Ir  Ir6  1  0.659307  0.327385  0.500000  1
  Pd  Pd7  1  0.008479  0.000030  0.000000  1
  Pd  Pd8  1  0.331653  0.673881  0.500000  1
