# generated using pymatgen
data_TbSm2Lu17Bi12
_symmetry_space_group_name_H-M   'P 1'
_cell_length_a   8.14360826
_cell_length_b   9.38958700
_cell_length_c   11.82025200
_cell_angle_alpha   90.00000000
_cell_angle_beta   89.98557687
_cell_angle_gamma   90.00000000
_symmetry_Int_Tables_number   1
_chemical_formula_structural   TbSm2Lu17Bi12
_chemical_formula_sum   'Tb1 Sm2 Lu17 Bi12'
_cell_volume   903.83693808
_cell_formula_units_Z   1
loop_
 _symmetry_equiv_pos_site_id
 _symmetry_equiv_pos_as_xyz
  1  'x, y, z'
loop_
 _atom_site_type_symbol
 _atom_site_label
 _atom_site_symmetry_multiplicity
 _atom_site_fract_x
 _atom_site_fract_y
 _atom_site_fract_z
 _atom_site_occupancy
  Tb  Tb0  1  0.813788  0.750000  0.217887  1
  Sm  Sm1  1  0.314499  0.750000  0.281736  1
  Sm  Sm2  1  0.686112  0.250000  0.718030  1
  Lu  Lu3  1  0.023279  0.250000  0.511379  1
  Lu  Lu4  1  0.977137  0.750000  0.489688  1
  Lu  Lu5  1  0.476465  0.750000  0.010003  1
  Lu  Lu6  1  0.522996  0.250000  0.988768  1
  Lu  Lu7  1  0.354116  0.250000  0.281274  1
  Lu  Lu8  1  0.645121  0.750000  0.718966  1
  Lu  Lu9  1  0.145571  0.750000  0.781271  1
  Lu  Lu10  1  0.854712  0.250000  0.218153  1
  Lu  Lu11  1  0.187416  0.250000  0.783319  1
  Lu  Lu12  1  0.192775  0.067417  0.060159  1
  Lu  Lu13  1  0.806894  0.932590  0.939514  1
  Lu  Lu14  1  0.307866  0.932702  0.560950  1
  Lu  Lu15  1  0.806894  0.567410  0.939514  1
  Lu  Lu16  1  0.692001  0.067278  0.439346  1
  Lu  Lu17  1  0.192775  0.432583  0.060159  1
  Lu  Lu18  1  0.692001  0.432722  0.439346  1
  Lu  Lu19  1  0.307866  0.567298  0.560950  1
  Bi  Bi20  1  0.400124  0.250000  0.539807  1
  Bi  Bi21  1  0.599004  0.750000  0.461029  1
  Bi  Bi22  1  0.095943  0.750000  0.039493  1
  Bi  Bi23  1  0.905244  0.250000  0.958677  1
  Bi  Bi24  1  0.064814  0.006875  0.326572  1
  Bi  Bi25  1  0.936812  0.994220  0.674472  1
  Bi  Bi26  1  0.430065  0.994397  0.826762  1
  Bi  Bi27  1  0.936812  0.505780  0.674472  1
  Bi  Bi28  1  0.568006  0.006998  0.172484  1
  Bi  Bi29  1  0.064814  0.493125  0.326572  1
  Bi  Bi30  1  0.568006  0.493002  0.172484  1
  Bi  Bi31  1  0.430065  0.505603  0.826762  1
