# generated using pymatgen
data_Sm3Dy5Tc(B8Ru)3
_symmetry_space_group_name_H-M   'P 1'
_cell_length_a   3.69994700
_cell_length_b   9.19421834
_cell_length_c   11.59854300
_cell_angle_alpha   89.90385605
_cell_angle_beta   90.00000000
_cell_angle_gamma   90.00000000
_symmetry_Int_Tables_number   1
_chemical_formula_structural   Sm3Dy5Tc(B8Ru)3
_chemical_formula_sum   'Sm3 Dy5 Tc1 B24 Ru3'
_cell_volume   394.56007877
_cell_formula_units_Z   1
loop_
 _symmetry_equiv_pos_site_id
 _symmetry_equiv_pos_as_xyz
  1  'x, y, z'
loop_
 _atom_site_type_symbol
 _atom_site_label
 _atom_site_symmetry_multiplicity
 _atom_site_fract_x
 _atom_site_fract_y
 _atom_site_fract_z
 _atom_site_occupancy
  Sm  Sm0  1  0.000000  0.324310  0.413126  1
  Sm  Sm1  1  0.000000  0.676551  0.584184  1
  Sm  Sm2  1  0.000000  0.821608  0.087505  1
  Dy  Dy3  1  0.000000  0.176555  0.915068  1
  Dy  Dy4  1  0.000000  0.943457  0.371741  1
  Dy  Dy5  1  0.000000  0.057295  0.629038  1
  Dy  Dy6  1  0.000000  0.443906  0.127974  1
  Dy  Dy7  1  0.000000  0.556401  0.871126  1
  Tc  Tc8  1  0.000000  0.638486  0.320382  1
  B  B9  1  0.500000  0.554109  0.431624  1
  B  B10  1  0.500000  0.444879  0.569148  1
  B  B11  1  0.500000  0.055254  0.067380  1
  B  B12  1  0.500000  0.946361  0.931984  1
  B  B13  1  0.500000  0.748752  0.418171  1
  B  B14  1  0.500000  0.251441  0.582344  1
  B  B15  1  0.500000  0.248170  0.080019  1
  B  B16  1  0.500000  0.751846  0.918293  1
  B  B17  1  0.500000  0.790931  0.266706  1
  B  B18  1  0.500000  0.208850  0.734471  1
  B  B19  1  0.500000  0.290205  0.231805  1
  B  B20  1  0.500000  0.710569  0.767037  1
  B  B21  1  0.500000  0.631173  0.185874  1
  B  B22  1  0.500000  0.367304  0.815305  1
  B  B23  1  0.500000  0.131480  0.313460  1
  B  B24  1  0.500000  0.869669  0.686208  1
  B  B25  1  0.500000  0.985228  0.212863  1
  B  B26  1  0.500000  0.016536  0.788027  1
  B  B27  1  0.500000  0.484056  0.286450  1
  B  B28  1  0.500000  0.514116  0.713592  1
  B  B29  1  0.500000  0.605723  0.028468  1
  B  B30  1  0.500000  0.391569  0.969715  1
  B  B31  1  0.500000  0.105927  0.471288  1
  B  B32  1  0.500000  0.895861  0.529625  1
  Ru  Ru33  1  0.000000  0.360304  0.680938  1
  Ru  Ru34  1  0.000000  0.138426  0.178140  1
  Ru  Ru35  1  0.000000  0.862693  0.820921  1
