# generated using pymatgen
data_LiTb6Cd22P
_symmetry_space_group_name_H-M   'P 1'
_cell_length_a   9.81325824
_cell_length_b   9.81325763
_cell_length_c   9.81325800
_cell_angle_alpha   59.99999875
_cell_angle_beta   60.00000081
_cell_angle_gamma   59.99999653
_symmetry_Int_Tables_number   1
_chemical_formula_structural   LiTb6Cd22P
_chemical_formula_sum   'Li1 Tb6 Cd22 P1'
_cell_volume   668.22794647
_cell_formula_units_Z   1
loop_
 _symmetry_equiv_pos_site_id
 _symmetry_equiv_pos_as_xyz
  1  'x, y, z'
loop_
 _atom_site_type_symbol
 _atom_site_label
 _atom_site_symmetry_multiplicity
 _atom_site_fract_x
 _atom_site_fract_y
 _atom_site_fract_z
 _atom_site_occupancy
  Li  Li0  1  0.500000  0.500000  0.500000  1
  Tb  Tb1  1  0.799717  0.799717  0.200283  1
  Tb  Tb2  1  0.200283  0.799717  0.200283  1
  Tb  Tb3  1  0.799717  0.200283  0.200283  1
  Tb  Tb4  1  0.200283  0.200283  0.799717  1
  Tb  Tb5  1  0.799717  0.200283  0.799717  1
  Tb  Tb6  1  0.200283  0.799717  0.799717  1
  Cd  Cd7  1  0.833393  0.833393  0.499820  1
  Cd  Cd8  1  0.833393  0.499820  0.833393  1
  Cd  Cd9  1  0.499820  0.833393  0.833393  1
  Cd  Cd10  1  0.833393  0.833393  0.833393  1
  Cd  Cd11  1  0.166607  0.166607  0.500180  1
  Cd  Cd12  1  0.166607  0.500180  0.166607  1
  Cd  Cd13  1  0.500180  0.166607  0.166607  1
  Cd  Cd14  1  0.166607  0.166607  0.166607  1
  Cd  Cd15  1  0.615928  0.615928  0.152218  1
  Cd  Cd16  1  0.615928  0.152218  0.615928  1
  Cd  Cd17  1  0.152218  0.615928  0.615928  1
  Cd  Cd18  1  0.615928  0.615928  0.615928  1
  Cd  Cd19  1  0.384072  0.384072  0.847782  1
  Cd  Cd20  1  0.384072  0.847782  0.384072  1
  Cd  Cd21  1  0.847782  0.384072  0.384072  1
  Cd  Cd22  1  0.384072  0.384072  0.384072  1
  Cd  Cd23  1  0.000000  0.000000  0.500000  1
  Cd  Cd24  1  0.500000  0.000000  0.500000  1
  Cd  Cd25  1  0.000000  0.500000  0.500000  1
  Cd  Cd26  1  0.500000  0.500000  0.000000  1
  Cd  Cd27  1  0.000000  0.500000  0.000000  1
  Cd  Cd28  1  0.500000  0.000000  0.000000  1
  P  P29  1  0.000000  0.000000  0.000000  1
