# generated using pymatgen
data_AcPbBrO2
_symmetry_space_group_name_H-M   'P 1'
_cell_length_a   7.51619936
_cell_length_b   7.51619907
_cell_length_c   7.51619987
_cell_angle_alpha   147.33820578
_cell_angle_beta   147.33820665
_cell_angle_gamma   46.86327724
_symmetry_Int_Tables_number   1
_chemical_formula_structural   AcPbBrO2
_chemical_formula_sum   'Ac1 Pb1 Br1 O2'
_cell_volume   123.21386185
_cell_formula_units_Z   1
loop_
 _symmetry_equiv_pos_site_id
 _symmetry_equiv_pos_as_xyz
  1  'x, y, z'
loop_
 _atom_site_type_symbol
 _atom_site_label
 _atom_site_symmetry_multiplicity
 _atom_site_fract_x
 _atom_site_fract_y
 _atom_site_fract_z
 _atom_site_occupancy
  Ac  Ac0  1  0.342648  0.342648  0.000000  1
  Pb  Pb1  1  0.671129  0.671129  0.000000  1
  Br  Br2  1  0.974599  0.974599  0.000000  1
  O  O3  1  0.755811  0.255811  0.500000  1
  O  O4  1  0.255811  0.755811  0.500000  1
