# generated using pymatgen
data_Zr3Sn3Os2Rh
_symmetry_space_group_name_H-M   'P 1'
_cell_length_a   7.64032700
_cell_length_b   7.64032751
_cell_length_c   3.42880100
_cell_angle_alpha   90.00000000
_cell_angle_beta   90.00000000
_cell_angle_gamma   120.00001077
_symmetry_Int_Tables_number   1
_chemical_formula_structural   Zr3Sn3Os2Rh
_chemical_formula_sum   'Zr3 Sn3 Os2 Rh1'
_cell_volume   173.33919960
_cell_formula_units_Z   1
loop_
 _symmetry_equiv_pos_site_id
 _symmetry_equiv_pos_as_xyz
  1  'x, y, z'
loop_
 _atom_site_type_symbol
 _atom_site_label
 _atom_site_symmetry_multiplicity
 _atom_site_fract_x
 _atom_site_fract_y
 _atom_site_fract_z
 _atom_site_occupancy
  Zr  Zr0  1  0.394563  0.394563  0.500000  1
  Zr  Zr1  1  0.605437  0.000000  0.500000  1
  Zr  Zr2  1  0.000000  0.605437  0.500000  1
  Sn  Sn3  1  0.726649  0.726649  0.000000  1
  Sn  Sn4  1  0.273351  0.000000  0.000000  1
  Sn  Sn5  1  0.000000  0.273351  0.000000  1
  Os  Os6  1  0.666667  0.333333  0.000000  1
  Os  Os7  1  0.333333  0.666667  0.000000  1
  Rh  Rh8  1  0.000000  0.000000  0.500000  1
