# generated using pymatgen
data_Zr3SiGe2MoRu2
_symmetry_space_group_name_H-M   'P 1'
_cell_length_a   6.98841474
_cell_length_b   7.06536475
_cell_length_c   3.54931100
_cell_angle_alpha   90.00000000
_cell_angle_beta   90.00000000
_cell_angle_gamma   120.36492339
_symmetry_Int_Tables_number   1
_chemical_formula_structural   Zr3SiGe2MoRu2
_chemical_formula_sum   'Zr3 Si1 Ge2 Mo1 Ru2'
_cell_volume   151.20953544
_cell_formula_units_Z   1
loop_
 _symmetry_equiv_pos_site_id
 _symmetry_equiv_pos_as_xyz
  1  'x, y, z'
loop_
 _atom_site_type_symbol
 _atom_site_label
 _atom_site_symmetry_multiplicity
 _atom_site_fract_x
 _atom_site_fract_y
 _atom_site_fract_z
 _atom_site_occupancy
  Zr  Zr0  1  0.400719  0.404867  0.500000  1
  Zr  Zr1  1  0.599281  0.004148  0.500000  1
  Zr  Zr2  1  0.000000  0.593760  0.500000  1
  Si  Si3  1  0.000000  0.993271  0.500000  1
  Ge  Ge4  1  0.663711  0.333901  0.000000  1
  Ge  Ge5  1  0.336289  0.670191  0.000000  1
  Mo  Mo6  1  0.000000  0.246216  0.000000  1
  Ru  Ru7  1  0.244343  0.998995  0.000000  1
  Ru  Ru8  1  0.755657  0.754652  0.000000  1
