# generated using pymatgen
data_Cs8MgTl10
_symmetry_space_group_name_H-M   'P 1'
_cell_length_a   11.22798900
_cell_length_b   11.22798900
_cell_length_c   15.05043400
_cell_angle_alpha   90.00000000
_cell_angle_beta   90.00000000
_cell_angle_gamma   90.00000000
_symmetry_Int_Tables_number   1
_chemical_formula_structural   Cs8MgTl10
_chemical_formula_sum   'Cs16 Mg2 Tl20'
_cell_volume   1897.37415501
_cell_formula_units_Z   2
loop_
 _symmetry_equiv_pos_site_id
 _symmetry_equiv_pos_as_xyz
  1  'x, y, z'
loop_
 _atom_site_type_symbol
 _atom_site_label
 _atom_site_symmetry_multiplicity
 _atom_site_fract_x
 _atom_site_fract_y
 _atom_site_fract_z
 _atom_site_occupancy
  Cs  Cs0  1  0.954402  0.176856  0.106104  1
  Cs  Cs1  1  0.545597  0.323144  0.106104  1
  Cs  Cs2  1  0.176856  0.545597  0.106104  1
  Cs  Cs3  1  0.323144  0.954402  0.106104  1
  Cs  Cs4  1  0.545597  0.176856  0.393897  1
  Cs  Cs5  1  0.954402  0.323144  0.393897  1
  Cs  Cs6  1  0.323144  0.545597  0.393897  1
  Cs  Cs7  1  0.176856  0.954402  0.393897  1
  Cs  Cs8  1  0.823144  0.045597  0.606103  1
  Cs  Cs9  1  0.676856  0.454402  0.606103  1
  Cs  Cs10  1  0.045597  0.676856  0.606103  1
  Cs  Cs11  1  0.454402  0.823144  0.606103  1
  Cs  Cs12  1  0.676856  0.045597  0.893897  1
  Cs  Cs13  1  0.823144  0.454402  0.893897  1
  Cs  Cs14  1  0.454402  0.676856  0.893897  1
  Cs  Cs15  1  0.045597  0.823144  0.893897  1
  Mg  Mg16  1  0.750000  0.750000  0.250000  1
  Mg  Mg17  1  0.250000  0.250000  0.750000  1
  Tl  Tl18  1  0.750000  0.750000  0.048776  1
  Tl  Tl19  1  0.839824  0.519759  0.163275  1
  Tl  Tl20  1  0.519759  0.660177  0.163275  1
  Tl  Tl21  1  0.980241  0.839824  0.163275  1
  Tl  Tl22  1  0.660177  0.980241  0.163275  1
  Tl  Tl23  1  0.660177  0.519759  0.336724  1
  Tl  Tl24  1  0.980241  0.660177  0.336724  1
  Tl  Tl25  1  0.519759  0.839824  0.336724  1
  Tl  Tl26  1  0.839824  0.980241  0.336724  1
  Tl  Tl27  1  0.750000  0.750000  0.451224  1
  Tl  Tl28  1  0.250000  0.250000  0.548776  1
  Tl  Tl29  1  0.160177  0.019759  0.663275  1
  Tl  Tl30  1  0.480241  0.160177  0.663275  1
  Tl  Tl31  1  0.019759  0.339823  0.663275  1
  Tl  Tl32  1  0.339823  0.480241  0.663275  1
  Tl  Tl33  1  0.339823  0.019759  0.836724  1
  Tl  Tl34  1  0.019759  0.160177  0.836724  1
  Tl  Tl35  1  0.480241  0.339823  0.836724  1
  Tl  Tl36  1  0.160177  0.480241  0.836724  1
  Tl  Tl37  1  0.250000  0.250000  0.951224  1
