# generated using pymatgen
data_YLu5HfCo17P12
_symmetry_space_group_name_H-M   'P 1'
_cell_length_a   3.67741400
_cell_length_b   10.53194000
_cell_length_c   12.20587200
_cell_angle_alpha   90.00000000
_cell_angle_beta   90.00000000
_cell_angle_gamma   90.00000000
_symmetry_Int_Tables_number   1
_chemical_formula_structural   YLu5HfCo17P12
_chemical_formula_sum   'Y1 Lu5 Hf1 Co17 P12'
_cell_volume   472.73712830
_cell_formula_units_Z   1
loop_
 _symmetry_equiv_pos_site_id
 _symmetry_equiv_pos_as_xyz
  1  'x, y, z'
loop_
 _atom_site_type_symbol
 _atom_site_label
 _atom_site_symmetry_multiplicity
 _atom_site_fract_x
 _atom_site_fract_y
 _atom_site_fract_z
 _atom_site_occupancy
  Y  Y0  1  0.500000  0.000000  0.476191  1
  Lu  Lu1  1  0.000000  0.500000  0.529537  1
  Lu  Lu2  1  0.500000  0.822076  0.207379  1
  Lu  Lu3  1  0.500000  0.177924  0.207379  1
  Lu  Lu4  1  0.000000  0.681739  0.796230  1
  Lu  Lu5  1  0.000000  0.318261  0.796230  1
  Hf  Hf6  1  0.500000  0.500000  0.154982  1
  Co  Co7  1  0.000000  0.000000  0.836328  1
  Co  Co8  1  0.500000  0.500000  0.702759  1
  Co  Co9  1  0.000000  0.000000  0.294725  1
  Co  Co10  1  0.000000  0.500000  0.984514  1
  Co  Co11  1  0.500000  0.000000  0.013860  1
  Co  Co12  1  0.500000  0.327474  0.988502  1
  Co  Co13  1  0.500000  0.672526  0.988502  1
  Co  Co14  1  0.000000  0.162256  0.001824  1
  Co  Co15  1  0.000000  0.837744  0.001824  1
  Co  Co16  1  0.500000  0.295323  0.434413  1
  Co  Co17  1  0.500000  0.704677  0.434413  1
  Co  Co18  1  0.000000  0.203431  0.570542  1
  Co  Co19  1  0.000000  0.796569  0.570542  1
  Co  Co20  1  0.500000  0.878742  0.707515  1
  Co  Co21  1  0.500000  0.121258  0.707515  1
  Co  Co22  1  0.000000  0.623348  0.295662  1
  Co  Co23  1  0.000000  0.376652  0.295662  1
  P  P24  1  0.500000  0.500000  0.880626  1
  P  P25  1  0.000000  0.000000  0.117059  1
  P  P26  1  0.500000  0.500000  0.363197  1
  P  P27  1  0.000000  0.000000  0.654179  1
  P  P28  1  0.500000  0.311387  0.618806  1
  P  P29  1  0.500000  0.688613  0.618806  1
  P  P30  1  0.000000  0.188251  0.384771  1
  P  P31  1  0.000000  0.811749  0.384771  1
  P  P32  1  0.500000  0.851262  0.887669  1
  P  P33  1  0.500000  0.148738  0.887669  1
  P  P34  1  0.000000  0.665510  0.102706  1
  P  P35  1  0.000000  0.334490  0.102706  1
