# generated using pymatgen
data_Ho19ErFe2(NiSb4)2
_symmetry_space_group_name_H-M   'P 1'
_cell_length_a   7.87751352
_cell_length_b   8.76739926
_cell_length_c   12.14570702
_cell_angle_alpha   90.00755512
_cell_angle_beta   90.02065466
_cell_angle_gamma   90.00490188
_symmetry_Int_Tables_number   1
_chemical_formula_structural   Ho19ErFe2(NiSb4)2
_chemical_formula_sum   'Ho19 Er1 Fe2 Ni2 Sb8'
_cell_volume   838.84690974
_cell_formula_units_Z   1
loop_
 _symmetry_equiv_pos_site_id
 _symmetry_equiv_pos_as_xyz
  1  'x, y, z'
loop_
 _atom_site_type_symbol
 _atom_site_label
 _atom_site_symmetry_multiplicity
 _atom_site_fract_x
 _atom_site_fract_y
 _atom_site_fract_z
 _atom_site_occupancy
  Ho  Ho0  1  0.875486  0.249921  0.804156  1
  Ho  Ho1  1  0.178340  0.541320  0.935042  1
  Ho  Ho2  1  0.321675  0.958626  0.434924  1
  Ho  Ho3  1  0.120303  0.750077  0.193364  1
  Ho  Ho4  1  0.843069  0.749993  0.795262  1
  Ho  Ho5  1  0.379471  0.749734  0.693163  1
  Ho  Ho6  1  0.951108  0.749859  0.502259  1
  Ho  Ho7  1  0.455982  0.249960  0.998617  1
  Ho  Ho8  1  0.677860  0.467167  0.565219  1
  Ho  Ho9  1  0.822034  0.032919  0.065338  1
  Ho  Ho10  1  0.656812  0.749850  0.295326  1
  Ho  Ho11  1  0.549275  0.749965  0.002271  1
  Ho  Ho12  1  0.044497  0.250182  0.498593  1
  Ho  Ho13  1  0.677978  0.032801  0.565183  1
  Ho  Ho14  1  0.178342  0.958595  0.935023  1
  Ho  Ho15  1  0.624344  0.250213  0.304246  1
  Ho  Ho16  1  0.341878  0.250069  0.705746  1
  Ho  Ho17  1  0.822061  0.467042  0.065356  1
  Ho  Ho18  1  0.158210  0.249965  0.205863  1
  Er  Er19  1  0.322360  0.541644  0.434870  1
  Fe  Fe20  1  0.928131  0.749992  0.010627  1
  Fe  Fe21  1  0.571302  0.749710  0.510430  1
  Ni  Ni22  1  0.071956  0.249986  0.988180  1
  Ni  Ni23  1  0.427614  0.250427  0.488106  1
  Sb  Sb24  1  0.930056  0.490951  0.327619  1
  Sb  Sb25  1  0.428262  0.508311  0.173210  1
  Sb  Sb26  1  0.428433  0.991710  0.173159  1
  Sb  Sb27  1  0.570407  0.490885  0.827522  1
  Sb  Sb28  1  0.071391  0.508246  0.673192  1
  Sb  Sb29  1  0.570302  0.009030  0.827428  1
  Sb  Sb30  1  0.929502  0.009137  0.327607  1
  Sb  Sb31  1  0.071561  0.991716  0.673101  1
