# generated using pymatgen
data_Ce2Lu3Fe2
_symmetry_space_group_name_H-M   'P 1'
_cell_length_a   6.14218195
_cell_length_b   6.81820873
_cell_length_c   8.45366500
_cell_angle_alpha   95.91807102
_cell_angle_beta   111.30208103
_cell_angle_gamma   89.99999482
_symmetry_Int_Tables_number   1
_chemical_formula_structural   Ce2Lu3Fe2
_chemical_formula_sum   'Ce4 Lu6 Fe4'
_cell_volume   327.81436941
_cell_formula_units_Z   2
loop_
 _symmetry_equiv_pos_site_id
 _symmetry_equiv_pos_as_xyz
  1  'x, y, z'
loop_
 _atom_site_type_symbol
 _atom_site_label
 _atom_site_symmetry_multiplicity
 _atom_site_fract_x
 _atom_site_fract_y
 _atom_site_fract_z
 _atom_site_occupancy
  Ce  Ce0  1  0.525308  0.110733  0.806154  1
  Ce  Ce1  1  0.474692  0.889267  0.193846  1
  Ce  Ce2  1  0.719154  0.389267  0.193846  1
  Ce  Ce3  1  0.280846  0.610733  0.806154  1
  Lu  Lu4  1  0.293407  0.317792  0.430834  1
  Lu  Lu5  1  0.706593  0.682208  0.569166  1
  Lu  Lu6  1  0.862574  0.182208  0.569166  1
  Lu  Lu7  1  0.137426  0.817792  0.430834  1
  Lu  Lu8  1  0.083013  0.250000  0.000000  1
  Lu  Lu9  1  0.916987  0.750000  0.000000  1
  Fe  Fe10  1  0.352888  0.603893  0.220123  1
  Fe  Fe11  1  0.647112  0.396107  0.779877  1
  Fe  Fe12  1  0.132768  0.896107  0.779877  1
  Fe  Fe13  1  0.867232  0.103893  0.220123  1
