# generated using pymatgen
data_Tb6Zn4Pd6Pt7
_symmetry_space_group_name_H-M   'P 1'
_cell_length_a   8.29798424
_cell_length_b   8.26850421
_cell_length_c   8.26850417
_cell_angle_alpha   109.37081481
_cell_angle_beta   109.44928989
_cell_angle_gamma   109.44930018
_symmetry_Int_Tables_number   1
_chemical_formula_structural   Tb6Zn4Pd6Pt7
_chemical_formula_sum   'Tb6 Zn4 Pd6 Pt7'
_cell_volume   437.49711756
_cell_formula_units_Z   1
loop_
 _symmetry_equiv_pos_site_id
 _symmetry_equiv_pos_as_xyz
  1  'x, y, z'
loop_
 _atom_site_type_symbol
 _atom_site_label
 _atom_site_symmetry_multiplicity
 _atom_site_fract_x
 _atom_site_fract_y
 _atom_site_fract_z
 _atom_site_occupancy
  Tb  Tb0  1  0.700265  0.699876  0.001241  1
  Tb  Tb1  1  0.299735  0.999612  0.300977  1
  Tb  Tb2  1  0.000000  0.300260  0.300260  1
  Tb  Tb3  1  0.299735  0.300977  0.999612  1
  Tb  Tb4  1  0.700265  0.001241  0.699876  1
  Tb  Tb5  1  0.000000  0.699235  0.699235  1
  Zn  Zn6  1  0.000000  0.999208  0.499716  1
  Zn  Zn7  1  0.000000  0.499716  0.999208  1
  Zn  Zn8  1  0.499943  0.999900  0.999900  1
  Zn  Zn9  1  0.500057  0.499956  0.499956  1
  Pd  Pd10  1  0.333960  0.667156  0.999858  1
  Pd  Pd11  1  0.333960  0.999858  0.667156  1
  Pd  Pd12  1  0.666878  0.334057  0.334057  1
  Pd  Pd13  1  0.666040  0.665898  0.333194  1
  Pd  Pd14  1  0.666040  0.333194  0.665898  1
  Pd  Pd15  1  0.333122  0.667181  0.667181  1
  Pt  Pt16  1  0.333793  0.333702  0.666418  1
  Pt  Pt17  1  0.666207  0.999909  0.332623  1
  Pt  Pt18  1  0.000000  0.667057  0.333707  1
  Pt  Pt19  1  0.666207  0.332623  0.999909  1
  Pt  Pt20  1  0.333793  0.666418  0.333702  1
  Pt  Pt21  1  0.000000  0.333707  0.667057  1
  Pt  Pt22  1  0.000000  0.999259  0.999259  1
