# generated using pymatgen
data_La3Gd2(Sn5Rh2)2
_symmetry_space_group_name_H-M   'P 1'
_cell_length_a   14.18184300
_cell_length_b   14.18184300
_cell_length_c   4.58528100
_cell_angle_alpha   90.00000000
_cell_angle_beta   90.00000000
_cell_angle_gamma   90.00000000
_symmetry_Int_Tables_number   1
_chemical_formula_structural   La3Gd2(Sn5Rh2)2
_chemical_formula_sum   'La6 Gd4 Sn20 Rh8'
_cell_volume   922.21313200
_cell_formula_units_Z   2
loop_
 _symmetry_equiv_pos_site_id
 _symmetry_equiv_pos_as_xyz
  1  'x, y, z'
loop_
 _atom_site_type_symbol
 _atom_site_label
 _atom_site_symmetry_multiplicity
 _atom_site_fract_x
 _atom_site_fract_y
 _atom_site_fract_z
 _atom_site_occupancy
  La  La0  1  0.500000  0.500000  0.000000  1
  La  La1  1  0.000000  0.000000  0.000000  1
  La  La2  1  0.888451  0.388451  0.500000  1
  La  La3  1  0.111549  0.611549  0.500000  1
  La  La4  1  0.388451  0.111549  0.500000  1
  La  La5  1  0.611549  0.888451  0.500000  1
  Gd  Gd6  1  0.677039  0.177039  0.500000  1
  Gd  Gd7  1  0.322961  0.822961  0.500000  1
  Gd  Gd8  1  0.177039  0.322961  0.500000  1
  Gd  Gd9  1  0.822961  0.677039  0.500000  1
  Sn  Sn10  1  0.569948  0.069948  0.000000  1
  Sn  Sn11  1  0.430052  0.930052  0.000000  1
  Sn  Sn12  1  0.069948  0.430052  0.000000  1
  Sn  Sn13  1  0.930052  0.569948  0.000000  1
  Sn  Sn14  1  0.654868  0.697428  0.000000  1
  Sn  Sn15  1  0.345132  0.302572  0.000000  1
  Sn  Sn16  1  0.154868  0.802572  0.000000  1
  Sn  Sn17  1  0.845132  0.197428  0.000000  1
  Sn  Sn18  1  0.302572  0.654868  0.000000  1
  Sn  Sn19  1  0.697428  0.345132  0.000000  1
  Sn  Sn20  1  0.197428  0.154868  0.000000  1
  Sn  Sn21  1  0.802572  0.845132  0.000000  1
  Sn  Sn22  1  0.663704  0.506770  0.500000  1
  Sn  Sn23  1  0.336296  0.493230  0.500000  1
  Sn  Sn24  1  0.163704  0.993230  0.500000  1
  Sn  Sn25  1  0.836296  0.006770  0.500000  1
  Sn  Sn26  1  0.493230  0.663704  0.500000  1
  Sn  Sn27  1  0.506770  0.336296  0.500000  1
  Sn  Sn28  1  0.006770  0.163704  0.500000  1
  Sn  Sn29  1  0.993230  0.836296  0.500000  1
  Rh  Rh30  1  0.747692  0.528882  0.000000  1
  Rh  Rh31  1  0.252308  0.471118  0.000000  1
  Rh  Rh32  1  0.247692  0.971118  0.000000  1
  Rh  Rh33  1  0.752308  0.028882  0.000000  1
  Rh  Rh34  1  0.471118  0.747692  0.000000  1
  Rh  Rh35  1  0.528882  0.252308  0.000000  1
  Rh  Rh36  1  0.028882  0.247692  0.000000  1
  Rh  Rh37  1  0.971118  0.752308  0.000000  1
