# generated using pymatgen
data_Y3Tm3CrCo17P12
_symmetry_space_group_name_H-M   'P 1'
_cell_length_a   3.67303000
_cell_length_b   10.47974008
_cell_length_c   12.16264609
_cell_angle_alpha   90.01426528
_cell_angle_beta   90.00000000
_cell_angle_gamma   90.00000000
_symmetry_Int_Tables_number   1
_chemical_formula_structural   Y3Tm3CrCo17P12
_chemical_formula_sum   'Y3 Tm3 Cr1 Co17 P12'
_cell_volume   468.16942049
_cell_formula_units_Z   1
loop_
 _symmetry_equiv_pos_site_id
 _symmetry_equiv_pos_as_xyz
  1  'x, y, z'
loop_
 _atom_site_type_symbol
 _atom_site_label
 _atom_site_symmetry_multiplicity
 _atom_site_fract_x
 _atom_site_fract_y
 _atom_site_fract_z
 _atom_site_occupancy
  Y  Y0  1  0.000000  0.499837  0.522609  1
  Y  Y1  1  0.500000  0.000037  0.477251  1
  Y  Y2  1  0.000000  0.682172  0.795845  1
  Tm  Tm3  1  0.500000  0.818005  0.205897  1
  Tm  Tm4  1  0.500000  0.182024  0.206464  1
  Tm  Tm5  1  0.000000  0.317835  0.795872  1
  Cr  Cr6  1  0.500000  0.499620  0.155490  1
  Co  Co7  1  0.000000  0.000386  0.840279  1
  Co  Co8  1  0.500000  0.498815  0.703662  1
  Co  Co9  1  0.000000  0.000214  0.295575  1
  Co  Co10  1  0.000000  0.499348  0.988182  1
  Co  Co11  1  0.500000  0.000669  0.015332  1
  Co  Co12  1  0.500000  0.331894  0.993513  1
  Co  Co13  1  0.500000  0.667477  0.994041  1
  Co  Co14  1  0.000000  0.166833  0.006243  1
  Co  Co15  1  0.000000  0.833845  0.006742  1
  Co  Co16  1  0.500000  0.296325  0.430375  1
  Co  Co17  1  0.500000  0.703506  0.429534  1
  Co  Co18  1  0.000000  0.203185  0.569527  1
  Co  Co19  1  0.000000  0.796831  0.568433  1
  Co  Co20  1  0.500000  0.879536  0.708717  1
  Co  Co21  1  0.500000  0.121732  0.709617  1
  Co  Co22  1  0.000000  0.621038  0.289781  1
  Co  Co23  1  0.000000  0.378771  0.290304  1
  P  P24  1  0.500000  0.498860  0.882635  1
  P  P25  1  0.000000  0.000359  0.118055  1
  P  P26  1  0.500000  0.499968  0.344990  1
  P  P27  1  0.000000  0.000018  0.656157  1
  P  P28  1  0.500000  0.310893  0.617406  1
  P  P29  1  0.500000  0.688779  0.615955  1
  P  P30  1  0.000000  0.188649  0.383245  1
  P  P31  1  0.000000  0.811412  0.382527  1
  P  P32  1  0.500000  0.849802  0.892579  1
  P  P33  1  0.500000  0.151649  0.891902  1
  P  P34  1  0.000000  0.654461  0.107381  1
  P  P35  1  0.000000  0.345216  0.107881  1
