# generated using pymatgen
data_U4Mn2Si2Ni3Ru
_symmetry_space_group_name_H-M   'P 1'
_cell_length_a   5.07710256
_cell_length_b   5.17221145
_cell_length_c   7.62894000
_cell_angle_alpha   90.00000000
_cell_angle_beta   90.00000000
_cell_angle_gamma   116.97164239
_symmetry_Int_Tables_number   1
_chemical_formula_structural   U4Mn2Si2Ni3Ru
_chemical_formula_sum   'U4 Mn2 Si2 Ni3 Ru1'
_cell_volume   178.54461040
_cell_formula_units_Z   1
loop_
 _symmetry_equiv_pos_site_id
 _symmetry_equiv_pos_as_xyz
  1  'x, y, z'
loop_
 _atom_site_type_symbol
 _atom_site_label
 _atom_site_symmetry_multiplicity
 _atom_site_fract_x
 _atom_site_fract_y
 _atom_site_fract_z
 _atom_site_occupancy
  U  U0  1  0.657456  0.345343  0.421122  1
  U  U1  1  0.344160  0.655606  0.561875  1
  U  U2  1  0.344160  0.655606  0.938125  1
  U  U3  1  0.657456  0.345343  0.078878  1
  Mn  Mn4  1  0.659735  0.835533  0.250000  1
  Mn  Mn5  1  0.158227  0.338346  0.250000  1
  Si  Si6  1  0.000255  0.007011  0.003471  1
  Si  Si7  1  0.000255  0.007011  0.496529  1
  Ni  Ni8  1  0.832974  0.158967  0.750000  1
  Ni  Ni9  1  0.164678  0.837766  0.250000  1
  Ni  Ni10  1  0.335690  0.155825  0.750000  1
  Ru  Ru11  1  0.844953  0.657641  0.750000  1
