# generated using pymatgen
data_Sr2Ag5Pd2
_symmetry_space_group_name_H-M   'P 1'
_cell_length_a   5.55605101
_cell_length_b   5.65136990
_cell_length_c   14.23601300
_cell_angle_alpha   90.00000000
_cell_angle_beta   90.00000000
_cell_angle_gamma   120.11334032
_symmetry_Int_Tables_number   1
_chemical_formula_structural   Sr2Ag5Pd2
_chemical_formula_sum   'Sr4 Ag10 Pd4'
_cell_volume   386.67120144
_cell_formula_units_Z   2
loop_
 _symmetry_equiv_pos_site_id
 _symmetry_equiv_pos_as_xyz
  1  'x, y, z'
loop_
 _atom_site_type_symbol
 _atom_site_label
 _atom_site_symmetry_multiplicity
 _atom_site_fract_x
 _atom_site_fract_y
 _atom_site_fract_z
 _atom_site_occupancy
  Sr  Sr0  1  0.321727  0.320688  0.122790  1
  Sr  Sr1  1  0.678273  0.679312  0.622790  1
  Sr  Sr2  1  0.321727  0.320688  0.377210  1
  Sr  Sr3  1  0.678273  0.679312  0.877210  1
  Ag  Ag4  1  0.328023  0.825029  0.250000  1
  Ag  Ag5  1  0.671977  0.174971  0.750000  1
  Ag  Ag6  1  0.992652  0.658484  0.079641  1
  Ag  Ag7  1  0.007348  0.341516  0.579641  1
  Ag  Ag8  1  0.665252  0.998042  0.420969  1
  Ag  Ag9  1  0.334748  0.001958  0.920969  1
  Ag  Ag10  1  0.007348  0.341516  0.920359  1
  Ag  Ag11  1  0.992652  0.658484  0.420359  1
  Ag  Ag12  1  0.334748  0.001958  0.579031  1
  Ag  Ag13  1  0.665252  0.998042  0.079031  1
  Pd  Pd14  1  0.826313  0.825953  0.250000  1
  Pd  Pd15  1  0.173687  0.174047  0.750000  1
  Pd  Pd16  1  0.825078  0.327435  0.250000  1
  Pd  Pd17  1  0.174922  0.672565  0.750000  1
