# generated using pymatgen
data_Dy3Ho5Tm2(BiAu2)2
_symmetry_space_group_name_H-M   'P 1'
_cell_length_a   8.68697798
_cell_length_b   8.68602801
_cell_length_c   8.68682097
_cell_angle_alpha   124.23707824
_cell_angle_beta   124.23919414
_cell_angle_gamma   82.80144914
_symmetry_Int_Tables_number   1
_chemical_formula_structural   Dy3Ho5Tm2(BiAu2)2
_chemical_formula_sum   'Dy3 Ho5 Tm2 Bi2 Au4'
_cell_volume   430.07757851
_cell_formula_units_Z   1
loop_
 _symmetry_equiv_pos_site_id
 _symmetry_equiv_pos_as_xyz
  1  'x, y, z'
loop_
 _atom_site_type_symbol
 _atom_site_label
 _atom_site_symmetry_multiplicity
 _atom_site_fract_x
 _atom_site_fract_y
 _atom_site_fract_z
 _atom_site_occupancy
  Dy  Dy0  1  0.014848  0.514823  0.810290  1
  Dy  Dy1  1  0.704560  0.204527  0.189708  1
  Dy  Dy2  1  0.514715  0.704626  0.500000  1
  Ho  Ho3  1  0.204845  0.014943  0.500000  1
  Ho  Ho4  1  0.985039  0.485084  0.190149  1
  Ho  Ho5  1  0.294895  0.794942  0.809856  1
  Ho  Ho6  1  0.484950  0.294860  0.500002  1
  Ho  Ho7  1  0.794985  0.984971  0.499998  1
  Tm  Tm8  1  0.000218  0.000188  0.000168  1
  Tm  Tm9  1  0.500048  0.500019  0.999831  1
  Bi  Bi10  1  0.750059  0.750045  0.000159  1
  Bi  Bi11  1  0.249900  0.249886  0.999842  1
  Au  Au12  1  0.638492  0.138702  0.776740  1
  Au  Au13  1  0.361748  0.861959  0.223259  1
  Au  Au14  1  0.138823  0.361654  0.500001  1
  Au  Au15  1  0.861874  0.638771  0.499998  1
