# generated using pymatgen
data_DyGaF6
_symmetry_space_group_name_H-M   'P 1'
_cell_length_a   5.80391043
_cell_length_b   5.80391041
_cell_length_c   5.80391000
_cell_angle_alpha   60.00000235
_cell_angle_beta   60.00000246
_cell_angle_gamma   59.99999824
_symmetry_Int_Tables_number   1
_chemical_formula_structural   DyGaF6
_chemical_formula_sum   'Dy1 Ga1 F6'
_cell_volume   138.24425210
_cell_formula_units_Z   1
loop_
 _symmetry_equiv_pos_site_id
 _symmetry_equiv_pos_as_xyz
  1  'x, y, z'
loop_
 _atom_site_type_symbol
 _atom_site_label
 _atom_site_symmetry_multiplicity
 _atom_site_fract_x
 _atom_site_fract_y
 _atom_site_fract_z
 _atom_site_occupancy
  Dy  Dy0  1  0.500001  0.500001  0.500001  1
  Ga  Ga1  1  0.000000  0.000000  0.000000  1
  F  F2  1  0.233536  0.766465  0.233536  1
  F  F3  1  0.766463  0.766463  0.233538  1
  F  F4  1  0.766465  0.233536  0.233536  1
  F  F5  1  0.766463  0.233538  0.766463  1
  F  F6  1  0.233536  0.233536  0.766465  1
  F  F7  1  0.233538  0.766463  0.766463  1
