# generated using pymatgen
data_DyEr3Al2(ZnPt2)2
_symmetry_space_group_name_H-M   'P 1'
_cell_length_a   4.37474600
_cell_length_b   6.80777820
_cell_length_c   7.85037514
_cell_angle_alpha   89.93487397
_cell_angle_beta   90.00000000
_cell_angle_gamma   90.00000000
_symmetry_Int_Tables_number   1
_chemical_formula_structural   DyEr3Al2(ZnPt2)2
_chemical_formula_sum   'Dy1 Er3 Al2 Zn2 Pt4'
_cell_volume   233.80208007
_cell_formula_units_Z   1
loop_
 _symmetry_equiv_pos_site_id
 _symmetry_equiv_pos_as_xyz
  1  'x, y, z'
loop_
 _atom_site_type_symbol
 _atom_site_label
 _atom_site_symmetry_multiplicity
 _atom_site_fract_x
 _atom_site_fract_y
 _atom_site_fract_z
 _atom_site_occupancy
  Dy  Dy0  1  0.250000  0.972499  0.312419  1
  Er  Er1  1  0.250000  0.468770  0.180203  1
  Er  Er2  1  0.750000  0.531173  0.819432  1
  Er  Er3  1  0.750000  0.028177  0.688202  1
  Al  Al4  1  0.750000  0.645938  0.440081  1
  Al  Al5  1  0.250000  0.354031  0.560269  1
  Zn  Zn6  1  0.250000  0.850630  0.932860  1
  Zn  Zn7  1  0.750000  0.149456  0.066537  1
  Pt  Pt8  1  0.250000  0.728540  0.609008  1
  Pt  Pt9  1  0.750000  0.271702  0.391766  1
  Pt  Pt10  1  0.750000  0.759274  0.124064  1
  Pt  Pt11  1  0.250000  0.239809  0.875159  1
