# generated using pymatgen
data_LiLa3ThZn9Sn2
_symmetry_space_group_name_H-M   'P 1'
_cell_length_a   8.68641390
_cell_length_b   8.68641455
_cell_length_c   9.12837400
_cell_angle_alpha   90.00000000
_cell_angle_beta   90.00000000
_cell_angle_gamma   149.58924879
_symmetry_Int_Tables_number   1
_chemical_formula_structural   LiLa3ThZn9Sn2
_chemical_formula_sum   'Li1 La3 Th1 Zn9 Sn2'
_cell_volume   348.65256362
_cell_formula_units_Z   1
loop_
 _symmetry_equiv_pos_site_id
 _symmetry_equiv_pos_as_xyz
  1  'x, y, z'
loop_
 _atom_site_type_symbol
 _atom_site_label
 _atom_site_symmetry_multiplicity
 _atom_site_fract_x
 _atom_site_fract_y
 _atom_site_fract_z
 _atom_site_occupancy
  Li  Li0  1  0.602244  0.397756  0.750000  1
  La  La1  1  0.792158  0.207842  0.750000  1
  La  La2  1  0.000488  0.999512  0.500681  1
  La  La3  1  0.000488  0.999512  0.999319  1
  Th  Th4  1  0.207679  0.792321  0.250000  1
  Zn  Zn5  1  0.813638  0.186362  0.389842  1
  Zn  Zn6  1  0.185274  0.814726  0.606536  1
  Zn  Zn7  1  0.813638  0.186362  0.110158  1
  Zn  Zn8  1  0.185274  0.814726  0.893464  1
  Zn  Zn9  1  0.658107  0.341893  0.483359  1
  Zn  Zn10  1  0.342615  0.657385  0.514446  1
  Zn  Zn11  1  0.658107  0.341893  0.016641  1
  Zn  Zn12  1  0.342615  0.657385  0.985554  1
  Zn  Zn13  1  0.397301  0.602699  0.250000  1
  Sn  Sn14  1  0.557868  0.442132  0.250000  1
  Sn  Sn15  1  0.442507  0.557493  0.750000  1
