# generated using pymatgen
data_MnCo7Si4(Mo3N)4
_symmetry_space_group_name_H-M   'P 1'
_cell_length_a   7.80300214
_cell_length_b   7.81551215
_cell_length_c   7.81551100
_cell_angle_alpha   60.00000063
_cell_angle_beta   59.94695202
_cell_angle_gamma   59.94695372
_symmetry_Int_Tables_number   1
_chemical_formula_structural   MnCo7Si4(Mo3N)4
_chemical_formula_sum   'Mn1 Co7 Si4 Mo12 N4'
_cell_volume   336.75407928
_cell_formula_units_Z   1
loop_
 _symmetry_equiv_pos_site_id
 _symmetry_equiv_pos_as_xyz
  1  'x, y, z'
loop_
 _atom_site_type_symbol
 _atom_site_label
 _atom_site_symmetry_multiplicity
 _atom_site_fract_x
 _atom_site_fract_y
 _atom_site_fract_z
 _atom_site_occupancy
  Mn  Mn0  1  0.240196  0.919935  0.919935  1
  Co  Co1  1  0.919769  0.243525  0.918354  1
  Co  Co2  1  0.919769  0.918354  0.918354  1
  Co  Co3  1  0.919769  0.918354  0.243525  1
  Co  Co4  1  0.996426  0.334524  0.334524  1
  Co  Co5  1  0.335388  0.333017  0.998577  1
  Co  Co6  1  0.335388  0.998577  0.333017  1
  Co  Co7  1  0.335388  0.333017  0.333017  1
  Si  Si8  1  0.622798  0.125734  0.125734  1
  Si  Si9  1  0.124385  0.129705  0.616205  1
  Si  Si10  1  0.124385  0.616205  0.129705  1
  Si  Si11  1  0.124385  0.129705  0.129705  1
  Mo  Mo12  1  0.696804  0.302763  0.697671  1
  Mo  Mo13  1  0.556720  0.556014  0.943633  1
  Mo  Mo14  1  0.556720  0.943633  0.556014  1
  Mo  Mo15  1  0.944854  0.943899  0.555624  1
  Mo  Mo16  1  0.944854  0.555624  0.555624  1
  Mo  Mo17  1  0.944854  0.555624  0.943899  1
  Mo  Mo18  1  0.696804  0.302763  0.302763  1
  Mo  Mo19  1  0.301786  0.699035  0.300145  1
  Mo  Mo20  1  0.301786  0.300145  0.699035  1
  Mo  Mo21  1  0.301786  0.699035  0.699035  1
  Mo  Mo22  1  0.696804  0.697671  0.302763  1
  Mo  Mo23  1  0.556720  0.943633  0.943633  1
  N  N24  1  0.625025  0.624366  0.624366  1
  N  N25  1  0.126392  0.624536  0.624536  1
  N  N26  1  0.625025  0.126244  0.624366  1
  N  N27  1  0.625025  0.624366  0.126244  1
