# generated using pymatgen
data_Er4Tm4Re3B24Ir
_symmetry_space_group_name_H-M   'P 1'
_cell_length_a   3.64333100
_cell_length_b   9.10828313
_cell_length_c   11.48320500
_cell_angle_alpha   90.12832586
_cell_angle_beta   90.00000000
_cell_angle_gamma   90.00000000
_symmetry_Int_Tables_number   1
_chemical_formula_structural   Er4Tm4Re3B24Ir
_chemical_formula_sum   'Er4 Tm4 Re3 B24 Ir1'
_cell_volume   381.06334895
_cell_formula_units_Z   1
loop_
 _symmetry_equiv_pos_site_id
 _symmetry_equiv_pos_as_xyz
  1  'x, y, z'
loop_
 _atom_site_type_symbol
 _atom_site_label
 _atom_site_symmetry_multiplicity
 _atom_site_fract_x
 _atom_site_fract_y
 _atom_site_fract_z
 _atom_site_occupancy
  Er  Er0  1  0.000000  0.317505  0.415534  1
  Er  Er1  1  0.000000  0.679108  0.591406  1
  Er  Er2  1  0.000000  0.826767  0.081134  1
  Er  Er3  1  0.000000  0.177581  0.912519  1
  Tm  Tm4  1  0.000000  0.944447  0.370798  1
  Tm  Tm5  1  0.000000  0.055684  0.628763  1
  Tm  Tm6  1  0.000000  0.441288  0.128026  1
  Tm  Tm7  1  0.000000  0.556487  0.871687  1
  Re  Re8  1  0.000000  0.362460  0.677693  1
  Re  Re9  1  0.000000  0.138397  0.180137  1
  Re  Re10  1  0.000000  0.861616  0.820865  1
  B  B11  1  0.500000  0.553960  0.434015  1
  B  B12  1  0.500000  0.446792  0.566353  1
  B  B13  1  0.500000  0.053249  0.066457  1
  B  B14  1  0.500000  0.947046  0.932955  1
  B  B15  1  0.500000  0.749820  0.420480  1
  B  B16  1  0.500000  0.249856  0.580751  1
  B  B17  1  0.500000  0.249617  0.080869  1
  B  B18  1  0.500000  0.750878  0.919204  1
  B  B19  1  0.500000  0.791794  0.264933  1
  B  B20  1  0.500000  0.207771  0.734398  1
  B  B21  1  0.500000  0.292476  0.235307  1
  B  B22  1  0.500000  0.707522  0.765684  1
  B  B23  1  0.500000  0.631554  0.183800  1
  B  B24  1  0.500000  0.369559  0.814636  1
  B  B25  1  0.500000  0.130805  0.315408  1
  B  B26  1  0.500000  0.868717  0.685038  1
  B  B27  1  0.500000  0.982171  0.212215  1
  B  B28  1  0.500000  0.018010  0.786951  1
  B  B29  1  0.500000  0.482370  0.287699  1
  B  B30  1  0.500000  0.518602  0.712562  1
  B  B31  1  0.500000  0.603110  0.029152  1
  B  B32  1  0.500000  0.397767  0.972041  1
  B  B33  1  0.500000  0.101480  0.471375  1
  B  B34  1  0.500000  0.895871  0.528084  1
  Ir  Ir35  1  0.000000  0.637864  0.321070  1
