# generated using pymatgen
data_La8Nd2Os2I15
_symmetry_space_group_name_H-M   'P 1'
_cell_length_a   10.25446263
_cell_length_b   11.16632309
_cell_length_c   11.92044769
_cell_angle_alpha   91.60059809
_cell_angle_beta   114.18080983
_cell_angle_gamma   110.60632577
_symmetry_Int_Tables_number   1
_chemical_formula_structural   La8Nd2Os2I15
_chemical_formula_sum   'La8 Nd2 Os2 I15'
_cell_volume   1141.60014958
_cell_formula_units_Z   1
loop_
 _symmetry_equiv_pos_site_id
 _symmetry_equiv_pos_as_xyz
  1  'x, y, z'
loop_
 _atom_site_type_symbol
 _atom_site_label
 _atom_site_symmetry_multiplicity
 _atom_site_fract_x
 _atom_site_fract_y
 _atom_site_fract_z
 _atom_site_occupancy
  La  La0  1  0.297634  0.902101  0.273676  1
  La  La1  1  0.702366  0.097899  0.726324  1
  La  La2  1  0.085563  0.548985  0.322915  1
  La  La3  1  0.914437  0.451015  0.677085  1
  La  La4  1  0.830540  0.750027  0.179277  1
  La  La5  1  0.169460  0.249973  0.820723  1
  La  La6  1  0.976115  0.788830  0.910740  1
  La  La7  1  0.023885  0.211170  0.089260  1
  Nd  Nd8  1  0.229514  0.578224  0.050444  1
  Nd  Nd9  1  0.770486  0.421776  0.949556  1
  Os  Os10  1  0.031694  0.672428  0.119331  1
  Os  Os11  1  0.968306  0.327572  0.880669  1
  I  I12  1  0.339288  0.447687  0.296653  1
  I  I13  1  0.660712  0.552313  0.703347  1
  I  I14  1  0.214798  0.735194  0.822082  1
  I  I15  1  0.785202  0.264806  0.177918  1
  I  I16  1  0.141740  0.386462  0.580369  1
  I  I17  1  0.858260  0.613538  0.419631  1
  I  I18  1  0.387952  0.800662  0.533669  1
  I  I19  1  0.612048  0.199338  0.466331  1
  I  I20  1  0.263415  0.087797  0.054949  1
  I  I21  1  0.736585  0.912203  0.945051  1
  I  I22  1  0.558917  0.838535  0.222910  1
  I  I23  1  0.441083  0.161465  0.777090  1
  I  I24  1  0.091793  0.039738  0.335196  1
  I  I25  1  0.908207  0.960262  0.664804  1
  I  I26  1  0.500000  0.500000  0.000000  1
