# generated using pymatgen
data_Sr3Li3AgBi4
_symmetry_space_group_name_H-M   'P 1'
_cell_length_a   9.32044409
_cell_length_b   9.31886383
_cell_length_c   9.31886320
_cell_angle_alpha   148.74759666
_cell_angle_beta   131.37883019
_cell_angle_gamma   58.93905694
_symmetry_Int_Tables_number   1
_chemical_formula_structural   Sr3Li3AgBi4
_chemical_formula_sum   'Sr3 Li3 Ag1 Bi4'
_cell_volume   312.56908609
_cell_formula_units_Z   1
loop_
 _symmetry_equiv_pos_site_id
 _symmetry_equiv_pos_as_xyz
  1  'x, y, z'
loop_
 _atom_site_type_symbol
 _atom_site_label
 _atom_site_symmetry_multiplicity
 _atom_site_fract_x
 _atom_site_fract_y
 _atom_site_fract_z
 _atom_site_occupancy
  Sr  Sr0  1  0.631748  0.629461  0.002287  1
  Sr  Sr1  1  0.002684  0.504116  0.498569  1
  Sr  Sr2  1  0.366989  0.370095  0.996894  1
  Li  Li3  1  0.357722  0.171811  0.185912  1
  Li  Li4  1  0.637516  0.825401  0.812114  1
  Li  Li5  1  0.017022  0.822840  0.194182  1
  Ag  Ag6  1  0.982740  0.175254  0.807486  1
  Bi  Bi7  1  0.779603  0.288054  0.491548  1
  Bi  Bi8  1  0.229966  0.716149  0.513817  1
  Bi  Bi9  1  0.297987  0.998579  0.299410  1
  Bi  Bi10  1  0.696025  0.998243  0.697782  1
