# generated using pymatgen
data_HfNbCr4
_symmetry_space_group_name_H-M   'P 1'
_cell_length_a   4.96544841
_cell_length_b   4.96544895
_cell_length_c   4.96544800
_cell_angle_alpha   59.99999302
_cell_angle_beta   59.99998938
_cell_angle_gamma   60.00000041
_symmetry_Int_Tables_number   1
_chemical_formula_structural   HfNbCr4
_chemical_formula_sum   'Hf1 Nb1 Cr4'
_cell_volume   86.56859699
_cell_formula_units_Z   1
loop_
 _symmetry_equiv_pos_site_id
 _symmetry_equiv_pos_as_xyz
  1  'x, y, z'
loop_
 _atom_site_type_symbol
 _atom_site_label
 _atom_site_symmetry_multiplicity
 _atom_site_fract_x
 _atom_site_fract_y
 _atom_site_fract_z
 _atom_site_occupancy
  Hf  Hf0  1  0.000000  0.000000  0.000000  1
  Nb  Nb1  1  0.250000  0.250000  0.250000  1
  Cr  Cr2  1  0.624915  0.624915  0.125256  1
  Cr  Cr3  1  0.624915  0.125256  0.624915  1
  Cr  Cr4  1  0.125256  0.624915  0.624915  1
  Cr  Cr5  1  0.624915  0.624915  0.624915  1
