# generated using pymatgen
data_Y12ZnCo3NiBi
_symmetry_space_group_name_H-M   'P 1'
_cell_length_a   8.40207370
_cell_length_b   8.40207399
_cell_length_c   8.40207320
_cell_angle_alpha   109.28535436
_cell_angle_beta   111.72739956
_cell_angle_gamma   107.42971727
_symmetry_Int_Tables_number   1
_chemical_formula_structural   Y12ZnCo3NiBi
_chemical_formula_sum   'Y12 Zn1 Co3 Ni1 Bi1'
_cell_volume   455.95368948
_cell_formula_units_Z   1
loop_
 _symmetry_equiv_pos_site_id
 _symmetry_equiv_pos_as_xyz
  1  'x, y, z'
loop_
 _atom_site_type_symbol
 _atom_site_label
 _atom_site_symmetry_multiplicity
 _atom_site_fract_x
 _atom_site_fract_y
 _atom_site_fract_z
 _atom_site_occupancy
  Y  Y0  1  0.284551  0.177173  0.461724  1
  Y  Y1  1  0.719519  0.818939  0.538458  1
  Y  Y2  1  0.280481  0.818939  0.099422  1
  Y  Y3  1  0.715449  0.177173  0.892620  1
  Y  Y4  1  0.633758  0.322185  0.315168  1
  Y  Y5  1  0.366242  0.681411  0.688428  1
  Y  Y6  1  0.007017  0.322185  0.688428  1
  Y  Y7  1  0.992983  0.681411  0.315168  1
  Y  Y8  1  0.226098  0.427305  0.201208  1
  Y  Y9  1  0.773166  0.572005  0.798840  1
  Y  Y10  1  0.226834  0.025675  0.798840  1
  Y  Y11  1  0.773902  0.975110  0.201208  1
  Zn  Zn12  1  0.000000  0.997576  0.997576  1
  Co  Co13  1  0.000000  0.652849  0.652849  1
  Co  Co14  1  0.387391  0.885212  0.497821  1
  Co  Co15  1  0.612609  0.110432  0.497821  1
  Ni  Ni16  1  0.000000  0.355411  0.355411  1
  Bi  Bi17  1  0.500000  0.499008  0.999008  1
