# generated using pymatgen
data_NdThMn3Co9P7
_symmetry_space_group_name_H-M   'P 1'
_cell_length_a   9.15481806
_cell_length_b   9.15561378
_cell_length_c   3.67227500
_cell_angle_alpha   90.00000000
_cell_angle_beta   90.00000000
_cell_angle_gamma   120.01343484
_symmetry_Int_Tables_number   1
_chemical_formula_structural   NdThMn3Co9P7
_chemical_formula_sum   'Nd1 Th1 Mn3 Co9 P7'
_cell_volume   266.52883409
_cell_formula_units_Z   1
loop_
 _symmetry_equiv_pos_site_id
 _symmetry_equiv_pos_as_xyz
  1  'x, y, z'
loop_
 _atom_site_type_symbol
 _atom_site_label
 _atom_site_symmetry_multiplicity
 _atom_site_fract_x
 _atom_site_fract_y
 _atom_site_fract_z
 _atom_site_occupancy
  Nd  Nd0  1  0.333500  0.666684  0.000000  1
  Th  Th1  1  0.999967  0.000173  0.500000  1
  Mn  Mn2  1  0.784129  0.233319  0.500000  1
  Mn  Mn3  1  0.766624  0.550417  0.500000  1
  Mn  Mn4  1  0.449362  0.216001  0.500000  1
  Co  Co5  1  0.036379  0.270702  0.000000  1
  Co  Co6  1  0.729212  0.765666  0.000000  1
  Co  Co7  1  0.234336  0.963654  0.000000  1
  Co  Co8  1  0.546319  0.059980  0.000000  1
  Co  Co9  1  0.939959  0.486295  0.000000  1
  Co  Co10  1  0.513712  0.453632  0.000000  1
  Co  Co11  1  0.617748  0.899988  0.500000  1
  Co  Co12  1  0.099980  0.717823  0.500000  1
  Co  Co13  1  0.282252  0.382312  0.500000  1
  P  P14  1  0.769833  0.033540  0.000000  1
  P  P15  1  0.966454  0.736506  0.000000  1
  P  P16  1  0.263662  0.230155  0.000000  1
  P  P17  1  0.375224  0.932876  0.500000  1
  P  P18  1  0.067042  0.442362  0.500000  1
  P  P19  1  0.557622  0.624742  0.500000  1
  P  P20  1  0.666685  0.333173  0.000000  1
