# generated using pymatgen
data_Tb2Ga9Co2Pd
_symmetry_space_group_name_H-M   'P 1'
_cell_length_a   7.49047720
_cell_length_b   7.49047839
_cell_length_c   9.45035100
_cell_angle_alpha   90.00000000
_cell_angle_beta   90.00000000
_cell_angle_gamma   119.61055925
_symmetry_Int_Tables_number   1
_chemical_formula_structural   Tb2Ga9Co2Pd
_chemical_formula_sum   'Tb4 Ga18 Co4 Pd2'
_cell_volume   460.98687140
_cell_formula_units_Z   2
loop_
 _symmetry_equiv_pos_site_id
 _symmetry_equiv_pos_as_xyz
  1  'x, y, z'
loop_
 _atom_site_type_symbol
 _atom_site_label
 _atom_site_symmetry_multiplicity
 _atom_site_fract_x
 _atom_site_fract_y
 _atom_site_fract_z
 _atom_site_occupancy
  Tb  Tb0  1  0.503236  0.823984  0.750000  1
  Tb  Tb1  1  0.496764  0.176016  0.250000  1
  Tb  Tb2  1  0.176016  0.496764  0.250000  1
  Tb  Tb3  1  0.823984  0.503236  0.750000  1
  Ga  Ga4  1  0.165404  0.943809  0.750000  1
  Ga  Ga5  1  0.834596  0.056191  0.250000  1
  Ga  Ga6  1  0.056191  0.834596  0.250000  1
  Ga  Ga7  1  0.943809  0.165404  0.750000  1
  Ga  Ga8  1  0.641171  0.641171  0.250000  1
  Ga  Ga9  1  0.358829  0.358829  0.750000  1
  Ga  Ga10  1  0.156692  0.156692  0.063004  1
  Ga  Ga11  1  0.843308  0.843308  0.563004  1
  Ga  Ga12  1  0.843308  0.843308  0.936996  1
  Ga  Ga13  1  0.156692  0.156692  0.436996  1
  Ga  Ga14  1  0.499090  0.845210  0.075011  1
  Ga  Ga15  1  0.500910  0.154790  0.575011  1
  Ga  Ga16  1  0.154790  0.500910  0.924989  1
  Ga  Ga17  1  0.845210  0.499090  0.424989  1
  Ga  Ga18  1  0.500910  0.154790  0.924989  1
  Ga  Ga19  1  0.499090  0.845210  0.424989  1
  Ga  Ga20  1  0.845210  0.499090  0.075011  1
  Ga  Ga21  1  0.154790  0.500910  0.575011  1
  Co  Co22  1  0.170650  0.829350  0.000000  1
  Co  Co23  1  0.829350  0.170650  0.500000  1
  Co  Co24  1  0.829350  0.170650  0.000000  1
  Co  Co25  1  0.170650  0.829350  0.500000  1
  Pd  Pd26  1  0.500000  0.500000  0.500000  1
  Pd  Pd27  1  0.500000  0.500000  0.000000  1
