# generated using pymatgen
data_Tm2ZrGa5Ru
_symmetry_space_group_name_H-M   'P 1'
_cell_length_a   6.80736800
_cell_length_b   6.74346251
_cell_length_c   4.26429900
_cell_angle_alpha   90.00000000
_cell_angle_beta   90.00000000
_cell_angle_gamma   120.31398360
_symmetry_Int_Tables_number   1
_chemical_formula_structural   Tm2ZrGa5Ru
_chemical_formula_sum   'Tm2 Zr1 Ga5 Ru1'
_cell_volume   168.98870427
_cell_formula_units_Z   1
loop_
 _symmetry_equiv_pos_site_id
 _symmetry_equiv_pos_as_xyz
  1  'x, y, z'
loop_
 _atom_site_type_symbol
 _atom_site_label
 _atom_site_symmetry_multiplicity
 _atom_site_fract_x
 _atom_site_fract_y
 _atom_site_fract_z
 _atom_site_occupancy
  Tm  Tm0  1  0.004278  0.587493  0.000000  1
  Tm  Tm1  1  0.416786  0.412507  0.000000  1
  Zr  Zr2  1  0.593326  0.000000  0.000000  1
  Ga  Ga3  1  0.236889  0.000000  0.500000  1
  Ga  Ga4  1  0.000195  0.238894  0.500000  1
  Ga  Ga5  1  0.761301  0.761106  0.500000  1
  Ga  Ga6  1  0.340850  0.676986  0.500000  1
  Ga  Ga7  1  0.663865  0.323014  0.500000  1
  Ru  Ru8  1  0.982511  0.000000  0.000000  1
