# generated using pymatgen
data_Sm3Co7(P3Rh)2
_symmetry_space_group_name_H-M   'P 1'
_cell_length_a   3.76475600
_cell_length_b   10.70937700
_cell_length_c   12.47612700
_cell_angle_alpha   90.00000000
_cell_angle_beta   90.00000000
_cell_angle_gamma   90.00000000
_symmetry_Int_Tables_number   1
_chemical_formula_structural   Sm3Co7(P3Rh)2
_chemical_formula_sum   'Sm6 Co14 P12 Rh4'
_cell_volume   503.01487528
_cell_formula_units_Z   2
loop_
 _symmetry_equiv_pos_site_id
 _symmetry_equiv_pos_as_xyz
  1  'x, y, z'
loop_
 _atom_site_type_symbol
 _atom_site_label
 _atom_site_symmetry_multiplicity
 _atom_site_fract_x
 _atom_site_fract_y
 _atom_site_fract_z
 _atom_site_occupancy
  Sm  Sm0  1  0.000000  0.500000  0.520301  1
  Sm  Sm1  1  0.500000  0.000000  0.479699  1
  Sm  Sm2  1  0.500000  0.814105  0.206078  1
  Sm  Sm3  1  0.500000  0.185895  0.206078  1
  Sm  Sm4  1  0.000000  0.685895  0.793922  1
  Sm  Sm5  1  0.000000  0.314105  0.793922  1
  Co  Co6  1  0.000000  0.500000  0.988374  1
  Co  Co7  1  0.500000  0.000000  0.011626  1
  Co  Co8  1  0.500000  0.332264  0.994282  1
  Co  Co9  1  0.500000  0.667736  0.994282  1
  Co  Co10  1  0.000000  0.167736  0.005718  1
  Co  Co11  1  0.000000  0.832264  0.005718  1
  Co  Co12  1  0.500000  0.300714  0.428879  1
  Co  Co13  1  0.500000  0.699286  0.428879  1
  Co  Co14  1  0.000000  0.199286  0.571121  1
  Co  Co15  1  0.000000  0.800714  0.571121  1
  Co  Co16  1  0.500000  0.881919  0.710927  1
  Co  Co17  1  0.500000  0.118081  0.710927  1
  Co  Co18  1  0.000000  0.618081  0.289073  1
  Co  Co19  1  0.000000  0.381919  0.289073  1
  P  P20  1  0.500000  0.500000  0.891556  1
  P  P21  1  0.000000  0.000000  0.108444  1
  P  P22  1  0.500000  0.500000  0.347141  1
  P  P23  1  0.000000  0.000000  0.652859  1
  P  P24  1  0.500000  0.299661  0.612075  1
  P  P25  1  0.500000  0.700339  0.612075  1
  P  P26  1  0.000000  0.200339  0.387925  1
  P  P27  1  0.000000  0.799661  0.387925  1
  P  P28  1  0.500000  0.845248  0.896347  1
  P  P29  1  0.500000  0.154752  0.896347  1
  P  P30  1  0.000000  0.654752  0.103653  1
  P  P31  1  0.000000  0.345248  0.103653  1
  Rh  Rh32  1  0.500000  0.500000  0.159050  1
  Rh  Rh33  1  0.000000  0.000000  0.840950  1
  Rh  Rh34  1  0.500000  0.500000  0.703981  1
  Rh  Rh35  1  0.000000  0.000000  0.296019  1
