# generated using pymatgen
data_YNp3Ga12Re
_symmetry_space_group_name_H-M   'P 1'
_cell_length_a   7.49365378
_cell_length_b   7.50543205
_cell_length_c   7.49365313
_cell_angle_alpha   109.50306277
_cell_angle_beta   109.43935117
_cell_angle_gamma   109.50306975
_symmetry_Int_Tables_number   1
_chemical_formula_structural   YNp3Ga12Re
_chemical_formula_sum   'Y1 Np3 Ga12 Re1'
_cell_volume   324.31736891
_cell_formula_units_Z   1
loop_
 _symmetry_equiv_pos_site_id
 _symmetry_equiv_pos_as_xyz
  1  'x, y, z'
loop_
 _atom_site_type_symbol
 _atom_site_label
 _atom_site_symmetry_multiplicity
 _atom_site_fract_x
 _atom_site_fract_y
 _atom_site_fract_z
 _atom_site_occupancy
  Y  Y0  1  0.000000  0.500000  0.000000  1
  Np  Np1  1  0.500000  0.500000  0.500000  1
  Np  Np2  1  0.000000  0.000000  0.500000  1
  Np  Np3  1  0.500000  0.000000  0.000000  1
  Ga  Ga4  1  0.749516  0.500000  0.250484  1
  Ga  Ga5  1  0.500967  0.750484  0.250484  1
  Ga  Ga6  1  0.499033  0.249516  0.749516  1
  Ga  Ga7  1  0.749516  0.249516  0.499033  1
  Ga  Ga8  1  0.250484  0.750484  0.500967  1
  Ga  Ga9  1  0.250484  0.500000  0.749516  1
  Ga  Ga10  1  0.292684  0.003009  0.292684  1
  Ga  Ga11  1  0.000000  0.289676  0.292684  1
  Ga  Ga12  1  0.000000  0.710324  0.707316  1
  Ga  Ga13  1  0.292684  0.289676  0.000000  1
  Ga  Ga14  1  0.707316  0.710324  0.000000  1
  Ga  Ga15  1  0.707316  0.996991  0.707316  1
  Re  Re16  1  0.000000  0.000000  0.000000  1
