# generated using pymatgen
data_Ho4Hg3IrPb2
_symmetry_space_group_name_H-M   'P 1'
_cell_length_a   8.21054700
_cell_length_b   8.21054688
_cell_length_c   3.83344500
_cell_angle_alpha   90.00000000
_cell_angle_beta   90.00000000
_cell_angle_gamma   90.92193097
_symmetry_Int_Tables_number   1
_chemical_formula_structural   Ho4Hg3IrPb2
_chemical_formula_sum   'Ho4 Hg3 Ir1 Pb2'
_cell_volume   258.39088469
_cell_formula_units_Z   1
loop_
 _symmetry_equiv_pos_site_id
 _symmetry_equiv_pos_as_xyz
  1  'x, y, z'
loop_
 _atom_site_type_symbol
 _atom_site_label
 _atom_site_symmetry_multiplicity
 _atom_site_fract_x
 _atom_site_fract_y
 _atom_site_fract_z
 _atom_site_occupancy
  Ho  Ho0  1  0.633688  0.178792  0.500000  1
  Ho  Ho1  1  0.196513  0.303487  0.500000  1
  Ho  Ho2  1  0.831594  0.668406  0.500000  1
  Ho  Ho3  1  0.321208  0.866312  0.500000  1
  Hg  Hg4  1  0.133698  0.622710  0.000000  1
  Hg  Hg5  1  0.626660  0.873340  0.000000  1
  Hg  Hg6  1  0.877290  0.366302  0.000000  1
  Ir  Ir7  1  0.376790  0.123210  0.000000  1
  Pb  Pb8  1  0.004146  0.001589  0.000000  1
  Pb  Pb9  1  0.498411  0.495854  0.000000  1
