# generated using pymatgen
data_Dy2Ho5Co6Sn22Hg
_symmetry_space_group_name_H-M   'P 1'
_cell_length_a   9.65995700
_cell_length_b   9.65995509
_cell_length_c   9.99429400
_cell_angle_alpha   90.00190738
_cell_angle_beta   89.99809342
_cell_angle_gamma   119.99925870
_symmetry_Int_Tables_number   1
_chemical_formula_structural   Dy2Ho5Co6Sn22Hg
_chemical_formula_sum   'Dy2 Ho5 Co6 Sn22 Hg1'
_cell_volume   807.67436165
_cell_formula_units_Z   1
loop_
 _symmetry_equiv_pos_site_id
 _symmetry_equiv_pos_as_xyz
  1  'x, y, z'
loop_
 _atom_site_type_symbol
 _atom_site_label
 _atom_site_symmetry_multiplicity
 _atom_site_fract_x
 _atom_site_fract_y
 _atom_site_fract_z
 _atom_site_occupancy
  Dy  Dy0  1  0.999999  0.000001  0.000002  1
  Dy  Dy1  1  0.520706  0.479294  0.693581  1
  Ho  Ho2  1  0.520676  0.041357  0.693584  1
  Ho  Ho3  1  0.958643  0.479324  0.693584  1
  Ho  Ho4  1  0.041359  0.520680  0.306417  1
  Ho  Ho5  1  0.479320  0.958641  0.306417  1
  Ho  Ho6  1  0.479318  0.520682  0.306404  1
  Co  Co7  1  0.168101  0.831899  0.802969  1
  Co  Co8  1  0.168071  0.336194  0.802980  1
  Co  Co9  1  0.663806  0.831929  0.802980  1
  Co  Co10  1  0.336206  0.168104  0.197030  1
  Co  Co11  1  0.831896  0.663794  0.197030  1
  Co  Co12  1  0.831900  0.168100  0.197033  1
  Sn  Sn13  1  0.666671  0.333329  0.181490  1
  Sn  Sn14  1  0.666695  0.333305  0.879795  1
  Sn  Sn15  1  0.333332  0.666668  0.120243  1
  Sn  Sn16  1  0.346383  0.346380  0.000013  1
  Sn  Sn17  1  0.999999  0.653612  0.000003  1
  Sn  Sn18  1  0.653620  0.000010  0.000005  1
  Sn  Sn19  1  0.653620  0.653617  0.000013  1
  Sn  Sn20  1  0.333325  0.666675  0.818509  1
  Sn  Sn21  1  0.435168  0.217567  0.453414  1
  Sn  Sn22  1  0.217585  0.782415  0.546561  1
  Sn  Sn23  1  0.217542  0.435166  0.546542  1
  Sn  Sn24  1  0.564834  0.782458  0.546542  1
  Sn  Sn25  1  0.116876  0.883124  0.269935  1
  Sn  Sn26  1  0.782433  0.564832  0.453414  1
  Sn  Sn27  1  0.782416  0.217584  0.453429  1
  Sn  Sn28  1  0.346388  0.000001  0.000003  1
  Sn  Sn29  1  0.116870  0.233751  0.269935  1
  Sn  Sn30  1  0.766249  0.883130  0.269935  1
  Sn  Sn31  1  0.233727  0.116843  0.730068  1
  Sn  Sn32  1  0.883157  0.766273  0.730068  1
  Sn  Sn33  1  0.883121  0.116879  0.730067  1
  Sn  Sn34  1  0.999990  0.346380  0.000005  1
  Hg  Hg35  1  0.000000  0.000000  0.499998  1
