# generated using pymatgen
data_Yb4NpTcOs6
_symmetry_space_group_name_H-M   'P 1'
_cell_length_a   5.55270700
_cell_length_b   5.55270597
_cell_length_c   8.17610500
_cell_angle_alpha   90.00000000
_cell_angle_beta   90.00000000
_cell_angle_gamma   119.99998826
_symmetry_Int_Tables_number   1
_chemical_formula_structural   Yb4NpTcOs6
_chemical_formula_sum   'Yb4 Np1 Tc1 Os6'
_cell_volume   218.31650898
_cell_formula_units_Z   1
loop_
 _symmetry_equiv_pos_site_id
 _symmetry_equiv_pos_as_xyz
  1  'x, y, z'
loop_
 _atom_site_type_symbol
 _atom_site_label
 _atom_site_symmetry_multiplicity
 _atom_site_fract_x
 _atom_site_fract_y
 _atom_site_fract_z
 _atom_site_occupancy
  Yb  Yb0  1  0.333333  0.666667  0.434844  1
  Yb  Yb1  1  0.666667  0.333333  0.565156  1
  Yb  Yb2  1  0.666667  0.333333  0.925497  1
  Yb  Yb3  1  0.333333  0.666667  0.074503  1
  Np  Np4  1  0.000000  0.000000  0.000000  1
  Tc  Tc5  1  0.000000  0.000000  0.500000  1
  Os  Os6  1  0.826458  0.173542  0.246047  1
  Os  Os7  1  0.826458  0.652917  0.246047  1
  Os  Os8  1  0.347083  0.173542  0.246047  1
  Os  Os9  1  0.173542  0.826458  0.753953  1
  Os  Os10  1  0.173542  0.347083  0.753953  1
  Os  Os11  1  0.652917  0.826458  0.753953  1
