# generated using pymatgen
data_Ce4Cd2IrRh3
_symmetry_space_group_name_H-M   'P 1'
_cell_length_a   7.69979700
_cell_length_b   7.69979596
_cell_length_c   3.70032100
_cell_angle_alpha   90.00000000
_cell_angle_beta   90.00000000
_cell_angle_gamma   90.15714362
_symmetry_Int_Tables_number   1
_chemical_formula_structural   Ce4Cd2IrRh3
_chemical_formula_sum   'Ce4 Cd2 Ir1 Rh3'
_cell_volume   219.37960955
_cell_formula_units_Z   1
loop_
 _symmetry_equiv_pos_site_id
 _symmetry_equiv_pos_as_xyz
  1  'x, y, z'
loop_
 _atom_site_type_symbol
 _atom_site_label
 _atom_site_symmetry_multiplicity
 _atom_site_fract_x
 _atom_site_fract_y
 _atom_site_fract_z
 _atom_site_occupancy
  Ce  Ce0  1  0.670003  0.170003  0.500000  1
  Ce  Ce1  1  0.329057  0.829057  0.500000  1
  Ce  Ce2  1  0.171762  0.332881  0.500000  1
  Ce  Ce3  1  0.832881  0.671762  0.500000  1
  Cd  Cd4  1  0.000781  0.002141  0.000000  1
  Cd  Cd5  1  0.502141  0.500781  0.000000  1
  Ir  Ir6  1  0.131940  0.631940  0.000000  1
  Rh  Rh7  1  0.860329  0.360329  0.000000  1
  Rh  Rh8  1  0.636116  0.864990  0.000000  1
  Rh  Rh9  1  0.364990  0.136116  0.000000  1
