# generated using pymatgen
data_Dy5Er3Sc11Si16Hg
_symmetry_space_group_name_H-M   'P 1'
_cell_length_a   7.03777334
_cell_length_b   7.38534050
_cell_length_c   14.00671673
_cell_angle_alpha   90.01079325
_cell_angle_beta   90.03539878
_cell_angle_gamma   89.88676294
_symmetry_Int_Tables_number   1
_chemical_formula_structural   Dy5Er3Sc11Si16Hg
_chemical_formula_sum   'Dy5 Er3 Sc11 Si16 Hg1'
_cell_volume   728.01647221
_cell_formula_units_Z   1
loop_
 _symmetry_equiv_pos_site_id
 _symmetry_equiv_pos_as_xyz
  1  'x, y, z'
loop_
 _atom_site_type_symbol
 _atom_site_label
 _atom_site_symmetry_multiplicity
 _atom_site_fract_x
 _atom_site_fract_y
 _atom_site_fract_z
 _atom_site_occupancy
  Dy  Dy0  1  0.009605  0.174325  0.097278  1
  Dy  Dy1  1  0.990684  0.816777  0.901598  1
  Dy  Dy2  1  0.485825  0.672661  0.902038  1
  Dy  Dy3  1  0.990788  0.816354  0.597380  1
  Dy  Dy4  1  0.510572  0.324436  0.097741  1
  Er  Er5  1  0.010504  0.174278  0.403334  1
  Er  Er6  1  0.510547  0.323782  0.402892  1
  Er  Er7  1  0.485793  0.672840  0.597460  1
  Sc  Sc8  1  0.837116  0.497444  0.250624  1
  Sc  Sc9  1  0.339722  0.004106  0.250406  1
  Sc  Sc10  1  0.656882  0.997450  0.749706  1
  Sc  Sc11  1  0.325160  0.183135  0.625983  1
  Sc  Sc12  1  0.671308  0.824314  0.375336  1
  Sc  Sc13  1  0.168831  0.680858  0.373455  1
  Sc  Sc14  1  0.670913  0.824464  0.125442  1
  Sc  Sc15  1  0.839257  0.325448  0.625620  1
  Sc  Sc16  1  0.324418  0.182568  0.873467  1
  Sc  Sc17  1  0.839469  0.325546  0.873537  1
  Sc  Sc18  1  0.169213  0.680771  0.127441  1
  Si  Si19  1  0.026599  0.093354  0.749235  1
  Si  Si20  1  0.968137  0.888983  0.250564  1
  Si  Si21  1  0.466837  0.617508  0.250591  1
  Si  Si22  1  0.544719  0.378814  0.749550  1
  Si  Si23  1  0.291173  0.886188  0.749324  1
  Si  Si24  1  0.713199  0.129469  0.251195  1
  Si  Si25  1  0.212195  0.372993  0.251123  1
  Si  Si26  1  0.769234  0.630821  0.749184  1
  Si  Si27  1  0.164615  0.458763  0.528025  1
  Si  Si28  1  0.841381  0.534593  0.461045  1
  Si  Si29  1  0.343969  0.966837  0.461993  1
  Si  Si30  1  0.842150  0.536199  0.038322  1
  Si  Si31  1  0.656782  0.033311  0.540652  1
  Si  Si32  1  0.162808  0.459072  0.971977  1
  Si  Si33  1  0.657261  0.033739  0.959350  1
  Si  Si34  1  0.344125  0.965974  0.037782  1
  Hg  Hg35  1  0.158206  0.511819  0.749352  1
