# generated using pymatgen
data_Yb3PrGa14(Si2Ir3)2
_symmetry_space_group_name_H-M   'P 1'
_cell_length_a   7.55732722
_cell_length_b   7.51238948
_cell_length_c   9.57198805
_cell_angle_alpha   89.97202799
_cell_angle_beta   89.96333683
_cell_angle_gamma   120.14896518
_symmetry_Int_Tables_number   1
_chemical_formula_structural   Yb3PrGa14(Si2Ir3)2
_chemical_formula_sum   'Yb3 Pr1 Ga14 Si4 Ir6'
_cell_volume   469.92111126
_cell_formula_units_Z   1
loop_
 _symmetry_equiv_pos_site_id
 _symmetry_equiv_pos_as_xyz
  1  'x, y, z'
loop_
 _atom_site_type_symbol
 _atom_site_label
 _atom_site_symmetry_multiplicity
 _atom_site_fract_x
 _atom_site_fract_y
 _atom_site_fract_z
 _atom_site_occupancy
  Yb  Yb0  1  0.003611  0.338228  0.749567  1
  Yb  Yb1  1  0.668184  0.001951  0.249953  1
  Yb  Yb2  1  0.327177  0.995581  0.750304  1
  Pr  Pr3  1  0.999877  0.667217  0.249935  1
  Ga  Ga4  1  0.129805  0.131210  0.249760  1
  Ga  Ga5  1  0.874321  0.871268  0.750125  1
  Ga  Ga6  1  0.997446  0.322721  0.424493  1
  Ga  Ga7  1  0.670923  0.001650  0.581452  1
  Ga  Ga8  1  0.663870  0.999933  0.918574  1
  Ga  Ga9  1  0.344026  0.006693  0.076186  1
  Ga  Ga10  1  0.331802  0.334017  0.570647  1
  Ga  Ga11  1  0.659825  0.670482  0.431893  1
  Ga  Ga12  1  0.658291  0.670275  0.068031  1
  Ga  Ga13  1  0.336222  0.330491  0.929144  1
  Ga  Ga14  1  0.338555  0.546546  0.250513  1
  Ga  Ga15  1  0.664537  0.454927  0.750825  1
  Ga  Ga16  1  0.543492  0.336108  0.249865  1
  Ga  Ga17  1  0.450196  0.662435  0.749201  1
  Si  Si18  1  0.999864  0.325500  0.067803  1
  Si  Si19  1  0.998437  0.670262  0.929236  1
  Si  Si20  1  0.995911  0.660893  0.570606  1
  Si  Si21  1  0.341499  0.006904  0.431748  1
  Ir  Ir22  1  0.694314  0.342601  0.001756  1
  Ir  Ir23  1  0.304595  0.656196  0.997265  1
  Ir  Ir24  1  0.318193  0.680090  0.500103  1
  Ir  Ir25  1  0.670626  0.330299  0.500394  1
  Ir  Ir26  1  0.000590  0.999130  0.000389  1
  Ir  Ir27  1  0.013808  0.986394  0.500235  1
