# generated using pymatgen
data_NdPaNi10
_symmetry_space_group_name_H-M   'P 1'
_cell_length_a   4.00039100
_cell_length_b   4.89348400
_cell_length_c   8.45563600
_cell_angle_alpha   90.00000000
_cell_angle_beta   90.00000000
_cell_angle_gamma   90.00000000
_symmetry_Int_Tables_number   1
_chemical_formula_structural   NdPaNi10
_chemical_formula_sum   'Nd1 Pa1 Ni10'
_cell_volume   165.52625651
_cell_formula_units_Z   1
loop_
 _symmetry_equiv_pos_site_id
 _symmetry_equiv_pos_as_xyz
  1  'x, y, z'
loop_
 _atom_site_type_symbol
 _atom_site_label
 _atom_site_symmetry_multiplicity
 _atom_site_fract_x
 _atom_site_fract_y
 _atom_site_fract_z
 _atom_site_occupancy
  Nd  Nd0  1  0.000000  0.500000  0.500000  1
  Pa  Pa1  1  0.000000  0.000000  0.000000  1
  Ni  Ni2  1  0.000000  0.000000  0.320118  1
  Ni  Ni3  1  0.000000  0.500000  0.840923  1
  Ni  Ni4  1  0.000000  0.500000  0.159077  1
  Ni  Ni5  1  0.000000  0.000000  0.679882  1
  Ni  Ni6  1  0.500000  0.500000  0.000000  1
  Ni  Ni7  1  0.500000  0.000000  0.500000  1
  Ni  Ni8  1  0.500000  0.246113  0.243801  1
  Ni  Ni9  1  0.500000  0.753887  0.756199  1
  Ni  Ni10  1  0.500000  0.753887  0.243801  1
  Ni  Ni11  1  0.500000  0.246113  0.756199  1
