# generated using pymatgen
data_FeCo3As4
_symmetry_space_group_name_H-M   'P 1'
_cell_length_a   3.50386500
_cell_length_b   5.23166306
_cell_length_c   5.85109215
_cell_angle_alpha   89.91169117
_cell_angle_beta   90.00000000
_cell_angle_gamma   90.00000000
_symmetry_Int_Tables_number   1
_chemical_formula_structural   FeCo3As4
_chemical_formula_sum   'Fe1 Co3 As4'
_cell_volume   107.25648323
_cell_formula_units_Z   1
loop_
 _symmetry_equiv_pos_site_id
 _symmetry_equiv_pos_as_xyz
  1  'x, y, z'
loop_
 _atom_site_type_symbol
 _atom_site_label
 _atom_site_symmetry_multiplicity
 _atom_site_fract_x
 _atom_site_fract_y
 _atom_site_fract_z
 _atom_site_occupancy
  Fe  Fe0  1  0.000000  0.500098  0.700196  1
  Co  Co1  1  0.000000  0.001150  0.798605  1
  Co  Co2  1  0.500000  0.499753  0.301055  1
  Co  Co3  1  0.500000  0.999769  0.200639  1
  As  As4  1  0.000000  0.697822  0.087147  1
  As  As5  1  0.000000  0.202069  0.411309  1
  As  As6  1  0.500000  0.302829  0.910171  1
  As  As7  1  0.500000  0.796510  0.590879  1
