# generated using pymatgen
data_HoMn2CrFe2P3
_symmetry_space_group_name_H-M   'P 1'
_cell_length_a   3.63564900
_cell_length_b   10.41940400
_cell_length_c   12.10883300
_cell_angle_alpha   90.00000000
_cell_angle_beta   90.00000000
_cell_angle_gamma   90.00000000
_symmetry_Int_Tables_number   1
_chemical_formula_structural   HoMn2CrFe2P3
_chemical_formula_sum   'Ho4 Mn8 Cr4 Fe8 P12'
_cell_volume   458.69828386
_cell_formula_units_Z   4
loop_
 _symmetry_equiv_pos_site_id
 _symmetry_equiv_pos_as_xyz
  1  'x, y, z'
loop_
 _atom_site_type_symbol
 _atom_site_label
 _atom_site_symmetry_multiplicity
 _atom_site_fract_x
 _atom_site_fract_y
 _atom_site_fract_z
 _atom_site_occupancy
  Ho  Ho0  1  0.250000  0.581076  0.709297  1
  Ho  Ho1  1  0.250000  0.918924  0.209297  1
  Ho  Ho2  1  0.750000  0.418924  0.290703  1
  Ho  Ho3  1  0.750000  0.081076  0.790703  1
  Mn  Mn4  1  0.250000  0.408151  0.492399  1
  Mn  Mn5  1  0.250000  0.091849  0.992399  1
  Mn  Mn6  1  0.750000  0.591849  0.507601  1
  Mn  Mn7  1  0.750000  0.908151  0.007601  1
  Mn  Mn8  1  0.250000  0.218957  0.176443  1
  Mn  Mn9  1  0.250000  0.281043  0.676443  1
  Mn  Mn10  1  0.750000  0.781043  0.823557  1
  Mn  Mn11  1  0.750000  0.718957  0.323557  1
  Cr  Cr12  1  0.250000  0.704680  0.989244  1
  Cr  Cr13  1  0.250000  0.795320  0.489244  1
  Cr  Cr14  1  0.750000  0.295320  0.010756  1
  Cr  Cr15  1  0.750000  0.204680  0.510756  1
  Fe  Fe16  1  0.250000  0.873633  0.699542  1
  Fe  Fe17  1  0.250000  0.626367  0.199542  1
  Fe  Fe18  1  0.750000  0.126367  0.300458  1
  Fe  Fe19  1  0.750000  0.373633  0.800458  1
  Fe  Fe20  1  0.250000  0.463252  0.933995  1
  Fe  Fe21  1  0.250000  0.036748  0.433995  1
  Fe  Fe22  1  0.750000  0.536748  0.066005  1
  Fe  Fe23  1  0.750000  0.963252  0.566005  1
  P  P24  1  0.250000  0.426431  0.111573  1
  P  P25  1  0.250000  0.073569  0.611573  1
  P  P26  1  0.750000  0.573569  0.888427  1
  P  P27  1  0.750000  0.926431  0.388427  1
  P  P28  1  0.250000  0.266269  0.870754  1
  P  P29  1  0.250000  0.233731  0.370754  1
  P  P30  1  0.750000  0.733731  0.129246  1
  P  P31  1  0.750000  0.766269  0.629246  1
  P  P32  1  0.250000  0.596822  0.386679  1
  P  P33  1  0.250000  0.903178  0.886679  1
  P  P34  1  0.750000  0.403178  0.613321  1
  P  P35  1  0.750000  0.096822  0.113321  1
