# generated using pymatgen
data_La4CeHo3(CdRu)2
_symmetry_space_group_name_H-M   'P 1'
_cell_length_a   9.93909391
_cell_length_b   9.80795904
_cell_length_c   9.83755293
_cell_angle_alpha   59.54505447
_cell_angle_beta   59.42577300
_cell_angle_gamma   59.37948637
_symmetry_Int_Tables_number   1
_chemical_formula_structural   La4CeHo3(CdRu)2
_chemical_formula_sum   'La8 Ce2 Ho6 Cd4 Ru4'
_cell_volume   669.61984837
_cell_formula_units_Z   2
loop_
 _symmetry_equiv_pos_site_id
 _symmetry_equiv_pos_as_xyz
  1  'x, y, z'
loop_
 _atom_site_type_symbol
 _atom_site_label
 _atom_site_symmetry_multiplicity
 _atom_site_fract_x
 _atom_site_fract_y
 _atom_site_fract_z
 _atom_site_occupancy
  La  La0  1  0.556742  0.557973  0.945542  1
  La  La1  1  0.939698  0.557768  0.945723  1
  La  La2  1  0.554746  0.941418  0.948780  1
  La  La3  1  0.943197  0.943784  0.554673  1
  La  La4  1  0.558252  0.943669  0.554934  1
  La  La5  1  0.943480  0.559187  0.553634  1
  La  La6  1  0.188180  0.185310  0.816880  1
  La  La7  1  0.810244  0.185201  0.816682  1
  Ce  Ce8  1  0.976123  0.342004  0.335287  1
  Ce  Ce9  1  0.346557  0.342021  0.335311  1
  Ho  Ho10  1  0.189165  0.806956  0.814744  1
  Ho  Ho11  1  0.813025  0.811224  0.191424  1
  Ho  Ho12  1  0.184321  0.811293  0.191425  1
  Ho  Ho13  1  0.810200  0.184874  0.194766  1
  Ho  Ho14  1  0.345961  0.349877  0.958170  1
  Ho  Ho15  1  0.347097  0.958996  0.346873  1
  Cd  Cd16  1  0.579276  0.577361  0.264113  1
  Cd  Cd17  1  0.580482  0.264781  0.574293  1
  Cd  Cd18  1  0.265434  0.581078  0.576442  1
  Cd  Cd19  1  0.576931  0.581197  0.576510  1
  Ru  Ru20  1  0.137981  0.148931  0.574752  1
  Ru  Ru21  1  0.139212  0.571944  0.149595  1
  Ru  Ru22  1  0.577149  0.146559  0.139710  1
  Ru  Ru23  1  0.136545  0.146593  0.139733  1
