# generated using pymatgen
data_PrEr11In20
_symmetry_space_group_name_H-M   'P 1'
_cell_length_a   6.52888399
_cell_length_b   10.39434174
_cell_length_c   12.20759780
_cell_angle_alpha   89.35530891
_cell_angle_beta   89.92270176
_cell_angle_gamma   89.97159971
_symmetry_Int_Tables_number   1
_chemical_formula_structural   PrEr11In20
_chemical_formula_sum   'Pr1 Er11 In20'
_cell_volume   828.39642740
_cell_formula_units_Z   1
loop_
 _symmetry_equiv_pos_site_id
 _symmetry_equiv_pos_as_xyz
  1  'x, y, z'
loop_
 _atom_site_type_symbol
 _atom_site_label
 _atom_site_symmetry_multiplicity
 _atom_site_fract_x
 _atom_site_fract_y
 _atom_site_fract_z
 _atom_site_occupancy
  Pr  Pr0  1  0.611891  0.491821  0.643257  1
  Er  Er1  1  0.349520  0.750360  0.052747  1
  Er  Er2  1  0.145527  0.746299  0.552476  1
  Er  Er3  1  0.649510  0.252558  0.947958  1
  Er  Er4  1  0.849401  0.249398  0.446880  1
  Er  Er5  1  0.890460  0.490391  0.141360  1
  Er  Er6  1  0.609424  0.007639  0.638515  1
  Er  Er7  1  0.110901  0.991047  0.861896  1
  Er  Er8  1  0.388793  0.509052  0.356923  1
  Er  Er9  1  0.112007  0.509788  0.858977  1
  Er  Er10  1  0.389222  0.990717  0.359016  1
  Er  Er11  1  0.891177  0.010958  0.139672  1
  In  In12  1  0.611283  0.753292  0.500291  1
  In  In13  1  0.885797  0.752205  0.007629  1
  In  In14  1  0.381452  0.247672  0.492835  1
  In  In15  1  0.115044  0.250059  0.994434  1
  In  In16  1  0.652633  0.751641  0.240952  1
  In  In17  1  0.850895  0.755292  0.745222  1
  In  In18  1  0.348424  0.245782  0.758447  1
  In  In19  1  0.152077  0.249297  0.257529  1
  In  In20  1  0.124646  0.750929  0.280627  1
  In  In21  1  0.376020  0.752252  0.780385  1
  In  In22  1  0.879750  0.242998  0.720963  1
  In  In23  1  0.624149  0.249099  0.219410  1
  In  In24  1  0.873348  0.543827  0.398380  1
  In  In25  1  0.624851  0.959236  0.898760  1
  In  In26  1  0.125014  0.039200  0.601015  1
  In  In27  1  0.372505  0.456716  0.100294  1
  In  In28  1  0.123232  0.452924  0.599242  1
  In  In29  1  0.375825  0.042651  0.100952  1
  In  In30  1  0.875998  0.958007  0.397957  1
  In  In31  1  0.629224  0.546897  0.905000  1
