# generated using pymatgen
data_Zr6Sc8Al8Ir7
_symmetry_space_group_name_H-M   'P 1'
_cell_length_a   9.08934330
_cell_length_b   9.08934358
_cell_length_c   9.08934300
_cell_angle_alpha   59.99999848
_cell_angle_beta   59.99999745
_cell_angle_gamma   60.00000143
_symmetry_Int_Tables_number   1
_chemical_formula_structural   Zr6Sc8Al8Ir7
_chemical_formula_sum   'Zr6 Sc8 Al8 Ir7'
_cell_volume   530.98531841
_cell_formula_units_Z   1
loop_
 _symmetry_equiv_pos_site_id
 _symmetry_equiv_pos_as_xyz
  1  'x, y, z'
loop_
 _atom_site_type_symbol
 _atom_site_label
 _atom_site_symmetry_multiplicity
 _atom_site_fract_x
 _atom_site_fract_y
 _atom_site_fract_z
 _atom_site_occupancy
  Zr  Zr0  1  0.678721  0.678721  0.321279  1
  Zr  Zr1  1  0.321279  0.678721  0.321279  1
  Zr  Zr2  1  0.678721  0.321279  0.321279  1
  Zr  Zr3  1  0.321279  0.321279  0.678721  1
  Zr  Zr4  1  0.678721  0.321279  0.678721  1
  Zr  Zr5  1  0.321279  0.678721  0.678721  1
  Sc  Sc6  1  0.877598  0.877598  0.367207  1
  Sc  Sc7  1  0.877598  0.367207  0.877598  1
  Sc  Sc8  1  0.367207  0.877598  0.877598  1
  Sc  Sc9  1  0.877598  0.877598  0.877598  1
  Sc  Sc10  1  0.122402  0.122402  0.632793  1
  Sc  Sc11  1  0.122402  0.632793  0.122402  1
  Sc  Sc12  1  0.632793  0.122402  0.122402  1
  Sc  Sc13  1  0.122402  0.122402  0.122402  1
  Al  Al14  1  0.661483  0.661483  0.015550  1
  Al  Al15  1  0.661483  0.015550  0.661483  1
  Al  Al16  1  0.015550  0.661483  0.661483  1
  Al  Al17  1  0.661483  0.661483  0.661483  1
  Al  Al18  1  0.338517  0.338517  0.984450  1
  Al  Al19  1  0.338517  0.984450  0.338517  1
  Al  Al20  1  0.984450  0.338517  0.338517  1
  Al  Al21  1  0.338517  0.338517  0.338517  1
  Ir  Ir22  1  0.000000  0.000000  0.000000  1
  Ir  Ir23  1  0.000000  0.000000  0.500000  1
  Ir  Ir24  1  0.500000  0.000000  0.500000  1
  Ir  Ir25  1  0.000000  0.500000  0.500000  1
  Ir  Ir26  1  0.500000  0.500000  0.000000  1
  Ir  Ir27  1  0.000000  0.500000  0.000000  1
  Ir  Ir28  1  0.500000  0.000000  0.000000  1
