# generated using pymatgen
data_Dy2Ti3Co9As7
_symmetry_space_group_name_H-M   'P 1'
_cell_length_a   3.76365000
_cell_length_b   9.52221914
_cell_length_c   9.52222000
_cell_angle_alpha   119.99999605
_cell_angle_beta   90.00000000
_cell_angle_gamma   90.00000000
_symmetry_Int_Tables_number   1
_chemical_formula_structural   Dy2Ti3Co9As7
_chemical_formula_sum   'Dy2 Ti3 Co9 As7'
_cell_volume   295.53999478
_cell_formula_units_Z   1
loop_
 _symmetry_equiv_pos_site_id
 _symmetry_equiv_pos_as_xyz
  1  'x, y, z'
loop_
 _atom_site_type_symbol
 _atom_site_label
 _atom_site_symmetry_multiplicity
 _atom_site_fract_x
 _atom_site_fract_y
 _atom_site_fract_z
 _atom_site_occupancy
  Dy  Dy0  1  0.000000  0.666667  0.333333  1
  Dy  Dy1  1  0.500000  0.333333  0.666667  1
  Ti  Ti2  1  0.500000  0.777189  0.891405  1
  Ti  Ti3  1  0.500000  0.114216  0.222811  1
  Ti  Ti4  1  0.500000  0.108595  0.885784  1
  Co  Co5  1  0.000000  0.573232  0.939578  1
  Co  Co6  1  0.000000  0.366346  0.426768  1
  Co  Co7  1  0.000000  0.060422  0.633654  1
  Co  Co8  1  0.000000  0.879923  0.160332  1
  Co  Co9  1  0.000000  0.280410  0.120077  1
  Co  Co10  1  0.000000  0.839668  0.719590  1
  Co  Co11  1  0.500000  0.949374  0.385994  1
  Co  Co12  1  0.500000  0.436620  0.050626  1
  Co  Co13  1  0.500000  0.614006  0.563380  1
  As  As14  1  0.000000  0.000000  0.000000  1
  As  As15  1  0.500000  0.710018  0.123484  1
  As  As16  1  0.500000  0.413465  0.289982  1
  As  As17  1  0.500000  0.876516  0.586535  1
  As  As18  1  0.000000  0.580517  0.693806  1
  As  As19  1  0.000000  0.113288  0.419483  1
  As  As20  1  0.000000  0.306194  0.886712  1
