# generated using pymatgen
data_Sc12Al2Ni3Os
_symmetry_space_group_name_H-M   'P 1'
_cell_length_a   7.79133223
_cell_length_b   7.79133187
_cell_length_c   7.79133385
_cell_angle_alpha   111.96824001
_cell_angle_beta   110.77198491
_cell_angle_gamma   105.73911687
_symmetry_Int_Tables_number   1
_chemical_formula_structural   Sc12Al2Ni3Os
_chemical_formula_sum   'Sc12 Al2 Ni3 Os1'
_cell_volume   362.90254324
_cell_formula_units_Z   1
loop_
 _symmetry_equiv_pos_site_id
 _symmetry_equiv_pos_as_xyz
  1  'x, y, z'
loop_
 _atom_site_type_symbol
 _atom_site_label
 _atom_site_symmetry_multiplicity
 _atom_site_fract_x
 _atom_site_fract_y
 _atom_site_fract_z
 _atom_site_occupancy
  Sc  Sc0  1  0.049282  0.747160  0.302123  1
  Sc  Sc1  1  0.965462  0.264307  0.701157  1
  Sc  Sc2  1  0.554963  0.252840  0.302123  1
  Sc  Sc3  1  0.436850  0.735693  0.701157  1
  Sc  Sc4  1  0.678412  0.874801  0.200625  1
  Sc  Sc5  1  0.325825  0.522213  0.200625  1
  Sc  Sc6  1  0.325825  0.125199  0.803612  1
  Sc  Sc7  1  0.678412  0.477787  0.803612  1
  Sc  Sc8  1  0.181408  0.220279  0.401689  1
  Sc  Sc9  1  0.812252  0.220729  0.032982  1
  Sc  Sc10  1  0.181408  0.779721  0.961128  1
  Sc  Sc11  1  0.812252  0.779271  0.591522  1
  Al  Al12  1  0.991424  0.500000  0.491424  1
  Al  Al13  1  0.504994  0.000000  0.504994  1
  Ni  Ni14  1  0.341162  0.500000  0.841162  1
  Ni  Ni15  1  0.875639  0.876725  0.998914  1
  Ni  Ni16  1  0.122189  0.123275  0.998914  1
  Os  Os17  1  0.662240  0.500000  0.162240  1
