# generated using pymatgen
data_Ti16CuRh7O4
_symmetry_space_group_name_H-M   'P 1'
_cell_length_a   8.21806246
_cell_length_b   8.20280137
_cell_length_c   8.20280100
_cell_angle_alpha   59.99999744
_cell_angle_beta   60.06140813
_cell_angle_gamma   60.06141085
_symmetry_Int_Tables_number   1
_chemical_formula_structural   Ti16CuRh7O4
_chemical_formula_sum   'Ti16 Cu1 Rh7 O4'
_cell_volume   391.36437749
_cell_formula_units_Z   1
loop_
 _symmetry_equiv_pos_site_id
 _symmetry_equiv_pos_as_xyz
  1  'x, y, z'
loop_
 _atom_site_type_symbol
 _atom_site_label
 _atom_site_symmetry_multiplicity
 _atom_site_fract_x
 _atom_site_fract_y
 _atom_site_fract_z
 _atom_site_occupancy
  Ti  Ti0  1  0.818464  0.182123  0.817291  1
  Ti  Ti1  1  0.181420  0.818080  0.182419  1
  Ti  Ti2  1  0.432697  0.067575  0.432152  1
  Ti  Ti3  1  0.432697  0.067575  0.067575  1
  Ti  Ti4  1  0.067684  0.431530  0.431530  1
  Ti  Ti5  1  0.067684  0.431530  0.069255  1
  Ti  Ti6  1  0.181420  0.182419  0.818080  1
  Ti  Ti7  1  0.432697  0.432152  0.067575  1
  Ti  Ti8  1  0.126457  0.624514  0.624514  1
  Ti  Ti9  1  0.624573  0.626479  0.122470  1
  Ti  Ti10  1  0.624573  0.626479  0.626479  1
  Ti  Ti11  1  0.624573  0.122470  0.626479  1
  Ti  Ti12  1  0.181420  0.818080  0.818080  1
  Ti  Ti13  1  0.818464  0.182123  0.182123  1
  Ti  Ti14  1  0.067684  0.069255  0.431530  1
  Ti  Ti15  1  0.818464  0.817291  0.182123  1
  Cu  Cu16  1  0.762143  0.412619  0.412619  1
  Rh  Rh17  1  0.409817  0.774329  0.407927  1
  Rh  Rh18  1  0.842954  0.841317  0.474413  1
  Rh  Rh19  1  0.842954  0.841317  0.841317  1
  Rh  Rh20  1  0.476641  0.841120  0.841120  1
  Rh  Rh21  1  0.409817  0.407927  0.407927  1
  Rh  Rh22  1  0.409817  0.407927  0.774329  1
  Rh  Rh23  1  0.842954  0.474413  0.841317  1
  O  O24  1  0.125571  0.125044  0.624341  1
  O  O25  1  0.625217  0.124928  0.124928  1
  O  O26  1  0.125571  0.125044  0.125044  1
  O  O27  1  0.125571  0.624341  0.125044  1
