# generated using pymatgen
data_Ca10Hg2Pt3Au
_symmetry_space_group_name_H-M   'P 1'
_cell_length_a   9.14968186
_cell_length_b   9.14968194
_cell_length_c   9.14673100
_cell_angle_alpha   129.19852857
_cell_angle_beta   129.19852897
_cell_angle_gamma   74.71556803
_symmetry_Int_Tables_number   1
_chemical_formula_structural   Ca10Hg2Pt3Au
_chemical_formula_sum   'Ca10 Hg2 Pt3 Au1'
_cell_volume   447.95687123
_cell_formula_units_Z   1
loop_
 _symmetry_equiv_pos_site_id
 _symmetry_equiv_pos_as_xyz
  1  'x, y, z'
loop_
 _atom_site_type_symbol
 _atom_site_label
 _atom_site_symmetry_multiplicity
 _atom_site_fract_x
 _atom_site_fract_y
 _atom_site_fract_z
 _atom_site_occupancy
  Ca  Ca0  1  0.533446  0.039009  0.842465  1
  Ca  Ca1  1  0.190980  0.696542  0.157535  1
  Ca  Ca2  1  0.033533  0.198878  0.500000  1
  Ca  Ca3  1  0.701629  0.526379  0.500000  1
  Ca  Ca4  1  0.460991  0.966554  0.157535  1
  Ca  Ca5  1  0.803458  0.309020  0.842465  1
  Ca  Ca6  1  0.973621  0.798371  0.500000  1
  Ca  Ca7  1  0.301122  0.466467  0.500000  1
  Ca  Ca8  1  0.497732  0.493682  0.991415  1
  Ca  Ca9  1  0.006318  0.002268  0.008585  1
  Hg  Hg10  1  0.249611  0.250389  0.000000  1
  Hg  Hg11  1  0.749611  0.750389  0.000000  1
  Pt  Pt12  1  0.370480  0.129520  0.500000  1
  Pt  Pt13  1  0.128378  0.629192  0.757569  1
  Pt  Pt14  1  0.870808  0.371622  0.242431  1
  Au  Au15  1  0.628283  0.871717  0.500000  1
