# generated using pymatgen
data_TbHo7Ti9Si16Tc3
_symmetry_space_group_name_H-M   'P 1'
_cell_length_a   6.97569558
_cell_length_b   6.97524568
_cell_length_c   12.81344124
_cell_angle_alpha   90.07366381
_cell_angle_beta   89.91727780
_cell_angle_gamma   89.99820702
_symmetry_Int_Tables_number   1
_chemical_formula_structural   TbHo7Ti9Si16Tc3
_chemical_formula_sum   'Tb1 Ho7 Ti9 Si16 Tc3'
_cell_volume   623.46488473
_cell_formula_units_Z   1
loop_
 _symmetry_equiv_pos_site_id
 _symmetry_equiv_pos_as_xyz
  1  'x, y, z'
loop_
 _atom_site_type_symbol
 _atom_site_label
 _atom_site_symmetry_multiplicity
 _atom_site_fract_x
 _atom_site_fract_y
 _atom_site_fract_z
 _atom_site_occupancy
  Tb  Tb0  1  0.340305  0.002052  0.467350  1
  Ho  Ho1  1  0.498880  0.841702  0.719438  1
  Ho  Ho2  1  0.500131  0.158621  0.217682  1
  Ho  Ho3  1  0.841842  0.498817  0.280582  1
  Ho  Ho4  1  0.158574  0.500161  0.782289  1
  Ho  Ho5  1  0.658760  0.999576  0.968378  1
  Ho  Ho6  1  0.001404  0.340751  0.532830  1
  Ho  Ho7  1  0.999552  0.658772  0.031572  1
  Ti  Ti8  1  0.674103  0.673771  0.500027  1
  Ti  Ti9  1  0.152087  0.005527  0.877253  1
  Ti  Ti10  1  0.494466  0.653524  0.124597  1
  Ti  Ti11  1  0.505221  0.347995  0.627898  1
  Ti  Ti12  1  0.653536  0.494511  0.875392  1
  Ti  Ti13  1  0.347892  0.505012  0.372172  1
  Ti  Ti14  1  0.847040  0.992358  0.375892  1
  Ti  Ti15  1  0.005418  0.152098  0.122771  1
  Ti  Ti16  1  0.992304  0.846955  0.624156  1
  Si  Si17  1  0.199755  0.129385  0.684297  1
  Si  Si18  1  0.370364  0.700551  0.933075  1
  Si  Si19  1  0.631954  0.297602  0.434446  1
  Si  Si20  1  0.700543  0.370395  0.066922  1
  Si  Si21  1  0.296987  0.630756  0.565753  1
  Si  Si22  1  0.799194  0.870066  0.183574  1
  Si  Si23  1  0.128893  0.200404  0.315593  1
  Si  Si24  1  0.870114  0.799161  0.816381  1
  Si  Si25  1  0.290588  0.952063  0.066705  1
  Si  Si26  1  0.547661  0.790008  0.315562  1
  Si  Si27  1  0.452037  0.210528  0.816866  1
  Si  Si28  1  0.790392  0.547272  0.684197  1
  Si  Si29  1  0.210482  0.452154  0.183094  1
  Si  Si30  1  0.708644  0.049365  0.567737  1
  Si  Si31  1  0.952098  0.290592  0.933290  1
  Si  Si32  1  0.048761  0.707472  0.432453  1
  Tc  Tc33  1  0.328040  0.328009  0.999957  1
  Tc  Tc34  1  0.173779  0.828039  0.248320  1
  Tc  Tc35  1  0.828197  0.173974  0.751497  1
