# generated using pymatgen
data_Pr4Y6B2Br15
_symmetry_space_group_name_H-M   'P 1'
_cell_length_a   9.36885765
_cell_length_b   10.03032374
_cell_length_c   10.85405539
_cell_angle_alpha   91.58301874
_cell_angle_beta   114.00016507
_cell_angle_gamma   110.97176023
_symmetry_Int_Tables_number   1
_chemical_formula_structural   Pr4Y6B2Br15
_chemical_formula_sum   'Pr4 Y6 B2 Br15'
_cell_volume   851.95212908
_cell_formula_units_Z   1
loop_
 _symmetry_equiv_pos_site_id
 _symmetry_equiv_pos_as_xyz
  1  'x, y, z'
loop_
 _atom_site_type_symbol
 _atom_site_label
 _atom_site_symmetry_multiplicity
 _atom_site_fract_x
 _atom_site_fract_y
 _atom_site_fract_z
 _atom_site_occupancy
  Pr  Pr0  1  0.802288  0.412094  0.280130  1
  Pr  Pr1  1  0.197712  0.587906  0.719870  1
  Pr  Pr2  1  0.672780  0.746588  0.815066  1
  Pr  Pr3  1  0.327220  0.253412  0.184934  1
  Y  Y4  1  0.523377  0.708670  0.091243  1
  Y  Y5  1  0.476623  0.291330  0.908757  1
  Y  Y6  1  0.583062  0.038904  0.319242  1
  Y  Y7  1  0.416938  0.961096  0.680758  1
  Y  Y8  1  0.716159  0.073199  0.046093  1
  Y  Y9  1  0.283841  0.926801  0.953907  1
  B  B10  1  0.467647  0.823342  0.878600  1
  B  B11  1  0.532353  0.176658  0.121400  1
  Br  Br12  1  0.000000  0.000000  0.000000  1
  Br  Br13  1  0.629530  0.890073  0.576288  1
  Br  Br14  1  0.370470  0.109927  0.423712  1
  Br  Br15  1  0.876248  0.287255  0.529613  1
  Br  Br16  1  0.123752  0.712745  0.470387  1
  Br  Br17  1  0.293918  0.763958  0.176523  1
  Br  Br18  1  0.706082  0.236042  0.823477  1
  Br  Br19  1  0.043673  0.334037  0.218380  1
  Br  Br20  1  0.174126  0.056710  0.709109  1
  Br  Br21  1  0.825874  0.943290  0.290891  1
  Br  Br22  1  0.244814  0.412542  0.947768  1
  Br  Br23  1  0.755186  0.587458  0.052232  1
  Br  Br24  1  0.407648  0.449063  0.662152  1
  Br  Br25  1  0.592352  0.550937  0.337848  1
  Br  Br26  1  0.956327  0.665963  0.781620  1
