# generated using pymatgen
data_La3Dy(SeO3)6
_symmetry_space_group_name_H-M   'P 1'
_cell_length_a   7.38464553
_cell_length_b   8.45088178
_cell_length_c   9.42394283
_cell_angle_alpha   70.60566027
_cell_angle_beta   70.05283323
_cell_angle_gamma   66.08177992
_symmetry_Int_Tables_number   1
_chemical_formula_structural   La3Dy(SeO3)6
_chemical_formula_sum   'La3 Dy1 Se6 O18'
_cell_volume   492.34612331
_cell_formula_units_Z   1
loop_
 _symmetry_equiv_pos_site_id
 _symmetry_equiv_pos_as_xyz
  1  'x, y, z'
loop_
 _atom_site_type_symbol
 _atom_site_label
 _atom_site_symmetry_multiplicity
 _atom_site_fract_x
 _atom_site_fract_y
 _atom_site_fract_z
 _atom_site_occupancy
  La  La0  1  0.331014  0.734948  0.589627  1
  La  La1  1  0.663908  0.272877  0.408382  1
  La  La2  1  0.739465  0.732175  0.806310  1
  Dy  Dy3  1  0.261571  0.261232  0.195075  1
  Se  Se4  1  0.421222  0.784759  0.198310  1
  Se  Se5  1  0.573419  0.227556  0.803531  1
  Se  Se6  1  0.151838  0.740331  0.972224  1
  Se  Se7  1  0.851176  0.241519  0.038872  1
  Se  Se8  1  0.888889  0.759142  0.418155  1
  Se  Se9  1  0.113150  0.245972  0.570131  1
  O  O10  1  0.639723  0.794758  0.061536  1
  O  O11  1  0.362355  0.213304  0.949961  1
  O  O12  1  0.356957  0.951350  0.295036  1
  O  O13  1  0.630373  0.064524  0.705236  1
  O  O14  1  0.504429  0.605495  0.346813  1
  O  O15  1  0.483995  0.405998  0.656245  1
  O  O16  1  0.177148  0.555136  0.118135  1
  O  O17  1  0.834918  0.419394  0.885343  1
  O  O18  1  0.399525  0.712776  0.858001  1
  O  O19  1  0.598883  0.283383  0.149092  1
  O  O20  1  0.339992  0.246852  0.428252  1
  O  O21  1  0.662095  0.750305  0.557339  1
  O  O22  1  0.978563  0.289346  0.432730  1
  O  O23  1  0.029891  0.709539  0.553016  1
  O  O24  1  0.149978  0.027973  0.652220  1
  O  O25  1  0.846237  0.979031  0.347258  1
  O  O26  1  0.943248  0.294271  0.159634  1
  O  O27  1  0.066036  0.696055  0.843535  1
