# generated using pymatgen
data_Nd2Si6AsRh12
_symmetry_space_group_name_H-M   'P 1'
_cell_length_a   9.80613944
_cell_length_b   9.85206099
_cell_length_c   3.90856222
_cell_angle_alpha   89.99241149
_cell_angle_beta   90.02112084
_cell_angle_gamma   120.12466178
_symmetry_Int_Tables_number   1
_chemical_formula_structural   Nd2Si6AsRh12
_chemical_formula_sum   'Nd2 Si6 As1 Rh12'
_cell_volume   326.60728375
_cell_formula_units_Z   1
loop_
 _symmetry_equiv_pos_site_id
 _symmetry_equiv_pos_as_xyz
  1  'x, y, z'
loop_
 _atom_site_type_symbol
 _atom_site_label
 _atom_site_symmetry_multiplicity
 _atom_site_fract_x
 _atom_site_fract_y
 _atom_site_fract_z
 _atom_site_occupancy
  Nd  Nd0  1  0.337443  0.666834  0.749912  1
  Nd  Nd1  1  0.998213  0.000696  0.252605  1
  Si  Si2  1  0.665344  0.332959  0.573102  1
  Si  Si3  1  0.954429  0.222634  0.751773  1
  Si  Si4  1  0.773508  0.731338  0.752655  1
  Si  Si5  1  0.270033  0.046725  0.751825  1
  Si  Si6  1  0.376079  0.438864  0.250216  1
  Si  Si7  1  0.559562  0.936070  0.250313  1
  As  As8  1  0.069488  0.623562  0.250029  1
  Rh  Rh9  1  0.728633  0.953493  0.752799  1
  Rh  Rh10  1  0.044822  0.780858  0.752377  1
  Rh  Rh11  1  0.223952  0.268930  0.752967  1
  Rh  Rh12  1  0.605561  0.714223  0.249907  1
  Rh  Rh13  1  0.287352  0.896550  0.249220  1
  Rh  Rh14  1  0.107766  0.388713  0.249449  1
  Rh  Rh15  1  0.930231  0.450214  0.748477  1
  Rh  Rh16  1  0.544776  0.477991  0.747462  1
  Rh  Rh17  1  0.522093  0.067711  0.747023  1
  Rh  Rh18  1  0.413144  0.217408  0.256567  1
  Rh  Rh19  1  0.782612  0.194699  0.256231  1
  Rh  Rh20  1  0.804960  0.589530  0.259272  1
