# generated using pymatgen
data_Hf6Zn15Cu8As
_symmetry_space_group_name_H-M   'P 1'
_cell_length_a   8.57809509
_cell_length_b   8.57809513
_cell_length_c   8.57809500
_cell_angle_alpha   59.99999666
_cell_angle_beta   59.99999649
_cell_angle_gamma   59.99999560
_symmetry_Int_Tables_number   1
_chemical_formula_structural   Hf6Zn15Cu8As
_chemical_formula_sum   'Hf6 Zn15 Cu8 As1'
_cell_volume   446.33149277
_cell_formula_units_Z   1
loop_
 _symmetry_equiv_pos_site_id
 _symmetry_equiv_pos_as_xyz
  1  'x, y, z'
loop_
 _atom_site_type_symbol
 _atom_site_label
 _atom_site_symmetry_multiplicity
 _atom_site_fract_x
 _atom_site_fract_y
 _atom_site_fract_z
 _atom_site_occupancy
  Hf  Hf0  1  0.719076  0.280924  0.280924  1
  Hf  Hf1  1  0.280924  0.719076  0.719076  1
  Hf  Hf2  1  0.280924  0.719076  0.280924  1
  Hf  Hf3  1  0.719076  0.280924  0.719076  1
  Hf  Hf4  1  0.280924  0.280924  0.719076  1
  Hf  Hf5  1  0.719076  0.719076  0.280924  1
  Zn  Zn6  1  0.500000  0.000000  0.000000  1
  Zn  Zn7  1  0.000000  0.500000  0.500000  1
  Zn  Zn8  1  0.000000  0.500000  0.000000  1
  Zn  Zn9  1  0.500000  0.000000  0.500000  1
  Zn  Zn10  1  0.000000  0.000000  0.500000  1
  Zn  Zn11  1  0.500000  0.500000  0.000000  1
  Zn  Zn12  1  0.332288  0.332288  0.332288  1
  Zn  Zn13  1  0.667712  0.667712  0.667712  1
  Zn  Zn14  1  0.332288  0.332288  0.003137  1
  Zn  Zn15  1  0.332288  0.003137  0.332288  1
  Zn  Zn16  1  0.667712  0.667712  0.996863  1
  Zn  Zn17  1  0.667712  0.996863  0.667712  1
  Zn  Zn18  1  0.003137  0.332288  0.332288  1
  Zn  Zn19  1  0.996863  0.667712  0.667712  1
  Zn  Zn20  1  0.000000  0.000000  0.000000  1
  Cu  Cu21  1  0.119676  0.119676  0.119676  1
  Cu  Cu22  1  0.880324  0.880324  0.880324  1
  Cu  Cu23  1  0.119676  0.119676  0.640974  1
  Cu  Cu24  1  0.119676  0.640974  0.119676  1
  Cu  Cu25  1  0.880324  0.880324  0.359026  1
  Cu  Cu26  1  0.880324  0.359026  0.880324  1
  Cu  Cu27  1  0.640974  0.119676  0.119676  1
  Cu  Cu28  1  0.359026  0.880324  0.880324  1
  As  As29  1  0.500000  0.500000  0.500000  1
