# generated using pymatgen
data_Hf4GaSi3Mo3W
_symmetry_space_group_name_H-M   'P 1'
_cell_length_a   3.49744300
_cell_length_b   6.99791790
_cell_length_c   8.28630931
_cell_angle_alpha   89.53627766
_cell_angle_beta   90.00000000
_cell_angle_gamma   90.00000000
_symmetry_Int_Tables_number   1
_chemical_formula_structural   Hf4GaSi3Mo3W
_chemical_formula_sum   'Hf4 Ga1 Si3 Mo3 W1'
_cell_volume   202.79927800
_cell_formula_units_Z   1
loop_
 _symmetry_equiv_pos_site_id
 _symmetry_equiv_pos_as_xyz
  1  'x, y, z'
loop_
 _atom_site_type_symbol
 _atom_site_label
 _atom_site_symmetry_multiplicity
 _atom_site_fract_x
 _atom_site_fract_y
 _atom_site_fract_z
 _atom_site_occupancy
  Hf  Hf0  1  0.250000  0.545871  0.168839  1
  Hf  Hf1  1  0.250000  0.044393  0.332328  1
  Hf  Hf2  1  0.750000  0.449011  0.833163  1
  Hf  Hf3  1  0.750000  0.956555  0.661675  1
  Ga  Ga4  1  0.250000  0.753676  0.861198  1
  Si  Si5  1  0.250000  0.256447  0.637881  1
  Si  Si6  1  0.750000  0.246950  0.138979  1
  Si  Si7  1  0.750000  0.743084  0.362475  1
  Mo  Mo8  1  0.250000  0.631138  0.558678  1
  Mo  Mo9  1  0.750000  0.365867  0.436944  1
  Mo  Mo10  1  0.750000  0.872996  0.068041  1
  W  W11  1  0.250000  0.134011  0.939800  1
