# generated using pymatgen
data_Rh(SCl6)2
_symmetry_space_group_name_H-M   'P 1'
_cell_length_a   8.33442770
_cell_length_b   8.33442732
_cell_length_c   8.33442813
_cell_angle_alpha   78.69106322
_cell_angle_beta   78.69106025
_cell_angle_gamma   78.69106115
_symmetry_Int_Tables_number   1
_chemical_formula_structural   Rh(SCl6)2
_chemical_formula_sum   'Rh1 S2 Cl12'
_cell_volume   549.13660745
_cell_formula_units_Z   1
loop_
 _symmetry_equiv_pos_site_id
 _symmetry_equiv_pos_as_xyz
  1  'x, y, z'
loop_
 _atom_site_type_symbol
 _atom_site_label
 _atom_site_symmetry_multiplicity
 _atom_site_fract_x
 _atom_site_fract_y
 _atom_site_fract_z
 _atom_site_occupancy
  Rh  Rh0  1  0.000000  0.000000  0.000000  1
  S  S1  1  0.207717  0.207717  0.207717  1
  S  S2  1  0.792283  0.792283  0.792283  1
  Cl  Cl3  1  0.835765  0.835765  0.538942  1
  Cl  Cl4  1  0.872967  0.184168  0.184168  1
  Cl  Cl5  1  0.184168  0.184168  0.872967  1
  Cl  Cl6  1  0.184168  0.872967  0.184168  1
  Cl  Cl7  1  0.815832  0.127033  0.815832  1
  Cl  Cl8  1  0.127033  0.815832  0.815832  1
  Cl  Cl9  1  0.815832  0.815832  0.127033  1
  Cl  Cl10  1  0.461058  0.164235  0.164235  1
  Cl  Cl11  1  0.164235  0.164235  0.461058  1
  Cl  Cl12  1  0.164235  0.461058  0.164235  1
  Cl  Cl13  1  0.835765  0.538942  0.835765  1
  Cl  Cl14  1  0.538942  0.835765  0.835765  1
