# generated using pymatgen
data_Ho6TaCr(Co4P3)4
_symmetry_space_group_name_H-M   'P 1'
_cell_length_a   3.69450700
_cell_length_b   10.55313500
_cell_length_c   12.22834300
_cell_angle_alpha   90.00000000
_cell_angle_beta   90.00000000
_cell_angle_gamma   90.00000000
_symmetry_Int_Tables_number   1
_chemical_formula_structural   Ho6TaCr(Co4P3)4
_chemical_formula_sum   'Ho6 Ta1 Cr1 Co16 P12'
_cell_volume   476.76635455
_cell_formula_units_Z   1
loop_
 _symmetry_equiv_pos_site_id
 _symmetry_equiv_pos_as_xyz
  1  'x, y, z'
loop_
 _atom_site_type_symbol
 _atom_site_label
 _atom_site_symmetry_multiplicity
 _atom_site_fract_x
 _atom_site_fract_y
 _atom_site_fract_z
 _atom_site_occupancy
  Ho  Ho0  1  0.000000  0.500000  0.526733  1
  Ho  Ho1  1  0.500000  0.000000  0.477412  1
  Ho  Ho2  1  0.500000  0.820769  0.205460  1
  Ho  Ho3  1  0.500000  0.179231  0.205460  1
  Ho  Ho4  1  0.000000  0.682077  0.795769  1
  Ho  Ho5  1  0.000000  0.317923  0.795769  1
  Ta  Ta6  1  0.500000  0.500000  0.154621  1
  Cr  Cr7  1  0.000000  0.000000  0.843309  1
  Co  Co8  1  0.000000  0.500000  0.985384  1
  Co  Co9  1  0.500000  0.000000  0.011360  1
  Co  Co10  1  0.500000  0.294918  0.432748  1
  Co  Co11  1  0.500000  0.705082  0.432748  1
  Co  Co12  1  0.000000  0.202933  0.569974  1
  Co  Co13  1  0.000000  0.797067  0.569974  1
  Co  Co14  1  0.500000  0.879788  0.707733  1
  Co  Co15  1  0.500000  0.120212  0.707733  1
  Co  Co16  1  0.000000  0.622769  0.293579  1
  Co  Co17  1  0.000000  0.377231  0.293579  1
  Co  Co18  1  0.500000  0.329735  0.989514  1
  Co  Co19  1  0.500000  0.670265  0.989514  1
  Co  Co20  1  0.000000  0.164247  0.004968  1
  Co  Co21  1  0.000000  0.835753  0.004968  1
  Co  Co22  1  0.500000  0.500000  0.701726  1
  Co  Co23  1  0.000000  0.000000  0.297904  1
  P  P24  1  0.500000  0.310699  0.617131  1
  P  P25  1  0.500000  0.689301  0.617131  1
  P  P26  1  0.000000  0.187427  0.385283  1
  P  P27  1  0.000000  0.812573  0.385283  1
  P  P28  1  0.500000  0.500000  0.880662  1
  P  P29  1  0.000000  0.000000  0.117701  1
  P  P30  1  0.500000  0.849711  0.888983  1
  P  P31  1  0.500000  0.150289  0.888983  1
  P  P32  1  0.000000  0.660928  0.104184  1
  P  P33  1  0.000000  0.339072  0.104184  1
  P  P34  1  0.500000  0.500000  0.356415  1
  P  P35  1  0.000000  0.000000  0.656120  1
