# generated using pymatgen
data_Y3Tm17Cd3Ru2Au3
_symmetry_space_group_name_H-M   'P 1'
_cell_length_a   9.46874900
_cell_length_b   9.46874687
_cell_length_c   9.53295000
_cell_angle_alpha   90.00000000
_cell_angle_beta   90.00000000
_cell_angle_gamma   120.00000396
_symmetry_Int_Tables_number   1
_chemical_formula_structural   Y3Tm17Cd3Ru2Au3
_chemical_formula_sum   'Y3 Tm17 Cd3 Ru2 Au3'
_cell_volume   740.18970479
_cell_formula_units_Z   1
loop_
 _symmetry_equiv_pos_site_id
 _symmetry_equiv_pos_as_xyz
  1  'x, y, z'
loop_
 _atom_site_type_symbol
 _atom_site_label
 _atom_site_symmetry_multiplicity
 _atom_site_fract_x
 _atom_site_fract_y
 _atom_site_fract_z
 _atom_site_occupancy
  Y  Y0  1  0.459424  0.540576  0.750000  1
  Y  Y1  1  0.459424  0.918850  0.750000  1
  Y  Y2  1  0.081150  0.540576  0.750000  1
  Tm  Tm3  1  0.000000  0.000000  0.461179  1
  Tm  Tm4  1  0.000000  0.000000  0.038821  1
  Tm  Tm5  1  0.209564  0.790436  0.439607  1
  Tm  Tm6  1  0.209564  0.419128  0.439607  1
  Tm  Tm7  1  0.580872  0.790436  0.439607  1
  Tm  Tm8  1  0.791380  0.208620  0.556361  1
  Tm  Tm9  1  0.791380  0.582759  0.556361  1
  Tm  Tm10  1  0.417241  0.208620  0.556361  1
  Tm  Tm11  1  0.791380  0.208620  0.943639  1
  Tm  Tm12  1  0.791380  0.582759  0.943639  1
  Tm  Tm13  1  0.417241  0.208620  0.943639  1
  Tm  Tm14  1  0.209564  0.790436  0.060393  1
  Tm  Tm15  1  0.209564  0.419128  0.060393  1
  Tm  Tm16  1  0.580872  0.790436  0.060393  1
  Tm  Tm17  1  0.538817  0.461183  0.250000  1
  Tm  Tm18  1  0.538817  0.077633  0.250000  1
  Tm  Tm19  1  0.922367  0.461183  0.250000  1
  Cd  Cd20  1  0.109583  0.890417  0.750000  1
  Cd  Cd21  1  0.109583  0.219165  0.750000  1
  Cd  Cd22  1  0.780835  0.890417  0.750000  1
  Ru  Ru23  1  0.333333  0.666667  0.250000  1
  Ru  Ru24  1  0.666667  0.333333  0.750000  1
  Au  Au25  1  0.869956  0.130044  0.250000  1
  Au  Au26  1  0.869956  0.739911  0.250000  1
  Au  Au27  1  0.260089  0.130044  0.250000  1
