# generated using pymatgen
data_Nd6Y9Er(CdPt)4
_symmetry_space_group_name_H-M   'P 1'
_cell_length_a   9.79677916
_cell_length_b   9.79677915
_cell_length_c   9.79677964
_cell_angle_alpha   60.24510411
_cell_angle_beta   60.24510228
_cell_angle_gamma   60.24510606
_symmetry_Int_Tables_number   1
_chemical_formula_structural   Nd6Y9Er(CdPt)4
_chemical_formula_sum   'Nd6 Y9 Er1 Cd4 Pt4'
_cell_volume   668.55630421
_cell_formula_units_Z   1
loop_
 _symmetry_equiv_pos_site_id
 _symmetry_equiv_pos_as_xyz
  1  'x, y, z'
loop_
 _atom_site_type_symbol
 _atom_site_label
 _atom_site_symmetry_multiplicity
 _atom_site_fract_x
 _atom_site_fract_y
 _atom_site_fract_z
 _atom_site_occupancy
  Nd  Nd0  1  0.939729  0.561854  0.561854  1
  Nd  Nd1  1  0.560705  0.937829  0.937829  1
  Nd  Nd2  1  0.561854  0.939729  0.561854  1
  Nd  Nd3  1  0.937829  0.560705  0.937829  1
  Nd  Nd4  1  0.561854  0.561854  0.939729  1
  Nd  Nd5  1  0.937829  0.937829  0.560705  1
  Y  Y6  1  0.351879  0.351879  0.945609  1
  Y  Y7  1  0.351879  0.945609  0.351879  1
  Y  Y8  1  0.945609  0.351879  0.351879  1
  Y  Y9  1  0.811218  0.189395  0.189395  1
  Y  Y10  1  0.188129  0.811181  0.811181  1
  Y  Y11  1  0.189395  0.811218  0.189395  1
  Y  Y12  1  0.811181  0.188129  0.811181  1
  Y  Y13  1  0.189395  0.189395  0.811218  1
  Y  Y14  1  0.811181  0.811181  0.188129  1
  Er  Er15  1  0.348592  0.348592  0.348592  1
  Cd  Cd16  1  0.579661  0.579661  0.579661  1
  Cd  Cd17  1  0.579626  0.579626  0.260486  1
  Cd  Cd18  1  0.579626  0.260486  0.579626  1
  Cd  Cd19  1  0.260486  0.579626  0.579626  1
  Pt  Pt20  1  0.143344  0.143344  0.143344  1
  Pt  Pt21  1  0.143895  0.143895  0.571210  1
  Pt  Pt22  1  0.143895  0.571210  0.143895  1
  Pt  Pt23  1  0.571210  0.143895  0.143895  1
