# generated using pymatgen
data_TlCrBr18
_symmetry_space_group_name_H-M   'P 1'
_cell_length_a   9.32428301
_cell_length_b   9.32428432
_cell_length_c   9.32428453
_cell_angle_alpha   90.09753041
_cell_angle_beta   90.09752243
_cell_angle_gamma   90.09753532
_symmetry_Int_Tables_number   1
_chemical_formula_structural   TlCrBr18
_chemical_formula_sum   'Tl1 Cr1 Br18'
_cell_volume   810.67089737
_cell_formula_units_Z   1
loop_
 _symmetry_equiv_pos_site_id
 _symmetry_equiv_pos_as_xyz
  1  'x, y, z'
loop_
 _atom_site_type_symbol
 _atom_site_label
 _atom_site_symmetry_multiplicity
 _atom_site_fract_x
 _atom_site_fract_y
 _atom_site_fract_z
 _atom_site_occupancy
  Tl  Tl0  1  0.000000  0.000000  0.000000  1
  Cr  Cr1  1  0.500000  0.500000  0.500000  1
  Br  Br2  1  0.698928  0.974401  0.035816  1
  Br  Br3  1  0.739844  0.135803  0.601890  1
  Br  Br4  1  0.035816  0.698928  0.974401  1
  Br  Br5  1  0.260156  0.864197  0.398110  1
  Br  Br6  1  0.135803  0.601890  0.739844  1
  Br  Br7  1  0.025599  0.964184  0.301072  1
  Br  Br8  1  0.601890  0.739844  0.135803  1
  Br  Br9  1  0.964184  0.301072  0.025599  1
  Br  Br10  1  0.864197  0.398110  0.260156  1
  Br  Br11  1  0.398110  0.260156  0.864197  1
  Br  Br12  1  0.974401  0.035816  0.698928  1
  Br  Br13  1  0.301072  0.025599  0.964184  1
  Br  Br14  1  0.768842  0.524325  0.487175  1
  Br  Br15  1  0.512825  0.231158  0.475675  1
  Br  Br16  1  0.475675  0.512825  0.231158  1
  Br  Br17  1  0.487175  0.768842  0.524325  1
  Br  Br18  1  0.524325  0.487175  0.768842  1
  Br  Br19  1  0.231158  0.475675  0.512825  1
