# generated using pymatgen
data_PrLuFe7CoB8
_symmetry_space_group_name_H-M   'P 1'
_cell_length_a   6.98911393
_cell_length_b   6.99019191
_cell_length_c   3.81049704
_cell_angle_alpha   89.98913183
_cell_angle_beta   89.98654260
_cell_angle_gamma   89.87930335
_symmetry_Int_Tables_number   1
_chemical_formula_structural   PrLuFe7CoB8
_chemical_formula_sum   'Pr1 Lu1 Fe7 Co1 B8'
_cell_volume   186.16235504
_cell_formula_units_Z   1
loop_
 _symmetry_equiv_pos_site_id
 _symmetry_equiv_pos_as_xyz
  1  'x, y, z'
loop_
 _atom_site_type_symbol
 _atom_site_label
 _atom_site_symmetry_multiplicity
 _atom_site_fract_x
 _atom_site_fract_y
 _atom_site_fract_z
 _atom_site_occupancy
  Pr  Pr0  1  0.500206  0.499997  0.500161  1
  Lu  Lu1  1  0.999351  0.000793  0.000488  1
  Fe  Fe2  1  0.871139  0.616132  0.891992  1
  Fe  Fe3  1  0.889091  0.365630  0.392676  1
  Fe  Fe4  1  0.112890  0.633339  0.392502  1
  Fe  Fe5  1  0.364475  0.112541  0.607510  1
  Fe  Fe6  1  0.634617  0.887999  0.607437  1
  Fe  Fe7  1  0.615738  0.129893  0.107215  1
  Fe  Fe8  1  0.383705  0.871019  0.107441  1
  Co  Co9  1  0.131827  0.384232  0.891143  1
  B  B10  1  0.669718  0.806576  0.104167  1
  B  B11  1  0.331896  0.190551  0.105303  1
  B  B12  1  0.293402  0.836555  0.607037  1
  B  B13  1  0.708451  0.162595  0.607219  1
  B  B14  1  0.836930  0.707308  0.392559  1
  B  B15  1  0.161486  0.290704  0.393441  1
  B  B16  1  0.192295  0.672602  0.895670  1
  B  B17  1  0.802781  0.331534  0.896038  1
