# generated using pymatgen
data_Zr12Al9Co3N4
_symmetry_space_group_name_H-M   'P 1'
_cell_length_a   8.55835726
_cell_length_b   8.55835717
_cell_length_c   8.59858200
_cell_angle_alpha   60.15463127
_cell_angle_beta   60.15462388
_cell_angle_gamma   59.99999687
_symmetry_Int_Tables_number   1
_chemical_formula_structural   Zr12Al9Co3N4
_chemical_formula_sum   'Zr12 Al9 Co3 N4'
_cell_volume   446.37897951
_cell_formula_units_Z   1
loop_
 _symmetry_equiv_pos_site_id
 _symmetry_equiv_pos_as_xyz
  1  'x, y, z'
loop_
 _atom_site_type_symbol
 _atom_site_label
 _atom_site_symmetry_multiplicity
 _atom_site_fract_x
 _atom_site_fract_y
 _atom_site_fract_z
 _atom_site_occupancy
  Zr  Zr0  1  0.810173  0.810173  0.192816  1
  Zr  Zr1  1  0.190044  0.190044  0.810382  1
  Zr  Zr2  1  0.809531  0.190044  0.810382  1
  Zr  Zr3  1  0.186837  0.810173  0.192816  1
  Zr  Zr4  1  0.190044  0.809531  0.810382  1
  Zr  Zr5  1  0.810173  0.186837  0.192816  1
  Zr  Zr6  1  0.439827  0.439827  0.057184  1
  Zr  Zr7  1  0.059956  0.059956  0.439618  1
  Zr  Zr8  1  0.440469  0.059956  0.439618  1
  Zr  Zr9  1  0.063163  0.439827  0.057184  1
  Zr  Zr10  1  0.059956  0.440469  0.439618  1
  Zr  Zr11  1  0.439827  0.063163  0.057184  1
  Al  Al12  1  0.625000  0.625000  0.125000  1
  Al  Al13  1  0.738190  0.412312  0.437187  1
  Al  Al14  1  0.412312  0.738190  0.437187  1
  Al  Al15  1  0.419283  0.419283  0.742151  1
  Al  Al16  1  0.412312  0.412312  0.437187  1
  Al  Al17  1  0.511810  0.837688  0.812813  1
  Al  Al18  1  0.837688  0.511810  0.812813  1
  Al  Al19  1  0.830717  0.830717  0.507849  1
  Al  Al20  1  0.837688  0.837688  0.812813  1
  Co  Co21  1  0.125000  0.625000  0.625000  1
  Co  Co22  1  0.625000  0.125000  0.625000  1
  Co  Co23  1  0.625000  0.625000  0.625000  1
  N  N24  1  0.625000  0.125000  0.125000  1
  N  N25  1  0.125000  0.625000  0.125000  1
  N  N26  1  0.125000  0.125000  0.625000  1
  N  N27  1  0.125000  0.125000  0.125000  1
