# generated using pymatgen
data_Ho10OsRu2Rh
_symmetry_space_group_name_H-M   'P 1'
_cell_length_a   6.33484936
_cell_length_b   7.29852240
_cell_length_c   8.43443397
_cell_angle_alpha   96.76395148
_cell_angle_beta   112.31348132
_cell_angle_gamma   90.10566741
_symmetry_Int_Tables_number   1
_chemical_formula_structural   Ho10OsRu2Rh
_chemical_formula_sum   'Ho10 Os1 Ru2 Rh1'
_cell_volume   357.79442751
_cell_formula_units_Z   1
loop_
 _symmetry_equiv_pos_site_id
 _symmetry_equiv_pos_as_xyz
  1  'x, y, z'
loop_
 _atom_site_type_symbol
 _atom_site_label
 _atom_site_symmetry_multiplicity
 _atom_site_fract_x
 _atom_site_fract_y
 _atom_site_fract_z
 _atom_site_occupancy
  Ho  Ho0  1  0.976971  0.917005  0.181667  1
  Ho  Ho1  1  0.792541  0.583581  0.810634  1
  Ho  Ho2  1  0.022396  0.085166  0.813995  1
  Ho  Ho3  1  0.207972  0.413454  0.184608  1
  Ho  Ho4  1  0.640812  0.818715  0.438195  1
  Ho  Ho5  1  0.210777  0.685792  0.567939  1
  Ho  Ho6  1  0.355565  0.184132  0.564582  1
  Ho  Ho7  1  0.792891  0.312822  0.435750  1
  Ho  Ho8  1  0.421403  0.751282  0.999724  1
  Ho  Ho9  1  0.577118  0.247628  0.997906  1
  Os  Os10  1  0.605870  0.922821  0.782219  1
  Ru  Ru11  1  0.174761  0.425249  0.778392  1
  Ru  Ru12  1  0.396324  0.076829  0.220718  1
  Rh  Rh13  1  0.824598  0.575521  0.223672  1
