# generated using pymatgen
data_MnBiPt2O7
_symmetry_space_group_name_H-M   'P 1'
_cell_length_a   7.16705724
_cell_length_b   7.25195805
_cell_length_c   7.25195867
_cell_angle_alpha   60.83260599
_cell_angle_beta   60.38653821
_cell_angle_gamma   60.38652962
_symmetry_Int_Tables_number   1
_chemical_formula_structural   MnBiPt2O7
_chemical_formula_sum   'Mn2 Bi2 Pt4 O14'
_cell_volume   269.73647523
_cell_formula_units_Z   2
loop_
 _symmetry_equiv_pos_site_id
 _symmetry_equiv_pos_as_xyz
  1  'x, y, z'
loop_
 _atom_site_type_symbol
 _atom_site_label
 _atom_site_symmetry_multiplicity
 _atom_site_fract_x
 _atom_site_fract_y
 _atom_site_fract_z
 _atom_site_occupancy
  Mn  Mn0  1  0.625000  0.125000  0.125000  1
  Mn  Mn1  1  0.125000  0.125000  0.125000  1
  Bi  Bi2  1  0.125000  0.125000  0.625000  1
  Bi  Bi3  1  0.125000  0.625000  0.125000  1
  Pt  Pt4  1  0.625000  0.625000  0.125000  1
  Pt  Pt5  1  0.625000  0.125000  0.625000  1
  Pt  Pt6  1  0.125000  0.625000  0.625000  1
  Pt  Pt7  1  0.625000  0.625000  0.625000  1
  O  O8  1  0.266708  0.233292  0.233292  1
  O  O9  1  0.983292  0.016708  0.016708  1
  O  O10  1  0.543094  0.961103  0.532870  1
  O  O11  1  0.287067  0.717130  0.288897  1
  O  O12  1  0.543094  0.532870  0.961103  1
  O  O13  1  0.962231  0.537769  0.537769  1
  O  O14  1  0.538003  0.961997  0.961997  1
  O  O15  1  0.962933  0.961103  0.532870  1
  O  O16  1  0.962933  0.532870  0.961103  1
  O  O17  1  0.711997  0.288003  0.288003  1
  O  O18  1  0.287769  0.712231  0.712231  1
  O  O19  1  0.706906  0.288897  0.717130  1
  O  O20  1  0.287067  0.288897  0.717130  1
  O  O21  1  0.706906  0.717130  0.288897  1
