# generated using pymatgen
data_ErLu2(SiIr2)3
_symmetry_space_group_name_H-M   'P 1'
_cell_length_a   5.53574800
_cell_length_b   5.53574902
_cell_length_c   15.06176800
_cell_angle_alpha   90.00000000
_cell_angle_beta   90.00000000
_cell_angle_gamma   120.00000584
_symmetry_Int_Tables_number   1
_chemical_formula_structural   ErLu2(SiIr2)3
_chemical_formula_sum   'Er2 Lu4 Si6 Ir12'
_cell_volume   399.72311552
_cell_formula_units_Z   2
loop_
 _symmetry_equiv_pos_site_id
 _symmetry_equiv_pos_as_xyz
  1  'x, y, z'
loop_
 _atom_site_type_symbol
 _atom_site_label
 _atom_site_symmetry_multiplicity
 _atom_site_fract_x
 _atom_site_fract_y
 _atom_site_fract_z
 _atom_site_occupancy
  Er  Er0  1  0.333333  0.666667  0.750000  1
  Er  Er1  1  0.666667  0.333333  0.250000  1
  Lu  Lu2  1  0.333333  0.666667  0.538992  1
  Lu  Lu3  1  0.666667  0.333333  0.461008  1
  Lu  Lu4  1  0.666667  0.333333  0.038992  1
  Lu  Lu5  1  0.333333  0.666667  0.961008  1
  Si  Si6  1  0.000000  0.000000  0.250000  1
  Si  Si7  1  0.000000  0.000000  0.750000  1
  Si  Si8  1  0.333333  0.666667  0.250000  1
  Si  Si9  1  0.666667  0.333333  0.750000  1
  Si  Si10  1  0.000000  0.000000  0.000000  1
  Si  Si11  1  0.000000  0.000000  0.500000  1
  Ir  Ir12  1  0.167859  0.335717  0.128825  1
  Ir  Ir13  1  0.832141  0.664283  0.871175  1
  Ir  Ir14  1  0.664283  0.832141  0.128825  1
  Ir  Ir15  1  0.832141  0.664283  0.628825  1
  Ir  Ir16  1  0.335717  0.167859  0.871175  1
  Ir  Ir17  1  0.167859  0.335717  0.371175  1
  Ir  Ir18  1  0.167859  0.832141  0.128825  1
  Ir  Ir19  1  0.335717  0.167859  0.628825  1
  Ir  Ir20  1  0.832141  0.167859  0.871175  1
  Ir  Ir21  1  0.664283  0.832141  0.371175  1
  Ir  Ir22  1  0.832141  0.167859  0.628825  1
  Ir  Ir23  1  0.167859  0.832141  0.371175  1
