# generated using pymatgen
data_Ho5Ti(InPd2)6
_symmetry_space_group_name_H-M   'P 1'
_cell_length_a   4.74634900
_cell_length_b   6.74999800
_cell_length_c   14.29195900
_cell_angle_alpha   90.00008654
_cell_angle_beta   90.00233839
_cell_angle_gamma   89.99990078
_symmetry_Int_Tables_number   1
_chemical_formula_structural   Ho5Ti(InPd2)6
_chemical_formula_sum   'Ho5 Ti1 In6 Pd12'
_cell_volume   457.88358497
_cell_formula_units_Z   1
loop_
 _symmetry_equiv_pos_site_id
 _symmetry_equiv_pos_as_xyz
  1  'x, y, z'
loop_
 _atom_site_type_symbol
 _atom_site_label
 _atom_site_symmetry_multiplicity
 _atom_site_fract_x
 _atom_site_fract_y
 _atom_site_fract_z
 _atom_site_occupancy
  Ho  Ho0  1  0.000034  0.499997  0.995487  1
  Ho  Ho1  1  0.500013  0.999999  0.164799  1
  Ho  Ho2  1  0.000026  0.500000  0.333326  1
  Ho  Ho3  1  0.500025  0.999999  0.501833  1
  Ho  Ho4  1  0.000046  0.500000  0.671170  1
  Ti  Ti5  1  0.499951  0.000001  0.833287  1
  In  In6  1  0.000043  0.000000  0.999768  1
  In  In7  1  0.500037  0.500001  0.162361  1
  In  In8  1  0.999944  0.000000  0.333046  1
  In  In9  1  0.500124  0.500001  0.504527  1
  In  In10  1  0.999997  0.000001  0.667030  1
  In  In11  1  0.499694  0.499999  0.833418  1
  Pd  Pd12  1  0.499992  0.233794  0.988976  1
  Pd  Pd13  1  0.499991  0.766207  0.988977  1
  Pd  Pd14  1  0.999988  0.251878  0.166074  1
  Pd  Pd15  1  0.999985  0.748124  0.166075  1
  Pd  Pd16  1  0.500023  0.250384  0.333310  1
  Pd  Pd17  1  0.500021  0.749617  0.333311  1
  Pd  Pd18  1  0.999991  0.251859  0.500570  1
  Pd  Pd19  1  0.999994  0.748140  0.500570  1
  Pd  Pd20  1  0.500003  0.233793  0.677692  1
  Pd  Pd21  1  0.500001  0.766210  0.677692  1
  Pd  Pd22  1  0.000041  0.223116  0.833349  1
  Pd  Pd23  1  0.000037  0.776882  0.833348  1
