# generated using pymatgen
data_Sm2(AlPt3)3
_symmetry_space_group_name_H-M   'P 1'
_cell_length_a   7.70448247
_cell_length_b   7.69843346
_cell_length_c   10.24133600
_cell_angle_alpha   67.98970043
_cell_angle_beta   112.02033452
_cell_angle_gamma   120.14288545
_symmetry_Int_Tables_number   1
_chemical_formula_structural   Sm2(AlPt3)3
_chemical_formula_sum   'Sm4 Al6 Pt18'
_cell_volume   473.61828029
_cell_formula_units_Z   2
loop_
 _symmetry_equiv_pos_site_id
 _symmetry_equiv_pos_as_xyz
  1  'x, y, z'
loop_
 _atom_site_type_symbol
 _atom_site_label
 _atom_site_symmetry_multiplicity
 _atom_site_fract_x
 _atom_site_fract_y
 _atom_site_fract_z
 _atom_site_occupancy
  Sm  Sm0  1  0.586048  0.246486  0.250285  1
  Sm  Sm1  1  0.246683  0.586129  0.249685  1
  Sm  Sm2  1  0.413960  0.753501  0.749716  1
  Sm  Sm3  1  0.753310  0.413885  0.750317  1
  Al  Al4  1  0.500003  0.000000  0.000001  1
  Al  Al5  1  0.000006  0.500005  0.499996  1
  Al  Al6  1  0.353232  0.177299  0.499688  1
  Al  Al7  1  0.177326  0.353138  0.000419  1
  Al  Al8  1  0.646764  0.822694  0.500314  1
  Al  Al9  1  0.822669  0.646861  0.999580  1
  Pt  Pt10  1  0.134506  0.134363  0.250147  1
  Pt  Pt11  1  0.865510  0.865650  0.749854  1
  Pt  Pt12  1  0.528667  0.645264  0.076078  1
  Pt  Pt13  1  0.645340  0.528629  0.423874  1
  Pt  Pt14  1  0.471328  0.354724  0.923931  1
  Pt  Pt15  1  0.354648  0.471357  0.576117  1
  Pt  Pt16  1  0.704928  0.917624  0.252068  1
  Pt  Pt17  1  0.917517  0.704943  0.247887  1
  Pt  Pt18  1  0.295075  0.082368  0.747931  1
  Pt  Pt19  1  0.082488  0.295074  0.752114  1
  Pt  Pt20  1  0.304405  0.858683  0.425637  1
  Pt  Pt21  1  0.859016  0.304445  0.074479  1
  Pt  Pt22  1  0.695605  0.141327  0.574365  1
  Pt  Pt23  1  0.140993  0.695560  0.925529  1
  Pt  Pt24  1  0.188783  0.978305  0.070368  1
  Pt  Pt25  1  0.978365  0.188952  0.429498  1
  Pt  Pt26  1  0.811210  0.021689  0.929638  1
  Pt  Pt27  1  0.021620  0.811048  0.570484  1
