# generated using pymatgen
data_La9Pr7Cd4(CoPt)2
_symmetry_space_group_name_H-M   'P 1'
_cell_length_a   10.03444788
_cell_length_b   10.03444845
_cell_length_c   10.04347300
_cell_angle_alpha   59.97024174
_cell_angle_beta   59.97023987
_cell_angle_gamma   60.55293575
_symmetry_Int_Tables_number   1
_chemical_formula_structural   La9Pr7Cd4(CoPt)2
_chemical_formula_sum   'La9 Pr7 Cd4 Co2 Pt2'
_cell_volume   717.69642443
_cell_formula_units_Z   1
loop_
 _symmetry_equiv_pos_site_id
 _symmetry_equiv_pos_as_xyz
  1  'x, y, z'
loop_
 _atom_site_type_symbol
 _atom_site_label
 _atom_site_symmetry_multiplicity
 _atom_site_fract_x
 _atom_site_fract_y
 _atom_site_fract_z
 _atom_site_occupancy
  La  La0  1  0.342669  0.342669  0.358703  1
  La  La1  1  0.342669  0.342669  0.955960  1
  La  La2  1  0.339965  0.960773  0.349631  1
  La  La3  1  0.960773  0.339965  0.349631  1
  La  La4  1  0.820418  0.189552  0.190831  1
  La  La5  1  0.189552  0.820418  0.799199  1
  La  La6  1  0.189552  0.820418  0.190831  1
  La  La7  1  0.820418  0.189552  0.799199  1
  La  La8  1  0.189683  0.189683  0.810317  1
  Pr  Pr9  1  0.804936  0.804936  0.195064  1
  Pr  Pr10  1  0.935415  0.564304  0.564413  1
  Pr  Pr11  1  0.564304  0.935415  0.935869  1
  Pr  Pr12  1  0.564304  0.935415  0.564413  1
  Pr  Pr13  1  0.935415  0.564304  0.935869  1
  Pr  Pr14  1  0.560932  0.560932  0.939068  1
  Pr  Pr15  1  0.933509  0.933509  0.566491  1
  Cd  Cd16  1  0.580650  0.580650  0.578440  1
  Cd  Cd17  1  0.580650  0.580650  0.260258  1
  Cd  Cd18  1  0.581664  0.257975  0.580180  1
  Cd  Cd19  1  0.257975  0.581664  0.580180  1
  Co  Co20  1  0.141075  0.141075  0.141134  1
  Co  Co21  1  0.141075  0.141075  0.576716  1
  Pt  Pt22  1  0.147206  0.575191  0.138802  1
  Pt  Pt23  1  0.575191  0.147206  0.138802  1
