# generated using pymatgen
data_Nd4CrNi2PdO12
_symmetry_space_group_name_H-M   'P 1'
_cell_length_a   5.48717654
_cell_length_b   5.68480658
_cell_length_c   7.79643807
_cell_angle_alpha   90.49739959
_cell_angle_beta   90.29752304
_cell_angle_gamma   89.40622043
_symmetry_Int_Tables_number   1
_chemical_formula_structural   Nd4CrNi2PdO12
_chemical_formula_sum   'Nd4 Cr1 Ni2 Pd1 O12'
_cell_volume   243.17309194
_cell_formula_units_Z   1
loop_
 _symmetry_equiv_pos_site_id
 _symmetry_equiv_pos_as_xyz
  1  'x, y, z'
loop_
 _atom_site_type_symbol
 _atom_site_label
 _atom_site_symmetry_multiplicity
 _atom_site_fract_x
 _atom_site_fract_y
 _atom_site_fract_z
 _atom_site_occupancy
  Nd  Nd0  1  0.021507  0.939711  0.752060  1
  Nd  Nd1  1  0.488899  0.441224  0.754629  1
  Nd  Nd2  1  0.511101  0.558776  0.245371  1
  Nd  Nd3  1  0.978493  0.060289  0.247940  1
  Cr  Cr4  1  0.000000  0.500000  0.000000  1
  Ni  Ni5  1  0.000000  0.500000  0.500000  1
  Ni  Ni6  1  0.500000  0.000000  0.000000  1
  Pd  Pd7  1  0.500000  0.000000  0.500000  1
  O  O8  1  0.696195  0.294791  0.446307  1
  O  O9  1  0.806041  0.782042  0.047131  1
  O  O10  1  0.201228  0.202421  0.554631  1
  O  O11  1  0.289507  0.699767  0.953576  1
  O  O12  1  0.303805  0.705209  0.553693  1
  O  O13  1  0.193959  0.217958  0.952869  1
  O  O14  1  0.798772  0.797579  0.445369  1
  O  O15  1  0.710493  0.300233  0.046424  1
  O  O16  1  0.087147  0.475295  0.239944  1
  O  O17  1  0.397699  0.971588  0.250623  1
  O  O18  1  0.602301  0.028412  0.749377  1
  O  O19  1  0.912853  0.524705  0.760056  1
