# generated using pymatgen
data_Tb2CoIrI2
_symmetry_space_group_name_H-M   'P 1'
_cell_length_a   4.14392600
_cell_length_b   4.14392584
_cell_length_c   12.25232100
_cell_angle_alpha   90.00000000
_cell_angle_beta   90.00000000
_cell_angle_gamma   120.00000130
_symmetry_Int_Tables_number   1
_chemical_formula_structural   Tb2CoIrI2
_chemical_formula_sum   'Tb2 Co1 Ir1 I2'
_cell_volume   182.21031472
_cell_formula_units_Z   1
loop_
 _symmetry_equiv_pos_site_id
 _symmetry_equiv_pos_as_xyz
  1  'x, y, z'
loop_
 _atom_site_type_symbol
 _atom_site_label
 _atom_site_symmetry_multiplicity
 _atom_site_fract_x
 _atom_site_fract_y
 _atom_site_fract_z
 _atom_site_occupancy
  Tb  Tb0  1  0.000000  0.000000  0.149119  1
  Tb  Tb1  1  0.000000  0.000000  0.851389  1
  Co  Co2  1  0.333333  0.666666  0.995924  1
  Ir  Ir3  1  0.666666  0.333334  0.003545  1
  I  I4  1  0.333333  0.666666  0.322564  1
  I  I5  1  0.666666  0.333334  0.677458  1
