# generated using pymatgen
data_Pr3Nd(B8Ru7)2
_symmetry_space_group_name_H-M   'P 1'
_cell_length_a   6.47543400
_cell_length_b   6.47158900
_cell_length_c   10.10379200
_cell_angle_alpha   90.00000000
_cell_angle_beta   90.00000000
_cell_angle_gamma   90.00278800
_symmetry_Int_Tables_number   1
_chemical_formula_structural   Pr3Nd(B8Ru7)2
_chemical_formula_sum   'Pr3 Nd1 B16 Ru14'
_cell_volume   423.41301781
_cell_formula_units_Z   1
loop_
 _symmetry_equiv_pos_site_id
 _symmetry_equiv_pos_as_xyz
  1  'x, y, z'
loop_
 _atom_site_type_symbol
 _atom_site_label
 _atom_site_symmetry_multiplicity
 _atom_site_fract_x
 _atom_site_fract_y
 _atom_site_fract_z
 _atom_site_occupancy
  Pr  Pr0  1  0.735628  0.878125  0.000000  1
  Pr  Pr1  1  0.122077  0.735559  0.500000  1
  Pr  Pr2  1  0.877846  0.264431  0.500000  1
  Nd  Nd3  1  0.264129  0.122927  0.000000  1
  B  B4  1  0.499998  0.000022  0.589066  1
  B  B5  1  0.499998  0.000022  0.410934  1
  B  B6  1  0.897550  0.275369  0.169232  1
  B  B7  1  0.102629  0.724648  0.830692  1
  B  B8  1  0.500028  0.500040  0.341046  1
  B  B9  1  0.500034  0.499949  0.841079  1
  B  B10  1  0.275437  0.102560  0.669368  1
  B  B11  1  0.102629  0.724648  0.169308  1
  B  B12  1  0.275437  0.102560  0.330632  1
  B  B13  1  0.897550  0.275369  0.830768  1
  B  B14  1  0.500028  0.500040  0.658954  1
  B  B15  1  0.500034  0.499949  0.158921  1
  B  B16  1  0.999973  0.499866  0.911035  1
  B  B17  1  0.724624  0.897389  0.669400  1
  B  B18  1  0.724624  0.897389  0.330600  1
  B  B19  1  0.999973  0.499866  0.088965  1
  Ru  Ru20  1  0.204241  0.399529  0.752253  1
  Ru  Ru21  1  0.398872  0.286652  0.500000  1
  Ru  Ru22  1  0.399881  0.796015  0.251700  1
  Ru  Ru23  1  0.204241  0.399529  0.247747  1
  Ru  Ru24  1  0.601118  0.713398  0.500000  1
  Ru  Ru25  1  0.599891  0.204143  0.748323  1
  Ru  Ru26  1  0.286464  0.600820  0.000000  1
  Ru  Ru27  1  0.713150  0.398728  0.000000  1
  Ru  Ru28  1  0.795826  0.600079  0.248148  1
  Ru  Ru29  1  0.795826  0.600079  0.751852  1
  Ru  Ru30  1  0.399881  0.796015  0.748300  1
  Ru  Ru31  1  0.000247  0.000070  0.249726  1
  Ru  Ru32  1  0.599891  0.204143  0.251677  1
  Ru  Ru33  1  0.000247  0.000070  0.750274  1
