# generated using pymatgen
data_ErTm5Al24Pd3Ru5
_symmetry_space_group_name_H-M   'P 1'
_cell_length_a   8.82024518
_cell_length_b   8.80974614
_cell_length_c   9.48662196
_cell_angle_alpha   90.28515813
_cell_angle_beta   90.07217946
_cell_angle_gamma   119.68087584
_symmetry_Int_Tables_number   1
_chemical_formula_structural   ErTm5Al24Pd3Ru5
_chemical_formula_sum   'Er1 Tm5 Al24 Pd3 Ru5'
_cell_volume   640.41944490
_cell_formula_units_Z   1
loop_
 _symmetry_equiv_pos_site_id
 _symmetry_equiv_pos_as_xyz
  1  'x, y, z'
loop_
 _atom_site_type_symbol
 _atom_site_label
 _atom_site_symmetry_multiplicity
 _atom_site_fract_x
 _atom_site_fract_y
 _atom_site_fract_z
 _atom_site_occupancy
  Er  Er0  1  0.808960  0.194398  0.749640  1
  Tm  Tm1  1  0.188276  0.386091  0.252397  1
  Tm  Tm2  1  0.812089  0.614296  0.747613  1
  Tm  Tm3  1  0.615673  0.810573  0.251392  1
  Tm  Tm4  1  0.384014  0.189197  0.748617  1
  Tm  Tm5  1  0.191284  0.805346  0.250467  1
  Al  Al6  1  0.328051  0.663912  0.028543  1
  Al  Al7  1  0.671725  0.336152  0.971558  1
  Al  Al8  1  0.668778  0.329897  0.525898  1
  Al  Al9  1  0.331043  0.670313  0.473869  1
  Al  Al10  1  0.157318  0.323955  0.578634  1
  Al  Al11  1  0.842903  0.676022  0.421307  1
  Al  Al12  1  0.676360  0.843384  0.577954  1
  Al  Al13  1  0.842480  0.675884  0.077432  1
  Al  Al14  1  0.323709  0.156483  0.422050  1
  Al  Al15  1  0.157659  0.324071  0.922559  1
  Al  Al16  1  0.163577  0.836602  0.577155  1
  Al  Al17  1  0.321511  0.161677  0.080312  1
  Al  Al18  1  0.836472  0.163369  0.422635  1
  Al  Al19  1  0.678570  0.838172  0.919767  1
  Al  Al20  1  0.842007  0.167511  0.078601  1
  Al  Al21  1  0.157982  0.832422  0.921520  1
  Al  Al22  1  0.561244  0.123520  0.253328  1
  Al  Al23  1  0.438629  0.876141  0.746723  1
  Al  Al24  1  0.878451  0.439807  0.249193  1
  Al  Al25  1  0.121916  0.560409  0.750780  1
  Al  Al26  1  0.561840  0.437918  0.249054  1
  Al  Al27  1  0.438199  0.562095  0.750977  1
  Al  Al28  1  0.997608  0.000846  0.250208  1
  Al  Al29  1  0.002360  0.999290  0.749807  1
  Pd  Pd30  1  0.499724  0.999888  0.000134  1
  Pd  Pd31  1  0.499897  0.500001  0.999883  1
  Pd  Pd32  1  0.499915  0.500067  0.500133  1
  Ru  Ru33  1  0.000053  0.500209  0.000124  1
  Ru  Ru34  1  0.499642  0.999840  0.499841  1
  Ru  Ru35  1  0.000065  0.500224  0.499875  1
  Ru  Ru36  1  0.000018  0.000030  0.000044  1
  Ru  Ru37  1  0.999997  0.999989  0.499975  1
