# generated using pymatgen
data_Zr6Ti6Sn9Sb
_symmetry_space_group_name_H-M   'P 1'
_cell_length_a   9.55508200
_cell_length_b   9.60415793
_cell_length_c   5.81153500
_cell_angle_alpha   90.00000000
_cell_angle_beta   90.00000000
_cell_angle_gamma   119.83111743
_symmetry_Int_Tables_number   1
_chemical_formula_structural   Zr6Ti6Sn9Sb
_chemical_formula_sum   'Zr6 Ti6 Sn9 Sb1'
_cell_volume   462.64913952
_cell_formula_units_Z   1
loop_
 _symmetry_equiv_pos_site_id
 _symmetry_equiv_pos_as_xyz
  1  'x, y, z'
loop_
 _atom_site_type_symbol
 _atom_site_label
 _atom_site_symmetry_multiplicity
 _atom_site_fract_x
 _atom_site_fract_y
 _atom_site_fract_z
 _atom_site_occupancy
  Zr  Zr0  1  0.843993  0.687986  0.750000  1
  Zr  Zr1  1  0.154380  0.844973  0.250000  1
  Zr  Zr2  1  0.690593  0.844973  0.250000  1
  Zr  Zr3  1  0.306137  0.156694  0.750000  1
  Zr  Zr4  1  0.850557  0.156694  0.750000  1
  Zr  Zr5  1  0.153600  0.307199  0.250000  1
  Ti  Ti6  1  0.499888  0.999776  0.499188  1
  Ti  Ti7  1  0.498645  0.500513  0.999252  1
  Ti  Ti8  1  0.001868  0.500513  0.999252  1
  Ti  Ti9  1  0.001868  0.500513  0.500748  1
  Ti  Ti10  1  0.499888  0.999776  0.000812  1
  Ti  Ti11  1  0.498645  0.500513  0.500748  1
  Sn  Sn12  1  0.789174  0.211491  0.250000  1
  Sn  Sn13  1  0.422317  0.211491  0.250000  1
  Sn  Sn14  1  0.581483  0.793032  0.750000  1
  Sn  Sn15  1  0.211551  0.793032  0.750000  1
  Sn  Sn16  1  0.787777  0.575554  0.250000  1
  Sn  Sn17  1  0.665790  0.331578  0.750000  1
  Sn  Sn18  1  0.334667  0.669335  0.250000  1
  Sn  Sn19  1  0.998184  0.996369  0.499445  1
  Sn  Sn20  1  0.998184  0.996369  0.000555  1
  Sb  Sb21  1  0.210812  0.421624  0.750000  1
