# generated using pymatgen
data_TmI13
_symmetry_space_group_name_H-M   'P 1'
_cell_length_a   12.87662169
_cell_length_b   11.47773730
_cell_length_c   15.23345767
_cell_angle_alpha   121.97061038
_cell_angle_beta   88.91219369
_cell_angle_gamma   106.11218377
_symmetry_Int_Tables_number   1
_chemical_formula_structural   TmI13
_chemical_formula_sum   'Tm2 I26'
_cell_volume   1812.14716935
_cell_formula_units_Z   2
loop_
 _symmetry_equiv_pos_site_id
 _symmetry_equiv_pos_as_xyz
  1  'x, y, z'
loop_
 _atom_site_type_symbol
 _atom_site_label
 _atom_site_symmetry_multiplicity
 _atom_site_fract_x
 _atom_site_fract_y
 _atom_site_fract_z
 _atom_site_occupancy
  Tm  Tm0  1  0.329365  0.866529  0.935357  1
  Tm  Tm1  1  0.669878  0.131445  0.064208  1
  I  I2  1  0.379444  0.654080  0.973982  1
  I  I3  1  0.616828  0.339745  0.022689  1
  I  I4  1  0.577959  0.807340  0.391971  1
  I  I5  1  0.428559  0.198664  0.606917  1
  I  I6  1  0.731241  0.693694  0.008999  1
  I  I7  1  0.265145  0.304525  0.992110  1
  I  I8  1  0.711262  0.967273  0.160601  1
  I  I9  1  0.283633  0.030347  0.840192  1
  I  I10  1  0.446117  0.132727  0.138319  1
  I  I11  1  0.552951  0.865002  0.861525  1
  I  I12  1  0.231959  0.649688  0.704711  1
  I  I13  1  0.768606  0.351218  0.294171  1
  I  I14  1  0.116163  0.822087  0.998932  1
  I  I15  1  0.883810  0.174603  0.001787  1
  I  I16  1  0.091338  0.088544  0.215677  1
  I  I17  1  0.908368  0.907577  0.784768  1
  I  I18  1  0.277908  0.912645  0.456834  1
  I  I19  1  0.726276  0.093877  0.544170  1
  I  I20  1  0.329693  0.419439  0.649045  1
  I  I21  1  0.674940  0.584535  0.349753  1
  I  I22  1  0.858015  0.394444  0.705290  1
  I  I23  1  0.142540  0.613290  0.297823  1
  I  I24  1  0.947009  0.686656  0.598959  1
  I  I25  1  0.052249  0.309316  0.401071  1
  I  I26  1  0.253033  0.622538  0.128646  1
  I  I27  1  0.745713  0.378169  0.871497  1
