# generated using pymatgen
data_Nd3In3IrRhAu
_symmetry_space_group_name_H-M   'P 1'
_cell_length_a   7.89760600
_cell_length_b   7.89760563
_cell_length_c   3.95063000
_cell_angle_alpha   90.00000000
_cell_angle_beta   90.00000000
_cell_angle_gamma   120.00000154
_symmetry_Int_Tables_number   1
_chemical_formula_structural   Nd3In3IrRhAu
_chemical_formula_sum   'Nd3 In3 Ir1 Rh1 Au1'
_cell_volume   213.39679343
_cell_formula_units_Z   1
loop_
 _symmetry_equiv_pos_site_id
 _symmetry_equiv_pos_as_xyz
  1  'x, y, z'
loop_
 _atom_site_type_symbol
 _atom_site_label
 _atom_site_symmetry_multiplicity
 _atom_site_fract_x
 _atom_site_fract_y
 _atom_site_fract_z
 _atom_site_occupancy
  Nd  Nd0  1  0.980317  0.582060  0.500000  1
  Nd  Nd1  1  0.601742  0.019683  0.500000  1
  Nd  Nd2  1  0.417940  0.398258  0.500000  1
  In  In3  1  0.998128  0.249215  0.000000  1
  In  In4  1  0.251087  0.001872  0.000000  1
  In  In5  1  0.750785  0.748913  0.000000  1
  Ir  Ir6  1  0.666667  0.333333  0.000000  1
  Rh  Rh7  1  0.000000  0.000000  0.500000  1
  Au  Au8  1  0.333333  0.666667  0.000000  1
