# generated using pymatgen
data_Tb(Dy3Co4)3
_symmetry_space_group_name_H-M   'P 1'
_cell_length_a   5.52611274
_cell_length_b   5.52611312
_cell_length_c   20.27123600
_cell_angle_alpha   90.00000000
_cell_angle_beta   90.00000000
_cell_angle_gamma   137.69862913
_symmetry_Int_Tables_number   1
_chemical_formula_structural   Tb(Dy3Co4)3
_chemical_formula_sum   'Tb1 Dy9 Co12'
_cell_volume   416.63360839
_cell_formula_units_Z   1
loop_
 _symmetry_equiv_pos_site_id
 _symmetry_equiv_pos_as_xyz
  1  'x, y, z'
loop_
 _atom_site_type_symbol
 _atom_site_label
 _atom_site_symmetry_multiplicity
 _atom_site_fract_x
 _atom_site_fract_y
 _atom_site_fract_z
 _atom_site_occupancy
  Tb  Tb0  1  0.722536  0.277464  0.750000  1
  Dy  Dy1  1  0.277096  0.722904  0.250000  1
  Dy  Dy2  1  0.281027  0.718973  0.065429  1
  Dy  Dy3  1  0.007454  0.992546  0.845826  1
  Dy  Dy4  1  0.718916  0.281084  0.565278  1
  Dy  Dy5  1  0.992243  0.007757  0.345608  1
  Dy  Dy6  1  0.007454  0.992546  0.654174  1
  Dy  Dy7  1  0.718916  0.281084  0.934722  1
  Dy  Dy8  1  0.992243  0.007757  0.154392  1
  Dy  Dy9  1  0.281027  0.718973  0.434571  1
  Co  Co10  1  0.999955  0.000045  0.499861  1
  Co  Co11  1  0.999955  0.000045  0.000139  1
  Co  Co12  1  0.310567  0.689433  0.651875  1
  Co  Co13  1  0.569249  0.430751  0.446031  1
  Co  Co14  1  0.422433  0.577567  0.750000  1
  Co  Co15  1  0.430916  0.569084  0.946324  1
  Co  Co16  1  0.578037  0.421963  0.250000  1
  Co  Co17  1  0.430916  0.569084  0.553676  1
  Co  Co18  1  0.689621  0.310379  0.347837  1
  Co  Co19  1  0.689621  0.310379  0.152163  1
  Co  Co20  1  0.569249  0.430751  0.053969  1
  Co  Co21  1  0.310567  0.689433  0.848125  1
