# generated using pymatgen
data_Ho10Tl6PCl
_symmetry_space_group_name_H-M   'P 1'
_cell_length_a   9.12992700
_cell_length_b   9.12992613
_cell_length_c   6.70456000
_cell_angle_alpha   90.00000000
_cell_angle_beta   90.00000000
_cell_angle_gamma   119.99999953
_symmetry_Int_Tables_number   1
_chemical_formula_structural   Ho10Tl6PCl
_chemical_formula_sum   'Ho10 Tl6 P1 Cl1'
_cell_volume   483.98899214
_cell_formula_units_Z   1
loop_
 _symmetry_equiv_pos_site_id
 _symmetry_equiv_pos_as_xyz
  1  'x, y, z'
loop_
 _atom_site_type_symbol
 _atom_site_label
 _atom_site_symmetry_multiplicity
 _atom_site_fract_x
 _atom_site_fract_y
 _atom_site_fract_z
 _atom_site_occupancy
  Ho  Ho0  1  0.246564  0.000000  0.738557  1
  Ho  Ho1  1  0.753436  0.000000  0.261443  1
  Ho  Ho2  1  0.000000  0.246564  0.738557  1
  Ho  Ho3  1  0.000000  0.753436  0.261443  1
  Ho  Ho4  1  0.753436  0.753436  0.738557  1
  Ho  Ho5  1  0.246564  0.246564  0.261443  1
  Ho  Ho6  1  0.333333  0.666667  0.500000  1
  Ho  Ho7  1  0.666667  0.333333  0.500000  1
  Ho  Ho8  1  0.666667  0.333333  0.000000  1
  Ho  Ho9  1  0.333333  0.666667  0.000000  1
  Tl  Tl10  1  0.602827  0.000000  0.751587  1
  Tl  Tl11  1  0.397173  0.000000  0.248413  1
  Tl  Tl12  1  0.000000  0.602827  0.751587  1
  Tl  Tl13  1  0.000000  0.397173  0.248413  1
  Tl  Tl14  1  0.397173  0.397173  0.751587  1
  Tl  Tl15  1  0.602827  0.602827  0.248413  1
  P  P16  1  0.000000  0.000000  0.500000  1
  Cl  Cl17  1  0.000000  0.000000  0.000000  1
