# generated using pymatgen
data_CaFe2Ni(P2O7)2
_symmetry_space_group_name_H-M   'P 1'
_cell_length_a   7.74444400
_cell_length_b   7.51918033
_cell_length_c   9.57428562
_cell_angle_alpha   67.97492471
_cell_angle_beta   90.00000000
_cell_angle_gamma   90.00000000
_symmetry_Int_Tables_number   1
_chemical_formula_structural   CaFe2Ni(P2O7)2
_chemical_formula_sum   'Ca2 Fe4 Ni2 P8 O28'
_cell_volume   516.84003059
_cell_formula_units_Z   2
loop_
 _symmetry_equiv_pos_site_id
 _symmetry_equiv_pos_as_xyz
  1  'x, y, z'
loop_
 _atom_site_type_symbol
 _atom_site_label
 _atom_site_symmetry_multiplicity
 _atom_site_fract_x
 _atom_site_fract_y
 _atom_site_fract_z
 _atom_site_occupancy
  Ca  Ca0  1  0.000000  0.500000  0.000000  1
  Ca  Ca1  1  0.500000  0.500000  0.500000  1
  Fe  Fe2  1  0.125402  0.811131  0.528199  1
  Fe  Fe3  1  0.625402  0.188869  0.971801  1
  Fe  Fe4  1  0.874598  0.188869  0.471801  1
  Fe  Fe5  1  0.374598  0.811131  0.028199  1
  Ni  Ni6  1  0.000000  0.000000  0.000000  1
  Ni  Ni7  1  0.500000  0.000000  0.500000  1
  P  P8  1  0.937083  0.399798  0.706030  1
  P  P9  1  0.437083  0.600202  0.793970  1
  P  P10  1  0.062917  0.600202  0.293970  1
  P  P11  1  0.562917  0.399798  0.206030  1
  P  P12  1  0.203498  0.120782  0.691561  1
  P  P13  1  0.703498  0.879218  0.808439  1
  P  P14  1  0.796502  0.879218  0.308439  1
  P  P15  1  0.296502  0.120782  0.191561  1
  O  O16  1  0.375717  0.169268  0.608050  1
  O  O17  1  0.875717  0.830732  0.891950  1
  O  O18  1  0.624283  0.830732  0.391950  1
  O  O19  1  0.124283  0.169268  0.108050  1
  O  O20  1  0.389397  0.727759  0.628154  1
  O  O21  1  0.889397  0.272241  0.871846  1
  O  O22  1  0.610603  0.272241  0.371846  1
  O  O23  1  0.110603  0.727759  0.128154  1
  O  O24  1  0.806068  0.380492  0.593839  1
  O  O25  1  0.306068  0.619508  0.906161  1
  O  O26  1  0.193932  0.619508  0.406161  1
  O  O27  1  0.693932  0.380492  0.093839  1
  O  O28  1  0.122907  0.326343  0.673099  1
  O  O29  1  0.622907  0.673657  0.826901  1
  O  O30  1  0.877093  0.673657  0.326901  1
  O  O31  1  0.377093  0.326343  0.173099  1
  O  O32  1  0.521363  0.601773  0.199271  1
  O  O33  1  0.021363  0.398227  0.300729  1
  O  O34  1  0.478637  0.398227  0.800729  1
  O  O35  1  0.978637  0.601773  0.699271  1
  O  O36  1  0.788844  0.988477  0.136861  1
  O  O37  1  0.288844  0.011523  0.363139  1
  O  O38  1  0.211156  0.011523  0.863139  1
  O  O39  1  0.711156  0.988477  0.636861  1
  O  O40  1  0.422840  0.029780  0.114695  1
  O  O41  1  0.922840  0.970220  0.385305  1
  O  O42  1  0.577160  0.970220  0.885305  1
  O  O43  1  0.077160  0.029780  0.614695  1
