# generated using pymatgen
data_TlCrS2(O4F)2
_symmetry_space_group_name_H-M   'P 1'
_cell_length_a   5.48546634
_cell_length_b   5.18031360
_cell_length_c   7.72735446
_cell_angle_alpha   70.62364527
_cell_angle_beta   67.17792051
_cell_angle_gamma   87.17725620
_symmetry_Int_Tables_number   1
_chemical_formula_structural   TlCrS2(O4F)2
_chemical_formula_sum   'Tl1 Cr1 S2 O8 F2'
_cell_volume   190.13135373
_cell_formula_units_Z   1
loop_
 _symmetry_equiv_pos_site_id
 _symmetry_equiv_pos_as_xyz
  1  'x, y, z'
loop_
 _atom_site_type_symbol
 _atom_site_label
 _atom_site_symmetry_multiplicity
 _atom_site_fract_x
 _atom_site_fract_y
 _atom_site_fract_z
 _atom_site_occupancy
  Tl  Tl0  1  0.000000  0.000000  0.000000  1
  Cr  Cr1  1  0.000000  0.500001  0.500000  1
  S  S2  1  0.360667  0.085347  0.266536  1
  S  S3  1  0.639332  0.914652  0.733464  1
  O  O4  1  0.263698  0.189837  0.102715  1
  O  O5  1  0.650838  0.169745  0.185572  1
  O  O6  1  0.319249  0.780324  0.356976  1
  O  O7  1  0.230629  0.208846  0.424096  1
  O  O8  1  0.769371  0.791153  0.575904  1
  O  O9  1  0.680750  0.219677  0.643023  1
  O  O10  1  0.349163  0.830254  0.814428  1
  O  O11  1  0.736302  0.810164  0.897286  1
  F  F12  1  0.932868  0.613021  0.257988  1
  F  F13  1  0.067133  0.386978  0.742012  1
