# generated using pymatgen
data_Na5SiP11Ir19
_symmetry_space_group_name_H-M   'P 1'
_cell_length_a   12.62614699
_cell_length_b   12.61993331
_cell_length_c   3.96066100
_cell_angle_alpha   90.00000000
_cell_angle_beta   90.00000000
_cell_angle_gamma   119.98372594
_symmetry_Int_Tables_number   1
_chemical_formula_structural   Na5SiP11Ir19
_chemical_formula_sum   'Na5 Si1 P11 Ir19'
_cell_volume   546.63495634
_cell_formula_units_Z   1
loop_
 _symmetry_equiv_pos_site_id
 _symmetry_equiv_pos_as_xyz
  1  'x, y, z'
loop_
 _atom_site_type_symbol
 _atom_site_label
 _atom_site_symmetry_multiplicity
 _atom_site_fract_x
 _atom_site_fract_y
 _atom_site_fract_z
 _atom_site_occupancy
  Na  Na0  1  0.330000  0.664767  0.500000  1
  Na  Na1  1  0.670000  0.334766  0.500000  1
  Na  Na2  1  0.000000  0.820417  0.000000  1
  Na  Na3  1  0.179946  0.177216  0.000000  1
  Na  Na4  1  0.820054  0.997270  0.000000  1
  Si  Si5  1  0.000000  0.638553  0.500000  1
  P  P6  1  0.358979  0.359521  0.500000  1
  P  P7  1  0.641021  0.000541  0.500000  1
  P  P8  1  0.510241  0.689543  0.000000  1
  P  P9  1  0.309982  0.824771  0.000000  1
  P  P10  1  0.170019  0.483418  0.000000  1
  P  P11  1  0.489759  0.179301  0.000000  1
  P  P12  1  0.690018  0.514789  0.000000  1
  P  P13  1  0.829981  0.313399  0.000000  1
  P  P14  1  0.000000  0.174153  0.500000  1
  P  P15  1  0.816385  0.818602  0.500000  1
  P  P16  1  0.183615  0.002216  0.500000  1
  Ir  Ir17  1  0.510087  0.874283  0.000000  1
  Ir  Ir18  1  0.127013  0.639301  0.000000  1
  Ir  Ir19  1  0.356712  0.490441  0.000000  1
  Ir  Ir20  1  0.489913  0.364195  0.000000  1
  Ir  Ir21  1  0.872987  0.512287  0.000000  1
  Ir  Ir22  1  0.643288  0.133728  0.000000  1
  Ir  Ir23  1  0.000000  0.450636  0.500000  1
  Ir  Ir24  1  0.535791  0.544215  0.500000  1
  Ir  Ir25  1  0.464209  0.008424  0.500000  1
  Ir  Ir26  1  0.000000  0.286937  0.000000  1
  Ir  Ir27  1  0.703568  0.707243  0.000000  1
  Ir  Ir28  1  0.296432  0.003675  0.000000  1
  Ir  Ir29  1  0.618563  0.803565  0.500000  1
  Ir  Ir30  1  0.201693  0.821841  0.500000  1
  Ir  Ir31  1  0.180640  0.373262  0.500000  1
  Ir  Ir32  1  0.381437  0.185002  0.500000  1
  Ir  Ir33  1  0.798307  0.620148  0.500000  1
  Ir  Ir34  1  0.819360  0.192623  0.500000  1
  Ir  Ir35  1  0.000000  0.994952  0.500000  1
