# generated using pymatgen
data_HoLu4(Cd2Pt)2
_symmetry_space_group_name_H-M   'P 1'
_cell_length_a   3.54755800
_cell_length_b   7.91352100
_cell_length_c   18.26972900
_cell_angle_alpha   90.00000000
_cell_angle_beta   90.00000000
_cell_angle_gamma   90.00000000
_symmetry_Int_Tables_number   1
_chemical_formula_structural   HoLu4(Cd2Pt)2
_chemical_formula_sum   'Ho2 Lu8 Cd8 Pt4'
_cell_volume   512.89842938
_cell_formula_units_Z   2
loop_
 _symmetry_equiv_pos_site_id
 _symmetry_equiv_pos_as_xyz
  1  'x, y, z'
loop_
 _atom_site_type_symbol
 _atom_site_label
 _atom_site_symmetry_multiplicity
 _atom_site_fract_x
 _atom_site_fract_y
 _atom_site_fract_z
 _atom_site_occupancy
  Ho  Ho0  1  0.000000  0.000000  0.000000  1
  Ho  Ho1  1  0.000000  0.500000  0.500000  1
  Lu  Lu2  1  0.000000  0.115272  0.414358  1
  Lu  Lu3  1  0.000000  0.884728  0.585642  1
  Lu  Lu4  1  0.000000  0.384728  0.914358  1
  Lu  Lu5  1  0.000000  0.615272  0.085642  1
  Lu  Lu6  1  0.000000  0.244143  0.220157  1
  Lu  Lu7  1  0.000000  0.755857  0.779843  1
  Lu  Lu8  1  0.000000  0.255857  0.720157  1
  Lu  Lu9  1  0.000000  0.744143  0.279843  1
  Cd  Cd10  1  0.500000  0.426196  0.352275  1
  Cd  Cd11  1  0.500000  0.573804  0.647725  1
  Cd  Cd12  1  0.500000  0.073804  0.852275  1
  Cd  Cd13  1  0.500000  0.926196  0.147725  1
  Cd  Cd14  1  0.500000  0.290777  0.066183  1
  Cd  Cd15  1  0.500000  0.709223  0.933817  1
  Cd  Cd16  1  0.500000  0.209223  0.566183  1
  Cd  Cd17  1  0.500000  0.790777  0.433817  1
  Pt  Pt18  1  0.500000  0.027448  0.303803  1
  Pt  Pt19  1  0.500000  0.972552  0.696197  1
  Pt  Pt20  1  0.500000  0.472552  0.803803  1
  Pt  Pt21  1  0.500000  0.527448  0.196197  1
