# generated using pymatgen
data_Sm2Lu2ReB12Ru
_symmetry_space_group_name_H-M   'P 1'
_cell_length_a   3.66642200
_cell_length_b   9.14268853
_cell_length_c   11.57231903
_cell_angle_alpha   89.83466085
_cell_angle_beta   90.00000000
_cell_angle_gamma   90.00000000
_symmetry_Int_Tables_number   1
_chemical_formula_structural   Sm2Lu2ReB12Ru
_chemical_formula_sum   'Sm4 Lu4 Re2 B24 Ru2'
_cell_volume   387.91356293
_cell_formula_units_Z   2
loop_
 _symmetry_equiv_pos_site_id
 _symmetry_equiv_pos_as_xyz
  1  'x, y, z'
loop_
 _atom_site_type_symbol
 _atom_site_label
 _atom_site_symmetry_multiplicity
 _atom_site_fract_x
 _atom_site_fract_y
 _atom_site_fract_z
 _atom_site_occupancy
  Sm  Sm0  1  0.000000  0.323838  0.415202  1
  Sm  Sm1  1  0.000000  0.676162  0.584798  1
  Sm  Sm2  1  0.000000  0.821415  0.086774  1
  Sm  Sm3  1  0.000000  0.178585  0.913226  1
  Lu  Lu4  1  0.000000  0.943125  0.370887  1
  Lu  Lu5  1  0.000000  0.056875  0.629113  1
  Lu  Lu6  1  0.000000  0.443648  0.129450  1
  Lu  Lu7  1  0.000000  0.556352  0.870550  1
  Re  Re8  1  0.000000  0.640058  0.318640  1
  Re  Re9  1  0.000000  0.359942  0.681360  1
  B  B10  1  0.500000  0.554620  0.431346  1
  B  B11  1  0.500000  0.445380  0.568654  1
  B  B12  1  0.500000  0.055532  0.068962  1
  B  B13  1  0.500000  0.944468  0.931038  1
  B  B14  1  0.500000  0.751115  0.417203  1
  B  B15  1  0.500000  0.248885  0.582797  1
  B  B16  1  0.500000  0.250830  0.083054  1
  B  B17  1  0.500000  0.749170  0.916946  1
  B  B18  1  0.500000  0.792667  0.265514  1
  B  B19  1  0.500000  0.207333  0.734486  1
  B  B20  1  0.500000  0.291583  0.233960  1
  B  B21  1  0.500000  0.708417  0.766040  1
  B  B22  1  0.500000  0.630274  0.184473  1
  B  B23  1  0.500000  0.369726  0.815527  1
  B  B24  1  0.500000  0.129815  0.314664  1
  B  B25  1  0.500000  0.870185  0.685336  1
  B  B26  1  0.500000  0.984207  0.213407  1
  B  B27  1  0.500000  0.015793  0.786593  1
  B  B28  1  0.500000  0.483427  0.285921  1
  B  B29  1  0.500000  0.516573  0.714079  1
  B  B30  1  0.500000  0.599202  0.026734  1
  B  B31  1  0.500000  0.400798  0.973266  1
  B  B32  1  0.500000  0.098617  0.472963  1
  B  B33  1  0.500000  0.901383  0.527037  1
  Ru  Ru34  1  0.000000  0.139550  0.180733  1
  Ru  Ru35  1  0.000000  0.860450  0.819267  1
