# generated using pymatgen
data_Ho3Sn3IrPdRh
_symmetry_space_group_name_H-M   'P 1'
_cell_length_a   7.59108100
_cell_length_b   7.59108039
_cell_length_c   3.86030000
_cell_angle_alpha   90.00000000
_cell_angle_beta   90.00000000
_cell_angle_gamma   120.00000700
_symmetry_Int_Tables_number   1
_chemical_formula_structural   Ho3Sn3IrPdRh
_chemical_formula_sum   'Ho3 Sn3 Ir1 Pd1 Rh1'
_cell_volume   192.64550246
_cell_formula_units_Z   1
loop_
 _symmetry_equiv_pos_site_id
 _symmetry_equiv_pos_as_xyz
  1  'x, y, z'
loop_
 _atom_site_type_symbol
 _atom_site_label
 _atom_site_symmetry_multiplicity
 _atom_site_fract_x
 _atom_site_fract_y
 _atom_site_fract_z
 _atom_site_occupancy
  Ho  Ho0  1  0.012756  0.411165  0.000000  1
  Ho  Ho1  1  0.588835  0.601591  0.000000  1
  Ho  Ho2  1  0.398409  0.987244  0.000000  1
  Sn  Sn3  1  0.261139  0.259574  0.500000  1
  Sn  Sn4  1  0.998435  0.738861  0.500000  1
  Sn  Sn5  1  0.740426  0.001565  0.500000  1
  Ir  Ir6  1  0.333333  0.666667  0.500000  1
  Pd  Pd7  1  0.666667  0.333333  0.500000  1
  Rh  Rh8  1  0.000000  0.000000  0.000000  1
