# generated using pymatgen
data_TbHo5(P2Ir3)6
_symmetry_space_group_name_H-M   'P 1'
_cell_length_a   3.97420800
_cell_length_b   11.18335000
_cell_length_c   12.79997400
_cell_angle_alpha   90.00000000
_cell_angle_beta   90.00000000
_cell_angle_gamma   90.00000000
_symmetry_Int_Tables_number   1
_chemical_formula_structural   TbHo5(P2Ir3)6
_chemical_formula_sum   'Tb1 Ho5 P12 Ir18'
_cell_volume   568.89432010
_cell_formula_units_Z   1
loop_
 _symmetry_equiv_pos_site_id
 _symmetry_equiv_pos_as_xyz
  1  'x, y, z'
loop_
 _atom_site_type_symbol
 _atom_site_label
 _atom_site_symmetry_multiplicity
 _atom_site_fract_x
 _atom_site_fract_y
 _atom_site_fract_z
 _atom_site_occupancy
  Tb  Tb0  1  0.000000  0.500000  0.522861  1
  Ho  Ho1  1  0.500000  0.000000  0.477121  1
  Ho  Ho2  1  0.500000  0.814925  0.204059  1
  Ho  Ho3  1  0.500000  0.185075  0.204059  1
  Ho  Ho4  1  0.000000  0.684829  0.795861  1
  Ho  Ho5  1  0.000000  0.315171  0.795861  1
  P  P6  1  0.500000  0.314977  0.618220  1
  P  P7  1  0.500000  0.685023  0.618220  1
  P  P8  1  0.000000  0.184845  0.382247  1
  P  P9  1  0.000000  0.815155  0.382247  1
  P  P10  1  0.500000  0.500000  0.875829  1
  P  P11  1  0.000000  0.000000  0.124467  1
  P  P12  1  0.500000  0.845219  0.893505  1
  P  P13  1  0.500000  0.154781  0.893505  1
  P  P14  1  0.000000  0.654996  0.106326  1
  P  P15  1  0.000000  0.345004  0.106326  1
  P  P16  1  0.500000  0.500000  0.359398  1
  P  P17  1  0.000000  0.000000  0.640016  1
  Ir  Ir18  1  0.000000  0.500000  0.971430  1
  Ir  Ir19  1  0.500000  0.000000  0.029177  1
  Ir  Ir20  1  0.500000  0.293448  0.429982  1
  Ir  Ir21  1  0.500000  0.706552  0.429982  1
  Ir  Ir22  1  0.000000  0.204473  0.569807  1
  Ir  Ir23  1  0.000000  0.795527  0.569807  1
  Ir  Ir24  1  0.500000  0.869385  0.713917  1
  Ir  Ir25  1  0.500000  0.130615  0.713917  1
  Ir  Ir26  1  0.000000  0.630655  0.285953  1
  Ir  Ir27  1  0.000000  0.369345  0.285953  1
  Ir  Ir28  1  0.500000  0.336463  0.001326  1
  Ir  Ir29  1  0.500000  0.663537  0.001326  1
  Ir  Ir30  1  0.000000  0.163293  0.998475  1
  Ir  Ir31  1  0.000000  0.836707  0.998475  1
  Ir  Ir32  1  0.500000  0.500000  0.181055  1
  Ir  Ir33  1  0.000000  0.000000  0.818526  1
  Ir  Ir34  1  0.500000  0.500000  0.699993  1
  Ir  Ir35  1  0.000000  0.000000  0.300769  1
