# generated using pymatgen
data_Pm4TeW5O24
_symmetry_space_group_name_H-M   'P 1'
_cell_length_a   7.02484243
_cell_length_b   7.02306759
_cell_length_c   11.77930149
_cell_angle_alpha   78.57563079
_cell_angle_beta   78.26738247
_cell_angle_gamma   111.38413273
_symmetry_Int_Tables_number   1
_chemical_formula_structural   Pm4TeW5O24
_chemical_formula_sum   'Pm4 Te1 W5 O24'
_cell_volume   505.66075262
_cell_formula_units_Z   1
loop_
 _symmetry_equiv_pos_site_id
 _symmetry_equiv_pos_as_xyz
  1  'x, y, z'
loop_
 _atom_site_type_symbol
 _atom_site_label
 _atom_site_symmetry_multiplicity
 _atom_site_fract_x
 _atom_site_fract_y
 _atom_site_fract_z
 _atom_site_occupancy
  Pm  Pm0  1  0.189512  0.446343  0.595391  1
  Pm  Pm1  1  0.805386  0.551729  0.407949  1
  Pm  Pm2  1  0.560968  0.807099  0.904390  1
  Pm  Pm3  1  0.440055  0.195688  0.093959  1
  Te  Te4  1  0.010790  0.300238  0.954230  1
  W  W5  1  0.994521  0.702746  0.049224  1
  W  W6  1  0.699327  0.989713  0.547841  1
  W  W7  1  0.299094  0.009984  0.451655  1
  W  W8  1  0.604950  0.383607  0.751067  1
  W  W9  1  0.386880  0.615784  0.250040  1
  O  O10  1  0.545947  0.468396  0.607661  1
  O  O11  1  0.448875  0.531787  0.392090  1
  O  O12  1  0.528075  0.449939  0.893937  1
  O  O13  1  0.476776  0.554038  0.108065  1
  O  O14  1  0.508188  0.098306  0.783356  1
  O  O15  1  0.488236  0.902026  0.214894  1
  O  O16  1  0.891577  0.488340  0.714065  1
  O  O17  1  0.100945  0.512785  0.281613  1
  O  O18  1  0.730487  0.134840  0.953537  1
  O  O19  1  0.277643  0.873368  0.037651  1
  O  O20  1  0.873144  0.271226  0.539339  1
  O  O21  1  0.127291  0.728405  0.458562  1
  O  O22  1  0.396698  0.823750  0.573573  1
  O  O23  1  0.601646  0.176084  0.426327  1
  O  O24  1  0.181014  0.602889  0.925935  1
  O  O25  1  0.829515  0.394916  0.075426  1
  O  O26  1  0.164489  0.305663  0.801911  1
  O  O27  1  0.841660  0.689692  0.198104  1
  O  O28  1  0.692025  0.839702  0.696500  1
  O  O29  1  0.307782  0.161417  0.303148  1
  O  O30  1  0.900017  0.829454  0.941031  1
  O  O31  1  0.098145  0.161198  0.067665  1
  O  O32  1  0.167724  0.101699  0.560160  1
  O  O33  1  0.830617  0.897149  0.439702  1
