# generated using pymatgen
data_PrSm2Ti(Co4P3)2
_symmetry_space_group_name_H-M   'P 1'
_cell_length_a   3.76322500
_cell_length_b   10.76313300
_cell_length_c   12.48401900
_cell_angle_alpha   90.00000000
_cell_angle_beta   90.00000000
_cell_angle_gamma   90.00000000
_symmetry_Int_Tables_number   1
_chemical_formula_structural   PrSm2Ti(Co4P3)2
_chemical_formula_sum   'Pr2 Sm4 Ti2 Co16 P12'
_cell_volume   505.65384392
_cell_formula_units_Z   2
loop_
 _symmetry_equiv_pos_site_id
 _symmetry_equiv_pos_as_xyz
  1  'x, y, z'
loop_
 _atom_site_type_symbol
 _atom_site_label
 _atom_site_symmetry_multiplicity
 _atom_site_fract_x
 _atom_site_fract_y
 _atom_site_fract_z
 _atom_site_occupancy
  Pr  Pr0  1  0.000000  0.500000  0.525430  1
  Pr  Pr1  1  0.500000  0.000000  0.474570  1
  Sm  Sm2  1  0.500000  0.819693  0.203985  1
  Sm  Sm3  1  0.500000  0.180307  0.203985  1
  Sm  Sm4  1  0.000000  0.680307  0.796015  1
  Sm  Sm5  1  0.000000  0.319693  0.796015  1
  Ti  Ti6  1  0.500000  0.500000  0.150684  1
  Ti  Ti7  1  0.000000  0.000000  0.849316  1
  Co  Co8  1  0.500000  0.500000  0.706462  1
  Co  Co9  1  0.000000  0.000000  0.293538  1
  Co  Co10  1  0.000000  0.500000  0.988302  1
  Co  Co11  1  0.500000  0.000000  0.011698  1
  Co  Co12  1  0.500000  0.332315  0.994555  1
  Co  Co13  1  0.500000  0.667685  0.994555  1
  Co  Co14  1  0.000000  0.167685  0.005445  1
  Co  Co15  1  0.000000  0.832315  0.005445  1
  Co  Co16  1  0.500000  0.295691  0.430881  1
  Co  Co17  1  0.500000  0.704309  0.430881  1
  Co  Co18  1  0.000000  0.204309  0.569119  1
  Co  Co19  1  0.000000  0.795691  0.569119  1
  Co  Co20  1  0.500000  0.880124  0.708000  1
  Co  Co21  1  0.500000  0.119876  0.708000  1
  Co  Co22  1  0.000000  0.619876  0.292000  1
  Co  Co23  1  0.000000  0.380124  0.292000  1
  P  P24  1  0.500000  0.500000  0.886690  1
  P  P25  1  0.000000  0.000000  0.113310  1
  P  P26  1  0.500000  0.500000  0.347524  1
  P  P27  1  0.000000  0.000000  0.652476  1
  P  P28  1  0.500000  0.305573  0.615741  1
  P  P29  1  0.500000  0.694427  0.615741  1
  P  P30  1  0.000000  0.194427  0.384259  1
  P  P31  1  0.000000  0.805573  0.384259  1
  P  P32  1  0.500000  0.844060  0.894309  1
  P  P33  1  0.500000  0.155940  0.894309  1
  P  P34  1  0.000000  0.655940  0.105691  1
  P  P35  1  0.000000  0.344060  0.105691  1
