# generated using pymatgen
data_Yb6Ni12BPd2C3
_symmetry_space_group_name_H-M   'P 1'
_cell_length_a   5.07046600
_cell_length_b   5.07046568
_cell_length_c   14.12735100
_cell_angle_alpha   90.00000000
_cell_angle_beta   90.00000000
_cell_angle_gamma   120.00000206
_symmetry_Int_Tables_number   1
_chemical_formula_structural   Yb6Ni12BPd2C3
_chemical_formula_sum   'Yb6 Ni12 B1 Pd2 C3'
_cell_volume   314.54811065
_cell_formula_units_Z   1
loop_
 _symmetry_equiv_pos_site_id
 _symmetry_equiv_pos_as_xyz
  1  'x, y, z'
loop_
 _atom_site_type_symbol
 _atom_site_label
 _atom_site_symmetry_multiplicity
 _atom_site_fract_x
 _atom_site_fract_y
 _atom_site_fract_z
 _atom_site_occupancy
  Yb  Yb0  1  0.666667  0.333333  0.533763  1
  Yb  Yb1  1  0.333333  0.666667  0.466631  1
  Yb  Yb2  1  0.333333  0.666667  0.033369  1
  Yb  Yb3  1  0.666667  0.333333  0.750000  1
  Yb  Yb4  1  0.666667  0.333333  0.966237  1
  Yb  Yb5  1  0.333333  0.666667  0.250000  1
  Ni  Ni6  1  0.166521  0.333042  0.659637  1
  Ni  Ni7  1  0.336453  0.168227  0.343408  1
  Ni  Ni8  1  0.336453  0.168227  0.156592  1
  Ni  Ni9  1  0.166521  0.833479  0.840363  1
  Ni  Ni10  1  0.831773  0.663547  0.343408  1
  Ni  Ni11  1  0.831773  0.168227  0.156592  1
  Ni  Ni12  1  0.666958  0.833479  0.659637  1
  Ni  Ni13  1  0.666958  0.833479  0.840363  1
  Ni  Ni14  1  0.166521  0.833479  0.659637  1
  Ni  Ni15  1  0.831773  0.663547  0.156592  1
  Ni  Ni16  1  0.166521  0.333042  0.840363  1
  Ni  Ni17  1  0.831773  0.168227  0.343408  1
  B  B18  1  0.000000  0.000000  0.250000  1
  Pd  Pd19  1  0.000000  0.000000  0.999178  1
  Pd  Pd20  1  0.000000  0.000000  0.500822  1
  C  C21  1  0.666667  0.333333  0.250000  1
  C  C22  1  0.000000  0.000000  0.750000  1
  C  C23  1  0.333333  0.666667  0.750000  1
