# generated using pymatgen
data_Sc22FeRu5Pt2
_symmetry_space_group_name_H-M   'P 1'
_cell_length_a   9.48255958
_cell_length_b   9.48255973
_cell_length_c   9.45278200
_cell_angle_alpha   60.10381784
_cell_angle_beta   60.10381730
_cell_angle_gamma   59.79235788
_symmetry_Int_Tables_number   1
_chemical_formula_structural   Sc22FeRu5Pt2
_chemical_formula_sum   'Sc22 Fe1 Ru5 Pt2'
_cell_volume   601.01768415
_cell_formula_units_Z   1
loop_
 _symmetry_equiv_pos_site_id
 _symmetry_equiv_pos_as_xyz
  1  'x, y, z'
loop_
 _atom_site_type_symbol
 _atom_site_label
 _atom_site_symmetry_multiplicity
 _atom_site_fract_x
 _atom_site_fract_y
 _atom_site_fract_z
 _atom_site_occupancy
  Sc  Sc0  1  0.803842  0.803842  0.196158  1
  Sc  Sc1  1  0.196605  0.803395  0.196605  1
  Sc  Sc2  1  0.803395  0.196605  0.196605  1
  Sc  Sc3  1  0.196158  0.196158  0.803842  1
  Sc  Sc4  1  0.803395  0.196605  0.803395  1
  Sc  Sc5  1  0.196605  0.803395  0.803395  1
  Sc  Sc6  1  0.615364  0.615364  0.156943  1
  Sc  Sc7  1  0.612331  0.156943  0.615364  1
  Sc  Sc8  1  0.156943  0.612331  0.615364  1
  Sc  Sc9  1  0.615364  0.615364  0.612331  1
  Sc  Sc10  1  0.384636  0.384636  0.843057  1
  Sc  Sc11  1  0.387669  0.843057  0.384636  1
  Sc  Sc12  1  0.843057  0.387669  0.384636  1
  Sc  Sc13  1  0.384636  0.384636  0.387669  1
  Sc  Sc14  1  0.839942  0.839942  0.472559  1
  Sc  Sc15  1  0.847555  0.472559  0.839942  1
  Sc  Sc16  1  0.472559  0.847555  0.839942  1
  Sc  Sc17  1  0.839942  0.839942  0.847555  1
  Sc  Sc18  1  0.160058  0.160058  0.527441  1
  Sc  Sc19  1  0.152445  0.527441  0.160058  1
  Sc  Sc20  1  0.527441  0.152445  0.160058  1
  Sc  Sc21  1  0.160058  0.160058  0.152445  1
  Fe  Fe22  1  0.500000  0.500000  0.500000  1
  Ru  Ru23  1  0.000000  0.000000  0.000000  1
  Ru  Ru24  1  0.500000  0.000000  0.500000  1
  Ru  Ru25  1  0.000000  0.500000  0.500000  1
  Ru  Ru26  1  0.000000  0.500000  0.000000  1
  Ru  Ru27  1  0.500000  0.000000  0.000000  1
  Pt  Pt28  1  0.000000  0.000000  0.500000  1
  Pt  Pt29  1  0.500000  0.500000  0.000000  1
