# generated using pymatgen
data_Yb3Dy(Ga2Ag)4
_symmetry_space_group_name_H-M   'P 1'
_cell_length_a   4.34795300
_cell_length_b   6.98985573
_cell_length_c   10.43515270
_cell_angle_alpha   90.59950083
_cell_angle_beta   90.00000000
_cell_angle_gamma   90.00000000
_symmetry_Int_Tables_number   1
_chemical_formula_structural   Yb3Dy(Ga2Ag)4
_chemical_formula_sum   'Yb3 Dy1 Ga8 Ag4'
_cell_volume   317.12325284
_cell_formula_units_Z   1
loop_
 _symmetry_equiv_pos_site_id
 _symmetry_equiv_pos_as_xyz
  1  'x, y, z'
loop_
 _atom_site_type_symbol
 _atom_site_label
 _atom_site_symmetry_multiplicity
 _atom_site_fract_x
 _atom_site_fract_y
 _atom_site_fract_z
 _atom_site_occupancy
  Yb  Yb0  1  0.750000  0.224872  0.172034  1
  Yb  Yb1  1  0.750000  0.724131  0.327642  1
  Yb  Yb2  1  0.250000  0.275712  0.671355  1
  Dy  Dy3  1  0.250000  0.779452  0.829012  1
  Ga  Ga4  1  0.250000  0.702334  0.535055  1
  Ga  Ga5  1  0.750000  0.299039  0.465748  1
  Ga  Ga6  1  0.750000  0.796280  0.035424  1
  Ga  Ga7  1  0.250000  0.201826  0.965089  1
  Ga  Ga8  1  0.250000  0.925520  0.148992  1
  Ga  Ga9  1  0.750000  0.073844  0.848839  1
  Ga  Ga10  1  0.750000  0.572711  0.651754  1
  Ga  Ga11  1  0.250000  0.427423  0.348923  1
  Ag  Ag12  1  0.250000  0.538920  0.100324  1
  Ag  Ag13  1  0.750000  0.458028  0.900042  1
  Ag  Ag14  1  0.750000  0.959697  0.599379  1
  Ag  Ag15  1  0.250000  0.040211  0.400388  1
