# generated using pymatgen
data_Sr3Yb(BeSi3)2
_symmetry_space_group_name_H-M   'P 1'
_cell_length_a   8.32713774
_cell_length_b   8.00332590
_cell_length_c   6.10813870
_cell_angle_alpha   70.88201737
_cell_angle_beta   65.24472485
_cell_angle_gamma   43.87325678
_symmetry_Int_Tables_number   1
_chemical_formula_structural   Sr3Yb(BeSi3)2
_chemical_formula_sum   'Sr3 Yb1 Be2 Si6'
_cell_volume   255.99071427
_cell_formula_units_Z   1
loop_
 _symmetry_equiv_pos_site_id
 _symmetry_equiv_pos_as_xyz
  1  'x, y, z'
loop_
 _atom_site_type_symbol
 _atom_site_label
 _atom_site_symmetry_multiplicity
 _atom_site_fract_x
 _atom_site_fract_y
 _atom_site_fract_z
 _atom_site_occupancy
  Sr  Sr0  1  0.250000  0.250000  0.250001  1
  Sr  Sr1  1  0.242553  0.757447  0.242554  1
  Sr  Sr2  1  0.757447  0.242554  0.757448  1
  Yb  Yb3  1  0.750001  0.749999  0.750000  1
  Be  Be4  1  0.666983  0.666984  0.333017  1
  Be  Be5  1  0.333016  0.333017  0.666984  1
  Si  Si6  1  0.824391  0.349273  0.170424  1
  Si  Si7  1  0.826829  0.826829  0.173172  1
  Si  Si8  1  0.655913  0.170424  0.349273  1
  Si  Si9  1  0.349273  0.824391  0.655914  1
  Si  Si10  1  0.173171  0.173172  0.826830  1
  Si  Si11  1  0.170423  0.655914  0.824391  1
