# generated using pymatgen
data_PrEr2Cr(Co4P3)2
_symmetry_space_group_name_H-M   'P 1'
_cell_length_a   3.69589700
_cell_length_b   10.52224300
_cell_length_c   12.20468600
_cell_angle_alpha   90.00000000
_cell_angle_beta   90.00000000
_cell_angle_gamma   90.00000000
_symmetry_Int_Tables_number   1
_chemical_formula_structural   PrEr2Cr(Co4P3)2
_chemical_formula_sum   'Pr2 Er4 Cr2 Co16 P12'
_cell_volume   474.62957576
_cell_formula_units_Z   2
loop_
 _symmetry_equiv_pos_site_id
 _symmetry_equiv_pos_as_xyz
  1  'x, y, z'
loop_
 _atom_site_type_symbol
 _atom_site_label
 _atom_site_symmetry_multiplicity
 _atom_site_fract_x
 _atom_site_fract_y
 _atom_site_fract_z
 _atom_site_occupancy
  Pr  Pr0  1  0.750000  0.250000  0.477434  1
  Pr  Pr1  1  0.250000  0.750000  0.522566  1
  Er  Er2  1  0.250000  0.932266  0.797073  1
  Er  Er3  1  0.250000  0.567734  0.797073  1
  Er  Er4  1  0.750000  0.067734  0.202927  1
  Er  Er5  1  0.750000  0.432266  0.202927  1
  Cr  Cr6  1  0.250000  0.250000  0.848245  1
  Cr  Cr7  1  0.750000  0.750000  0.151755  1
  Co  Co8  1  0.250000  0.250000  0.294164  1
  Co  Co9  1  0.750000  0.750000  0.705836  1
  Co  Co10  1  0.750000  0.250000  0.013499  1
  Co  Co11  1  0.250000  0.750000  0.986501  1
  Co  Co12  1  0.250000  0.417595  0.007941  1
  Co  Co13  1  0.250000  0.082405  0.007941  1
  Co  Co14  1  0.750000  0.582405  0.992059  1
  Co  Co15  1  0.750000  0.917595  0.992059  1
  Co  Co16  1  0.250000  0.454687  0.571429  1
  Co  Co17  1  0.250000  0.045313  0.571429  1
  Co  Co18  1  0.750000  0.545313  0.428571  1
  Co  Co19  1  0.750000  0.954687  0.428571  1
  Co  Co20  1  0.250000  0.870474  0.287280  1
  Co  Co21  1  0.250000  0.629526  0.287280  1
  Co  Co22  1  0.750000  0.129526  0.712720  1
  Co  Co23  1  0.750000  0.370474  0.712720  1
  P  P24  1  0.250000  0.250000  0.117472  1
  P  P25  1  0.750000  0.750000  0.882528  1
  P  P26  1  0.250000  0.250000  0.662703  1
  P  P27  1  0.750000  0.750000  0.337297  1
  P  P28  1  0.250000  0.442048  0.381184  1
  P  P29  1  0.250000  0.057952  0.381184  1
  P  P30  1  0.750000  0.557952  0.618816  1
  P  P31  1  0.750000  0.942048  0.618816  1
  P  P32  1  0.250000  0.902458  0.106749  1
  P  P33  1  0.250000  0.597542  0.106749  1
  P  P34  1  0.750000  0.097542  0.893251  1
  P  P35  1  0.750000  0.402458  0.893251  1
