# generated using pymatgen
data_Hf18MnCr2Re6Ni
_symmetry_space_group_name_H-M   'P 1'
_cell_length_a   8.57914200
_cell_length_b   8.57914207
_cell_length_c   8.38650200
_cell_angle_alpha   90.00000000
_cell_angle_beta   90.00000000
_cell_angle_gamma   119.99999972
_symmetry_Int_Tables_number   1
_chemical_formula_structural   Hf18MnCr2Re6Ni
_chemical_formula_sum   'Hf18 Mn1 Cr2 Re6 Ni1'
_cell_volume   534.56337965
_cell_formula_units_Z   1
loop_
 _symmetry_equiv_pos_site_id
 _symmetry_equiv_pos_as_xyz
  1  'x, y, z'
loop_
 _atom_site_type_symbol
 _atom_site_label
 _atom_site_symmetry_multiplicity
 _atom_site_fract_x
 _atom_site_fract_y
 _atom_site_fract_z
 _atom_site_occupancy
  Hf  Hf0  1  0.199087  0.800913  0.442502  1
  Hf  Hf1  1  0.199087  0.398174  0.442502  1
  Hf  Hf2  1  0.601826  0.800913  0.442502  1
  Hf  Hf3  1  0.803565  0.196435  0.557101  1
  Hf  Hf4  1  0.803565  0.607131  0.557101  1
  Hf  Hf5  1  0.392869  0.196435  0.557101  1
  Hf  Hf6  1  0.803565  0.196435  0.942899  1
  Hf  Hf7  1  0.803565  0.607131  0.942899  1
  Hf  Hf8  1  0.392869  0.196435  0.942899  1
  Hf  Hf9  1  0.199087  0.800913  0.057498  1
  Hf  Hf10  1  0.199087  0.398174  0.057498  1
  Hf  Hf11  1  0.601826  0.800913  0.057498  1
  Hf  Hf12  1  0.540107  0.459893  0.250000  1
  Hf  Hf13  1  0.540107  0.080214  0.250000  1
  Hf  Hf14  1  0.919786  0.459893  0.250000  1
  Hf  Hf15  1  0.458832  0.541168  0.750000  1
  Hf  Hf16  1  0.458832  0.917664  0.750000  1
  Hf  Hf17  1  0.082336  0.541168  0.750000  1
  Mn  Mn18  1  0.333333  0.666667  0.250000  1
  Cr  Cr19  1  0.000000  0.000000  0.498321  1
  Cr  Cr20  1  0.000000  0.000000  0.001679  1
  Re  Re21  1  0.891291  0.108709  0.250000  1
  Re  Re22  1  0.891291  0.782580  0.250000  1
  Re  Re23  1  0.217420  0.108709  0.250000  1
  Re  Re24  1  0.108934  0.891066  0.750000  1
  Re  Re25  1  0.108934  0.217870  0.750000  1
  Re  Re26  1  0.782130  0.891066  0.750000  1
  Ni  Ni27  1  0.666667  0.333333  0.750000  1
