# generated using pymatgen
data_Zr18FeRe8Ni
_symmetry_space_group_name_H-M   'P 1'
_cell_length_a   8.66032300
_cell_length_b   8.66032162
_cell_length_c   8.60642400
_cell_angle_alpha   90.00000000
_cell_angle_beta   90.00000000
_cell_angle_gamma   119.99999380
_symmetry_Int_Tables_number   1
_chemical_formula_structural   Zr18FeRe8Ni
_chemical_formula_sum   'Zr18 Fe1 Re8 Ni1'
_cell_volume   559.01248539
_cell_formula_units_Z   1
loop_
 _symmetry_equiv_pos_site_id
 _symmetry_equiv_pos_as_xyz
  1  'x, y, z'
loop_
 _atom_site_type_symbol
 _atom_site_label
 _atom_site_symmetry_multiplicity
 _atom_site_fract_x
 _atom_site_fract_y
 _atom_site_fract_z
 _atom_site_occupancy
  Zr  Zr0  1  0.197035  0.802965  0.442159  1
  Zr  Zr1  1  0.197035  0.394073  0.442159  1
  Zr  Zr2  1  0.605927  0.802965  0.442159  1
  Zr  Zr3  1  0.799943  0.200057  0.558867  1
  Zr  Zr4  1  0.799943  0.599885  0.558867  1
  Zr  Zr5  1  0.400115  0.200057  0.558867  1
  Zr  Zr6  1  0.799943  0.200057  0.941133  1
  Zr  Zr7  1  0.799943  0.599885  0.941133  1
  Zr  Zr8  1  0.400115  0.200057  0.941133  1
  Zr  Zr9  1  0.197035  0.802965  0.057841  1
  Zr  Zr10  1  0.197035  0.394073  0.057841  1
  Zr  Zr11  1  0.605927  0.802965  0.057841  1
  Zr  Zr12  1  0.542583  0.457417  0.250000  1
  Zr  Zr13  1  0.542583  0.085165  0.250000  1
  Zr  Zr14  1  0.914835  0.457417  0.250000  1
  Zr  Zr15  1  0.458062  0.541938  0.750000  1
  Zr  Zr16  1  0.458062  0.916125  0.750000  1
  Zr  Zr17  1  0.083875  0.541938  0.750000  1
  Fe  Fe18  1  0.666667  0.333333  0.750000  1
  Re  Re19  1  0.891647  0.108353  0.250000  1
  Re  Re20  1  0.891647  0.783295  0.250000  1
  Re  Re21  1  0.216705  0.108353  0.250000  1
  Re  Re22  1  0.108044  0.891956  0.750000  1
  Re  Re23  1  0.108044  0.216087  0.750000  1
  Re  Re24  1  0.783913  0.891956  0.750000  1
  Re  Re25  1  0.000000  0.000000  0.500103  1
  Re  Re26  1  0.000000  0.000000  0.999897  1
  Ni  Ni27  1  0.333333  0.666667  0.250000  1
