# generated using pymatgen
data_Sc22OsRu3Pt4
_symmetry_space_group_name_H-M   'P 1'
_cell_length_a   9.50729876
_cell_length_b   9.50729731
_cell_length_c   9.57054700
_cell_angle_alpha   59.77967318
_cell_angle_beta   59.77967828
_cell_angle_gamma   60.44063190
_symmetry_Int_Tables_number   1
_chemical_formula_structural   Sc22OsRu3Pt4
_chemical_formula_sum   'Sc22 Os1 Ru3 Pt4'
_cell_volume   611.64188968
_cell_formula_units_Z   1
loop_
 _symmetry_equiv_pos_site_id
 _symmetry_equiv_pos_as_xyz
  1  'x, y, z'
loop_
 _atom_site_type_symbol
 _atom_site_label
 _atom_site_symmetry_multiplicity
 _atom_site_fract_x
 _atom_site_fract_y
 _atom_site_fract_z
 _atom_site_occupancy
  Sc  Sc0  1  0.804360  0.804360  0.195640  1
  Sc  Sc1  1  0.195694  0.804306  0.195694  1
  Sc  Sc2  1  0.804306  0.195694  0.195694  1
  Sc  Sc3  1  0.195640  0.195640  0.804360  1
  Sc  Sc4  1  0.804306  0.195694  0.804306  1
  Sc  Sc5  1  0.195694  0.804306  0.804306  1
  Sc  Sc6  1  0.615237  0.615237  0.151058  1
  Sc  Sc7  1  0.618469  0.151058  0.615237  1
  Sc  Sc8  1  0.151058  0.618469  0.615237  1
  Sc  Sc9  1  0.615237  0.615237  0.618469  1
  Sc  Sc10  1  0.384763  0.384763  0.848942  1
  Sc  Sc11  1  0.381531  0.848942  0.384763  1
  Sc  Sc12  1  0.848942  0.381531  0.384763  1
  Sc  Sc13  1  0.384763  0.384763  0.381531  1
  Sc  Sc14  1  0.845091  0.845091  0.472180  1
  Sc  Sc15  1  0.837636  0.472180  0.845091  1
  Sc  Sc16  1  0.472180  0.837636  0.845091  1
  Sc  Sc17  1  0.845091  0.845091  0.837636  1
  Sc  Sc18  1  0.154909  0.154909  0.527820  1
  Sc  Sc19  1  0.162364  0.527820  0.154909  1
  Sc  Sc20  1  0.527820  0.162364  0.154909  1
  Sc  Sc21  1  0.154909  0.154909  0.162364  1
  Os  Os22  1  0.500000  0.500000  0.500000  1
  Ru  Ru23  1  0.000000  0.000000  0.000000  1
  Ru  Ru24  1  0.000000  0.000000  0.500000  1
  Ru  Ru25  1  0.500000  0.500000  0.000000  1
  Pt  Pt26  1  0.500000  0.000000  0.500000  1
  Pt  Pt27  1  0.000000  0.500000  0.500000  1
  Pt  Pt28  1  0.000000  0.500000  0.000000  1
  Pt  Pt29  1  0.500000  0.000000  0.000000  1
