# generated using pymatgen
data_Dy7Tm(Ge4Mo3)4
_symmetry_space_group_name_H-M   'P 1'
_cell_length_a   6.93847205
_cell_length_b   7.05284009
_cell_length_c   13.14531221
_cell_angle_alpha   90.00747728
_cell_angle_beta   89.99909605
_cell_angle_gamma   90.00708389
_symmetry_Int_Tables_number   1
_chemical_formula_structural   Dy7Tm(Ge4Mo3)4
_chemical_formula_sum   'Dy7 Tm1 Ge16 Mo12'
_cell_volume   643.27811784
_cell_formula_units_Z   1
loop_
 _symmetry_equiv_pos_site_id
 _symmetry_equiv_pos_as_xyz
  1  'x, y, z'
loop_
 _atom_site_type_symbol
 _atom_site_label
 _atom_site_symmetry_multiplicity
 _atom_site_fract_x
 _atom_site_fract_y
 _atom_site_fract_z
 _atom_site_occupancy
  Dy  Dy0  1  0.488679  0.669536  0.592274  1
  Dy  Dy1  1  0.989041  0.830635  0.907967  1
  Dy  Dy2  1  0.511508  0.330536  0.092269  1
  Dy  Dy3  1  0.010979  0.169688  0.408292  1
  Dy  Dy4  1  0.510885  0.330148  0.408371  1
  Dy  Dy5  1  0.011232  0.169718  0.092237  1
  Dy  Dy6  1  0.488516  0.669668  0.907133  1
  Tm  Tm7  1  0.987512  0.829456  0.592161  1
  Ge  Ge8  1  0.670511  0.953030  0.452450  1
  Ge  Ge9  1  0.170189  0.547024  0.048113  1
  Ge  Ge10  1  0.330733  0.047401  0.951512  1
  Ge  Ge11  1  0.830488  0.453993  0.548326  1
  Ge  Ge12  1  0.328085  0.045753  0.548449  1
  Ge  Ge13  1  0.830084  0.453116  0.951647  1
  Ge  Ge14  1  0.669718  0.952820  0.048215  1
  Ge  Ge15  1  0.169523  0.547567  0.452306  1
  Ge  Ge16  1  0.468866  0.366558  0.749860  1
  Ge  Ge17  1  0.969329  0.131817  0.749178  1
  Ge  Ge18  1  0.531349  0.633029  0.250161  1
  Ge  Ge19  1  0.031309  0.867374  0.250195  1
  Ge  Ge20  1  0.689310  0.855323  0.749529  1
  Ge  Ge21  1  0.186926  0.645341  0.749120  1
  Ge  Ge22  1  0.311766  0.144679  0.250219  1
  Ge  Ge23  1  0.811830  0.355852  0.250460  1
  Mo  Mo24  1  0.669171  0.154977  0.626874  1
  Mo  Mo25  1  0.168337  0.344467  0.872293  1
  Mo  Mo26  1  0.331211  0.844642  0.127051  1
  Mo  Mo27  1  0.831342  0.656208  0.373445  1
  Mo  Mo28  1  0.331194  0.844403  0.373057  1
  Mo  Mo29  1  0.831615  0.655725  0.127364  1
  Mo  Mo30  1  0.669679  0.155286  0.872665  1
  Mo  Mo31  1  0.168988  0.344493  0.626920  1
  Mo  Mo32  1  0.832961  0.494430  0.749722  1
  Mo  Mo33  1  0.332834  0.004891  0.749590  1
  Mo  Mo34  1  0.167208  0.505765  0.250215  1
  Mo  Mo35  1  0.667093  0.994653  0.250361  1
