# generated using pymatgen
data_YTmUAs3
_symmetry_space_group_name_H-M   'P 1'
_cell_length_a   4.07038400
_cell_length_b   4.07038405
_cell_length_c   10.15049800
_cell_angle_alpha   90.00000000
_cell_angle_beta   90.00000000
_cell_angle_gamma   119.99999963
_symmetry_Int_Tables_number   1
_chemical_formula_structural   YTmUAs3
_chemical_formula_sum   'Y1 Tm1 U1 As3'
_cell_volume   145.64271062
_cell_formula_units_Z   1
loop_
 _symmetry_equiv_pos_site_id
 _symmetry_equiv_pos_as_xyz
  1  'x, y, z'
loop_
 _atom_site_type_symbol
 _atom_site_label
 _atom_site_symmetry_multiplicity
 _atom_site_fract_x
 _atom_site_fract_y
 _atom_site_fract_z
 _atom_site_occupancy
  Y  Y0  1  0.666667  0.333333  0.338498  1
  Tm  Tm1  1  0.333333  0.666667  0.661951  1
  U  U2  1  0.000000  0.000000  0.998965  1
  As  As3  1  0.333333  0.666667  0.166217  1
  As  As4  1  0.666667  0.333333  0.830807  1
  As  As5  1  0.000000  0.000000  0.503562  1
