# generated using pymatgen
data_ZrU5(Ni3Sb4)2
_symmetry_space_group_name_H-M   'P 1'
_cell_length_a   8.11257489
_cell_length_b   8.11257522
_cell_length_c   8.11257618
_cell_angle_alpha   109.59527473
_cell_angle_beta   109.22338067
_cell_angle_gamma   109.59529380
_symmetry_Int_Tables_number   1
_chemical_formula_structural   ZrU5(Ni3Sb4)2
_chemical_formula_sum   'Zr1 U5 Ni6 Sb8'
_cell_volume   411.00607689
_cell_formula_units_Z   1
loop_
 _symmetry_equiv_pos_site_id
 _symmetry_equiv_pos_as_xyz
  1  'x, y, z'
loop_
 _atom_site_type_symbol
 _atom_site_label
 _atom_site_symmetry_multiplicity
 _atom_site_fract_x
 _atom_site_fract_y
 _atom_site_fract_z
 _atom_site_occupancy
  Zr  Zr0  1  0.875000  0.250000  0.125000  1
  U  U1  1  0.625000  0.750000  0.375000  1
  U  U2  1  0.250221  0.123086  0.875610  1
  U  U3  1  0.752524  0.376914  0.627135  1
  U  U4  1  0.124390  0.874611  0.247476  1
  U  U5  1  0.372865  0.625389  0.749779  1
  Ni  Ni6  1  0.375000  0.250000  0.625000  1
  Ni  Ni7  1  0.125000  0.750000  0.875000  1
  Ni  Ni8  1  0.248308  0.623349  0.378060  1
  Ni  Ni9  1  0.754711  0.876651  0.124959  1
  Ni  Ni10  1  0.621940  0.370248  0.245289  1
  Ni  Ni11  1  0.875041  0.129752  0.751692  1
  Sb  Sb12  1  0.667911  0.498089  0.999950  1
  Sb  Sb13  1  0.501861  0.001911  0.669822  1
  Sb  Sb14  1  0.994456  0.659283  0.493367  1
  Sb  Sb15  1  0.834084  0.840717  0.835173  1
  Sb  Sb16  1  0.506633  0.001088  0.165916  1
  Sb  Sb17  1  0.164827  0.498912  0.005544  1
  Sb  Sb18  1  0.000050  0.167961  0.498139  1
  Sb  Sb19  1  0.330178  0.332039  0.332089  1
