# generated using pymatgen
data_CePaHgPt2
_symmetry_space_group_name_H-M   'P 1'
_cell_length_a   7.92281900
_cell_length_b   7.91187600
_cell_length_c   3.64400400
_cell_angle_alpha   90.00000000
_cell_angle_beta   90.00000000
_cell_angle_gamma   90.00000000
_symmetry_Int_Tables_number   1
_chemical_formula_structural   CePaHgPt2
_chemical_formula_sum   'Ce2 Pa2 Hg2 Pt4'
_cell_volume   228.42206404
_cell_formula_units_Z   2
loop_
 _symmetry_equiv_pos_site_id
 _symmetry_equiv_pos_as_xyz
  1  'x, y, z'
loop_
 _atom_site_type_symbol
 _atom_site_label
 _atom_site_symmetry_multiplicity
 _atom_site_fract_x
 _atom_site_fract_y
 _atom_site_fract_z
 _atom_site_occupancy
  Ce  Ce0  1  0.827319  0.673134  0.500000  1
  Ce  Ce1  1  0.672681  0.173134  0.500000  1
  Pa  Pa2  1  0.169496  0.330359  0.500000  1
  Pa  Pa3  1  0.330504  0.830359  0.500000  1
  Hg  Hg4  1  0.502892  0.496324  0.000000  1
  Hg  Hg5  1  0.997108  0.996324  0.000000  1
  Pt  Pt6  1  0.614593  0.869395  0.000000  1
  Pt  Pt7  1  0.143096  0.630788  0.000000  1
  Pt  Pt8  1  0.885407  0.369395  0.000000  1
  Pt  Pt9  1  0.356904  0.130788  0.000000  1
