# generated using pymatgen
data_Dy9Y3Co5Bi
_symmetry_space_group_name_H-M   'P 1'
_cell_length_a   8.32693080
_cell_length_b   8.32693034
_cell_length_c   8.31834273
_cell_angle_alpha   110.64453540
_cell_angle_beta   110.67019670
_cell_angle_gamma   107.16775266
_symmetry_Int_Tables_number   1
_chemical_formula_structural   Dy9Y3Co5Bi
_chemical_formula_sum   'Dy9 Y3 Co5 Bi1'
_cell_volume   443.21697043
_cell_formula_units_Z   1
loop_
 _symmetry_equiv_pos_site_id
 _symmetry_equiv_pos_as_xyz
  1  'x, y, z'
loop_
 _atom_site_type_symbol
 _atom_site_label
 _atom_site_symmetry_multiplicity
 _atom_site_fract_x
 _atom_site_fract_y
 _atom_site_fract_z
 _atom_site_occupancy
  Dy  Dy0  1  0.816908  0.289692  0.106601  1
  Dy  Dy1  1  0.688649  0.378605  0.690725  1
  Dy  Dy2  1  0.311444  0.621138  0.309665  1
  Dy  Dy3  1  0.688528  0.998222  0.309665  1
  Dy  Dy4  1  0.312121  0.002076  0.690725  1
  Dy  Dy5  1  0.599756  0.794099  0.806183  1
  Dy  Dy6  1  0.401309  0.206522  0.194460  1
  Dy  Dy7  1  0.987938  0.793151  0.194460  1
  Dy  Dy8  1  0.012084  0.206427  0.806183  1
  Y  Y9  1  0.815582  0.710809  0.526392  1
  Y  Y10  1  0.184319  0.288972  0.473290  1
  Y  Y11  1  0.184091  0.710417  0.894507  1
  Co  Co12  1  0.623557  0.999712  0.623270  1
  Co  Co13  1  0.376287  0.000231  0.376519  1
  Co  Co14  1  0.110258  0.611044  0.498297  1
  Co  Co15  1  0.887253  0.388039  0.498297  1
  Co  Co16  1  0.000170  0.000701  0.000871  1
  Bi  Bi17  1  0.499746  0.500144  0.999890  1
