# generated using pymatgen
data_Ca12Si11Ge
_symmetry_space_group_name_H-M   'P 1'
_cell_length_a   3.92219300
_cell_length_b   5.81003801
_cell_length_c   25.40995300
_cell_angle_alpha   82.04322757
_cell_angle_beta   90.00000000
_cell_angle_gamma   90.00000000
_symmetry_Int_Tables_number   1
_chemical_formula_structural   Ca12Si11Ge
_chemical_formula_sum   'Ca12 Si11 Ge1'
_cell_volume   573.46972415
_cell_formula_units_Z   1
loop_
 _symmetry_equiv_pos_site_id
 _symmetry_equiv_pos_as_xyz
  1  'x, y, z'
loop_
 _atom_site_type_symbol
 _atom_site_label
 _atom_site_symmetry_multiplicity
 _atom_site_fract_x
 _atom_site_fract_y
 _atom_site_fract_z
 _atom_site_occupancy
  Ca  Ca0  1  0.750000  0.348313  0.059062  1
  Ca  Ca1  1  0.250000  0.656072  0.939644  1
  Ca  Ca2  1  0.750000  0.543439  0.227553  1
  Ca  Ca3  1  0.250000  0.456948  0.773297  1
  Ca  Ca4  1  0.750000  0.163035  0.393308  1
  Ca  Ca5  1  0.250000  0.833174  0.607154  1
  Ca  Ca6  1  0.750000  0.356462  0.559984  1
  Ca  Ca7  1  0.250000  0.639139  0.440490  1
  Ca  Ca8  1  0.750000  0.985698  0.726779  1
  Ca  Ca9  1  0.250000  0.011612  0.273550  1
  Ca  Ca10  1  0.750000  0.160310  0.893207  1
  Ca  Ca11  1  0.250000  0.845493  0.105920  1
  Si  Si12  1  0.750000  0.878808  0.011135  1
  Si  Si13  1  0.250000  0.126169  0.987963  1
  Si  Si14  1  0.750000  0.062442  0.178648  1
  Si  Si15  1  0.250000  0.933104  0.821647  1
  Si  Si16  1  0.750000  0.692767  0.346085  1
  Si  Si17  1  0.250000  0.303917  0.654515  1
  Si  Si18  1  0.750000  0.878216  0.512597  1
  Si  Si19  1  0.250000  0.116876  0.487927  1
  Si  Si20  1  0.750000  0.515447  0.678900  1
  Si  Si21  1  0.250000  0.481572  0.321596  1
  Si  Si22  1  0.750000  0.689260  0.845327  1
  Ge  Ge23  1  0.250000  0.321728  0.153711  1
