# generated using pymatgen
data_Tm3LuAl13Ga5Ir6
_symmetry_space_group_name_H-M   'P 1'
_cell_length_a   7.51000771
_cell_length_b   7.50748938
_cell_length_c   9.52101500
_cell_angle_alpha   89.99996617
_cell_angle_beta   90.00053788
_cell_angle_gamma   119.55906428
_symmetry_Int_Tables_number   1
_chemical_formula_structural   Tm3LuAl13Ga5Ir6
_chemical_formula_sum   'Tm3 Lu1 Al13 Ga5 Ir6'
_cell_volume   466.94048940
_cell_formula_units_Z   1
loop_
 _symmetry_equiv_pos_site_id
 _symmetry_equiv_pos_as_xyz
  1  'x, y, z'
loop_
 _atom_site_type_symbol
 _atom_site_label
 _atom_site_symmetry_multiplicity
 _atom_site_fract_x
 _atom_site_fract_y
 _atom_site_fract_z
 _atom_site_occupancy
  Tm  Tm0  1  0.994754  0.670851  0.250004  1
  Tm  Tm1  1  0.000608  0.325310  0.749992  1
  Tm  Tm2  1  0.671112  0.996149  0.250007  1
  Lu  Lu3  1  0.329164  0.006402  0.750004  1
  Al  Al4  1  0.002563  0.335369  0.072771  1
  Al  Al5  1  0.999826  0.665337  0.926427  1
  Al  Al6  1  0.999827  0.665343  0.573574  1
  Al  Al7  1  0.335223  0.001579  0.427929  1
  Al  Al8  1  0.002568  0.335372  0.427228  1
  Al  Al9  1  0.664310  0.998152  0.573972  1
  Al  Al10  1  0.664313  0.998158  0.926030  1
  Al  Al11  1  0.335219  0.001570  0.072076  1
  Al  Al12  1  0.333376  0.333659  0.558803  1
  Al  Al13  1  0.666437  0.666463  0.446063  1
  Al  Al14  1  0.666437  0.666465  0.053941  1
  Al  Al15  1  0.333374  0.333659  0.941194  1
  Al  Al16  1  0.449177  0.661674  0.749994  1
  Ga  Ga17  1  0.129079  0.128899  0.250001  1
  Ga  Ga18  1  0.870179  0.869427  0.750002  1
  Ga  Ga19  1  0.339534  0.548521  0.249998  1
  Ga  Ga20  1  0.660664  0.452201  0.750003  1
  Ga  Ga21  1  0.548493  0.339572  0.250004  1
  Ir  Ir22  1  0.672751  0.327352  0.999967  1
  Ir  Ir23  1  0.328537  0.672319  0.998042  1
  Ir  Ir24  1  0.328545  0.672312  0.501962  1
  Ir  Ir25  1  0.672739  0.327374  0.500014  1
  Ir  Ir26  1  0.000603  0.000266  0.999792  1
  Ir  Ir27  1  0.000587  0.000246  0.500204  1
