# generated using pymatgen
data_Sc12InNi4Ru
_symmetry_space_group_name_H-M   'P 1'
_cell_length_a   7.75354384
_cell_length_b   7.75354421
_cell_length_c   7.75354386
_cell_angle_alpha   111.26570753
_cell_angle_beta   110.84284083
_cell_angle_gamma   106.34979323
_symmetry_Int_Tables_number   1
_chemical_formula_structural   Sc12InNi4Ru
_chemical_formula_sum   'Sc12 In1 Ni4 Ru1'
_cell_volume   358.02345466
_cell_formula_units_Z   1
loop_
 _symmetry_equiv_pos_site_id
 _symmetry_equiv_pos_as_xyz
  1  'x, y, z'
loop_
 _atom_site_type_symbol
 _atom_site_label
 _atom_site_symmetry_multiplicity
 _atom_site_fract_x
 _atom_site_fract_y
 _atom_site_fract_z
 _atom_site_occupancy
  Sc  Sc0  1  0.419648  0.225164  0.194484  1
  Sc  Sc1  1  0.580352  0.774836  0.805516  1
  Sc  Sc2  1  0.030680  0.225164  0.805516  1
  Sc  Sc3  1  0.969320  0.774836  0.194484  1
  Sc  Sc4  1  0.320566  0.619954  0.299387  1
  Sc  Sc5  1  0.679434  0.380046  0.700613  1
  Sc  Sc6  1  0.320566  0.021178  0.700613  1
  Sc  Sc7  1  0.679434  0.978822  0.299387  1
  Sc  Sc8  1  0.183128  0.277945  0.461073  1
  Sc  Sc9  1  0.816872  0.722054  0.538927  1
  Sc  Sc10  1  0.183128  0.722054  0.905184  1
  Sc  Sc11  1  0.816872  0.277945  0.094816  1
  In  In12  1  0.500000  0.500000  0.000000  1
  Ni  Ni13  1  0.355883  0.000000  0.355883  1
  Ni  Ni14  1  0.644117  0.000000  0.644117  1
  Ni  Ni15  1  0.124611  0.624611  0.500000  1
  Ni  Ni16  1  0.875389  0.375389  0.500000  1
  Ru  Ru17  1  0.000000  0.000000  0.000000  1
