# generated using pymatgen
data_Dy3Zn(Ga4Pd)2
_symmetry_space_group_name_H-M   'P 1'
_cell_length_a   4.28214624
_cell_length_b   8.17481742
_cell_length_c   8.20687197
_cell_angle_alpha   70.75905261
_cell_angle_beta   74.87726157
_cell_angle_gamma   74.81653356
_symmetry_Int_Tables_number   1
_chemical_formula_structural   Dy3Zn(Ga4Pd)2
_chemical_formula_sum   'Dy3 Zn1 Ga8 Pd2'
_cell_volume   256.92230137
_cell_formula_units_Z   1
loop_
 _symmetry_equiv_pos_site_id
 _symmetry_equiv_pos_as_xyz
  1  'x, y, z'
loop_
 _atom_site_type_symbol
 _atom_site_label
 _atom_site_symmetry_multiplicity
 _atom_site_fract_x
 _atom_site_fract_y
 _atom_site_fract_z
 _atom_site_occupancy
  Dy  Dy0  1  0.499056  0.500307  0.501580  1
  Dy  Dy1  1  0.200136  0.797852  0.801877  1
  Dy  Dy2  1  0.801380  0.201003  0.196238  1
  Zn  Zn3  1  0.360494  0.360851  0.918161  1
  Ga  Ga4  1  0.638167  0.644413  0.079253  1
  Ga  Ga5  1  0.361011  0.921032  0.356945  1
  Ga  Ga6  1  0.638150  0.079518  0.644182  1
  Ga  Ga7  1  0.158270  0.475668  0.207791  1
  Ga  Ga8  1  0.845692  0.517502  0.791115  1
  Ga  Ga9  1  0.155552  0.211612  0.477284  1
  Ga  Ga10  1  0.844244  0.787115  0.524398  1
  Ga  Ga11  1  0.496339  0.006773  0.000550  1
  Pd  Pd12  1  0.999807  0.815309  0.185078  1
  Pd  Pd13  1  0.001703  0.181045  0.815549  1
