# generated using pymatgen
data_Rb4Ba(NbS4)2
_symmetry_space_group_name_H-M   'P 1'
_cell_length_a   9.57667537
_cell_length_b   10.42989835
_cell_length_c   12.05424921
_cell_angle_alpha   115.63416128
_cell_angle_beta   113.40526996
_cell_angle_gamma   90.00000158
_symmetry_Int_Tables_number   1
_chemical_formula_structural   Rb4Ba(NbS4)2
_chemical_formula_sum   'Rb8 Ba2 Nb4 S16'
_cell_volume   974.47360843
_cell_formula_units_Z   2
loop_
 _symmetry_equiv_pos_site_id
 _symmetry_equiv_pos_as_xyz
  1  'x, y, z'
loop_
 _atom_site_type_symbol
 _atom_site_label
 _atom_site_symmetry_multiplicity
 _atom_site_fract_x
 _atom_site_fract_y
 _atom_site_fract_z
 _atom_site_occupancy
  Rb  Rb0  1  0.704199  0.076612  0.153222  1
  Rb  Rb1  1  0.449024  0.576612  0.153222  1
  Rb  Rb2  1  0.250782  0.500782  0.501563  1
  Rb  Rb3  1  0.250782  0.000781  0.501563  1
  Rb  Rb4  1  0.749218  0.999219  0.498437  1
  Rb  Rb5  1  0.749218  0.499218  0.498437  1
  Rb  Rb6  1  0.550977  0.423388  0.846778  1
  Rb  Rb7  1  0.295801  0.923388  0.846778  1
  Ba  Ba8  1  0.000000  0.250000  0.000000  1
  Ba  Ba9  1  0.000000  0.750000  0.000000  1
  Nb  Nb10  1  0.337668  0.132145  0.264290  1
  Nb  Nb11  1  0.926622  0.632145  0.264290  1
  Nb  Nb12  1  0.073378  0.367855  0.735711  1
  Nb  Nb13  1  0.662332  0.867855  0.735711  1
  S  S14  1  0.389399  0.265274  0.171229  1
  S  S15  1  0.781828  0.405955  0.171229  1
  S  S16  1  0.781828  0.765275  0.171229  1
  S  S17  1  0.389399  0.905955  0.171229  1
  S  S18  1  0.074953  0.101557  0.203115  1
  S  S19  1  0.128162  0.601557  0.203115  1
  S  S20  1  0.479921  0.248706  0.497412  1
  S  S21  1  0.017492  0.748706  0.497412  1
  S  S22  1  0.982508  0.251294  0.502589  1
  S  S23  1  0.520081  0.751294  0.502589  1
  S  S24  1  0.871838  0.398443  0.796885  1
  S  S25  1  0.925047  0.898443  0.796885  1
  S  S26  1  0.610599  0.094045  0.828770  1
  S  S27  1  0.218171  0.234726  0.828770  1
  S  S28  1  0.218171  0.594045  0.828770  1
  S  S29  1  0.610599  0.734726  0.828770  1
