# generated using pymatgen
data_Y12Tm8Si15Au
_symmetry_space_group_name_H-M   'P 1'
_cell_length_a   7.42432256
_cell_length_b   7.66295712
_cell_length_c   14.57426300
_cell_angle_alpha   90.17354098
_cell_angle_beta   90.60621353
_cell_angle_gamma   90.11511983
_symmetry_Int_Tables_number   1
_chemical_formula_structural   Y12Tm8Si15Au
_chemical_formula_sum   'Y12 Tm8 Si15 Au1'
_cell_volume   829.11089730
_cell_formula_units_Z   1
loop_
 _symmetry_equiv_pos_site_id
 _symmetry_equiv_pos_as_xyz
  1  'x, y, z'
loop_
 _atom_site_type_symbol
 _atom_site_label
 _atom_site_symmetry_multiplicity
 _atom_site_fract_x
 _atom_site_fract_y
 _atom_site_fract_z
 _atom_site_occupancy
  Y  Y0  1  0.523086  0.674982  0.601184  1
  Y  Y1  1  0.027425  0.817503  0.901339  1
  Y  Y2  1  0.471249  0.320314  0.098080  1
  Y  Y3  1  0.978940  0.182149  0.399687  1
  Y  Y4  1  0.474227  0.325653  0.400588  1
  Y  Y5  1  0.971693  0.182024  0.098057  1
  Y  Y6  1  0.529103  0.680952  0.900148  1
  Y  Y7  1  0.023333  0.819042  0.600690  1
  Y  Y8  1  0.850425  0.505908  0.749943  1
  Y  Y9  1  0.349076  0.990628  0.748102  1
  Y  Y10  1  0.151775  0.491121  0.249984  1
  Y  Y11  1  0.652123  0.009602  0.250726  1
  Tm  Tm12  1  0.679630  0.173457  0.623982  1
  Tm  Tm13  1  0.181611  0.322590  0.877290  1
  Tm  Tm14  1  0.318587  0.820722  0.121578  1
  Tm  Tm15  1  0.825551  0.678271  0.377044  1
  Tm  Tm16  1  0.320640  0.826098  0.377289  1
  Tm  Tm17  1  0.817859  0.678165  0.122087  1
  Tm  Tm18  1  0.680230  0.178083  0.877329  1
  Tm  Tm19  1  0.175794  0.321410  0.623744  1
  Si  Si20  1  0.145724  0.529795  0.040239  1
  Si  Si21  1  0.352483  0.031041  0.960085  1
  Si  Si22  1  0.847244  0.468269  0.540678  1
  Si  Si23  1  0.341322  0.031330  0.541437  1
  Si  Si24  1  0.853224  0.469408  0.959416  1
  Si  Si25  1  0.645223  0.969174  0.039010  1
  Si  Si26  1  0.150953  0.533108  0.461490  1
  Si  Si27  1  0.475943  0.389577  0.751106  1
  Si  Si28  1  0.975915  0.108358  0.752759  1
  Si  Si29  1  0.525137  0.613224  0.248010  1
  Si  Si30  1  0.026109  0.890866  0.247107  1
  Si  Si31  1  0.732828  0.871507  0.752382  1
  Si  Si32  1  0.231487  0.625065  0.751514  1
  Si  Si33  1  0.270098  0.125746  0.246777  1
  Si  Si34  1  0.767231  0.376786  0.248509  1
  Au  Au35  1  0.656728  0.968073  0.460610  1
