# generated using pymatgen
data_Y4Si10Pt5Rh
_symmetry_space_group_name_H-M   'P 1'
_cell_length_a   8.16832307
_cell_length_b   8.16832291
_cell_length_c   5.99328547
_cell_angle_alpha   68.50883552
_cell_angle_beta   68.50883698
_cell_angle_gamma   88.83110565
_symmetry_Int_Tables_number   1
_chemical_formula_structural   Y4Si10Pt5Rh
_chemical_formula_sum   'Y4 Si10 Pt5 Rh1'
_cell_volume   343.20504573
_cell_formula_units_Z   1
loop_
 _symmetry_equiv_pos_site_id
 _symmetry_equiv_pos_as_xyz
  1  'x, y, z'
loop_
 _atom_site_type_symbol
 _atom_site_label
 _atom_site_symmetry_multiplicity
 _atom_site_fract_x
 _atom_site_fract_y
 _atom_site_fract_z
 _atom_site_occupancy
  Y  Y0  1  0.859844  0.599085  0.771462  1
  Y  Y1  1  0.140210  0.400963  0.228729  1
  Y  Y2  1  0.400915  0.140156  0.728538  1
  Y  Y3  1  0.599037  0.859790  0.271271  1
  Si  Si4  1  0.774640  0.225360  0.750000  1
  Si  Si5  1  0.227988  0.772012  0.250000  1
  Si  Si6  1  0.500231  0.499769  0.750000  1
  Si  Si7  1  0.499859  0.500141  0.250000  1
  Si  Si8  1  0.224347  0.775653  0.750000  1
  Si  Si9  1  0.772940  0.227060  0.250000  1
  Si  Si10  1  0.259579  0.042058  0.354045  1
  Si  Si11  1  0.740430  0.958066  0.655177  1
  Si  Si12  1  0.957942  0.740421  0.145955  1
  Si  Si13  1  0.041934  0.259570  0.844823  1
  Pt  Pt14  1  0.523734  0.248589  0.112373  1
  Pt  Pt15  1  0.751411  0.476266  0.387627  1
  Pt  Pt16  1  0.476225  0.751368  0.885223  1
  Pt  Pt17  1  0.248632  0.523775  0.614777  1
  Pt  Pt18  1  0.000189  0.999811  0.250000  1
  Rh  Rh19  1  0.999912  0.000088  0.750000  1
