# generated using pymatgen
data_Be10PdRh
_symmetry_space_group_name_H-M   'P 1'
_cell_length_a   4.22079700
_cell_length_b   4.22079688
_cell_length_c   6.89799700
_cell_angle_alpha   90.00000000
_cell_angle_beta   90.00000000
_cell_angle_gamma   120.00000877
_symmetry_Int_Tables_number   1
_chemical_formula_structural   Be10PdRh
_chemical_formula_sum   'Be10 Pd1 Rh1'
_cell_volume   106.42471910
_cell_formula_units_Z   1
loop_
 _symmetry_equiv_pos_site_id
 _symmetry_equiv_pos_as_xyz
  1  'x, y, z'
loop_
 _atom_site_type_symbol
 _atom_site_label
 _atom_site_symmetry_multiplicity
 _atom_site_fract_x
 _atom_site_fract_y
 _atom_site_fract_z
 _atom_site_occupancy
  Be  Be0  1  0.336583  0.168293  0.048628  1
  Be  Be1  1  0.831709  0.168293  0.048628  1
  Be  Be2  1  0.831708  0.663417  0.048628  1
  Be  Be3  1  0.000000  0.000000  0.298157  1
  Be  Be4  1  0.666667  0.333333  0.371836  1
  Be  Be5  1  0.167329  0.334656  0.554181  1
  Be  Be6  1  0.167328  0.832673  0.554181  1
  Be  Be7  1  0.665346  0.832673  0.554181  1
  Be  Be8  1  0.000000  0.000000  0.798828  1
  Be  Be9  1  0.333333  0.666666  0.857841  1
  Pd  Pd10  1  0.333333  0.666666  0.246158  1
  Rh  Rh11  1  0.666667  0.333333  0.746888  1
