# generated using pymatgen
data_Ti4Tc2OsRh
_symmetry_space_group_name_H-M   'P 1'
_cell_length_a   6.18881700
_cell_length_b   4.39253500
_cell_length_c   8.78884300
_cell_angle_alpha   90.00000000
_cell_angle_beta   89.99885232
_cell_angle_gamma   90.00000000
_symmetry_Int_Tables_number   1
_chemical_formula_structural   Ti4Tc2OsRh
_chemical_formula_sum   'Ti8 Tc4 Os2 Rh2'
_cell_volume   238.92113992
_cell_formula_units_Z   2
loop_
 _symmetry_equiv_pos_site_id
 _symmetry_equiv_pos_as_xyz
  1  'x, y, z'
loop_
 _atom_site_type_symbol
 _atom_site_label
 _atom_site_symmetry_multiplicity
 _atom_site_fract_x
 _atom_site_fract_y
 _atom_site_fract_z
 _atom_site_occupancy
  Ti  Ti0  1  0.001771  0.750000  0.126822  1
  Ti  Ti1  1  0.498312  0.750000  0.126827  1
  Ti  Ti2  1  0.998302  0.249999  0.373171  1
  Ti  Ti3  1  0.501765  0.249999  0.373181  1
  Ti  Ti4  1  0.501538  0.750000  0.622941  1
  Ti  Ti5  1  0.998398  0.750000  0.622946  1
  Ti  Ti6  1  0.498382  0.249999  0.877050  1
  Ti  Ti7  1  0.001536  0.249999  0.877057  1
  Tc  Tc8  1  0.750024  0.249999  0.123940  1
  Tc  Tc9  1  0.250024  0.750000  0.376055  1
  Tc  Tc10  1  0.749974  0.249999  0.626274  1
  Tc  Tc11  1  0.249973  0.750000  0.873726  1
  Os  Os12  1  0.250034  0.249999  0.124548  1
  Os  Os13  1  0.750023  0.750000  0.375451  1
  Rh  Rh14  1  0.249969  0.249999  0.625415  1
  Rh  Rh15  1  0.749972  0.750000  0.874595  1
