# generated using pymatgen
data_Sm4B4Br5
_symmetry_space_group_name_H-M   'P 1'
_cell_length_a   9.17832292
_cell_length_b   9.17832354
_cell_length_c   18.98501543
_cell_angle_alpha   75.49832090
_cell_angle_beta   75.49831907
_cell_angle_gamma   26.85900833
_symmetry_Int_Tables_number   1
_chemical_formula_structural   Sm4B4Br5
_chemical_formula_sum   'Sm8 B8 Br10'
_cell_volume   698.21477827
_cell_formula_units_Z   2
loop_
 _symmetry_equiv_pos_site_id
 _symmetry_equiv_pos_as_xyz
  1  'x, y, z'
loop_
 _atom_site_type_symbol
 _atom_site_label
 _atom_site_symmetry_multiplicity
 _atom_site_fract_x
 _atom_site_fract_y
 _atom_site_fract_z
 _atom_site_occupancy
  Sm  Sm0  1  0.607349  0.607349  0.723217  1
  Sm  Sm1  1  0.392651  0.392651  0.276783  1
  Sm  Sm2  1  0.973887  0.973887  0.628338  1
  Sm  Sm3  1  0.026113  0.026113  0.371662  1
  Sm  Sm4  1  0.330518  0.330518  0.791354  1
  Sm  Sm5  1  0.669482  0.669482  0.208646  1
  Sm  Sm6  1  0.966070  0.966070  0.886433  1
  Sm  Sm7  1  0.033930  0.033930  0.113567  1
  B  B8  1  0.154589  0.783513  0.757600  1
  B  B9  1  0.216487  0.845411  0.242400  1
  B  B10  1  0.845411  0.216487  0.242400  1
  B  B11  1  0.783513  0.154589  0.757600  1
  B  B12  1  0.468453  0.468453  0.808847  1
  B  B13  1  0.531547  0.531547  0.191153  1
  B  B14  1  0.468457  0.468457  0.706656  1
  B  B15  1  0.531543  0.531543  0.293344  1
  Br  Br16  1  0.144695  0.144695  0.605323  1
  Br  Br17  1  0.855305  0.855305  0.394677  1
  Br  Br18  1  0.143830  0.143830  0.826533  1
  Br  Br19  1  0.856170  0.856170  0.173467  1
  Br  Br20  1  0.794462  0.794462  0.909734  1
  Br  Br21  1  0.205538  0.205538  0.090266  1
  Br  Br22  1  0.795039  0.795039  0.686599  1
  Br  Br23  1  0.204961  0.204961  0.313401  1
  Br  Br24  1  0.500000  0.500000  0.500000  1
  Br  Br25  1  0.500000  0.500000  0.000000  1
