# generated using pymatgen
data_LiLu4B12Rh
_symmetry_space_group_name_H-M   'P 1'
_cell_length_a   3.59874300
_cell_length_b   9.04250879
_cell_length_c   11.37139258
_cell_angle_alpha   89.91828305
_cell_angle_beta   90.00000000
_cell_angle_gamma   90.00000000
_symmetry_Int_Tables_number   1
_chemical_formula_structural   LiLu4B12Rh
_chemical_formula_sum   'Li2 Lu8 B24 Rh2'
_cell_volume   370.04367386
_cell_formula_units_Z   2
loop_
 _symmetry_equiv_pos_site_id
 _symmetry_equiv_pos_as_xyz
  1  'x, y, z'
loop_
 _atom_site_type_symbol
 _atom_site_label
 _atom_site_symmetry_multiplicity
 _atom_site_fract_x
 _atom_site_fract_y
 _atom_site_fract_z
 _atom_site_occupancy
  Li  Li0  1  0.500000  0.138174  0.178558  1
  Li  Li1  1  0.500000  0.861826  0.821442  1
  Lu  Lu2  1  0.500000  0.320537  0.413191  1
  Lu  Lu3  1  0.500000  0.679463  0.586809  1
  Lu  Lu4  1  0.500000  0.173468  0.915996  1
  Lu  Lu5  1  0.500000  0.826532  0.084004  1
  Lu  Lu6  1  0.500000  0.439114  0.128393  1
  Lu  Lu7  1  0.500000  0.560886  0.871607  1
  Lu  Lu8  1  0.500000  0.053929  0.630886  1
  Lu  Lu9  1  0.500000  0.946071  0.369114  1
  B  B10  1  0.000000  0.105831  0.470913  1
  B  B11  1  0.000000  0.894169  0.529087  1
  B  B12  1  0.000000  0.394307  0.971220  1
  B  B13  1  0.000000  0.605693  0.028780  1
  B  B14  1  0.000000  0.133198  0.317104  1
  B  B15  1  0.000000  0.866802  0.682896  1
  B  B16  1  0.000000  0.368719  0.816248  1
  B  B17  1  0.000000  0.631281  0.183752  1
  B  B18  1  0.000000  0.051345  0.064637  1
  B  B19  1  0.000000  0.948655  0.935363  1
  B  B20  1  0.000000  0.446629  0.566177  1
  B  B21  1  0.000000  0.553371  0.433823  1
  B  B22  1  0.000000  0.479102  0.288053  1
  B  B23  1  0.000000  0.520898  0.711947  1
  B  B24  1  0.000000  0.018245  0.789181  1
  B  B25  1  0.000000  0.981755  0.210819  1
  B  B26  1  0.000000  0.248325  0.079486  1
  B  B27  1  0.000000  0.751675  0.920514  1
  B  B28  1  0.000000  0.248693  0.580619  1
  B  B29  1  0.000000  0.751307  0.419381  1
  B  B30  1  0.000000  0.293547  0.237094  1
  B  B31  1  0.000000  0.706453  0.762906  1
  B  B32  1  0.000000  0.204582  0.737594  1
  B  B33  1  0.000000  0.795418  0.262406  1
  Rh  Rh34  1  0.500000  0.361235  0.678066  1
  Rh  Rh35  1  0.500000  0.638765  0.321934  1
