# generated using pymatgen
data_Ta4Be5Al3
_symmetry_space_group_name_H-M   'P 1'
_cell_length_a   4.80870236
_cell_length_b   4.80870243
_cell_length_c   7.87446500
_cell_angle_alpha   90.00000000
_cell_angle_beta   90.00000000
_cell_angle_gamma   120.19850204
_symmetry_Int_Tables_number   1
_chemical_formula_structural   Ta4Be5Al3
_chemical_formula_sum   'Ta4 Be5 Al3'
_cell_volume   157.37484550
_cell_formula_units_Z   1
loop_
 _symmetry_equiv_pos_site_id
 _symmetry_equiv_pos_as_xyz
  1  'x, y, z'
loop_
 _atom_site_type_symbol
 _atom_site_label
 _atom_site_symmetry_multiplicity
 _atom_site_fract_x
 _atom_site_fract_y
 _atom_site_fract_z
 _atom_site_occupancy
  Ta  Ta0  1  0.334075  0.665925  0.438539  1
  Ta  Ta1  1  0.667720  0.332280  0.569423  1
  Ta  Ta2  1  0.667720  0.332280  0.930577  1
  Ta  Ta3  1  0.334075  0.665925  0.061461  1
  Be  Be4  1  0.820811  0.660353  0.250000  1
  Be  Be5  1  0.339647  0.179189  0.250000  1
  Be  Be6  1  0.183738  0.816262  0.750000  1
  Be  Be7  1  0.182073  0.361927  0.750000  1
  Be  Be8  1  0.638073  0.817927  0.750000  1
  Al  Al9  1  0.005432  0.994568  0.512323  1
  Al  Al10  1  0.005432  0.994568  0.987677  1
  Al  Al11  1  0.821203  0.178797  0.250000  1
