# generated using pymatgen
data_Li2La2Si2Ge
_symmetry_space_group_name_H-M   'P 1'
_cell_length_a   9.70044593
_cell_length_b   9.70044466
_cell_length_c   6.90335600
_cell_angle_alpha   90.00000000
_cell_angle_beta   90.00000000
_cell_angle_gamma   152.96115657
_symmetry_Int_Tables_number   1
_chemical_formula_structural   Li2La2Si2Ge
_chemical_formula_sum   'Li4 La4 Si4 Ge2'
_cell_volume   295.30291947
_cell_formula_units_Z   2
loop_
 _symmetry_equiv_pos_site_id
 _symmetry_equiv_pos_as_xyz
  1  'x, y, z'
loop_
 _atom_site_type_symbol
 _atom_site_label
 _atom_site_symmetry_multiplicity
 _atom_site_fract_x
 _atom_site_fract_y
 _atom_site_fract_z
 _atom_site_occupancy
  Li  Li0  1  0.812991  0.187009  0.439797  1
  Li  Li1  1  0.187009  0.812991  0.560203  1
  Li  Li2  1  0.812991  0.187009  0.060203  1
  Li  Li3  1  0.187009  0.812991  0.939797  1
  La  La4  1  0.551510  0.448490  0.750000  1
  La  La5  1  0.448490  0.551510  0.250000  1
  La  La6  1  0.341786  0.658214  0.750000  1
  La  La7  1  0.658214  0.341786  0.250000  1
  Si  Si8  1  0.943172  0.056828  0.923406  1
  Si  Si9  1  0.056828  0.943172  0.076594  1
  Si  Si10  1  0.943172  0.056828  0.576594  1
  Si  Si11  1  0.056828  0.943172  0.423406  1
  Ge  Ge12  1  0.719743  0.280257  0.750000  1
  Ge  Ge13  1  0.280257  0.719743  0.250000  1
