# generated using pymatgen
data_SmHfP7Ru12
_symmetry_space_group_name_H-M   'P 1'
_cell_length_a   9.41370700
_cell_length_b   9.41370676
_cell_length_c   3.92714800
_cell_angle_alpha   90.00000000
_cell_angle_beta   90.00000000
_cell_angle_gamma   119.99999637
_symmetry_Int_Tables_number   1
_chemical_formula_structural   SmHfP7Ru12
_chemical_formula_sum   'Sm1 Hf1 P7 Ru12'
_cell_volume   301.39029179
_cell_formula_units_Z   1
loop_
 _symmetry_equiv_pos_site_id
 _symmetry_equiv_pos_as_xyz
  1  'x, y, z'
loop_
 _atom_site_type_symbol
 _atom_site_label
 _atom_site_symmetry_multiplicity
 _atom_site_fract_x
 _atom_site_fract_y
 _atom_site_fract_z
 _atom_site_occupancy
  Sm  Sm0  1  0.333333  0.666667  0.000000  1
  Hf  Hf1  1  0.666667  0.333333  0.500000  1
  P  P2  1  0.601678  0.719158  0.500000  1
  P  P3  1  0.000000  0.000000  0.000000  1
  P  P4  1  0.280842  0.882521  0.500000  1
  P  P5  1  0.117479  0.398322  0.500000  1
  P  P6  1  0.885279  0.572121  0.000000  1
  P  P7  1  0.427879  0.313157  0.000000  1
  P  P8  1  0.686843  0.114721  0.000000  1
  Ru  Ru9  1  0.559289  0.957021  0.500000  1
  Ru  Ru10  1  0.397733  0.440711  0.500000  1
  Ru  Ru11  1  0.913431  0.121268  0.500000  1
  Ru  Ru12  1  0.207838  0.086569  0.500000  1
  Ru  Ru13  1  0.878732  0.792162  0.500000  1
  Ru  Ru14  1  0.726560  0.889852  0.000000  1
  Ru  Ru15  1  0.110148  0.836705  0.000000  1
  Ru  Ru16  1  0.163295  0.273440  0.000000  1
  Ru  Ru17  1  0.428028  0.075166  0.000000  1
  Ru  Ru18  1  0.924834  0.352864  0.000000  1
  Ru  Ru19  1  0.647136  0.571972  0.000000  1
  Ru  Ru20  1  0.042979  0.602267  0.500000  1
