# generated using pymatgen
data_DyHo(NiC)2
_symmetry_space_group_name_H-M   'P 1'
_cell_length_a   3.62303500
_cell_length_b   3.62303500
_cell_length_c   6.86859800
_cell_angle_alpha   90.00000000
_cell_angle_beta   90.00000000
_cell_angle_gamma   90.00000000
_symmetry_Int_Tables_number   1
_chemical_formula_structural   DyHo(NiC)2
_chemical_formula_sum   'Dy1 Ho1 Ni2 C2'
_cell_volume   90.15984535
_cell_formula_units_Z   1
loop_
 _symmetry_equiv_pos_site_id
 _symmetry_equiv_pos_as_xyz
  1  'x, y, z'
loop_
 _atom_site_type_symbol
 _atom_site_label
 _atom_site_symmetry_multiplicity
 _atom_site_fract_x
 _atom_site_fract_y
 _atom_site_fract_z
 _atom_site_occupancy
  Dy  Dy0  1  0.000000  0.000000  0.750000  1
  Ho  Ho1  1  0.000000  0.000000  0.250000  1
  Ni  Ni2  1  0.500000  0.500000  0.001941  1
  Ni  Ni3  1  0.500000  0.500000  0.498059  1
  C  C4  1  0.500000  0.000000  0.499225  1
  C  C5  1  0.000000  0.500000  0.000775  1
