# generated using pymatgen
data_Sr8Al7Ga3
_symmetry_space_group_name_H-M   'P 1'
_cell_length_a   5.84121600
_cell_length_b   5.84132523
_cell_length_c   17.35994200
_cell_angle_alpha   90.00062257
_cell_angle_beta   90.00000000
_cell_angle_gamma   119.99939273
_symmetry_Int_Tables_number   1
_chemical_formula_structural   Sr8Al7Ga3
_chemical_formula_sum   'Sr8 Al7 Ga3'
_cell_volume   512.97501498
_cell_formula_units_Z   1
loop_
 _symmetry_equiv_pos_site_id
 _symmetry_equiv_pos_as_xyz
  1  'x, y, z'
loop_
 _atom_site_type_symbol
 _atom_site_label
 _atom_site_symmetry_multiplicity
 _atom_site_fract_x
 _atom_site_fract_y
 _atom_site_fract_z
 _atom_site_occupancy
  Sr  Sr0  1  0.333335  0.666668  0.066832  1
  Sr  Sr1  1  0.000004  0.000009  0.143545  1
  Sr  Sr2  1  0.000005  0.000010  0.356256  1
  Sr  Sr3  1  0.333338  0.666673  0.434384  1
  Sr  Sr4  1  0.666663  0.333326  0.565651  1
  Sr  Sr5  1  0.999995  0.999990  0.643742  1
  Sr  Sr6  1  0.999994  0.999988  0.856149  1
  Sr  Sr7  1  0.666663  0.333325  0.935057  1
  Al  Al8  1  0.005442  0.502730  0.250034  1
  Al  Al9  1  0.497287  0.502730  0.250034  1
  Al  Al10  1  0.497284  0.994570  0.250033  1
  Al  Al11  1  0.503031  0.006060  0.749605  1
  Al  Al12  1  0.503023  0.496955  0.749605  1
  Al  Al13  1  0.993933  0.496955  0.749605  1
  Al  Al14  1  0.333331  0.666663  0.873052  1
  Ga  Ga15  1  0.666675  0.333349  0.126536  1
  Ga  Ga16  1  0.666671  0.333341  0.373917  1
  Ga  Ga17  1  0.333329  0.666659  0.625963  1
