# generated using pymatgen
data_Ta8CoSiGe2
_symmetry_space_group_name_H-M   'P 1'
_cell_length_a   6.26370100
_cell_length_b   6.26370100
_cell_length_c   5.07271400
_cell_angle_alpha   90.00000000
_cell_angle_beta   90.00000000
_cell_angle_gamma   90.00000000
_symmetry_Int_Tables_number   1
_chemical_formula_structural   Ta8CoSiGe2
_chemical_formula_sum   'Ta8 Co1 Si1 Ge2'
_cell_volume   199.02260854
_cell_formula_units_Z   1
loop_
 _symmetry_equiv_pos_site_id
 _symmetry_equiv_pos_as_xyz
  1  'x, y, z'
loop_
 _atom_site_type_symbol
 _atom_site_label
 _atom_site_symmetry_multiplicity
 _atom_site_fract_x
 _atom_site_fract_y
 _atom_site_fract_z
 _atom_site_occupancy
  Ta  Ta0  1  0.668545  0.149211  0.996515  1
  Ta  Ta1  1  0.149211  0.331456  0.996515  1
  Ta  Ta2  1  0.850790  0.668545  0.996515  1
  Ta  Ta3  1  0.331456  0.850790  0.996515  1
  Ta  Ta4  1  0.331456  0.149211  0.503486  1
  Ta  Ta5  1  0.850790  0.331456  0.503486  1
  Ta  Ta6  1  0.149211  0.668545  0.503486  1
  Ta  Ta7  1  0.668545  0.850790  0.503486  1
  Co  Co8  1  0.000000  0.000000  0.750000  1
  Si  Si9  1  0.000000  0.000000  0.249999  1
  Ge  Ge10  1  0.500000  0.500000  0.249999  1
  Ge  Ge11  1  0.500000  0.500000  0.750000  1
