# generated using pymatgen
data_Dy4Y2Al24Co5Ru3
_symmetry_space_group_name_H-M   'P 1'
_cell_length_a   8.70142800
_cell_length_b   8.70152997
_cell_length_c   9.41009000
_cell_angle_alpha   90.00000125
_cell_angle_beta   89.99980381
_cell_angle_gamma   120.00038860
_symmetry_Int_Tables_number   1
_chemical_formula_structural   Dy4Y2Al24Co5Ru3
_chemical_formula_sum   'Dy4 Y2 Al24 Co5 Ru3'
_cell_volume   617.03366515
_cell_formula_units_Z   1
loop_
 _symmetry_equiv_pos_site_id
 _symmetry_equiv_pos_as_xyz
  1  'x, y, z'
loop_
 _atom_site_type_symbol
 _atom_site_label
 _atom_site_symmetry_multiplicity
 _atom_site_fract_x
 _atom_site_fract_y
 _atom_site_fract_z
 _atom_site_occupancy
  Dy  Dy0  1  0.611402  0.805701  0.252362  1
  Dy  Dy1  1  0.805695  0.194304  0.747637  1
  Dy  Dy2  1  0.805695  0.611389  0.747637  1
  Dy  Dy3  1  0.388610  0.194305  0.747637  1
  Y  Y4  1  0.194304  0.805701  0.252365  1
  Y  Y5  1  0.194304  0.388605  0.252365  1
  Al  Al6  1  0.560560  0.439446  0.256319  1
  Al  Al7  1  0.560560  0.121114  0.256319  1
  Al  Al8  1  0.878884  0.439442  0.256315  1
  Al  Al9  1  0.439444  0.560556  0.743681  1
  Al  Al10  1  0.439444  0.878888  0.743681  1
  Al  Al11  1  0.121113  0.560556  0.743683  1
  Al  Al12  1  0.324681  0.162340  0.425262  1
  Al  Al13  1  0.837658  0.162335  0.425258  1
  Al  Al14  1  0.837658  0.675322  0.425258  1
  Al  Al15  1  0.675323  0.837662  0.574744  1
  Al  Al16  1  0.162337  0.837663  0.574749  1
  Al  Al17  1  0.162337  0.324675  0.574749  1
  Al  Al18  1  0.679518  0.839759  0.922457  1
  Al  Al19  1  0.160240  0.839757  0.922454  1
  Al  Al20  1  0.160240  0.320484  0.922454  1
  Al  Al21  1  0.320485  0.160243  0.077537  1
  Al  Al22  1  0.839756  0.160242  0.077540  1
  Al  Al23  1  0.839756  0.679515  0.077540  1
  Al  Al24  1  0.666666  0.333332  0.518426  1
  Al  Al25  1  0.333338  0.666670  0.481580  1
  Al  Al26  1  0.333333  0.666667  0.016995  1
  Al  Al27  1  0.666670  0.333335  0.982999  1
  Al  Al28  1  0.999983  0.999991  0.249949  1
  Al  Al29  1  0.999999  0.000000  0.750051  1
  Co  Co30  1  0.000001  0.000000  0.499998  1
  Co  Co31  1  0.000002  0.000001  0.000003  1
  Co  Co32  1  0.500003  0.500000  0.500003  1
  Co  Co33  1  0.500003  0.000003  0.500003  1
  Co  Co34  1  0.999995  0.499997  0.500005  1
  Ru  Ru35  1  0.500004  0.500000  0.999996  1
  Ru  Ru36  1  0.500004  0.000004  0.999996  1
  Ru  Ru37  1  0.999994  0.499997  0.999992  1
