# generated using pymatgen
data_LaSm3(Ga5Pt3)2
_symmetry_space_group_name_H-M   'P 1'
_cell_length_a   8.66279037
_cell_length_b   8.65793230
_cell_length_c   8.65793191
_cell_angle_alpha   139.59288509
_cell_angle_beta   106.53420707
_cell_angle_gamma   87.35317485
_symmetry_Int_Tables_number   1
_chemical_formula_structural   LaSm3(Ga5Pt3)2
_chemical_formula_sum   'La1 Sm3 Ga10 Pt6'
_cell_volume   388.02973427
_cell_formula_units_Z   1
loop_
 _symmetry_equiv_pos_site_id
 _symmetry_equiv_pos_as_xyz
  1  'x, y, z'
loop_
 _atom_site_type_symbol
 _atom_site_label
 _atom_site_symmetry_multiplicity
 _atom_site_fract_x
 _atom_site_fract_y
 _atom_site_fract_z
 _atom_site_occupancy
  La  La0  1  0.638509  0.366350  0.272159  1
  Sm  Sm1  1  0.361563  0.634143  0.727420  1
  Sm  Sm2  1  0.092553  0.865151  0.227402  1
  Sm  Sm3  1  0.906966  0.134524  0.772443  1
  Ga  Ga4  1  0.279174  0.531655  0.250022  1
  Ga  Ga5  1  0.718816  0.468276  0.750411  1
  Ga  Ga6  1  0.718816  0.968405  0.250540  1
  Ga  Ga7  1  0.279174  0.029152  0.747519  1
  Ga  Ga8  1  0.442789  0.101063  0.341726  1
  Ga  Ga9  1  0.554267  0.897857  0.656410  1
  Ga  Ga10  1  0.760655  0.603763  0.156893  1
  Ga  Ga11  1  0.240910  0.398226  0.842683  1
  Ga  Ga12  1  0.002519  0.250041  0.251389  1
  Ga  Ga13  1  0.002519  0.751131  0.752478  1
  Pt  Pt14  1  0.249732  0.141567  0.108166  1
  Pt  Pt15  1  0.751708  0.859155  0.892553  1
  Pt  Pt16  1  0.031948  0.640626  0.391322  1
  Pt  Pt17  1  0.967316  0.358276  0.609040  1
  Pt  Pt18  1  0.500032  0.250245  0.749635  1
  Pt  Pt19  1  0.500032  0.750397  0.249787  1
