# generated using pymatgen
data_Ho3ErTm6(In2Pt)4
_symmetry_space_group_name_H-M   'P 1'
_cell_length_a   3.61396000
_cell_length_b   8.08276380
_cell_length_c   18.11905624
_cell_angle_alpha   89.88351029
_cell_angle_beta   90.00000000
_cell_angle_gamma   90.00000000
_symmetry_Int_Tables_number   1
_chemical_formula_structural   Ho3ErTm6(In2Pt)4
_chemical_formula_sum   'Ho3 Er1 Tm6 In8 Pt4'
_cell_volume   529.27076363
_cell_formula_units_Z   1
loop_
 _symmetry_equiv_pos_site_id
 _symmetry_equiv_pos_as_xyz
  1  'x, y, z'
loop_
 _atom_site_type_symbol
 _atom_site_label
 _atom_site_symmetry_multiplicity
 _atom_site_fract_x
 _atom_site_fract_y
 _atom_site_fract_z
 _atom_site_occupancy
  Ho  Ho0  1  0.000000  0.257691  0.720596  1
  Ho  Ho1  1  0.000000  0.000018  0.000100  1
  Ho  Ho2  1  0.000000  0.499859  0.499980  1
  Er  Er3  1  0.000000  0.742552  0.279124  1
  Tm  Tm4  1  0.000000  0.115989  0.414422  1
  Tm  Tm5  1  0.000000  0.883641  0.585319  1
  Tm  Tm6  1  0.000000  0.384076  0.914635  1
  Tm  Tm7  1  0.000000  0.616050  0.085615  1
  Tm  Tm8  1  0.000000  0.242686  0.220966  1
  Tm  Tm9  1  0.000000  0.757458  0.779124  1
  In  In10  1  0.500000  0.421663  0.351341  1
  In  In11  1  0.500000  0.578685  0.648640  1
  In  In12  1  0.500000  0.077693  0.851442  1
  In  In13  1  0.500000  0.922245  0.148645  1
  In  In14  1  0.500000  0.292662  0.066948  1
  In  In15  1  0.500000  0.707590  0.933190  1
  In  In16  1  0.500000  0.207089  0.566531  1
  In  In17  1  0.500000  0.792376  0.433112  1
  Pt  Pt18  1  0.500000  0.025019  0.303930  1
  Pt  Pt19  1  0.500000  0.973901  0.695888  1
  Pt  Pt20  1  0.500000  0.477121  0.804477  1
  Pt  Pt21  1  0.500000  0.523939  0.195975  1
