# generated using pymatgen
data_Cs2MnSiO4
_symmetry_space_group_name_H-M   'P 1'
_cell_length_a   6.05235500
_cell_length_b   12.85296800
_cell_length_c   8.39272300
_cell_angle_alpha   90.00000000
_cell_angle_beta   90.00000000
_cell_angle_gamma   90.00000000
_symmetry_Int_Tables_number   1
_chemical_formula_structural   Cs2MnSiO4
_chemical_formula_sum   'Cs8 Mn4 Si4 O16'
_cell_volume   652.87600807
_cell_formula_units_Z   4
loop_
 _symmetry_equiv_pos_site_id
 _symmetry_equiv_pos_as_xyz
  1  'x, y, z'
loop_
 _atom_site_type_symbol
 _atom_site_label
 _atom_site_symmetry_multiplicity
 _atom_site_fract_x
 _atom_site_fract_y
 _atom_site_fract_z
 _atom_site_occupancy
  Cs  Cs0  1  0.500000  0.086999  0.543565  1
  Cs  Cs1  1  0.000000  0.586999  0.543565  1
  Cs  Cs2  1  0.000000  0.413001  0.043565  1
  Cs  Cs3  1  0.500000  0.913001  0.043565  1
  Cs  Cs4  1  0.500000  0.411326  0.406074  1
  Cs  Cs5  1  0.000000  0.911326  0.406074  1
  Cs  Cs6  1  0.000000  0.088674  0.906074  1
  Cs  Cs7  1  0.500000  0.588674  0.906074  1
  Mn  Mn8  1  0.500000  0.794339  0.626438  1
  Mn  Mn9  1  0.000000  0.705661  0.126438  1
  Mn  Mn10  1  0.000000  0.294339  0.626438  1
  Mn  Mn11  1  0.500000  0.205661  0.126438  1
  Si  Si12  1  0.500000  0.301473  0.838937  1
  Si  Si13  1  0.000000  0.801473  0.838937  1
  Si  Si14  1  0.000000  0.198527  0.338937  1
  Si  Si15  1  0.500000  0.698527  0.338937  1
  O  O16  1  0.500000  0.173556  0.877644  1
  O  O17  1  0.000000  0.673556  0.877644  1
  O  O18  1  0.000000  0.326444  0.377644  1
  O  O19  1  0.500000  0.826444  0.377644  1
  O  O20  1  0.000000  0.144522  0.520543  1
  O  O21  1  0.500000  0.644522  0.520543  1
  O  O22  1  0.500000  0.355478  0.020543  1
  O  O23  1  0.000000  0.855478  0.020543  1
  O  O24  1  0.221342  0.161518  0.239449  1
  O  O25  1  0.721342  0.661518  0.239449  1
  O  O26  1  0.278658  0.338482  0.739449  1
  O  O27  1  0.778658  0.838482  0.739449  1
  O  O28  1  0.778658  0.161518  0.239449  1
  O  O29  1  0.278658  0.661518  0.239449  1
  O  O30  1  0.721342  0.338482  0.739449  1
  O  O31  1  0.221342  0.838482  0.739449  1
