# generated using pymatgen
data_TbLu3(Sc4Bi3)4
_symmetry_space_group_name_H-M   'P 1'
_cell_length_a   7.86461294
_cell_length_b   9.05494800
_cell_length_c   11.52165337
_cell_angle_alpha   90.00000000
_cell_angle_beta   90.05594820
_cell_angle_gamma   90.00000000
_symmetry_Int_Tables_number   1
_chemical_formula_structural   TbLu3(Sc4Bi3)4
_chemical_formula_sum   'Tb1 Lu3 Sc16 Bi12'
_cell_volume   820.49872847
_cell_formula_units_Z   1
loop_
 _symmetry_equiv_pos_site_id
 _symmetry_equiv_pos_as_xyz
  1  'x, y, z'
loop_
 _atom_site_type_symbol
 _atom_site_label
 _atom_site_symmetry_multiplicity
 _atom_site_fract_x
 _atom_site_fract_y
 _atom_site_fract_z
 _atom_site_occupancy
  Tb  Tb0  1  0.183401  0.750000  0.718348  1
  Lu  Lu1  1  0.315486  0.250000  0.217265  1
  Lu  Lu2  1  0.815916  0.250000  0.282702  1
  Lu  Lu3  1  0.683957  0.750000  0.782645  1
  Sc  Sc4  1  0.349666  0.750000  0.220661  1
  Sc  Sc5  1  0.849180  0.750000  0.278701  1
  Sc  Sc6  1  0.650795  0.250000  0.780144  1
  Sc  Sc7  1  0.150913  0.250000  0.720316  1
  Sc  Sc8  1  0.692576  0.567520  0.062094  1
  Sc  Sc9  1  0.192021  0.932241  0.437491  1
  Sc  Sc10  1  0.307434  0.067772  0.938291  1
  Sc  Sc11  1  0.808420  0.432169  0.562113  1
  Sc  Sc12  1  0.307434  0.432228  0.938291  1
  Sc  Sc13  1  0.808420  0.067831  0.562113  1
  Sc  Sc14  1  0.692576  0.932480  0.062094  1
  Sc  Sc15  1  0.192021  0.567759  0.437491  1
  Sc  Sc16  1  0.482901  0.250000  0.487982  1
  Sc  Sc17  1  0.982051  0.250000  0.012017  1
  Sc  Sc18  1  0.518043  0.750000  0.510746  1
  Sc  Sc19  1  0.017086  0.750000  0.989233  1
  Bi  Bi20  1  0.402468  0.750000  0.966046  1
  Bi  Bi21  1  0.899815  0.750000  0.532919  1
  Bi  Bi22  1  0.598031  0.250000  0.035153  1
  Bi  Bi23  1  0.098940  0.250000  0.465165  1
  Bi  Bi24  1  0.564059  0.992258  0.326794  1
  Bi  Bi25  1  0.064467  0.508041  0.172750  1
  Bi  Bi26  1  0.437987  0.490650  0.672162  1
  Bi  Bi27  1  0.933711  0.009373  0.828283  1
  Bi  Bi28  1  0.437987  0.009350  0.672162  1
  Bi  Bi29  1  0.933711  0.490627  0.828283  1
  Bi  Bi30  1  0.564059  0.507742  0.326794  1
  Bi  Bi31  1  0.064467  0.991959  0.172750  1
