# generated using pymatgen
data_Dy5PuU4O20
_symmetry_space_group_name_H-M   'P 1'
_cell_length_a   6.64642013
_cell_length_b   7.49614523
_cell_length_c   8.40836100
_cell_angle_alpha   100.88013718
_cell_angle_beta   97.64963169
_cell_angle_gamma   107.25433693
_symmetry_Int_Tables_number   1
_chemical_formula_structural   Dy5PuU4O20
_chemical_formula_sum   'Dy5 Pu1 U4 O20'
_cell_volume   384.81173785
_cell_formula_units_Z   1
loop_
 _symmetry_equiv_pos_site_id
 _symmetry_equiv_pos_as_xyz
  1  'x, y, z'
loop_
 _atom_site_type_symbol
 _atom_site_label
 _atom_site_symmetry_multiplicity
 _atom_site_fract_x
 _atom_site_fract_y
 _atom_site_fract_z
 _atom_site_occupancy
  Dy  Dy0  1  0.609638  0.701486  0.700249  1
  Dy  Dy1  1  0.390362  0.298514  0.299751  1
  Dy  Dy2  1  0.199326  0.897374  0.895009  1
  Dy  Dy3  1  0.000000  0.500000  0.500000  1
  Dy  Dy4  1  0.800674  0.102626  0.104991  1
  Pu  Pu5  1  0.000000  0.000000  0.500000  1
  U  U6  1  0.400543  0.802635  0.300902  1
  U  U7  1  0.199227  0.400000  0.899681  1
  U  U8  1  0.800773  0.600000  0.100319  1
  U  U9  1  0.599457  0.197365  0.699098  1
  O  O10  1  0.442545  0.533512  0.139420  1
  O  O11  1  0.554227  0.986338  0.842105  1
  O  O12  1  0.262841  0.140289  0.743737  1
  O  O13  1  0.358370  0.592294  0.443169  1
  O  O14  1  0.053024  0.729855  0.336247  1
  O  O15  1  0.445773  0.013662  0.157895  1
  O  O16  1  0.151562  0.183506  0.034763  1
  O  O17  1  0.557455  0.466488  0.860580  1
  O  O18  1  0.854310  0.334943  0.949515  1
  O  O19  1  0.255896  0.608474  0.758263  1
  O  O20  1  0.953453  0.774348  0.650573  1
  O  O21  1  0.350992  0.063590  0.453204  1
  O  O22  1  0.649008  0.936410  0.546796  1
  O  O23  1  0.046547  0.225652  0.349427  1
  O  O24  1  0.744104  0.391526  0.241737  1
  O  O25  1  0.145690  0.665057  0.050485  1
  O  O26  1  0.848438  0.816494  0.965237  1
  O  O27  1  0.946976  0.270145  0.663753  1
  O  O28  1  0.641630  0.407706  0.556831  1
  O  O29  1  0.737159  0.859711  0.256263  1
