# generated using pymatgen
data_Tb2MgSi(PPd4)5
_symmetry_space_group_name_H-M   'P 1'
_cell_length_a   8.65876581
_cell_length_b   8.65629771
_cell_length_c   8.65628028
_cell_angle_alpha   60.01658154
_cell_angle_beta   59.99245315
_cell_angle_gamma   59.99265322
_symmetry_Int_Tables_number   1
_chemical_formula_structural   Tb2MgSi(PPd4)5
_chemical_formula_sum   'Tb2 Mg1 Si1 P5 Pd20'
_cell_volume   458.78581238
_cell_formula_units_Z   1
loop_
 _symmetry_equiv_pos_site_id
 _symmetry_equiv_pos_as_xyz
  1  'x, y, z'
loop_
 _atom_site_type_symbol
 _atom_site_label
 _atom_site_symmetry_multiplicity
 _atom_site_fract_x
 _atom_site_fract_y
 _atom_site_fract_z
 _atom_site_occupancy
  Tb  Tb0  1  0.250459  0.249546  0.249542  1
  Tb  Tb1  1  0.750454  0.749540  0.749545  1
  Mg  Mg2  1  0.998504  0.001500  0.001499  1
  Si  Si3  1  0.737295  0.262716  0.262717  1
  P  P4  1  0.261579  0.738416  0.738417  1
  P  P5  1  0.263384  0.736612  0.262043  1
  P  P6  1  0.737981  0.262045  0.736592  1
  P  P7  1  0.263391  0.262046  0.736608  1
  P  P8  1  0.737976  0.736589  0.262048  1
  Pd  Pd9  1  0.383606  0.385398  0.385397  1
  Pd  Pd10  1  0.614553  0.614997  0.614998  1
  Pd  Pd11  1  0.384987  0.385451  0.844566  1
  Pd  Pd12  1  0.384985  0.844571  0.385449  1
  Pd  Pd13  1  0.614613  0.616380  0.154391  1
  Pd  Pd14  1  0.614617  0.154387  0.616382  1
  Pd  Pd15  1  0.845614  0.385390  0.385389  1
  Pd  Pd16  1  0.155419  0.615002  0.615000  1
  Pd  Pd17  1  0.343498  0.000564  0.000568  1
  Pd  Pd18  1  0.655373  0.000569  0.000565  1
  Pd  Pd19  1  0.999430  0.344625  0.656515  1
  Pd  Pd20  1  0.999433  0.656514  0.344624  1
  Pd  Pd21  1  0.002005  0.345020  0.998002  1
  Pd  Pd22  1  0.654971  0.998015  0.345004  1
  Pd  Pd23  1  0.999768  0.655326  0.000224  1
  Pd  Pd24  1  0.344679  0.000224  0.655330  1
  Pd  Pd25  1  0.002005  0.998004  0.345021  1
  Pd  Pd26  1  0.999766  0.000225  0.655323  1
  Pd  Pd27  1  0.654971  0.345006  0.998015  1
  Pd  Pd28  1  0.344684  0.655324  0.000226  1
