# generated using pymatgen
data_Th4Al24IrPd8
_symmetry_space_group_name_H-M   'P 1'
_cell_length_a   7.63520183
_cell_length_b   7.64729085
_cell_length_c   13.28553654
_cell_angle_alpha   84.50482542
_cell_angle_beta   79.04473256
_cell_angle_gamma   59.91988474
_symmetry_Int_Tables_number   1
_chemical_formula_structural   Th4Al24IrPd8
_chemical_formula_sum   'Th4 Al24 Ir1 Pd8'
_cell_volume   659.02055223
_cell_formula_units_Z   1
loop_
 _symmetry_equiv_pos_site_id
 _symmetry_equiv_pos_as_xyz
  1  'x, y, z'
loop_
 _atom_site_type_symbol
 _atom_site_label
 _atom_site_symmetry_multiplicity
 _atom_site_fract_x
 _atom_site_fract_y
 _atom_site_fract_z
 _atom_site_occupancy
  Th  Th0  1  0.394847  0.167503  0.807485  1
  Th  Th1  1  0.605153  0.832497  0.192515  1
  Th  Th2  1  0.733905  0.497912  0.807257  1
  Th  Th3  1  0.266095  0.502088  0.192743  1
  Al  Al4  1  0.689200  0.830926  0.946771  1
  Al  Al5  1  0.310800  0.169074  0.053229  1
  Al  Al6  1  0.144888  0.834640  0.560703  1
  Al  Al7  1  0.855112  0.165360  0.439297  1
  Al  Al8  1  0.481403  0.166350  0.558314  1
  Al  Al9  1  0.518597  0.833650  0.441686  1
  Al  Al10  1  0.211562  0.165385  0.335179  1
  Al  Al11  1  0.788438  0.834615  0.664821  1
  Al  Al12  1  0.434179  0.510746  0.664845  1
  Al  Al13  1  0.565821  0.489254  0.335155  1
  Al  Al14  1  0.111622  0.155434  0.662996  1
  Al  Al15  1  0.888378  0.844566  0.337004  1
  Al  Al16  1  0.345847  0.502711  0.946975  1
  Al  Al17  1  0.654153  0.497289  0.053025  1
  Al  Al18  1  0.014076  0.167783  0.958569  1
  Al  Al19  1  0.985924  0.832217  0.041431  1
  Al  Al20  1  0.186914  0.500525  0.442030  1
  Al  Al21  1  0.813086  0.499475  0.557970  1
  Al  Al22  1  0.738443  0.162318  0.183843  1
  Al  Al23  1  0.261557  0.837682  0.816157  1
  Al  Al24  1  0.061257  0.634033  0.816367  1
  Al  Al25  1  0.938743  0.365967  0.183633  1
  Al  Al26  1  0.861195  0.037873  0.815946  1
  Al  Al27  1  0.138805  0.962127  0.184054  1
  Ir  Ir28  1  0.000000  0.500000  0.000000  1
  Pd  Pd29  1  0.119882  0.492553  0.638514  1
  Pd  Pd30  1  0.880118  0.507447  0.361486  1
  Pd  Pd31  1  0.657179  0.171185  0.999675  1
  Pd  Pd32  1  0.342821  0.828815  0.000325  1
  Pd  Pd33  1  0.537916  0.167180  0.362339  1
  Pd  Pd34  1  0.462084  0.832820  0.637661  1
  Pd  Pd35  1  0.778539  0.174922  0.637763  1
  Pd  Pd36  1  0.221461  0.825078  0.362237  1
