# generated using pymatgen
data_Y4Lu8Tc3Ir
_symmetry_space_group_name_H-M   'P 1'
_cell_length_a   6.19224442
_cell_length_b   7.44931386
_cell_length_c   8.89496800
_cell_angle_alpha   90.00000000
_cell_angle_beta   90.00000000
_cell_angle_gamma   90.11422550
_symmetry_Int_Tables_number   1
_chemical_formula_structural   Y4Lu8Tc3Ir
_chemical_formula_sum   'Y4 Lu8 Tc3 Ir1'
_cell_volume   410.30602074
_cell_formula_units_Z   1
loop_
 _symmetry_equiv_pos_site_id
 _symmetry_equiv_pos_as_xyz
  1  'x, y, z'
loop_
 _atom_site_type_symbol
 _atom_site_label
 _atom_site_symmetry_multiplicity
 _atom_site_fract_x
 _atom_site_fract_y
 _atom_site_fract_z
 _atom_site_occupancy
  Y  Y0  1  0.878851  0.539354  0.250000  1
  Y  Y1  1  0.619808  0.034444  0.250000  1
  Y  Y2  1  0.125818  0.458496  0.750000  1
  Y  Y3  1  0.377312  0.964725  0.750000  1
  Lu  Lu4  1  0.340264  0.673035  0.063489  1
  Lu  Lu5  1  0.153276  0.175937  0.437043  1
  Lu  Lu6  1  0.656910  0.326307  0.561463  1
  Lu  Lu7  1  0.845809  0.825661  0.937928  1
  Lu  Lu8  1  0.656910  0.326307  0.938537  1
  Lu  Lu9  1  0.845809  0.825661  0.562072  1
  Lu  Lu10  1  0.340264  0.673035  0.436511  1
  Lu  Lu11  1  0.153276  0.175937  0.062957  1
  Tc  Tc12  1  0.051748  0.881166  0.250000  1
  Tc  Tc13  1  0.454378  0.381830  0.250000  1
  Tc  Tc14  1  0.947993  0.118747  0.750000  1
  Ir  Ir15  1  0.551577  0.619357  0.750000  1
