# generated using pymatgen
data_Ho3Lu7(Bi2Ir)2
_symmetry_space_group_name_H-M   'P 1'
_cell_length_a   7.83340563
_cell_length_b   8.94456400
_cell_length_c   12.39239900
_cell_angle_alpha   90.00000000
_cell_angle_beta   89.97710628
_cell_angle_gamma   90.00000000
_symmetry_Int_Tables_number   1
_chemical_formula_structural   Ho3Lu7(Bi2Ir)2
_chemical_formula_sum   'Ho6 Lu14 Bi8 Ir4'
_cell_volume   868.29069062
_cell_formula_units_Z   2
loop_
 _symmetry_equiv_pos_site_id
 _symmetry_equiv_pos_as_xyz
  1  'x, y, z'
loop_
 _atom_site_type_symbol
 _atom_site_label
 _atom_site_symmetry_multiplicity
 _atom_site_fract_x
 _atom_site_fract_y
 _atom_site_fract_z
 _atom_site_occupancy
  Ho  Ho0  1  0.627746  0.250000  0.689769  1
  Ho  Ho1  1  0.372254  0.750000  0.310231  1
  Ho  Ho2  1  0.556052  0.750000  0.998505  1
  Ho  Ho3  1  0.443948  0.250000  0.001495  1
  Ho  Ho4  1  0.055978  0.250000  0.501736  1
  Ho  Ho5  1  0.944022  0.750000  0.498264  1
  Lu  Lu6  1  0.660483  0.750000  0.707044  1
  Lu  Lu7  1  0.339517  0.250000  0.292956  1
  Lu  Lu8  1  0.160437  0.250000  0.793091  1
  Lu  Lu9  1  0.839563  0.750000  0.206909  1
  Lu  Lu10  1  0.126450  0.750000  0.812197  1
  Lu  Lu11  1  0.873550  0.250000  0.187803  1
  Lu  Lu12  1  0.829298  0.458680  0.932429  1
  Lu  Lu13  1  0.170702  0.541320  0.067571  1
  Lu  Lu14  1  0.328967  0.541933  0.568033  1
  Lu  Lu15  1  0.170702  0.958680  0.067571  1
  Lu  Lu16  1  0.671033  0.458067  0.431967  1
  Lu  Lu17  1  0.829298  0.041320  0.932429  1
  Lu  Lu18  1  0.671033  0.041933  0.431967  1
  Lu  Lu19  1  0.328967  0.958067  0.568033  1
  Bi  Bi20  1  0.938132  0.007120  0.673704  1
  Bi  Bi21  1  0.061868  0.992880  0.326296  1
  Bi  Bi22  1  0.436615  0.991705  0.826593  1
  Bi  Bi23  1  0.061868  0.507120  0.326296  1
  Bi  Bi24  1  0.563385  0.008295  0.173407  1
  Bi  Bi25  1  0.938132  0.492880  0.673704  1
  Bi  Bi26  1  0.563385  0.491705  0.173407  1
  Bi  Bi27  1  0.436615  0.508295  0.826593  1
  Ir  Ir28  1  0.928965  0.750000  0.992990  1
  Ir  Ir29  1  0.071035  0.250000  0.007010  1
  Ir  Ir30  1  0.427863  0.250000  0.506563  1
  Ir  Ir31  1  0.572137  0.750000  0.493437  1
