# generated using pymatgen
data_KBaCuH4
_symmetry_space_group_name_H-M   'P 1'
_cell_length_a   5.77948200
_cell_length_b   7.64390200
_cell_length_c   9.93843600
_cell_angle_alpha   90.00000000
_cell_angle_beta   90.00000000
_cell_angle_gamma   90.00000000
_symmetry_Int_Tables_number   1
_chemical_formula_structural   KBaCuH4
_chemical_formula_sum   'K4 Ba4 Cu4 H16'
_cell_volume   439.05817848
_cell_formula_units_Z   4
loop_
 _symmetry_equiv_pos_site_id
 _symmetry_equiv_pos_as_xyz
  1  'x, y, z'
loop_
 _atom_site_type_symbol
 _atom_site_label
 _atom_site_symmetry_multiplicity
 _atom_site_fract_x
 _atom_site_fract_y
 _atom_site_fract_z
 _atom_site_occupancy
  K  K0  1  0.250000  0.486165  0.323753  1
  K  K1  1  0.250000  0.986165  0.176247  1
  K  K2  1  0.750000  0.513835  0.676247  1
  K  K3  1  0.750000  0.013835  0.823753  1
  Ba  Ba4  1  0.250000  0.158513  0.601894  1
  Ba  Ba5  1  0.250000  0.658513  0.898106  1
  Ba  Ba6  1  0.750000  0.841487  0.398106  1
  Ba  Ba7  1  0.750000  0.341487  0.101894  1
  Cu  Cu8  1  0.250000  0.241919  0.920210  1
  Cu  Cu9  1  0.250000  0.741919  0.579790  1
  Cu  Cu10  1  0.750000  0.758081  0.079790  1
  Cu  Cu11  1  0.750000  0.258081  0.420210  1
  H  H12  1  0.020193  0.326424  0.846511  1
  H  H13  1  0.479807  0.826424  0.653489  1
  H  H14  1  0.520193  0.673576  0.153489  1
  H  H15  1  0.979807  0.173576  0.346511  1
  H  H16  1  0.979807  0.673576  0.153489  1
  H  H17  1  0.520193  0.173576  0.346511  1
  H  H18  1  0.479807  0.326424  0.846511  1
  H  H19  1  0.020193  0.826424  0.653489  1
  H  H20  1  0.250000  0.029188  0.898757  1
  H  H21  1  0.250000  0.529188  0.601243  1
  H  H22  1  0.750000  0.970812  0.101243  1
  H  H23  1  0.750000  0.470812  0.398757  1
  H  H24  1  0.250000  0.825018  0.426234  1
  H  H25  1  0.250000  0.325018  0.073766  1
  H  H26  1  0.750000  0.174982  0.573766  1
  H  H27  1  0.750000  0.674982  0.926234  1
