# generated using pymatgen
data_Sm2Ga3SiRh6
_symmetry_space_group_name_H-M   'P 1'
_cell_length_a   6.77244687
_cell_length_b   6.78767245
_cell_length_c   6.77244600
_cell_angle_alpha   130.60856784
_cell_angle_beta   113.17082775
_cell_angle_gamma   87.37939598
_symmetry_Int_Tables_number   1
_chemical_formula_structural   Sm2Ga3SiRh6
_chemical_formula_sum   'Sm2 Ga3 Si1 Rh6'
_cell_volume   207.17702508
_cell_formula_units_Z   1
loop_
 _symmetry_equiv_pos_site_id
 _symmetry_equiv_pos_as_xyz
  1  'x, y, z'
loop_
 _atom_site_type_symbol
 _atom_site_label
 _atom_site_symmetry_multiplicity
 _atom_site_fract_x
 _atom_site_fract_y
 _atom_site_fract_z
 _atom_site_occupancy
  Sm  Sm0  1  0.751749  0.031653  0.279903  1
  Sm  Sm1  1  0.247943  0.956644  0.708701  1
  Ga  Ga2  1  0.567456  0.355726  0.788271  1
  Ga  Ga3  1  0.411719  0.627266  0.215546  1
  Ga  Ga4  1  0.100449  0.314365  0.213917  1
  Si  Si5  1  0.921690  0.706082  0.784392  1
  Rh  Rh6  1  0.216563  0.501601  0.720596  1
  Rh  Rh7  1  0.740638  0.997209  0.739293  1
  Rh  Rh8  1  0.781005  0.501601  0.285038  1
  Rh  Rh9  1  0.257916  0.997209  0.256571  1
  Rh  Rh10  1  0.523274  0.505321  0.525723  1
  Rh  Rh11  1  0.979598  0.505321  0.982047  1
