# generated using pymatgen
data_Hf18GaRe5PW3
_symmetry_space_group_name_H-M   'P 1'
_cell_length_a   8.66066501
_cell_length_b   8.66066369
_cell_length_c   8.60646100
_cell_angle_alpha   90.00000000
_cell_angle_beta   90.00000000
_cell_angle_gamma   120.13499945
_symmetry_Int_Tables_number   1
_chemical_formula_structural   Hf18GaRe5PW3
_chemical_formula_sum   'Hf18 Ga1 Re5 P1 W3'
_cell_volume   558.29694705
_cell_formula_units_Z   1
loop_
 _symmetry_equiv_pos_site_id
 _symmetry_equiv_pos_as_xyz
  1  'x, y, z'
loop_
 _atom_site_type_symbol
 _atom_site_label
 _atom_site_symmetry_multiplicity
 _atom_site_fract_x
 _atom_site_fract_y
 _atom_site_fract_z
 _atom_site_occupancy
  Hf  Hf0  1  0.194442  0.805558  0.451285  1
  Hf  Hf1  1  0.194340  0.388370  0.452022  1
  Hf  Hf2  1  0.611630  0.805660  0.452022  1
  Hf  Hf3  1  0.803182  0.196818  0.549128  1
  Hf  Hf4  1  0.803341  0.606717  0.548849  1
  Hf  Hf5  1  0.393283  0.196659  0.548849  1
  Hf  Hf6  1  0.803182  0.196818  0.950872  1
  Hf  Hf7  1  0.803341  0.606717  0.951151  1
  Hf  Hf8  1  0.393283  0.196659  0.951151  1
  Hf  Hf9  1  0.194442  0.805558  0.048715  1
  Hf  Hf10  1  0.194340  0.388370  0.047978  1
  Hf  Hf11  1  0.611630  0.805660  0.047978  1
  Hf  Hf12  1  0.540367  0.459633  0.250000  1
  Hf  Hf13  1  0.540681  0.080684  0.250000  1
  Hf  Hf14  1  0.919316  0.459319  0.250000  1
  Hf  Hf15  1  0.459748  0.540252  0.750000  1
  Hf  Hf16  1  0.460638  0.920078  0.750000  1
  Hf  Hf17  1  0.079922  0.539362  0.750000  1
  Ga  Ga18  1  0.333523  0.666477  0.250000  1
  Re  Re19  1  0.889130  0.110870  0.250000  1
  Re  Re20  1  0.888646  0.777830  0.250000  1
  Re  Re21  1  0.222170  0.111354  0.250000  1
  Re  Re22  1  0.111016  0.221159  0.750000  1
  Re  Re23  1  0.778841  0.888984  0.750000  1
  P  P24  1  0.667080  0.332920  0.750000  1
  W  W25  1  0.109600  0.890400  0.750000  1
  W  W26  1  0.999442  0.000558  0.498590  1
  W  W27  1  0.999442  0.000558  0.001410  1
