# generated using pymatgen
data_LiEu9Se10
_symmetry_space_group_name_H-M   'P 1'
_cell_length_a   7.47201148
_cell_length_b   8.62439098
_cell_length_c   9.64413513
_cell_angle_alpha   102.87713566
_cell_angle_beta   97.38344849
_cell_angle_gamma   106.75111593
_symmetry_Int_Tables_number   1
_chemical_formula_structural   LiEu9Se10
_chemical_formula_sum   'Li1 Eu9 Se10'
_cell_volume   567.64289568
_cell_formula_units_Z   1
loop_
 _symmetry_equiv_pos_site_id
 _symmetry_equiv_pos_as_xyz
  1  'x, y, z'
loop_
 _atom_site_type_symbol
 _atom_site_label
 _atom_site_symmetry_multiplicity
 _atom_site_fract_x
 _atom_site_fract_y
 _atom_site_fract_z
 _atom_site_occupancy
  Li  Li0  1  0.000000  0.500000  0.000000  1
  Eu  Eu1  1  0.802456  0.598746  0.601963  1
  Eu  Eu2  1  0.600198  0.201587  0.197060  1
  Eu  Eu3  1  0.399802  0.798413  0.802940  1
  Eu  Eu4  1  0.597975  0.696331  0.196467  1
  Eu  Eu5  1  0.197544  0.401254  0.398037  1
  Eu  Eu6  1  0.402025  0.303669  0.803533  1
  Eu  Eu7  1  0.000000  0.000000  0.000000  1
  Eu  Eu8  1  0.198315  0.896333  0.396287  1
  Eu  Eu9  1  0.801685  0.103667  0.603713  1
  Se  Se10  1  0.701071  0.649660  0.899903  1
  Se  Se11  1  0.499621  0.249446  0.500619  1
  Se  Se12  1  0.701260  0.150887  0.899523  1
  Se  Se13  1  0.298740  0.849113  0.100477  1
  Se  Se14  1  0.500379  0.750554  0.499381  1
  Se  Se15  1  0.100004  0.449633  0.699967  1
  Se  Se16  1  0.298929  0.350340  0.100097  1
  Se  Se17  1  0.900073  0.049711  0.300432  1
  Se  Se18  1  0.099927  0.950289  0.699568  1
  Se  Se19  1  0.899996  0.550367  0.300033  1
