# generated using pymatgen
data_ThUV2(SeO3)8
_symmetry_space_group_name_H-M   'P 1'
_cell_length_a   8.58133863
_cell_length_b   8.76731346
_cell_length_c   8.64978679
_cell_angle_alpha   87.74750750
_cell_angle_beta   89.59890655
_cell_angle_gamma   90.05680315
_symmetry_Int_Tables_number   1
_chemical_formula_structural   ThUV2(SeO3)8
_chemical_formula_sum   'Th1 U1 V2 Se8 O24'
_cell_volume   650.24989288
_cell_formula_units_Z   1
loop_
 _symmetry_equiv_pos_site_id
 _symmetry_equiv_pos_as_xyz
  1  'x, y, z'
loop_
 _atom_site_type_symbol
 _atom_site_label
 _atom_site_symmetry_multiplicity
 _atom_site_fract_x
 _atom_site_fract_y
 _atom_site_fract_z
 _atom_site_occupancy
  Th  Th0  1  0.000000  0.000000  0.500000  1
  U  U1  1  0.500000  0.000000  0.000000  1
  V  V2  1  0.000000  0.500000  0.000000  1
  V  V3  1  0.500000  0.500000  0.500000  1
  Se  Se4  1  0.298288  0.650129  0.198380  1
  Se  Se5  1  0.800322  0.363780  0.307952  1
  Se  Se6  1  0.650660  0.786833  0.670849  1
  Se  Se7  1  0.164310  0.217509  0.842202  1
  Se  Se8  1  0.701712  0.349871  0.801620  1
  Se  Se9  1  0.199678  0.636220  0.692048  1
  Se  Se10  1  0.349340  0.213167  0.329151  1
  Se  Se11  1  0.835690  0.782491  0.157798  1
  O  O12  1  0.232047  0.542574  0.053571  1
  O  O13  1  0.730640  0.480919  0.449271  1
  O  O14  1  0.751472  0.928022  0.571419  1
  O  O15  1  0.274585  0.071352  0.950296  1
  O  O16  1  0.523881  0.906356  0.779527  1
  O  O17  1  0.446138  0.538390  0.268726  1
  O  O18  1  0.944008  0.483580  0.226363  1
  O  O19  1  0.047379  0.100922  0.740053  1
  O  O20  1  0.913339  0.234583  0.415078  1
  O  O21  1  0.523752  0.729257  0.534432  1
  O  O22  1  0.417741  0.791029  0.087248  1
  O  O23  1  0.045332  0.269658  0.988300  1
  O  O24  1  0.767953  0.457426  0.946429  1
  O  O25  1  0.269360  0.519081  0.550729  1
  O  O26  1  0.248528  0.071978  0.428581  1
  O  O27  1  0.725415  0.928648  0.049704  1
  O  O28  1  0.476119  0.093644  0.220473  1
  O  O29  1  0.553862  0.461610  0.731274  1
  O  O30  1  0.055992  0.516420  0.773637  1
  O  O31  1  0.952621  0.899078  0.259947  1
  O  O32  1  0.086661  0.765417  0.584922  1
  O  O33  1  0.476248  0.270743  0.465568  1
  O  O34  1  0.582259  0.208971  0.912752  1
  O  O35  1  0.954668  0.730342  0.011700  1
