# generated using pymatgen
data_Dy8Zn3Si12Rh
_symmetry_space_group_name_H-M   'P 1'
_cell_length_a   8.10923200
_cell_length_b   8.10923244
_cell_length_c   8.09147700
_cell_angle_alpha   90.00000000
_cell_angle_beta   90.00000000
_cell_angle_gamma   119.99999006
_symmetry_Int_Tables_number   1
_chemical_formula_structural   Dy8Zn3Si12Rh
_chemical_formula_sum   'Dy8 Zn3 Si12 Rh1'
_cell_volume   460.80581789
_cell_formula_units_Z   1
loop_
 _symmetry_equiv_pos_site_id
 _symmetry_equiv_pos_as_xyz
  1  'x, y, z'
loop_
 _atom_site_type_symbol
 _atom_site_label
 _atom_site_symmetry_multiplicity
 _atom_site_fract_x
 _atom_site_fract_y
 _atom_site_fract_z
 _atom_site_occupancy
  Dy  Dy0  1  0.000000  0.000000  0.248682  1
  Dy  Dy1  1  0.000000  0.000000  0.750886  1
  Dy  Dy2  1  0.000553  0.500277  0.250225  1
  Dy  Dy3  1  0.499723  0.500277  0.250225  1
  Dy  Dy4  1  0.502723  0.005446  0.749853  1
  Dy  Dy5  1  0.499723  0.999447  0.250225  1
  Dy  Dy6  1  0.502723  0.497277  0.749853  1
  Dy  Dy7  1  0.994554  0.497277  0.749853  1
  Zn  Zn8  1  0.333333  0.666667  0.992595  1
  Zn  Zn9  1  0.333333  0.666667  0.504409  1
  Zn  Zn10  1  0.666667  0.333333  0.008842  1
  Si  Si11  1  0.166538  0.333076  0.000759  1
  Si  Si12  1  0.666924  0.833462  0.000759  1
  Si  Si13  1  0.163318  0.326635  0.501024  1
  Si  Si14  1  0.333691  0.166846  0.998797  1
  Si  Si15  1  0.166538  0.833462  0.000759  1
  Si  Si16  1  0.673365  0.836682  0.501024  1
  Si  Si17  1  0.833154  0.666309  0.998797  1
  Si  Si18  1  0.339882  0.169941  0.498628  1
  Si  Si19  1  0.163318  0.836682  0.501024  1
  Si  Si20  1  0.830059  0.660118  0.498628  1
  Si  Si21  1  0.833154  0.166846  0.998797  1
  Si  Si22  1  0.830059  0.169941  0.498628  1
  Rh  Rh23  1  0.666667  0.333333  0.496728  1
