# generated using pymatgen
data_LuTh2Ga6(CuNi2)3
_symmetry_space_group_name_H-M   'P 1'
_cell_length_a   8.93584000
_cell_length_b   8.93584085
_cell_length_c   4.10235600
_cell_angle_alpha   90.00000000
_cell_angle_beta   90.00000000
_cell_angle_gamma   119.99998946
_symmetry_Int_Tables_number   1
_chemical_formula_structural   LuTh2Ga6(CuNi2)3
_chemical_formula_sum   'Lu1 Th2 Ga6 Cu3 Ni6'
_cell_volume   283.68399377
_cell_formula_units_Z   1
loop_
 _symmetry_equiv_pos_site_id
 _symmetry_equiv_pos_as_xyz
  1  'x, y, z'
loop_
 _atom_site_type_symbol
 _atom_site_label
 _atom_site_symmetry_multiplicity
 _atom_site_fract_x
 _atom_site_fract_y
 _atom_site_fract_z
 _atom_site_occupancy
  Lu  Lu0  1  0.000000  0.000000  0.000000  1
  Th  Th1  1  0.666667  0.333333  0.500000  1
  Th  Th2  1  0.333333  0.666667  0.500000  1
  Ga  Ga3  1  0.479671  0.479671  0.000000  1
  Ga  Ga4  1  0.520329  0.000000  0.000000  1
  Ga  Ga5  1  0.000000  0.520329  0.000000  1
  Ga  Ga6  1  0.725487  0.725487  0.500000  1
  Ga  Ga7  1  0.274513  0.000000  0.500000  1
  Ga  Ga8  1  0.000000  0.274513  0.500000  1
  Cu  Cu9  1  0.288949  0.288949  0.500000  1
  Cu  Cu10  1  0.711051  0.000000  0.500000  1
  Cu  Cu11  1  0.000000  0.711051  0.500000  1
  Ni  Ni12  1  0.830500  0.198053  0.000000  1
  Ni  Ni13  1  0.801947  0.632447  0.000000  1
  Ni  Ni14  1  0.367553  0.169500  0.000000  1
  Ni  Ni15  1  0.198053  0.830500  0.000000  1
  Ni  Ni16  1  0.632447  0.801947  0.000000  1
  Ni  Ni17  1  0.169500  0.367553  0.000000  1
