# generated using pymatgen
data_Sr21AlGa7Sn6I
_symmetry_space_group_name_H-M   'P 1'
_cell_length_a   12.18269494
_cell_length_b   12.18785646
_cell_length_c   12.18269600
_cell_angle_alpha   60.01400530
_cell_angle_beta   59.99999713
_cell_angle_gamma   60.01400156
_symmetry_Int_Tables_number   1
_chemical_formula_structural   Sr21AlGa7Sn6I
_chemical_formula_sum   'Sr21 Al1 Ga7 Sn6 I1'
_cell_volume   1279.35476591
_cell_formula_units_Z   1
loop_
 _symmetry_equiv_pos_site_id
 _symmetry_equiv_pos_as_xyz
  1  'x, y, z'
loop_
 _atom_site_type_symbol
 _atom_site_label
 _atom_site_symmetry_multiplicity
 _atom_site_fract_x
 _atom_site_fract_y
 _atom_site_fract_z
 _atom_site_occupancy
  Sr  Sr0  1  0.870511  0.869570  0.389407  1
  Sr  Sr1  1  0.609154  0.130404  0.130221  1
  Sr  Sr2  1  0.869729  0.390811  0.869729  1
  Sr  Sr3  1  0.130221  0.130404  0.130221  1
  Sr  Sr4  1  0.389407  0.869570  0.870511  1
  Sr  Sr5  1  0.870511  0.869570  0.870511  1
  Sr  Sr6  1  0.167312  0.832346  0.500171  1
  Sr  Sr7  1  0.832202  0.499986  0.500097  1
  Sr  Sr8  1  0.130221  0.130404  0.609154  1
  Sr  Sr9  1  0.832331  0.169463  0.499103  1
  Sr  Sr10  1  0.167715  0.499986  0.500097  1
  Sr  Sr11  1  0.130317  0.609051  0.130317  1
  Sr  Sr12  1  0.500097  0.499986  0.167715  1
  Sr  Sr13  1  0.499103  0.169463  0.832331  1
  Sr  Sr14  1  0.500171  0.832346  0.167312  1
  Sr  Sr15  1  0.500097  0.499986  0.832202  1
  Sr  Sr16  1  0.499103  0.169463  0.499103  1
  Sr  Sr17  1  0.167715  0.499986  0.832202  1
  Sr  Sr18  1  0.999928  0.000216  0.999928  1
  Sr  Sr19  1  0.500171  0.832346  0.500171  1
  Sr  Sr20  1  0.832202  0.499986  0.167715  1
  Al  Al21  1  0.695358  0.913928  0.695358  1
  Ga  Ga22  1  0.693159  0.693686  0.919999  1
  Ga  Ga23  1  0.693159  0.693686  0.693159  1
  Ga  Ga24  1  0.306495  0.080512  0.306495  1
  Ga  Ga25  1  0.919999  0.693686  0.693159  1
  Ga  Ga26  1  0.306350  0.306558  0.080740  1
  Ga  Ga27  1  0.080740  0.306558  0.306350  1
  Ga  Ga28  1  0.306350  0.306558  0.306350  1
  Sn  Sn29  1  0.784106  0.215915  0.784106  1
  Sn  Sn30  1  0.784106  0.215915  0.215874  1
  Sn  Sn31  1  0.216029  0.783932  0.216029  1
  Sn  Sn32  1  0.216029  0.783932  0.784010  1
  Sn  Sn33  1  0.784010  0.783932  0.216029  1
  Sn  Sn34  1  0.215874  0.215915  0.784106  1
  I  I35  1  0.500018  0.499946  0.500018  1
