# generated using pymatgen
data_CeLuS2
_symmetry_space_group_name_H-M   'P 1'
_cell_length_a   6.90404319
_cell_length_b   6.90404354
_cell_length_c   6.90404223
_cell_angle_alpha   32.60740646
_cell_angle_beta   32.60740355
_cell_angle_gamma   32.60740200
_symmetry_Int_Tables_number   1
_chemical_formula_structural   CeLuS2
_chemical_formula_sum   'Ce1 Lu1 S2'
_cell_volume   84.98990421
_cell_formula_units_Z   1
loop_
 _symmetry_equiv_pos_site_id
 _symmetry_equiv_pos_as_xyz
  1  'x, y, z'
loop_
 _atom_site_type_symbol
 _atom_site_label
 _atom_site_symmetry_multiplicity
 _atom_site_fract_x
 _atom_site_fract_y
 _atom_site_fract_z
 _atom_site_occupancy
  Ce  Ce0  1  0.500000  0.500000  0.500000  1
  Lu  Lu1  1  0.000000  0.000000  0.000000  1
  S  S2  1  0.257213  0.257213  0.257213  1
  S  S3  1  0.742786  0.742786  0.742786  1
