# generated using pymatgen
data_Tb7Y3Si5Ge
_symmetry_space_group_name_H-M   'P 1'
_cell_length_a   8.48939700
_cell_length_b   8.49215046
_cell_length_c   6.41295600
_cell_angle_alpha   90.00000000
_cell_angle_beta   90.00000000
_cell_angle_gamma   119.98927106
_symmetry_Int_Tables_number   1
_chemical_formula_structural   Tb7Y3Si5Ge
_chemical_formula_sum   'Tb7 Y3 Si5 Ge1'
_cell_volume   400.43345811
_cell_formula_units_Z   1
loop_
 _symmetry_equiv_pos_site_id
 _symmetry_equiv_pos_as_xyz
  1  'x, y, z'
loop_
 _atom_site_type_symbol
 _atom_site_label
 _atom_site_symmetry_multiplicity
 _atom_site_fract_x
 _atom_site_fract_y
 _atom_site_fract_z
 _atom_site_occupancy
  Tb  Tb0  1  0.998700  0.755670  0.750000  1
  Tb  Tb1  1  0.757688  0.000000  0.750000  1
  Tb  Tb2  1  0.243030  0.244330  0.750000  1
  Tb  Tb3  1  0.333159  0.665603  0.499193  1
  Tb  Tb4  1  0.667557  0.334397  0.000807  1
  Tb  Tb5  1  0.667557  0.334397  0.499193  1
  Tb  Tb6  1  0.333159  0.665603  0.000807  1
  Y  Y7  1  0.999900  0.243390  0.250000  1
  Y  Y8  1  0.756510  0.756610  0.250000  1
  Y  Y9  1  0.243015  0.000000  0.250000  1
  Si  Si10  1  0.393834  0.393753  0.250000  1
  Si  Si11  1  0.000082  0.606247  0.250000  1
  Si  Si12  1  0.999918  0.394188  0.750000  1
  Si  Si13  1  0.605731  0.605812  0.750000  1
  Si  Si14  1  0.606282  0.000000  0.250000  1
  Ge  Ge15  1  0.393878  0.000000  0.750000  1
