# generated using pymatgen
data_HoEr4P12Pd3Ru16
_symmetry_space_group_name_H-M   'P 1'
_cell_length_a   12.59758600
_cell_length_b   12.59758598
_cell_length_c   3.96382800
_cell_angle_alpha   90.00000000
_cell_angle_beta   90.00000000
_cell_angle_gamma   119.99755294
_symmetry_Int_Tables_number   1
_chemical_formula_structural   HoEr4P12Pd3Ru16
_chemical_formula_sum   'Ho1 Er4 P12 Pd3 Ru16'
_cell_volume   544.79210386
_cell_formula_units_Z   1
loop_
 _symmetry_equiv_pos_site_id
 _symmetry_equiv_pos_as_xyz
  1  'x, y, z'
loop_
 _atom_site_type_symbol
 _atom_site_label
 _atom_site_symmetry_multiplicity
 _atom_site_fract_x
 _atom_site_fract_y
 _atom_site_fract_z
 _atom_site_occupancy
  Ho  Ho0  1  0.181115  0.181115  0.500000  1
  Er  Er1  1  0.818903  0.999973  0.500000  1
  Er  Er2  1  0.999973  0.818903  0.500000  1
  Er  Er3  1  0.333347  0.666678  0.000000  1
  Er  Er4  1  0.666678  0.333347  0.000000  1
  P  P5  1  0.815125  0.815125  0.000000  1
  P  P6  1  0.184873  0.999933  0.000000  1
  P  P7  1  0.999933  0.184873  0.000000  1
  P  P8  1  0.178832  0.480366  0.500000  1
  P  P9  1  0.519640  0.698452  0.500000  1
  P  P10  1  0.301543  0.821157  0.500000  1
  P  P11  1  0.698452  0.519640  0.500000  1
  P  P12  1  0.821157  0.301543  0.500000  1
  P  P13  1  0.480366  0.178832  0.500000  1
  P  P14  1  0.366393  0.366393  0.000000  1
  P  P15  1  0.633728  0.999999  0.000000  1
  P  P16  1  0.999999  0.633728  0.000000  1
  Pd  Pd17  1  0.553693  0.553693  0.000000  1
  Pd  Pd18  1  0.446318  0.000002  0.000000  1
  Pd  Pd19  1  0.000002  0.446318  0.000000  1
  Ru  Ru20  1  0.713757  0.713757  0.500000  1
  Ru  Ru21  1  0.286274  0.999905  0.500000  1
  Ru  Ru22  1  0.999905  0.286274  0.500000  1
  Ru  Ru23  1  0.185704  0.378295  0.000000  1
  Ru  Ru24  1  0.621906  0.807620  0.000000  1
  Ru  Ru25  1  0.192367  0.814265  0.000000  1
  Ru  Ru26  1  0.807620  0.621906  0.000000  1
  Ru  Ru27  1  0.814265  0.192367  0.000000  1
  Ru  Ru28  1  0.378295  0.185704  0.000000  1
  Ru  Ru29  1  0.368487  0.493029  0.500000  1
  Ru  Ru30  1  0.506991  0.875450  0.500000  1
  Ru  Ru31  1  0.124545  0.631538  0.500000  1
  Ru  Ru32  1  0.875450  0.506991  0.500000  1
  Ru  Ru33  1  0.631538  0.124545  0.500000  1
  Ru  Ru34  1  0.493029  0.368487  0.500000  1
  Ru  Ru35  1  0.999795  0.999795  0.000000  1
