# generated using pymatgen
data_Ho4Ga18Co5Pt
_symmetry_space_group_name_H-M   'P 1'
_cell_length_a   7.42405313
_cell_length_b   7.42405181
_cell_length_c   9.41837697
_cell_angle_alpha   89.87914042
_cell_angle_beta   89.87914455
_cell_angle_gamma   119.74618771
_symmetry_Int_Tables_number   1
_chemical_formula_structural   Ho4Ga18Co5Pt
_chemical_formula_sum   'Ho4 Ga18 Co5 Pt1'
_cell_volume   450.70253650
_cell_formula_units_Z   1
loop_
 _symmetry_equiv_pos_site_id
 _symmetry_equiv_pos_as_xyz
  1  'x, y, z'
loop_
 _atom_site_type_symbol
 _atom_site_label
 _atom_site_symmetry_multiplicity
 _atom_site_fract_x
 _atom_site_fract_y
 _atom_site_fract_z
 _atom_site_occupancy
  Ho  Ho0  1  0.329408  0.002817  0.748710  1
  Ho  Ho1  1  0.002817  0.329408  0.748710  1
  Ho  Ho2  1  0.670592  0.997183  0.251290  1
  Ho  Ho3  1  0.997183  0.670592  0.251290  1
  Ga  Ga4  1  0.656087  0.001219  0.923939  1
  Ga  Ga5  1  0.334726  0.998205  0.428085  1
  Ga  Ga6  1  0.998205  0.334726  0.428084  1
  Ga  Ga7  1  0.343913  0.998781  0.076061  1
  Ga  Ga8  1  0.001219  0.656087  0.923939  1
  Ga  Ga9  1  0.998781  0.343913  0.076061  1
  Ga  Ga10  1  0.333128  0.333128  0.558366  1
  Ga  Ga11  1  0.343432  0.343432  0.937342  1
  Ga  Ga12  1  0.656568  0.656568  0.062658  1
  Ga  Ga13  1  0.666872  0.666872  0.441634  1
  Ga  Ga14  1  0.872335  0.872335  0.741227  1
  Ga  Ga15  1  0.127665  0.127665  0.258773  1
  Ga  Ga16  1  0.335704  0.552159  0.251148  1
  Ga  Ga17  1  0.552159  0.335704  0.251148  1
  Ga  Ga18  1  0.664296  0.447841  0.748852  1
  Ga  Ga19  1  0.447841  0.664296  0.748852  1
  Ga  Ga20  1  0.665274  0.001795  0.571916  1
  Ga  Ga21  1  0.001795  0.665274  0.571915  1
  Co  Co22  1  0.329512  0.670488  0.000000  1
  Co  Co23  1  0.670875  0.329125  0.500000  1
  Co  Co24  1  0.670488  0.329512  0.000000  1
  Co  Co25  1  0.329125  0.670875  0.500000  1
  Co  Co26  1  0.000000  0.000000  0.500000  1
  Pt  Pt27  1  0.000000  0.000000  0.000000  1
