# generated using pymatgen
data_DyErNiIr3
_symmetry_space_group_name_H-M   'P 1'
_cell_length_a   5.17103830
_cell_length_b   5.17103959
_cell_length_c   5.17104042
_cell_angle_alpha   62.64917385
_cell_angle_beta   62.64916172
_cell_angle_gamma   62.64917732
_symmetry_Int_Tables_number   1
_chemical_formula_structural   DyErNiIr3
_chemical_formula_sum   'Dy1 Er1 Ni1 Ir3'
_cell_volume   103.53869646
_cell_formula_units_Z   1
loop_
 _symmetry_equiv_pos_site_id
 _symmetry_equiv_pos_as_xyz
  1  'x, y, z'
loop_
 _atom_site_type_symbol
 _atom_site_label
 _atom_site_symmetry_multiplicity
 _atom_site_fract_x
 _atom_site_fract_y
 _atom_site_fract_z
 _atom_site_occupancy
  Dy  Dy0  1  0.250854  0.250854  0.250854  1
  Er  Er1  1  0.998963  0.998963  0.998963  1
  Ni  Ni2  1  0.625097  0.625097  0.625097  1
  Ir  Ir3  1  0.625117  0.625117  0.124850  1
  Ir  Ir4  1  0.625117  0.124850  0.625117  1
  Ir  Ir5  1  0.124850  0.625117  0.625117  1
