# generated using pymatgen
data_Ho2Tm3Lu11(Ga3Co)2
_symmetry_space_group_name_H-M   'P 1'
_cell_length_a   9.82246400
_cell_length_b   9.82246456
_cell_length_c   6.84352100
_cell_angle_alpha   90.00000000
_cell_angle_beta   90.00000000
_cell_angle_gamma   119.99999811
_symmetry_Int_Tables_number   1
_chemical_formula_structural   Ho2Tm3Lu11(Ga3Co)2
_chemical_formula_sum   'Ho2 Tm3 Lu11 Ga6 Co2'
_cell_volume   571.80922901
_cell_formula_units_Z   1
loop_
 _symmetry_equiv_pos_site_id
 _symmetry_equiv_pos_as_xyz
  1  'x, y, z'
loop_
 _atom_site_type_symbol
 _atom_site_label
 _atom_site_symmetry_multiplicity
 _atom_site_fract_x
 _atom_site_fract_y
 _atom_site_fract_z
 _atom_site_occupancy
  Ho  Ho0  1  0.000000  0.000000  0.230862  1
  Ho  Ho1  1  0.000000  0.000000  0.731033  1
  Tm  Tm2  1  0.535603  0.464397  0.708093  1
  Tm  Tm3  1  0.928793  0.464397  0.708093  1
  Tm  Tm4  1  0.535603  0.071207  0.708093  1
  Lu  Lu5  1  0.174346  0.825654  0.509729  1
  Lu  Lu6  1  0.651306  0.825654  0.509729  1
  Lu  Lu7  1  0.174346  0.348694  0.509729  1
  Lu  Lu8  1  0.825628  0.174372  0.012492  1
  Lu  Lu9  1  0.348744  0.174372  0.012492  1
  Lu  Lu10  1  0.825628  0.651256  0.012492  1
  Lu  Lu11  1  0.333333  0.666667  0.828183  1
  Lu  Lu12  1  0.666667  0.333333  0.327742  1
  Lu  Lu13  1  0.463516  0.536484  0.207148  1
  Lu  Lu14  1  0.072967  0.536484  0.207148  1
  Lu  Lu15  1  0.463516  0.927033  0.207148  1
  Ga  Ga16  1  0.163840  0.836160  0.959691  1
  Ga  Ga17  1  0.672321  0.836160  0.959691  1
  Ga  Ga18  1  0.163840  0.327679  0.959691  1
  Ga  Ga19  1  0.836390  0.163610  0.458904  1
  Ga  Ga20  1  0.327221  0.163610  0.458904  1
  Ga  Ga21  1  0.836390  0.672779  0.458904  1
  Co  Co22  1  0.333333  0.666667  0.443478  1
  Co  Co23  1  0.666667  0.333333  0.944579  1
