# generated using pymatgen
data_CeEr7Re3TcB24
_symmetry_space_group_name_H-M   'P 1'
_cell_length_a   3.67355300
_cell_length_b   9.14001181
_cell_length_c   11.51671616
_cell_angle_alpha   90.06838446
_cell_angle_beta   90.00000000
_cell_angle_gamma   90.00000000
_symmetry_Int_Tables_number   1
_chemical_formula_structural   CeEr7Re3TcB24
_chemical_formula_sum   'Ce1 Er7 Re3 Tc1 B24'
_cell_volume   386.68864653
_cell_formula_units_Z   1
loop_
 _symmetry_equiv_pos_site_id
 _symmetry_equiv_pos_as_xyz
  1  'x, y, z'
loop_
 _atom_site_type_symbol
 _atom_site_label
 _atom_site_symmetry_multiplicity
 _atom_site_fract_x
 _atom_site_fract_y
 _atom_site_fract_z
 _atom_site_occupancy
  Ce  Ce0  1  0.000000  0.323196  0.413949  1
  Er  Er1  1  0.000000  0.677495  0.586747  1
  Er  Er2  1  0.000000  0.823296  0.085376  1
  Er  Er3  1  0.000000  0.176196  0.913998  1
  Er  Er4  1  0.000000  0.941748  0.369720  1
  Er  Er5  1  0.000000  0.056140  0.630419  1
  Er  Er6  1  0.000000  0.443869  0.129409  1
  Er  Er7  1  0.000000  0.557049  0.870663  1
  Re  Re8  1  0.000000  0.361570  0.679266  1
  Re  Re9  1  0.000000  0.138909  0.179175  1
  Re  Re10  1  0.000000  0.861391  0.820962  1
  Tc  Tc11  1  0.000000  0.638880  0.320485  1
  B  B12  1  0.500000  0.554361  0.432470  1
  B  B13  1  0.500000  0.446689  0.567884  1
  B  B14  1  0.500000  0.053115  0.066476  1
  B  B15  1  0.500000  0.946915  0.933245  1
  B  B16  1  0.500000  0.749705  0.418670  1
  B  B17  1  0.500000  0.250559  0.582643  1
  B  B18  1  0.500000  0.249336  0.080363  1
  B  B19  1  0.500000  0.750462  0.918887  1
  B  B20  1  0.500000  0.792285  0.265088  1
  B  B21  1  0.500000  0.207634  0.735531  1
  B  B22  1  0.500000  0.291574  0.233737  1
  B  B23  1  0.500000  0.707532  0.765262  1
  B  B24  1  0.500000  0.631625  0.184642  1
  B  B25  1  0.500000  0.369577  0.815183  1
  B  B26  1  0.500000  0.130253  0.313931  1
  B  B27  1  0.500000  0.868991  0.685471  1
  B  B28  1  0.500000  0.981686  0.211393  1
  B  B29  1  0.500000  0.017791  0.788290  1
  B  B30  1  0.500000  0.483899  0.287353  1
  B  B31  1  0.500000  0.518442  0.712861  1
  B  B32  1  0.500000  0.600906  0.027853  1
  B  B33  1  0.500000  0.399624  0.971829  1
  B  B34  1  0.500000  0.098760  0.472381  1
  B  B35  1  0.500000  0.898540  0.528388  1
