# generated using pymatgen
data_DyHo3Cu2(Si2Ru)2
_symmetry_space_group_name_H-M   'P 1'
_cell_length_a   4.21704900
_cell_length_b   6.94897693
_cell_length_c   7.34331812
_cell_angle_alpha   91.32444969
_cell_angle_beta   90.00000000
_cell_angle_gamma   90.00000000
_symmetry_Int_Tables_number   1
_chemical_formula_structural   DyHo3Cu2(Si2Ru)2
_chemical_formula_sum   'Dy1 Ho3 Cu2 Si4 Ru2'
_cell_volume   215.13239761
_cell_formula_units_Z   1
loop_
 _symmetry_equiv_pos_site_id
 _symmetry_equiv_pos_as_xyz
  1  'x, y, z'
loop_
 _atom_site_type_symbol
 _atom_site_label
 _atom_site_symmetry_multiplicity
 _atom_site_fract_x
 _atom_site_fract_y
 _atom_site_fract_z
 _atom_site_occupancy
  Dy  Dy0  1  0.250000  0.993270  0.797478  1
  Ho  Ho1  1  0.750000  0.006741  0.202748  1
  Ho  Ho2  1  0.250000  0.492773  0.688115  1
  Ho  Ho3  1  0.750000  0.507540  0.311669  1
  Cu  Cu4  1  0.750000  0.833987  0.574092  1
  Cu  Cu5  1  0.250000  0.165837  0.425748  1
  Si  Si6  1  0.250000  0.298594  0.090242  1
  Si  Si7  1  0.750000  0.701069  0.910482  1
  Si  Si8  1  0.250000  0.795762  0.389094  1
  Si  Si9  1  0.750000  0.204866  0.609995  1
  Ru  Ru10  1  0.750000  0.346860  0.934012  1
  Ru  Ru11  1  0.250000  0.652702  0.066325  1
