# generated using pymatgen
data_EuSc2(SeO3)4
_symmetry_space_group_name_H-M   'P 1'
_cell_length_a   7.11937700
_cell_length_b   9.67697287
_cell_length_c   9.47180340
_cell_angle_alpha   68.87993842
_cell_angle_beta   96.37935472
_cell_angle_gamma   89.32644662
_symmetry_Int_Tables_number   1
_chemical_formula_structural   EuSc2(SeO3)4
_chemical_formula_sum   'Eu2 Sc4 Se8 O24'
_cell_volume   604.00314383
_cell_formula_units_Z   2
loop_
 _symmetry_equiv_pos_site_id
 _symmetry_equiv_pos_as_xyz
  1  'x, y, z'
loop_
 _atom_site_type_symbol
 _atom_site_label
 _atom_site_symmetry_multiplicity
 _atom_site_fract_x
 _atom_site_fract_y
 _atom_site_fract_z
 _atom_site_occupancy
  Eu  Eu0  1  0.011593  0.549139  0.473114  1
  Eu  Eu1  1  0.011560  0.049296  0.973018  1
  Sc  Sc2  1  0.000994  0.749935  0.753834  1
  Sc  Sc3  1  0.498966  0.750751  0.247759  1
  Sc  Sc4  1  0.001015  0.249911  0.253830  1
  Sc  Sc5  1  0.498967  0.250743  0.747753  1
  Se  Se6  1  0.554380  0.130013  0.131907  1
  Se  Se7  1  0.554393  0.629996  0.631917  1
  Se  Se8  1  0.446046  0.871423  0.868374  1
  Se  Se9  1  0.446043  0.371427  0.368350  1
  Se  Se10  1  0.803737  0.097506  0.584334  1
  Se  Se11  1  0.803732  0.597466  0.084343  1
  Se  Se12  1  0.193849  0.899969  0.415775  1
  Se  Se13  1  0.193896  0.400045  0.915772  1
  O  O14  1  0.715327  0.718013  0.712873  1
  O  O15  1  0.715328  0.218037  0.212857  1
  O  O16  1  0.288173  0.279683  0.288389  1
  O  O17  1  0.288167  0.779667  0.788427  1
  O  O18  1  0.987320  0.175994  0.486663  1
  O  O19  1  0.987322  0.675953  0.986671  1
  O  O20  1  0.012236  0.811884  0.514262  1
  O  O21  1  0.012288  0.311920  0.014262  1
  O  O22  1  0.660099  0.623663  0.474211  1
  O  O23  1  0.660095  0.123705  0.974189  1
  O  O24  1  0.339672  0.379625  0.524651  1
  O  O25  1  0.339692  0.879661  0.024662  1
  O  O26  1  0.927485  0.966636  0.749154  1
  O  O27  1  0.927499  0.466606  0.249173  1
  O  O28  1  0.074146  0.029810  0.250456  1
  O  O29  1  0.074154  0.529852  0.750475  1
  O  O30  1  0.582766  0.950730  0.262417  1
  O  O31  1  0.582776  0.450709  0.762418  1
  O  O32  1  0.408723  0.050219  0.738056  1
  O  O33  1  0.408742  0.550223  0.238042  1
  O  O34  1  0.754945  0.230650  0.660570  1
  O  O35  1  0.754902  0.730613  0.160563  1
  O  O36  1  0.245377  0.758807  0.349167  1
  O  O37  1  0.245397  0.258916  0.849109  1
