# generated using pymatgen
data_Hf7Zr3BeSiSb6
_symmetry_space_group_name_H-M   'P 1'
_cell_length_a   8.57899100
_cell_length_b   8.57898839
_cell_length_c   5.77259900
_cell_angle_alpha   90.00000000
_cell_angle_beta   90.00000000
_cell_angle_gamma   119.99999849
_symmetry_Int_Tables_number   1
_chemical_formula_structural   Hf7Zr3BeSiSb6
_chemical_formula_sum   'Hf7 Zr3 Be1 Si1 Sb6'
_cell_volume   367.93772654
_cell_formula_units_Z   1
loop_
 _symmetry_equiv_pos_site_id
 _symmetry_equiv_pos_as_xyz
  1  'x, y, z'
loop_
 _atom_site_type_symbol
 _atom_site_label
 _atom_site_symmetry_multiplicity
 _atom_site_fract_x
 _atom_site_fract_y
 _atom_site_fract_z
 _atom_site_occupancy
  Hf  Hf0  1  0.666667  0.333333  0.999041  1
  Hf  Hf1  1  0.333333  0.666667  0.999041  1
  Hf  Hf2  1  0.333333  0.666667  0.501812  1
  Hf  Hf3  1  0.666667  0.333333  0.501812  1
  Hf  Hf4  1  0.735921  0.735921  0.756927  1
  Hf  Hf5  1  0.264079  0.000000  0.756927  1
  Hf  Hf6  1  0.000000  0.264079  0.756927  1
  Zr  Zr7  1  0.250318  0.250318  0.242990  1
  Zr  Zr8  1  0.749682  0.000000  0.242990  1
  Zr  Zr9  1  0.000000  0.749682  0.242990  1
  Be  Be10  1  0.000000  0.000000  0.978002  1
  Si  Si11  1  0.000000  0.000000  0.520245  1
  Sb  Sb12  1  0.390093  0.390093  0.749099  1
  Sb  Sb13  1  0.609907  0.000000  0.749099  1
  Sb  Sb14  1  0.000000  0.609907  0.749099  1
  Sb  Sb15  1  0.602787  0.602787  0.251001  1
  Sb  Sb16  1  0.397213  0.000000  0.251001  1
  Sb  Sb17  1  0.000000  0.397213  0.251001  1
