# generated using pymatgen
data_Gd2DyIn3(TeO6)3
_symmetry_space_group_name_H-M   'P 1'
_cell_length_a   9.09143200
_cell_length_b   9.09143216
_cell_length_c   5.16600300
_cell_angle_alpha   89.99687442
_cell_angle_beta   90.00312652
_cell_angle_gamma   120.00060760
_symmetry_Int_Tables_number   1
_chemical_formula_structural   Gd2DyIn3(TeO6)3
_chemical_formula_sum   'Gd2 Dy1 In3 Te3 O18'
_cell_volume   369.78323995
_cell_formula_units_Z   1
loop_
 _symmetry_equiv_pos_site_id
 _symmetry_equiv_pos_as_xyz
  1  'x, y, z'
loop_
 _atom_site_type_symbol
 _atom_site_label
 _atom_site_symmetry_multiplicity
 _atom_site_fract_x
 _atom_site_fract_y
 _atom_site_fract_z
 _atom_site_occupancy
  Gd  Gd0  1  0.619749  0.000169  0.000083  1
  Gd  Gd1  1  0.000169  0.619749  0.999917  1
  Dy  Dy2  1  0.378705  0.378705  0.000000  1
  In  In3  1  0.287899  0.000068  0.500160  1
  In  In4  1  0.000068  0.287899  0.499840  1
  In  In5  1  0.712078  0.712078  0.500000  1
  Te  Te6  1  0.001104  0.001104  0.000000  1
  Te  Te7  1  0.333523  0.665416  0.501645  1
  Te  Te8  1  0.665416  0.333523  0.498355  1
  O  O9  1  0.089574  0.885551  0.786996  1
  O  O10  1  0.116977  0.206151  0.788764  1
  O  O11  1  0.796963  0.911995  0.786944  1
  O  O12  1  0.206151  0.116977  0.211236  1
  O  O13  1  0.911995  0.796963  0.213056  1
  O  O14  1  0.885551  0.089574  0.213004  1
  O  O15  1  0.460739  0.592618  0.718774  1
  O  O16  1  0.403984  0.865551  0.716374  1
  O  O17  1  0.132430  0.536619  0.714095  1
  O  O18  1  0.865551  0.403984  0.283626  1
  O  O19  1  0.536619  0.132430  0.285905  1
  O  O20  1  0.592618  0.460739  0.281226  1
  O  O21  1  0.228637  0.765909  0.286880  1
  O  O22  1  0.235217  0.461121  0.284557  1
  O  O23  1  0.539169  0.772086  0.288949  1
  O  O24  1  0.461121  0.235217  0.715443  1
  O  O25  1  0.772086  0.539169  0.711051  1
  O  O26  1  0.765909  0.228637  0.713120  1
