# generated using pymatgen
data_Ta4Cu4Si4W
_symmetry_space_group_name_H-M   'P 1'
_cell_length_a   7.36734833
_cell_length_b   7.36734778
_cell_length_c   7.36734864
_cell_angle_alpha   93.47715503
_cell_angle_beta   93.47715696
_cell_angle_gamma   151.48580344
_symmetry_Int_Tables_number   1
_chemical_formula_structural   Ta4Cu4Si4W
_chemical_formula_sum   'Ta4 Cu4 Si4 W1'
_cell_volume   185.01554359
_cell_formula_units_Z   1
loop_
 _symmetry_equiv_pos_site_id
 _symmetry_equiv_pos_as_xyz
  1  'x, y, z'
loop_
 _atom_site_type_symbol
 _atom_site_label
 _atom_site_symmetry_multiplicity
 _atom_site_fract_x
 _atom_site_fract_y
 _atom_site_fract_z
 _atom_site_occupancy
  Ta  Ta0  1  0.126918  0.805284  0.932202  1
  Ta  Ta1  1  0.194716  0.126918  0.321633  1
  Ta  Ta2  1  0.805284  0.873082  0.678367  1
  Ta  Ta3  1  0.873082  0.194716  0.067798  1
  Cu  Cu4  1  0.395441  0.916773  0.312214  1
  Cu  Cu5  1  0.604559  0.083227  0.687786  1
  Cu  Cu6  1  0.916773  0.604559  0.521332  1
  Cu  Cu7  1  0.083227  0.395441  0.478668  1
  Si  Si8  1  0.249290  0.559864  0.809154  1
  Si  Si9  1  0.440136  0.249290  0.689427  1
  Si  Si10  1  0.559864  0.750710  0.310573  1
  Si  Si11  1  0.750710  0.440136  0.190846  1
  W  W12  1  0.500000  0.500000  0.000000  1
