# generated using pymatgen
data_Ba4Ho7LuSe16
_symmetry_space_group_name_H-M   'P 1'
_cell_length_a   4.18763700
_cell_length_b   12.88543609
_cell_length_c   15.13534611
_cell_angle_alpha   89.98605120
_cell_angle_beta   90.00000000
_cell_angle_gamma   90.00000000
_symmetry_Int_Tables_number   1
_chemical_formula_structural   Ba4Ho7LuSe16
_chemical_formula_sum   'Ba4 Ho7 Lu1 Se16'
_cell_volume   816.69612257
_cell_formula_units_Z   1
loop_
 _symmetry_equiv_pos_site_id
 _symmetry_equiv_pos_as_xyz
  1  'x, y, z'
loop_
 _atom_site_type_symbol
 _atom_site_label
 _atom_site_symmetry_multiplicity
 _atom_site_fract_x
 _atom_site_fract_y
 _atom_site_fract_z
 _atom_site_occupancy
  Ba  Ba0  1  0.250000  0.760189  0.334938  1
  Ba  Ba1  1  0.250000  0.259671  0.165717  1
  Ba  Ba2  1  0.750000  0.239577  0.664385  1
  Ba  Ba3  1  0.750000  0.740104  0.834711  1
  Ho  Ho4  1  0.250000  0.437720  0.390616  1
  Ho  Ho5  1  0.250000  0.939026  0.110204  1
  Ho  Ho6  1  0.750000  0.561493  0.609337  1
  Ho  Ho7  1  0.750000  0.061526  0.890614  1
  Ho  Ho8  1  0.250000  0.419105  0.901006  1
  Ho  Ho9  1  0.250000  0.919574  0.598498  1
  Ho  Ho10  1  0.750000  0.580766  0.098965  1
  Lu  Lu11  1  0.750000  0.080649  0.401138  1
  Se  Se12  1  0.250000  0.204441  0.838531  1
  Se  Se13  1  0.250000  0.704643  0.661085  1
  Se  Se14  1  0.750000  0.795715  0.161394  1
  Se  Se15  1  0.750000  0.293413  0.339707  1
  Se  Se16  1  0.250000  0.123362  0.523858  1
  Se  Se17  1  0.250000  0.623878  0.973898  1
  Se  Se18  1  0.750000  0.878253  0.472844  1
  Se  Se19  1  0.750000  0.376112  0.026172  1
  Se  Se20  1  0.250000  0.526671  0.216542  1
  Se  Se21  1  0.250000  0.028062  0.285542  1
  Se  Se22  1  0.750000  0.473077  0.783532  1
  Se  Se23  1  0.750000  0.973253  0.716210  1
  Se  Se24  1  0.250000  0.413658  0.575939  1
  Se  Se25  1  0.250000  0.913790  0.924476  1
  Se  Se26  1  0.750000  0.586028  0.424046  1
  Se  Se27  1  0.750000  0.086245  0.076095  1
