# generated using pymatgen
data_Ac3Ce(ZnSn)4
_symmetry_space_group_name_H-M   'P 1'
_cell_length_a   4.67917900
_cell_length_b   4.67917935
_cell_length_c   17.64260800
_cell_angle_alpha   90.00000000
_cell_angle_beta   90.00000000
_cell_angle_gamma   120.00000458
_symmetry_Int_Tables_number   1
_chemical_formula_structural   Ac3Ce(ZnSn)4
_chemical_formula_sum   'Ac3 Ce1 Zn4 Sn4'
_cell_volume   334.52821056
_cell_formula_units_Z   1
loop_
 _symmetry_equiv_pos_site_id
 _symmetry_equiv_pos_as_xyz
  1  'x, y, z'
loop_
 _atom_site_type_symbol
 _atom_site_label
 _atom_site_symmetry_multiplicity
 _atom_site_fract_x
 _atom_site_fract_y
 _atom_site_fract_z
 _atom_site_occupancy
  Ac  Ac0  1  0.000000  0.000000  0.750000  1
  Ac  Ac1  1  0.000000  0.000000  0.494221  1
  Ac  Ac2  1  0.000000  0.000000  0.005779  1
  Ce  Ce3  1  0.000000  0.000000  0.250000  1
  Zn  Zn4  1  0.666667  0.333333  0.850203  1
  Zn  Zn5  1  0.666667  0.333333  0.649797  1
  Zn  Zn6  1  0.333333  0.666667  0.166192  1
  Zn  Zn7  1  0.333333  0.666667  0.333808  1
  Sn  Sn8  1  0.666667  0.333333  0.128508  1
  Sn  Sn9  1  0.666667  0.333333  0.371492  1
  Sn  Sn10  1  0.333333  0.666667  0.884773  1
  Sn  Sn11  1  0.333333  0.666667  0.615227  1
