# generated using pymatgen
data_Mn6Al5SiRu12
_symmetry_space_group_name_H-M   'P 1'
_cell_length_a   4.21824400
_cell_length_b   5.97836300
_cell_length_c   12.65450200
_cell_angle_alpha   90.00000000
_cell_angle_beta   89.99905825
_cell_angle_gamma   89.99991133
_symmetry_Int_Tables_number   1
_chemical_formula_structural   Mn6Al5SiRu12
_chemical_formula_sum   'Mn6 Al5 Si1 Ru12'
_cell_volume   319.12368455
_cell_formula_units_Z   1
loop_
 _symmetry_equiv_pos_site_id
 _symmetry_equiv_pos_as_xyz
  1  'x, y, z'
loop_
 _atom_site_type_symbol
 _atom_site_label
 _atom_site_symmetry_multiplicity
 _atom_site_fract_x
 _atom_site_fract_y
 _atom_site_fract_z
 _atom_site_occupancy
  Mn  Mn0  1  0.999999  0.499996  0.999997  1
  Mn  Mn1  1  0.499808  0.999998  0.168682  1
  Mn  Mn2  1  0.999819  0.500001  0.333111  1
  Mn  Mn3  1  0.499999  0.000001  0.500009  1
  Mn  Mn4  1  0.000182  0.500001  0.666912  1
  Mn  Mn5  1  0.500190  0.999999  0.831315  1
  Al  Al6  1  0.499832  0.500001  0.165625  1
  Al  Al7  1  0.999812  0.000001  0.332992  1
  Al  Al8  1  0.500000  0.500000  0.499985  1
  Al  Al9  1  0.000187  0.000002  0.666999  1
  Al  Al10  1  0.500169  0.500000  0.834385  1
  Si  Si11  1  0.000000  0.000000  0.000000  1
  Ru  Ru12  1  0.500001  0.240946  0.000005  1
  Ru  Ru13  1  0.500000  0.759055  0.000005  1
  Ru  Ru14  1  0.999820  0.246679  0.163378  1
  Ru  Ru15  1  0.999820  0.753321  0.163378  1
  Ru  Ru16  1  0.499827  0.250378  0.332909  1
  Ru  Ru17  1  0.499829  0.749624  0.332910  1
  Ru  Ru18  1  0.000000  0.251180  0.499989  1
  Ru  Ru19  1  0.000000  0.748822  0.499989  1
  Ru  Ru20  1  0.500175  0.250328  0.667082  1
  Ru  Ru21  1  0.500173  0.749674  0.667082  1
  Ru  Ru22  1  0.000177  0.246682  0.836632  1
  Ru  Ru23  1  0.000177  0.753319  0.836632  1
