# generated using pymatgen
data_Pr3Ho8In9Rh4
_symmetry_space_group_name_H-M   'P 1'
_cell_length_a   13.19587368
_cell_length_b   13.19551771
_cell_length_c   3.72788900
_cell_angle_alpha   90.00000000
_cell_angle_beta   90.00000000
_cell_angle_gamma   111.39577602
_symmetry_Int_Tables_number   1
_chemical_formula_structural   Pr3Ho8In9Rh4
_chemical_formula_sum   'Pr3 Ho8 In9 Rh4'
_cell_volume   604.38798082
_cell_formula_units_Z   1
loop_
 _symmetry_equiv_pos_site_id
 _symmetry_equiv_pos_as_xyz
  1  'x, y, z'
loop_
 _atom_site_type_symbol
 _atom_site_label
 _atom_site_symmetry_multiplicity
 _atom_site_fract_x
 _atom_site_fract_y
 _atom_site_fract_z
 _atom_site_occupancy
  Pr  Pr0  1  0.500000  0.500000  0.500000  1
  Pr  Pr1  1  0.341545  0.658498  0.500000  1
  Pr  Pr2  1  0.658455  0.341502  0.500000  1
  Ho  Ho3  1  0.815809  0.815805  0.500000  1
  Ho  Ho4  1  0.184191  0.184195  0.500000  1
  Ho  Ho5  1  0.582223  0.919001  0.500000  1
  Ho  Ho6  1  0.417777  0.080999  0.500000  1
  Ho  Ho7  1  0.919028  0.582230  0.500000  1
  Ho  Ho8  1  0.080972  0.417770  0.500000  1
  Ho  Ho9  1  0.124749  0.875239  0.500000  1
  Ho  Ho10  1  0.875251  0.124761  0.500000  1
  In  In11  1  0.338846  0.869295  0.000000  1
  In  In12  1  0.661154  0.130705  0.000000  1
  In  In13  1  0.869174  0.338799  0.000000  1
  In  In14  1  0.130826  0.661201  0.000000  1
  In  In15  1  0.582998  0.724279  0.000000  1
  In  In16  1  0.417002  0.275721  0.000000  1
  In  In17  1  0.724263  0.582964  0.000000  1
  In  In18  1  0.275737  0.417036  0.000000  1
  In  In19  1  0.000000  0.000000  0.000000  1
  Rh  Rh20  1  0.747343  0.952869  0.000000  1
  Rh  Rh21  1  0.252657  0.047131  0.000000  1
  Rh  Rh22  1  0.952838  0.747315  0.000000  1
  Rh  Rh23  1  0.047162  0.252685  0.000000  1
