# generated using pymatgen
data_Gd2Ta5WO18
_symmetry_space_group_name_H-M   'P 1'
_cell_length_a   7.55496303
_cell_length_b   5.36029037
_cell_length_c   8.33445214
_cell_angle_alpha   87.60326144
_cell_angle_beta   90.06245949
_cell_angle_gamma   89.78313142
_symmetry_Int_Tables_number   1
_chemical_formula_structural   Gd2Ta5WO18
_chemical_formula_sum   'Gd2 Ta5 W1 O18'
_cell_volume   337.22066857
_cell_formula_units_Z   1
loop_
 _symmetry_equiv_pos_site_id
 _symmetry_equiv_pos_as_xyz
  1  'x, y, z'
loop_
 _atom_site_type_symbol
 _atom_site_label
 _atom_site_symmetry_multiplicity
 _atom_site_fract_x
 _atom_site_fract_y
 _atom_site_fract_z
 _atom_site_occupancy
  Gd  Gd0  1  0.247857  0.964827  0.435600  1
  Gd  Gd1  1  0.752143  0.035173  0.564400  1
  Ta  Ta2  1  0.500000  0.000000  0.000000  1
  Ta  Ta3  1  0.007312  0.529635  0.697305  1
  Ta  Ta4  1  0.493951  0.526883  0.696578  1
  Ta  Ta5  1  0.992688  0.470365  0.302695  1
  Ta  Ta6  1  0.506049  0.473117  0.303422  1
  W  W7  1  0.000000  0.000000  0.000000  1
  O  O8  1  0.247034  0.913557  0.979734  1
  O  O9  1  0.935774  0.850993  0.782741  1
  O  O10  1  0.559784  0.847003  0.788211  1
  O  O11  1  0.958879  0.739019  0.468578  1
  O  O12  1  0.540915  0.738970  0.468083  1
  O  O13  1  0.250518  0.657212  0.657916  1
  O  O14  1  0.948942  0.676433  0.123811  1
  O  O15  1  0.549018  0.679326  0.121730  1
  O  O16  1  0.250228  0.571664  0.314287  1
  O  O17  1  0.749772  0.428336  0.685713  1
  O  O18  1  0.051058  0.323567  0.876189  1
  O  O19  1  0.450982  0.320674  0.878270  1
  O  O20  1  0.749482  0.342788  0.342084  1
  O  O21  1  0.041121  0.260981  0.531422  1
  O  O22  1  0.459085  0.261030  0.531917  1
  O  O23  1  0.064226  0.149007  0.217259  1
  O  O24  1  0.440216  0.152997  0.211789  1
  O  O25  1  0.752966  0.086443  0.020266  1
