# generated using pymatgen
data_CaHfH5
_symmetry_space_group_name_H-M   'P 1'
_cell_length_a   3.40990800
_cell_length_b   5.12084600
_cell_length_c   14.09125100
_cell_angle_alpha   90.00000000
_cell_angle_beta   90.00000000
_cell_angle_gamma   90.00000000
_symmetry_Int_Tables_number   1
_chemical_formula_structural   CaHfH5
_chemical_formula_sum   'Ca4 Hf4 H20'
_cell_volume   246.05598211
_cell_formula_units_Z   4
loop_
 _symmetry_equiv_pos_site_id
 _symmetry_equiv_pos_as_xyz
  1  'x, y, z'
loop_
 _atom_site_type_symbol
 _atom_site_label
 _atom_site_symmetry_multiplicity
 _atom_site_fract_x
 _atom_site_fract_y
 _atom_site_fract_z
 _atom_site_occupancy
  Ca  Ca0  1  0.733323  0.502468  0.813937  1
  Ca  Ca1  1  0.233323  0.997532  0.186063  1
  Ca  Ca2  1  0.766677  0.497532  0.313937  1
  Ca  Ca3  1  0.266677  0.002468  0.686063  1
  Hf  Hf4  1  0.225927  0.003732  0.934199  1
  Hf  Hf5  1  0.725927  0.496268  0.065801  1
  Hf  Hf6  1  0.274073  0.996268  0.434199  1
  Hf  Hf7  1  0.774073  0.503732  0.565801  1
  H  H8  1  0.723949  0.755110  0.950901  1
  H  H9  1  0.223949  0.744890  0.049099  1
  H  H10  1  0.776051  0.244890  0.450901  1
  H  H11  1  0.276051  0.255110  0.549099  1
  H  H12  1  0.231037  0.762174  0.825129  1
  H  H13  1  0.731037  0.737826  0.174871  1
  H  H14  1  0.268963  0.237826  0.325129  1
  H  H15  1  0.768963  0.262174  0.674871  1
  H  H16  1  0.731082  0.256597  0.174699  1
  H  H17  1  0.231082  0.243403  0.825301  1
  H  H18  1  0.768918  0.743403  0.674699  1
  H  H19  1  0.268918  0.756597  0.325301  1
  H  H20  1  0.727096  0.002367  0.842802  1
  H  H21  1  0.227096  0.497633  0.157198  1
  H  H22  1  0.772904  0.997633  0.342802  1
  H  H23  1  0.272904  0.502367  0.657198  1
  H  H24  1  0.223896  0.251657  0.049309  1
  H  H25  1  0.723896  0.248343  0.950691  1
  H  H26  1  0.276104  0.748343  0.549309  1
  H  H27  1  0.776104  0.751657  0.450691  1
