# generated using pymatgen
data_Dy19Lu(IrPt5)2
_symmetry_space_group_name_H-M   'P 1'
_cell_length_a   11.01970501
_cell_length_b   11.02407001
_cell_length_c   6.40589700
_cell_angle_alpha   90.00000000
_cell_angle_beta   90.00000000
_cell_angle_gamma   89.99556060
_symmetry_Int_Tables_number   1
_chemical_formula_structural   Dy19Lu(IrPt5)2
_chemical_formula_sum   'Dy19 Lu1 Ir2 Pt10'
_cell_volume   778.20117370
_cell_formula_units_Z   1
loop_
 _symmetry_equiv_pos_site_id
 _symmetry_equiv_pos_as_xyz
  1  'x, y, z'
loop_
 _atom_site_type_symbol
 _atom_site_label
 _atom_site_symmetry_multiplicity
 _atom_site_fract_x
 _atom_site_fract_y
 _atom_site_fract_z
 _atom_site_occupancy
  Dy  Dy0  1  0.291704  0.088430  0.377182  1
  Dy  Dy1  1  0.292157  0.911306  0.876775  1
  Dy  Dy2  1  0.707843  0.088694  0.876775  1
  Dy  Dy3  1  0.708296  0.911570  0.377182  1
  Dy  Dy4  1  0.588776  0.792646  0.876672  1
  Dy  Dy5  1  0.588716  0.207322  0.376602  1
  Dy  Dy6  1  0.411284  0.792678  0.376602  1
  Dy  Dy7  1  0.411224  0.207354  0.876672  1
  Dy  Dy8  1  0.204802  0.412062  0.623892  1
  Dy  Dy9  1  0.204761  0.588026  0.123750  1
  Dy  Dy10  1  0.795239  0.411974  0.123750  1
  Dy  Dy11  1  0.795198  0.587938  0.623892  1
  Dy  Dy12  1  0.912007  0.705397  0.123740  1
  Dy  Dy13  1  0.912306  0.294093  0.623237  1
  Dy  Dy14  1  0.087694  0.705907  0.623237  1
  Dy  Dy15  1  0.087993  0.294603  0.123740  1
  Dy  Dy16  1  0.000000  0.000000  0.000776  1
  Dy  Dy17  1  0.500000  0.500000  0.000798  1
  Dy  Dy18  1  0.500000  0.500000  0.500756  1
  Lu  Lu19  1  0.000000  0.000000  0.500782  1
  Ir  Ir20  1  0.000000  0.500000  0.878176  1
  Ir  Ir21  1  0.000000  0.500000  0.378559  1
  Pt  Pt22  1  0.847128  0.151605  0.252339  1
  Pt  Pt23  1  0.847096  0.848501  0.747786  1
  Pt  Pt24  1  0.152904  0.151499  0.747786  1
  Pt  Pt25  1  0.152872  0.848395  0.252339  1
  Pt  Pt26  1  0.652882  0.345778  0.749892  1
  Pt  Pt27  1  0.652857  0.654210  0.250153  1
  Pt  Pt28  1  0.347143  0.345790  0.250153  1
  Pt  Pt29  1  0.347118  0.654222  0.749892  1
  Pt  Pt30  1  0.500000  0.000000  0.118095  1
  Pt  Pt31  1  0.500000  0.000000  0.618019  1
