# generated using pymatgen
data_Lu12In2Tc2Ni
_symmetry_space_group_name_H-M   'P 1'
_cell_length_a   8.23813774
_cell_length_b   8.23813759
_cell_length_c   8.23813838
_cell_angle_alpha   108.86347268
_cell_angle_beta   108.86348041
_cell_angle_gamma   110.69366561
_symmetry_Int_Tables_number   1
_chemical_formula_structural   Lu12In2Tc2Ni
_chemical_formula_sum   'Lu12 In2 Tc2 Ni1'
_cell_volume   430.24579894
_cell_formula_units_Z   1
loop_
 _symmetry_equiv_pos_site_id
 _symmetry_equiv_pos_as_xyz
  1  'x, y, z'
loop_
 _atom_site_type_symbol
 _atom_site_label
 _atom_site_symmetry_multiplicity
 _atom_site_fract_x
 _atom_site_fract_y
 _atom_site_fract_z
 _atom_site_occupancy
  Lu  Lu0  1  0.311727  0.311727  0.612516  1
  Lu  Lu1  1  0.699211  0.699211  0.387484  1
  Lu  Lu2  1  0.699211  0.311727  0.000000  1
  Lu  Lu3  1  0.311727  0.699211  0.000000  1
  Lu  Lu4  1  0.191623  0.432015  0.240392  1
  Lu  Lu5  1  0.810192  0.569620  0.759428  1
  Lu  Lu6  1  0.191623  0.951230  0.759608  1
  Lu  Lu7  1  0.951230  0.191623  0.759608  1
  Lu  Lu8  1  0.810192  0.050765  0.240572  1
  Lu  Lu9  1  0.050765  0.810192  0.240572  1
  Lu  Lu10  1  0.432015  0.191623  0.240392  1
  Lu  Lu11  1  0.569620  0.810192  0.759428  1
  In  In12  1  0.001603  0.501603  0.500000  1
  In  In13  1  0.501603  0.001603  0.500000  1
  Tc  Tc14  1  0.615668  0.615668  0.000000  1
  Tc  Tc15  1  0.000184  0.000184  0.000000  1
  Ni  Ni16  1  0.351805  0.351805  0.000000  1
