# generated using pymatgen
data_AcNbO4
_symmetry_space_group_name_H-M   'P 1'
_cell_length_a   7.22144162
_cell_length_b   7.22144141
_cell_length_c   5.49525278
_cell_angle_alpha   68.13273286
_cell_angle_beta   68.13272531
_cell_angle_gamma   114.81192969
_symmetry_Int_Tables_number   1
_chemical_formula_structural   AcNbO4
_chemical_formula_sum   'Ac2 Nb2 O8'
_cell_volume   187.92352053
_cell_formula_units_Z   2
loop_
 _symmetry_equiv_pos_site_id
 _symmetry_equiv_pos_as_xyz
  1  'x, y, z'
loop_
 _atom_site_type_symbol
 _atom_site_label
 _atom_site_symmetry_multiplicity
 _atom_site_fract_x
 _atom_site_fract_y
 _atom_site_fract_z
 _atom_site_occupancy
  Ac  Ac0  1  0.126507  0.873493  0.250000  1
  Ac  Ac1  1  0.873493  0.126507  0.750000  1
  Nb  Nb2  1  0.617346  0.382654  0.250000  1
  Nb  Nb3  1  0.382654  0.617346  0.750000  1
  O  O4  1  0.149820  0.559556  0.651398  1
  O  O5  1  0.440444  0.850180  0.848602  1
  O  O6  1  0.850180  0.440444  0.348602  1
  O  O7  1  0.559556  0.149820  0.151398  1
  O  O8  1  0.782740  0.705824  0.846901  1
  O  O9  1  0.294176  0.217260  0.653099  1
  O  O10  1  0.217260  0.294176  0.153099  1
  O  O11  1  0.705824  0.782740  0.346901  1
