# generated using pymatgen
data_PrHo3(PPt)4
_symmetry_space_group_name_H-M   'P 1'
_cell_length_a   4.12997700
_cell_length_b   4.12997725
_cell_length_c   15.85056100
_cell_angle_alpha   90.00000000
_cell_angle_beta   90.00000000
_cell_angle_gamma   120.00000600
_symmetry_Int_Tables_number   1
_chemical_formula_structural   PrHo3(PPt)4
_chemical_formula_sum   'Pr1 Ho3 P4 Pt4'
_cell_volume   234.13726220
_cell_formula_units_Z   1
loop_
 _symmetry_equiv_pos_site_id
 _symmetry_equiv_pos_as_xyz
  1  'x, y, z'
loop_
 _atom_site_type_symbol
 _atom_site_label
 _atom_site_symmetry_multiplicity
 _atom_site_fract_x
 _atom_site_fract_y
 _atom_site_fract_z
 _atom_site_occupancy
  Pr  Pr0  1  0.000000  0.000000  0.500000  1
  Ho  Ho1  1  0.000000  0.000000  0.000000  1
  Ho  Ho2  1  0.000000  0.000000  0.245798  1
  Ho  Ho3  1  0.000000  0.000000  0.754202  1
  P  P4  1  0.333333  0.666667  0.883318  1
  P  P5  1  0.666667  0.333333  0.116682  1
  P  P6  1  0.666667  0.333333  0.373464  1
  P  P7  1  0.333333  0.666667  0.626536  1
  Pt  Pt8  1  0.333333  0.666667  0.360712  1
  Pt  Pt9  1  0.666667  0.333333  0.639288  1
  Pt  Pt10  1  0.666667  0.333333  0.871316  1
  Pt  Pt11  1  0.333333  0.666667  0.128684  1
