# generated using pymatgen
data_Ho4Sn4Sb2Rh7
_symmetry_space_group_name_H-M   'P 1'
_cell_length_a   7.59022678
_cell_length_b   7.59241758
_cell_length_c   7.59022804
_cell_angle_alpha   109.54636539
_cell_angle_beta   109.30931959
_cell_angle_gamma   109.54635868
_symmetry_Int_Tables_number   1
_chemical_formula_structural   Ho4Sn4Sb2Rh7
_chemical_formula_sum   'Ho4 Sn4 Sb2 Rh7'
_cell_volume   336.76594605
_cell_formula_units_Z   1
loop_
 _symmetry_equiv_pos_site_id
 _symmetry_equiv_pos_as_xyz
  1  'x, y, z'
loop_
 _atom_site_type_symbol
 _atom_site_label
 _atom_site_symmetry_multiplicity
 _atom_site_fract_x
 _atom_site_fract_y
 _atom_site_fract_z
 _atom_site_occupancy
  Ho  Ho0  1  0.498747  0.997494  0.998747  1
  Ho  Ho1  1  0.998993  0.493838  0.998993  1
  Ho  Ho2  1  0.998747  0.997494  0.498747  1
  Ho  Ho3  1  0.494845  0.493838  0.494845  1
  Sn  Sn4  1  0.314226  0.995296  0.314226  1
  Sn  Sn5  1  0.997449  0.687304  0.689855  1
  Sn  Sn6  1  0.689855  0.687304  0.997449  1
  Sn  Sn7  1  0.681069  0.995296  0.681069  1
  Sb  Sb8  1  0.997644  0.318559  0.320915  1
  Sb  Sb9  1  0.320915  0.318559  0.997644  1
  Rh  Rh10  1  0.251063  0.502126  0.751063  1
  Rh  Rh11  1  0.501276  0.250531  0.749255  1
  Rh  Rh12  1  0.749255  0.250531  0.501276  1
  Rh  Rh13  1  0.501088  0.748385  0.247297  1
  Rh  Rh14  1  0.006468  0.012936  0.006468  1
  Rh  Rh15  1  0.247297  0.748385  0.501088  1
  Rh  Rh16  1  0.751063  0.502126  0.251063  1
