# generated using pymatgen
data_SrNi2BPO7
_symmetry_space_group_name_H-M   'P 1'
_cell_length_a   9.04565700
_cell_length_b   6.45981041
_cell_length_c   10.09181283
_cell_angle_alpha   68.89096550
_cell_angle_beta   90.00000000
_cell_angle_gamma   90.00000000
_symmetry_Int_Tables_number   1
_chemical_formula_structural   SrNi2BPO7
_chemical_formula_sum   'Sr4 Ni8 B4 P4 O28'
_cell_volume   550.12661801
_cell_formula_units_Z   4
loop_
 _symmetry_equiv_pos_site_id
 _symmetry_equiv_pos_as_xyz
  1  'x, y, z'
loop_
 _atom_site_type_symbol
 _atom_site_label
 _atom_site_symmetry_multiplicity
 _atom_site_fract_x
 _atom_site_fract_y
 _atom_site_fract_z
 _atom_site_occupancy
  Sr  Sr0  1  0.703415  0.164276  0.486565  1
  Sr  Sr1  1  0.203415  0.835724  0.013435  1
  Sr  Sr2  1  0.296585  0.835724  0.513435  1
  Sr  Sr3  1  0.796585  0.164276  0.986565  1
  Ni  Ni4  1  0.819256  0.708335  0.854867  1
  Ni  Ni5  1  0.319256  0.291665  0.645133  1
  Ni  Ni6  1  0.180744  0.291665  0.145133  1
  Ni  Ni7  1  0.680744  0.708335  0.354867  1
  Ni  Ni8  1  0.052337  0.429855  0.378192  1
  Ni  Ni9  1  0.552337  0.570145  0.121808  1
  Ni  Ni10  1  0.947663  0.570145  0.621808  1
  Ni  Ni11  1  0.447663  0.429855  0.878192  1
  B  B12  1  0.623484  0.537100  0.669337  1
  B  B13  1  0.123484  0.462900  0.830663  1
  B  B14  1  0.376516  0.462900  0.330663  1
  B  B15  1  0.876516  0.537100  0.169337  1
  P  P16  1  0.009370  0.040440  0.691326  1
  P  P17  1  0.509370  0.959560  0.808674  1
  P  P18  1  0.990630  0.959560  0.308674  1
  P  P19  1  0.490630  0.040440  0.191326  1
  O  O20  1  0.956085  0.273625  0.590407  1
  O  O21  1  0.456085  0.726375  0.909593  1
  O  O22  1  0.043915  0.726375  0.409593  1
  O  O23  1  0.543915  0.273625  0.090407  1
  O  O24  1  0.975548  0.985821  0.851617  1
  O  O25  1  0.475548  0.014179  0.648383  1
  O  O26  1  0.024452  0.014179  0.148383  1
  O  O27  1  0.524452  0.985821  0.351617  1
  O  O28  1  0.912631  0.874578  0.646338  1
  O  O29  1  0.412631  0.125422  0.853662  1
  O  O30  1  0.087369  0.125422  0.353662  1
  O  O31  1  0.587369  0.874578  0.146338  1
  O  O32  1  0.666857  0.498207  0.808841  1
  O  O33  1  0.166857  0.501793  0.691159  1
  O  O34  1  0.333143  0.501793  0.191159  1
  O  O35  1  0.833143  0.498207  0.308841  1
  O  O36  1  0.971588  0.469436  0.850803  1
  O  O37  1  0.471588  0.530564  0.649197  1
  O  O38  1  0.028412  0.530564  0.149197  1
  O  O39  1  0.528412  0.469436  0.350803  1
  O  O40  1  0.177068  0.015400  0.674951  1
  O  O41  1  0.677068  0.984600  0.825049  1
  O  O42  1  0.822932  0.984600  0.325049  1
  O  O43  1  0.322932  0.015400  0.174951  1
  O  O44  1  0.772746  0.579304  0.063268  1
  O  O45  1  0.272746  0.420696  0.436732  1
  O  O46  1  0.227254  0.420696  0.936732  1
  O  O47  1  0.727254  0.579304  0.563268  1
