# generated using pymatgen
data_CeEu3Zr4O14
_symmetry_space_group_name_H-M   'P 1'
_cell_length_a   7.60056395
_cell_length_b   7.60056509
_cell_length_c   7.60056500
_cell_angle_alpha   59.87639817
_cell_angle_beta   59.87639202
_cell_angle_gamma   59.87639625
_symmetry_Int_Tables_number   1
_chemical_formula_structural   CeEu3Zr4O14
_chemical_formula_sum   'Ce1 Eu3 Zr4 O14'
_cell_volume   309.60135213
_cell_formula_units_Z   1
loop_
 _symmetry_equiv_pos_site_id
 _symmetry_equiv_pos_as_xyz
  1  'x, y, z'
loop_
 _atom_site_type_symbol
 _atom_site_label
 _atom_site_symmetry_multiplicity
 _atom_site_fract_x
 _atom_site_fract_y
 _atom_site_fract_z
 _atom_site_occupancy
  Ce  Ce0  1  0.625000  0.625000  0.625000  1
  Eu  Eu1  1  0.625000  0.125000  0.625000  1
  Eu  Eu2  1  0.625000  0.625000  0.125000  1
  Eu  Eu3  1  0.125000  0.625000  0.625000  1
  Zr  Zr4  1  0.125000  0.125000  0.125000  1
  Zr  Zr5  1  0.625000  0.125000  0.125000  1
  Zr  Zr6  1  0.125000  0.125000  0.625000  1
  Zr  Zr7  1  0.125000  0.625000  0.125000  1
  O  O8  1  0.217380  0.788044  0.788044  1
  O  O9  1  0.788044  0.788044  0.217380  1
  O  O10  1  0.788044  0.217380  0.788044  1
  O  O11  1  0.210876  0.787977  0.210876  1
  O  O12  1  0.210876  0.210876  0.787977  1
  O  O13  1  0.787977  0.210876  0.210876  1
  O  O14  1  0.462023  0.039124  0.039124  1
  O  O15  1  0.039124  0.039124  0.462023  1
  O  O16  1  0.039124  0.462023  0.039124  1
  O  O17  1  0.461956  0.032620  0.461956  1
  O  O18  1  0.742676  0.742676  0.742676  1
  O  O19  1  0.461956  0.461956  0.032620  1
  O  O20  1  0.032620  0.461956  0.461956  1
  O  O21  1  0.507324  0.507324  0.507324  1
