# generated using pymatgen
data_Pr8CdHgIr2
_symmetry_space_group_name_H-M   'P 1'
_cell_length_a   10.03187645
_cell_length_b   10.03187599
_cell_length_c   10.03750400
_cell_angle_alpha   59.98144670
_cell_angle_beta   59.98144822
_cell_angle_gamma   60.03855442
_symmetry_Int_Tables_number   1
_chemical_formula_structural   Pr8CdHgIr2
_chemical_formula_sum   'Pr16 Cd2 Hg2 Ir4'
_cell_volume   714.29816151
_cell_formula_units_Z   2
loop_
 _symmetry_equiv_pos_site_id
 _symmetry_equiv_pos_as_xyz
  1  'x, y, z'
loop_
 _atom_site_type_symbol
 _atom_site_label
 _atom_site_symmetry_multiplicity
 _atom_site_fract_x
 _atom_site_fract_y
 _atom_site_fract_z
 _atom_site_occupancy
  Pr  Pr0  1  0.348435  0.348435  0.348347  1
  Pr  Pr1  1  0.348435  0.348435  0.954782  1
  Pr  Pr2  1  0.349384  0.951303  0.349656  1
  Pr  Pr3  1  0.951303  0.349384  0.349656  1
  Pr  Pr4  1  0.808548  0.190120  0.192387  1
  Pr  Pr5  1  0.190120  0.808548  0.808944  1
  Pr  Pr6  1  0.190120  0.808548  0.192387  1
  Pr  Pr7  1  0.808548  0.190120  0.808944  1
  Pr  Pr8  1  0.190117  0.190117  0.809883  1
  Pr  Pr9  1  0.807753  0.807753  0.192247  1
  Pr  Pr10  1  0.939084  0.560437  0.561268  1
  Pr  Pr11  1  0.560437  0.939084  0.939211  1
  Pr  Pr12  1  0.560437  0.939084  0.561268  1
  Pr  Pr13  1  0.939084  0.560437  0.939211  1
  Pr  Pr14  1  0.560926  0.560926  0.939074  1
  Pr  Pr15  1  0.939231  0.939231  0.560769  1
  Cd  Cd16  1  0.579246  0.260564  0.580095  1
  Cd  Cd17  1  0.260564  0.579246  0.580095  1
  Hg  Hg18  1  0.582705  0.582705  0.584605  1
  Hg  Hg19  1  0.582705  0.582705  0.249984  1
  Ir  Ir20  1  0.142449  0.142449  0.140476  1
  Ir  Ir21  1  0.142449  0.142449  0.574625  1
  Ir  Ir22  1  0.142919  0.574998  0.141042  1
  Ir  Ir23  1  0.574998  0.142919  0.141042  1
