# generated using pymatgen
data_Ta6AlZn6
_symmetry_space_group_name_H-M   'P 1'
_cell_length_a   9.66183088
_cell_length_b   9.66183087
_cell_length_c   9.66183153
_cell_angle_alpha   30.40978042
_cell_angle_beta   30.40978230
_cell_angle_gamma   30.40978106
_symmetry_Int_Tables_number   1
_chemical_formula_structural   Ta6AlZn6
_chemical_formula_sum   'Ta6 Al1 Zn6'
_cell_volume   204.82470738
_cell_formula_units_Z   1
loop_
 _symmetry_equiv_pos_site_id
 _symmetry_equiv_pos_as_xyz
  1  'x, y, z'
loop_
 _atom_site_type_symbol
 _atom_site_label
 _atom_site_symmetry_multiplicity
 _atom_site_fract_x
 _atom_site_fract_y
 _atom_site_fract_z
 _atom_site_occupancy
  Ta  Ta0  1  0.835147  0.835147  0.835147  1
  Ta  Ta1  1  0.164853  0.164853  0.164853  1
  Ta  Ta2  1  0.649817  0.649817  0.649817  1
  Ta  Ta3  1  0.350183  0.350183  0.350183  1
  Ta  Ta4  1  0.545186  0.545186  0.545186  1
  Ta  Ta5  1  0.454814  0.454814  0.454814  1
  Al  Al6  1  0.000000  0.000000  0.000000  1
  Zn  Zn7  1  0.906600  0.414993  0.906600  1
  Zn  Zn8  1  0.906600  0.906600  0.414993  1
  Zn  Zn9  1  0.414993  0.906600  0.906600  1
  Zn  Zn10  1  0.093400  0.585007  0.093400  1
  Zn  Zn11  1  0.093400  0.093400  0.585007  1
  Zn  Zn12  1  0.585007  0.093400  0.093400  1
