# generated using pymatgen
data_Sc3In3Ag2Os
_symmetry_space_group_name_H-M   'P 1'
_cell_length_a   7.93458800
_cell_length_b   7.93458719
_cell_length_c   3.39342200
_cell_angle_alpha   90.00000000
_cell_angle_beta   90.00000000
_cell_angle_gamma   119.99998669
_symmetry_Int_Tables_number   1
_chemical_formula_structural   Sc3In3Ag2Os
_chemical_formula_sum   'Sc3 In3 Ag2 Os1'
_cell_volume   185.01940465
_cell_formula_units_Z   1
loop_
 _symmetry_equiv_pos_site_id
 _symmetry_equiv_pos_as_xyz
  1  'x, y, z'
loop_
 _atom_site_type_symbol
 _atom_site_label
 _atom_site_symmetry_multiplicity
 _atom_site_fract_x
 _atom_site_fract_y
 _atom_site_fract_z
 _atom_site_occupancy
  Sc  Sc0  1  0.586374  0.629408  0.000000  1
  Sc  Sc1  1  0.370592  0.956963  0.000000  1
  Sc  Sc2  1  0.043037  0.413626  0.000000  1
  In  In3  1  0.989634  0.708964  0.500000  1
  In  In4  1  0.291036  0.280670  0.500000  1
  In  In5  1  0.719330  0.010366  0.500000  1
  Ag  Ag6  1  0.000000  0.000000  0.000000  1
  Ag  Ag7  1  0.666667  0.333333  0.500000  1
  Os  Os8  1  0.333333  0.666667  0.500000  1
