# generated using pymatgen
data_Ba6Fe2TeO12
_symmetry_space_group_name_H-M   'P 1'
_cell_length_a   9.23020745
_cell_length_b   9.23020695
_cell_length_c   7.32083000
_cell_angle_alpha   67.86642276
_cell_angle_beta   67.86642401
_cell_angle_gamma   36.89303619
_symmetry_Int_Tables_number   1
_chemical_formula_structural   Ba6Fe2TeO12
_chemical_formula_sum   'Ba6 Fe2 Te1 O12'
_cell_volume   343.62869072
_cell_formula_units_Z   1
loop_
 _symmetry_equiv_pos_site_id
 _symmetry_equiv_pos_as_xyz
  1  'x, y, z'
loop_
 _atom_site_type_symbol
 _atom_site_label
 _atom_site_symmetry_multiplicity
 _atom_site_fract_x
 _atom_site_fract_y
 _atom_site_fract_z
 _atom_site_occupancy
  Ba  Ba0  1  0.874609  0.874609  0.716572  1
  Ba  Ba1  1  0.220545  0.220545  0.710498  1
  Ba  Ba2  1  0.548389  0.548389  0.705854  1
  Ba  Ba3  1  0.451611  0.451611  0.294146  1
  Ba  Ba4  1  0.779455  0.779455  0.289502  1
  Ba  Ba5  1  0.125391  0.125391  0.283428  1
  Fe  Fe6  1  0.671045  0.671045  0.999142  1
  Fe  Fe7  1  0.328955  0.328955  0.000858  1
  Te  Te8  1  0.000000  0.000000  0.000000  1
  O  O9  1  0.950753  0.950753  0.295751  1
  O  O10  1  0.285809  0.285809  0.303277  1
  O  O11  1  0.613259  0.613259  0.303700  1
  O  O12  1  0.386741  0.386741  0.696300  1
  O  O13  1  0.714191  0.714191  0.696723  1
  O  O14  1  0.049247  0.049247  0.704249  1
  O  O15  1  0.500000  0.000000  0.000000  1
  O  O16  1  0.841735  0.316084  0.000846  1
  O  O17  1  0.158265  0.683916  0.999154  1
  O  O18  1  0.000000  0.500000  0.000000  1
  O  O19  1  0.316084  0.841735  0.000846  1
  O  O20  1  0.683916  0.158265  0.999154  1
