# generated using pymatgen
data_Nd12Ir3RuCl12
_symmetry_space_group_name_H-M   'P 1'
_cell_length_a   10.23495143
_cell_length_b   10.23495160
_cell_length_c   10.26586900
_cell_angle_alpha   109.53242224
_cell_angle_beta   109.53242259
_cell_angle_gamma   109.40995185
_symmetry_Int_Tables_number   1
_chemical_formula_structural   Nd12Ir3RuCl12
_chemical_formula_sum   'Nd12 Ir3 Ru1 Cl12'
_cell_volume   827.21196773
_cell_formula_units_Z   1
loop_
 _symmetry_equiv_pos_site_id
 _symmetry_equiv_pos_as_xyz
  1  'x, y, z'
loop_
 _atom_site_type_symbol
 _atom_site_label
 _atom_site_symmetry_multiplicity
 _atom_site_fract_x
 _atom_site_fract_y
 _atom_site_fract_z
 _atom_site_occupancy
  Nd  Nd0  1  0.263343  0.753806  0.239624  1
  Nd  Nd1  1  0.490464  0.753806  0.014183  1
  Nd  Nd2  1  0.238560  0.477119  0.488560  1
  Nd  Nd3  1  0.011850  0.023700  0.261850  1
  Nd  Nd4  1  0.238560  0.261440  0.750000  1
  Nd  Nd5  1  0.011850  0.488150  0.750000  1
  Nd  Nd6  1  0.490464  0.236657  0.476280  1
  Nd  Nd7  1  0.263343  0.009536  0.023720  1
  Nd  Nd8  1  0.746194  0.236657  0.260376  1
  Nd  Nd9  1  0.746194  0.009536  0.485817  1
  Nd  Nd10  1  0.476300  0.488150  0.238150  1
  Nd  Nd11  1  0.022881  0.261440  0.011440  1
  Ir  Ir12  1  0.250147  0.500294  0.000147  1
  Ir  Ir13  1  0.999706  0.249853  0.499853  1
  Ir  Ir14  1  0.250147  0.249853  0.250000  1
  Ru  Ru15  1  0.500000  0.000000  0.250000  1
  Cl  Cl16  1  0.250726  0.000583  0.500042  1
  Cl  Cl17  1  0.497979  0.498989  0.748989  1
  Cl  Cl18  1  0.250726  0.750142  0.750684  1
  Cl  Cl19  1  0.000587  0.750294  0.000294  1
  Cl  Cl20  1  0.001011  0.498989  0.250000  1
  Cl  Cl21  1  0.749858  0.000583  0.000541  1
  Cl  Cl22  1  0.749706  0.750294  0.250000  1
  Cl  Cl23  1  0.499417  0.750142  0.499459  1
  Cl  Cl24  1  0.499417  0.249274  0.999958  1
  Cl  Cl25  1  0.749706  0.499413  0.499706  1
  Cl  Cl26  1  0.749858  0.249274  0.749316  1
  Cl  Cl27  1  0.001011  0.002021  0.751011  1
