# generated using pymatgen
data_Sr5PrCo4CuO15
_symmetry_space_group_name_H-M   'P 1'
_cell_length_a   6.83603053
_cell_length_b   6.96384454
_cell_length_c   6.96384479
_cell_angle_alpha   86.90393282
_cell_angle_beta   86.96251232
_cell_angle_gamma   86.96251275
_symmetry_Int_Tables_number   1
_chemical_formula_structural   Sr5PrCo4CuO15
_chemical_formula_sum   'Sr5 Pr1 Co4 Cu1 O15'
_cell_volume   330.14728339
_cell_formula_units_Z   1
loop_
 _symmetry_equiv_pos_site_id
 _symmetry_equiv_pos_as_xyz
  1  'x, y, z'
loop_
 _atom_site_type_symbol
 _atom_site_label
 _atom_site_symmetry_multiplicity
 _atom_site_fract_x
 _atom_site_fract_y
 _atom_site_fract_z
 _atom_site_occupancy
  Sr  Sr0  1  0.139499  0.502558  0.868422  1
  Sr  Sr1  1  0.860501  0.131578  0.497442  1
  Sr  Sr2  1  0.000000  0.672189  0.327811  1
  Sr  Sr3  1  0.318389  0.996886  0.675042  1
  Sr  Sr4  1  0.681611  0.324958  0.003114  1
  Pr  Pr5  1  0.500000  0.849392  0.150608  1
  Co  Co6  1  0.703519  0.717427  0.695668  1
  Co  Co7  1  0.296481  0.304332  0.282573  1
  Co  Co8  1  0.900645  0.903747  0.905070  1
  Co  Co9  1  0.099355  0.094930  0.096253  1
  Cu  Cu10  1  0.500000  0.441686  0.558314  1
  O  O11  1  0.361129  0.545727  0.192417  1
  O  O12  1  0.238192  0.389396  0.535813  1
  O  O13  1  0.542824  0.251771  0.379898  1
  O  O14  1  0.638871  0.807583  0.454273  1
  O  O15  1  0.457176  0.620102  0.748229  1
  O  O16  1  0.761808  0.464187  0.610604  1
  O  O17  1  0.211629  0.030718  0.343023  1
  O  O18  1  0.354722  0.191090  0.036121  1
  O  O19  1  0.034201  0.340169  0.203604  1
  O  O20  1  0.788371  0.656977  0.969282  1
  O  O21  1  0.965799  0.796396  0.659831  1
  O  O22  1  0.162039  0.846243  0.999675  1
  O  O23  1  0.837961  0.000325  0.153757  1
  O  O24  1  0.000000  0.155758  0.844242  1
  O  O25  1  0.645278  0.963879  0.808910  1
