# generated using pymatgen
data_LuFe2(NiP)3
_symmetry_space_group_name_H-M   'P 1'
_cell_length_a   3.66160800
_cell_length_b   10.20574400
_cell_length_c   11.79905200
_cell_angle_alpha   90.00000000
_cell_angle_beta   90.00000000
_cell_angle_gamma   90.00000000
_symmetry_Int_Tables_number   1
_chemical_formula_structural   LuFe2(NiP)3
_chemical_formula_sum   'Lu4 Fe8 Ni12 P12'
_cell_volume   440.92389352
_cell_formula_units_Z   4
loop_
 _symmetry_equiv_pos_site_id
 _symmetry_equiv_pos_as_xyz
  1  'x, y, z'
loop_
 _atom_site_type_symbol
 _atom_site_label
 _atom_site_symmetry_multiplicity
 _atom_site_fract_x
 _atom_site_fract_y
 _atom_site_fract_z
 _atom_site_occupancy
  Lu  Lu0  1  0.250000  0.575668  0.706432  1
  Lu  Lu1  1  0.250000  0.924332  0.206432  1
  Lu  Lu2  1  0.750000  0.424332  0.293568  1
  Lu  Lu3  1  0.750000  0.075668  0.793568  1
  Fe  Fe4  1  0.250000  0.870633  0.702107  1
  Fe  Fe5  1  0.250000  0.629367  0.202107  1
  Fe  Fe6  1  0.750000  0.129367  0.297893  1
  Fe  Fe7  1  0.750000  0.370633  0.797893  1
  Fe  Fe8  1  0.250000  0.460260  0.931741  1
  Fe  Fe9  1  0.250000  0.039740  0.431741  1
  Fe  Fe10  1  0.750000  0.539740  0.068259  1
  Fe  Fe11  1  0.750000  0.960260  0.568259  1
  Ni  Ni12  1  0.250000  0.713812  0.993836  1
  Ni  Ni13  1  0.250000  0.786188  0.493836  1
  Ni  Ni14  1  0.750000  0.286188  0.006164  1
  Ni  Ni15  1  0.750000  0.213812  0.506164  1
  Ni  Ni16  1  0.250000  0.409394  0.482865  1
  Ni  Ni17  1  0.250000  0.090607  0.982865  1
  Ni  Ni18  1  0.750000  0.590606  0.517135  1
  Ni  Ni19  1  0.750000  0.909394  0.017135  1
  Ni  Ni20  1  0.250000  0.228826  0.169941  1
  Ni  Ni21  1  0.250000  0.271174  0.669941  1
  Ni  Ni22  1  0.750000  0.771174  0.830059  1
  Ni  Ni23  1  0.750000  0.728826  0.330059  1
  P  P24  1  0.250000  0.434822  0.114455  1
  P  P25  1  0.250000  0.065178  0.614455  1
  P  P26  1  0.750000  0.565178  0.885545  1
  P  P27  1  0.750000  0.934822  0.385545  1
  P  P28  1  0.250000  0.266497  0.862362  1
  P  P29  1  0.250000  0.233503  0.362362  1
  P  P30  1  0.750000  0.733503  0.137638  1
  P  P31  1  0.750000  0.766497  0.637638  1
  P  P32  1  0.250000  0.605269  0.389152  1
  P  P33  1  0.250000  0.894731  0.889152  1
  P  P34  1  0.750000  0.394731  0.610848  1
  P  P35  1  0.750000  0.105269  0.110848  1
