# generated using pymatgen
data_Gd4HoTm3(B6Ru)4
_symmetry_space_group_name_H-M   'P 1'
_cell_length_a   3.66051800
_cell_length_b   9.13532417
_cell_length_c   11.53015122
_cell_angle_alpha   89.97769375
_cell_angle_beta   90.00000000
_cell_angle_gamma   90.00000000
_symmetry_Int_Tables_number   1
_chemical_formula_structural   Gd4HoTm3(B6Ru)4
_chemical_formula_sum   'Gd4 Ho1 Tm3 B24 Ru4'
_cell_volume   385.56844166
_cell_formula_units_Z   1
loop_
 _symmetry_equiv_pos_site_id
 _symmetry_equiv_pos_as_xyz
  1  'x, y, z'
loop_
 _atom_site_type_symbol
 _atom_site_label
 _atom_site_symmetry_multiplicity
 _atom_site_fract_x
 _atom_site_fract_y
 _atom_site_fract_z
 _atom_site_occupancy
  Gd  Gd0  1  0.000000  0.322065  0.414277  1
  Gd  Gd1  1  0.000000  0.677797  0.585479  1
  Gd  Gd2  1  0.000000  0.822465  0.085853  1
  Gd  Gd3  1  0.000000  0.177552  0.914457  1
  Ho  Ho4  1  0.000000  0.556100  0.872339  1
  Tm  Tm5  1  0.000000  0.943811  0.372266  1
  Tm  Tm6  1  0.000000  0.056093  0.627493  1
  Tm  Tm7  1  0.000000  0.443796  0.128099  1
  B  B8  1  0.500000  0.554915  0.432209  1
  B  B9  1  0.500000  0.444850  0.567501  1
  B  B10  1  0.500000  0.055003  0.067966  1
  B  B11  1  0.500000  0.945596  0.932218  1
  B  B12  1  0.500000  0.749432  0.418860  1
  B  B13  1  0.500000  0.250301  0.580953  1
  B  B14  1  0.500000  0.249272  0.081406  1
  B  B15  1  0.500000  0.751543  0.918847  1
  B  B16  1  0.500000  0.791377  0.266065  1
  B  B17  1  0.500000  0.208305  0.733805  1
  B  B18  1  0.500000  0.291282  0.234249  1
  B  B19  1  0.500000  0.709416  0.765682  1
  B  B20  1  0.500000  0.631144  0.184711  1
  B  B21  1  0.500000  0.368211  0.815137  1
  B  B22  1  0.500000  0.130923  0.315571  1
  B  B23  1  0.500000  0.869243  0.684314  1
  B  B24  1  0.500000  0.983856  0.213512  1
  B  B25  1  0.500000  0.016395  0.786426  1
  B  B26  1  0.500000  0.483932  0.286701  1
  B  B27  1  0.500000  0.515595  0.712822  1
  B  B28  1  0.500000  0.605145  0.029428  1
  B  B29  1  0.500000  0.394368  0.971735  1
  B  B30  1  0.500000  0.104165  0.471320  1
  B  B31  1  0.500000  0.895754  0.528481  1
  Ru  Ru32  1  0.000000  0.638844  0.320153  1
  Ru  Ru33  1  0.000000  0.360623  0.679509  1
  Ru  Ru34  1  0.000000  0.138729  0.180256  1
  Ru  Ru35  1  0.000000  0.862101  0.819897  1
