# generated using pymatgen
data_HfSc3Co5Si2Ni
_symmetry_space_group_name_H-M   'P 1'
_cell_length_a   5.00363680
_cell_length_b   5.01800320
_cell_length_c   7.53127860
_cell_angle_alpha   90.00000055
_cell_angle_beta   90.13059592
_cell_angle_gamma   120.09499812
_symmetry_Int_Tables_number   1
_chemical_formula_structural   HfSc3Co5Si2Ni
_chemical_formula_sum   'Hf1 Sc3 Co5 Si2 Ni1'
_cell_volume   163.60554506
_cell_formula_units_Z   1
loop_
 _symmetry_equiv_pos_site_id
 _symmetry_equiv_pos_as_xyz
  1  'x, y, z'
loop_
 _atom_site_type_symbol
 _atom_site_label
 _atom_site_symmetry_multiplicity
 _atom_site_fract_x
 _atom_site_fract_y
 _atom_site_fract_z
 _atom_site_occupancy
  Hf  Hf0  1  0.328734  0.664367  0.063979  1
  Sc  Sc1  1  0.331146  0.665573  0.445026  1
  Sc  Sc2  1  0.667275  0.333637  0.556065  1
  Sc  Sc3  1  0.663763  0.331881  0.935772  1
  Co  Co4  1  0.830719  0.170708  0.247149  1
  Co  Co5  1  0.830719  0.660012  0.247149  1
  Co  Co6  1  0.344706  0.172353  0.247914  1
  Co  Co7  1  0.166488  0.829824  0.753172  1
  Co  Co8  1  0.166488  0.336664  0.753172  1
  Si  Si9  1  0.004592  0.002296  0.496554  1
  Si  Si10  1  0.002987  0.001494  0.002689  1
  Ni  Ni11  1  0.662382  0.831191  0.751361  1
