# generated using pymatgen
data_DyTmU(SnRh)3
_symmetry_space_group_name_H-M   'P 1'
_cell_length_a   7.50936972
_cell_length_b   7.61576564
_cell_length_c   3.86352500
_cell_angle_alpha   90.00000000
_cell_angle_beta   90.00000000
_cell_angle_gamma   120.53069106
_symmetry_Int_Tables_number   1
_chemical_formula_structural   DyTmU(SnRh)3
_chemical_formula_sum   'Dy1 Tm1 U1 Sn3 Rh3'
_cell_volume   190.31983713
_cell_formula_units_Z   1
loop_
 _symmetry_equiv_pos_site_id
 _symmetry_equiv_pos_as_xyz
  1  'x, y, z'
loop_
 _atom_site_type_symbol
 _atom_site_label
 _atom_site_symmetry_multiplicity
 _atom_site_fract_x
 _atom_site_fract_y
 _atom_site_fract_z
 _atom_site_occupancy
  Dy  Dy0  1  0.594552  0.593822  0.000000  1
  Tm  Tm1  1  0.404973  0.999448  0.000000  1
  U  U2  1  0.999828  0.414444  0.000000  1
  Sn  Sn3  1  0.272235  0.258493  0.500000  1
  Sn  Sn4  1  0.001384  0.755582  0.500000  1
  Sn  Sn5  1  0.727307  0.986908  0.500000  1
  Rh  Rh6  1  0.697312  0.335099  0.500000  1
  Rh  Rh7  1  0.301137  0.639173  0.500000  1
  Rh  Rh8  1  0.001272  0.017032  0.000000  1
