# generated using pymatgen
data_Lu5PaGa10
_symmetry_space_group_name_H-M   'P 1'
_cell_length_a   6.04868646
_cell_length_b   9.54085875
_cell_length_c   11.32813700
_cell_angle_alpha   90.00000000
_cell_angle_beta   90.00000000
_cell_angle_gamma   89.95479808
_symmetry_Int_Tables_number   1
_chemical_formula_structural   Lu5PaGa10
_chemical_formula_sum   'Lu10 Pa2 Ga20'
_cell_volume   653.74276743
_cell_formula_units_Z   2
loop_
 _symmetry_equiv_pos_site_id
 _symmetry_equiv_pos_as_xyz
  1  'x, y, z'
loop_
 _atom_site_type_symbol
 _atom_site_label
 _atom_site_symmetry_multiplicity
 _atom_site_fract_x
 _atom_site_fract_y
 _atom_site_fract_z
 _atom_site_occupancy
  Lu  Lu0  1  0.849478  0.749157  0.073143  1
  Lu  Lu1  1  0.650522  0.750843  0.573143  1
  Lu  Lu2  1  0.148253  0.247354  0.926635  1
  Lu  Lu3  1  0.351747  0.252646  0.426635  1
  Lu  Lu4  1  0.111379  0.010066  0.648104  1
  Lu  Lu5  1  0.388621  0.489934  0.148104  1
  Lu  Lu6  1  0.110615  0.489034  0.648670  1
  Lu  Lu7  1  0.389385  0.010966  0.148670  1
  Lu  Lu8  1  0.890689  0.990023  0.352140  1
  Lu  Lu9  1  0.609311  0.509977  0.852140  1
  Pa  Pa10  1  0.888070  0.511486  0.353845  1
  Pa  Pa11  1  0.611930  0.988514  0.853845  1
  Ga  Ga12  1  0.870624  0.052703  0.092046  1
  Ga  Ga13  1  0.629376  0.447297  0.592046  1
  Ga  Ga14  1  0.127747  0.549604  0.906993  1
  Ga  Ga15  1  0.372253  0.950396  0.406993  1
  Ga  Ga16  1  0.122780  0.947104  0.908608  1
  Ga  Ga17  1  0.377220  0.552896  0.408608  1
  Ga  Ga18  1  0.871890  0.447445  0.090386  1
  Ga  Ga19  1  0.628110  0.052555  0.590386  1
  Ga  Ga20  1  0.172552  0.750835  0.252257  1
  Ga  Ga21  1  0.327448  0.749165  0.752257  1
  Ga  Ga22  1  0.826938  0.249753  0.747178  1
  Ga  Ga23  1  0.673062  0.250247  0.247178  1
  Ga  Ga24  1  0.376144  0.751004  0.004651  1
  Ga  Ga25  1  0.123856  0.748996  0.504651  1
  Ga  Ga26  1  0.621968  0.249591  0.994342  1
  Ga  Ga27  1  0.878032  0.250409  0.494342  1
  Ga  Ga28  1  0.604331  0.752055  0.298463  1
  Ga  Ga29  1  0.895669  0.747945  0.798463  1
  Ga  Ga30  1  0.396850  0.247367  0.702538  1
  Ga  Ga31  1  0.103150  0.252633  0.202538  1
