# generated using pymatgen
data_Sr5Li16(ScAs4)3
_symmetry_space_group_name_H-M   'P 1'
_cell_length_a   13.75604400
_cell_length_b   13.75604575
_cell_length_c   4.23184400
_cell_angle_alpha   90.00000000
_cell_angle_beta   90.00000000
_cell_angle_gamma   120.00000061
_symmetry_Int_Tables_number   1
_chemical_formula_structural   Sr5Li16(ScAs4)3
_chemical_formula_sum   'Sr5 Li16 Sc3 As12'
_cell_volume   693.50156672
_cell_formula_units_Z   1
loop_
 _symmetry_equiv_pos_site_id
 _symmetry_equiv_pos_as_xyz
  1  'x, y, z'
loop_
 _atom_site_type_symbol
 _atom_site_label
 _atom_site_symmetry_multiplicity
 _atom_site_fract_x
 _atom_site_fract_y
 _atom_site_fract_z
 _atom_site_occupancy
  Sr  Sr0  1  0.333333  0.666667  0.500000  1
  Sr  Sr1  1  0.666667  0.333333  0.500000  1
  Sr  Sr2  1  0.000000  0.811620  0.000000  1
  Sr  Sr3  1  0.188380  0.188380  0.000000  1
  Sr  Sr4  1  0.811620  0.000000  0.000000  1
  Li  Li5  1  0.524857  0.878144  0.000000  1
  Li  Li6  1  0.121856  0.646714  0.000000  1
  Li  Li7  1  0.353286  0.475143  0.000000  1
  Li  Li8  1  0.475143  0.353286  0.000000  1
  Li  Li9  1  0.878144  0.524857  0.000000  1
  Li  Li10  1  0.646714  0.121856  0.000000  1
  Li  Li11  1  0.000000  0.276126  0.000000  1
  Li  Li12  1  0.723874  0.723874  0.000000  1
  Li  Li13  1  0.276126  0.000000  0.000000  1
  Li  Li14  1  0.624870  0.805251  0.500000  1
  Li  Li15  1  0.194749  0.819619  0.500000  1
  Li  Li16  1  0.180381  0.375130  0.500000  1
  Li  Li17  1  0.375130  0.180381  0.500000  1
  Li  Li18  1  0.805251  0.624870  0.500000  1
  Li  Li19  1  0.819619  0.194749  0.500000  1
  Li  Li20  1  0.000000  0.000000  0.500000  1
  Sc  Sc21  1  0.000000  0.435640  0.500000  1
  Sc  Sc22  1  0.564360  0.564360  0.500000  1
  Sc  Sc23  1  0.435640  0.000000  0.500000  1
  As  As24  1  0.000000  0.630802  0.500000  1
  As  As25  1  0.369198  0.369198  0.500000  1
  As  As26  1  0.630802  0.000000  0.500000  1
  As  As27  1  0.517986  0.678208  0.000000  1
  As  As28  1  0.321792  0.839778  0.000000  1
  As  As29  1  0.160222  0.482014  0.000000  1
  As  As30  1  0.482014  0.160222  0.000000  1
  As  As31  1  0.678208  0.517986  0.000000  1
  As  As32  1  0.839778  0.321792  0.000000  1
  As  As33  1  0.000000  0.179273  0.500000  1
  As  As34  1  0.820727  0.820727  0.500000  1
  As  As35  1  0.179273  0.000000  0.500000  1
