# generated using pymatgen
data_Cs2Co2RhSe4
_symmetry_space_group_name_H-M   'P 1'
_cell_length_a   9.68680102
_cell_length_b   8.72854601
_cell_length_c   6.00916400
_cell_angle_alpha   79.86279006
_cell_angle_beta   62.49986622
_cell_angle_gamma   38.90437139
_symmetry_Int_Tables_number   1
_chemical_formula_structural   Cs2Co2RhSe4
_chemical_formula_sum   'Cs2 Co2 Rh1 Se4'
_cell_volume   267.26893239
_cell_formula_units_Z   1
loop_
 _symmetry_equiv_pos_site_id
 _symmetry_equiv_pos_as_xyz
  1  'x, y, z'
loop_
 _atom_site_type_symbol
 _atom_site_label
 _atom_site_symmetry_multiplicity
 _atom_site_fract_x
 _atom_site_fract_y
 _atom_site_fract_z
 _atom_site_occupancy
  Cs  Cs0  1  0.653238  0.653162  0.346771  1
  Cs  Cs1  1  0.346838  0.346762  0.653172  1
  Co  Co2  1  0.999964  0.000036  0.000010  1
  Co  Co3  1  0.999959  0.000041  0.500046  1
  Rh  Rh4  1  0.499977  0.500023  0.999994  1
  Se  Se5  1  0.252668  0.943459  0.075289  1
  Se  Se6  1  0.056541  0.747332  0.271417  1
  Se  Se7  1  0.943434  0.252621  0.728626  1
  Se  Se8  1  0.747379  0.056566  0.924680  1
