# generated using pymatgen
data_Ba4Li4Si7P
_symmetry_space_group_name_H-M   'P 1'
_cell_length_a   4.60065400
_cell_length_b   7.26034893
_cell_length_c   11.63241802
_cell_angle_alpha   89.95463929
_cell_angle_beta   90.00000000
_cell_angle_gamma   90.00000000
_symmetry_Int_Tables_number   1
_chemical_formula_structural   Ba4Li4Si7P
_chemical_formula_sum   'Ba4 Li4 Si7 P1'
_cell_volume   388.55001511
_cell_formula_units_Z   1
loop_
 _symmetry_equiv_pos_site_id
 _symmetry_equiv_pos_as_xyz
  1  'x, y, z'
loop_
 _atom_site_type_symbol
 _atom_site_label
 _atom_site_symmetry_multiplicity
 _atom_site_fract_x
 _atom_site_fract_y
 _atom_site_fract_z
 _atom_site_occupancy
  Ba  Ba0  1  0.250000  0.134596  0.137906  1
  Ba  Ba1  1  0.750000  0.868712  0.862704  1
  Ba  Ba2  1  0.250000  0.632410  0.360684  1
  Ba  Ba3  1  0.750000  0.363071  0.638954  1
  Li  Li4  1  0.250000  0.117561  0.435869  1
  Li  Li5  1  0.750000  0.884312  0.562380  1
  Li  Li6  1  0.250000  0.616479  0.064480  1
  Li  Li7  1  0.750000  0.385495  0.937262  1
  Si  Si8  1  0.750000  0.468834  0.162855  1
  Si  Si9  1  0.250000  0.530070  0.837890  1
  Si  Si10  1  0.750000  0.968706  0.336309  1
  Si  Si11  1  0.250000  0.029694  0.664941  1
  Si  Si12  1  0.750000  0.293430  0.341384  1
  Si  Si13  1  0.250000  0.704289  0.660591  1
  Si  Si14  1  0.750000  0.794703  0.158198  1
  P  P15  1  0.250000  0.207638  0.837594  1
