# generated using pymatgen
data_Y2Er2ScBi3
_symmetry_space_group_name_H-M   'P 1'
_cell_length_a   8.09991900
_cell_length_b   9.38110900
_cell_length_c   11.94605700
_cell_angle_alpha   90.00000000
_cell_angle_beta   90.00000000
_cell_angle_gamma   90.00000000
_symmetry_Int_Tables_number   1
_chemical_formula_structural   Y2Er2ScBi3
_chemical_formula_sum   'Y8 Er8 Sc4 Bi12'
_cell_volume   907.73575153
_cell_formula_units_Z   4
loop_
 _symmetry_equiv_pos_site_id
 _symmetry_equiv_pos_as_xyz
  1  'x, y, z'
loop_
 _atom_site_type_symbol
 _atom_site_label
 _atom_site_symmetry_multiplicity
 _atom_site_fract_x
 _atom_site_fract_y
 _atom_site_fract_z
 _atom_site_occupancy
  Y  Y0  1  0.184420  0.750000  0.720573  1
  Y  Y1  1  0.684420  0.750000  0.779427  1
  Y  Y2  1  0.815580  0.250000  0.279427  1
  Y  Y3  1  0.315580  0.250000  0.220573  1
  Y  Y4  1  0.352416  0.750000  0.216239  1
  Y  Y5  1  0.852416  0.750000  0.283761  1
  Y  Y6  1  0.647584  0.250000  0.783761  1
  Y  Y7  1  0.147584  0.250000  0.716239  1
  Er  Er8  1  0.305502  0.434369  0.941562  1
  Er  Er9  1  0.805502  0.065631  0.558438  1
  Er  Er10  1  0.694498  0.934369  0.058438  1
  Er  Er11  1  0.194498  0.565631  0.441562  1
  Er  Er12  1  0.694498  0.565631  0.058438  1
  Er  Er13  1  0.194498  0.934369  0.441562  1
  Er  Er14  1  0.305502  0.065631  0.941562  1
  Er  Er15  1  0.805502  0.434369  0.558438  1
  Sc  Sc16  1  0.023290  0.750000  0.988793  1
  Sc  Sc17  1  0.523290  0.750000  0.511207  1
  Sc  Sc18  1  0.976710  0.250000  0.011207  1
  Sc  Sc19  1  0.476710  0.250000  0.488793  1
  Bi  Bi20  1  0.434791  0.003567  0.667692  1
  Bi  Bi21  1  0.934791  0.496433  0.832308  1
  Bi  Bi22  1  0.565209  0.503567  0.332308  1
  Bi  Bi23  1  0.065209  0.996433  0.167692  1
  Bi  Bi24  1  0.565209  0.996433  0.332308  1
  Bi  Bi25  1  0.065209  0.503567  0.167692  1
  Bi  Bi26  1  0.434791  0.496433  0.667692  1
  Bi  Bi27  1  0.934791  0.003567  0.832308  1
  Bi  Bi28  1  0.401278  0.750000  0.957363  1
  Bi  Bi29  1  0.901278  0.750000  0.542637  1
  Bi  Bi30  1  0.598722  0.250000  0.042637  1
  Bi  Bi31  1  0.098722  0.250000  0.457363  1
