# generated using pymatgen
data_Sm5Mn(P2Rh7)2
_symmetry_space_group_name_H-M   'P 1'
_cell_length_a   4.13837400
_cell_length_b   4.08169900
_cell_length_c   24.43088900
_cell_angle_alpha   90.00000000
_cell_angle_beta   90.00000000
_cell_angle_gamma   90.00000000
_symmetry_Int_Tables_number   1
_chemical_formula_structural   Sm5Mn(P2Rh7)2
_chemical_formula_sum   'Sm5 Mn1 P4 Rh14'
_cell_volume   412.67673177
_cell_formula_units_Z   1
loop_
 _symmetry_equiv_pos_site_id
 _symmetry_equiv_pos_as_xyz
  1  'x, y, z'
loop_
 _atom_site_type_symbol
 _atom_site_label
 _atom_site_symmetry_multiplicity
 _atom_site_fract_x
 _atom_site_fract_y
 _atom_site_fract_z
 _atom_site_occupancy
  Sm  Sm0  1  0.000000  0.000000  0.892244  1
  Sm  Sm1  1  0.000000  0.000000  0.107756  1
  Sm  Sm2  1  0.000000  0.000000  0.306359  1
  Sm  Sm3  1  0.000000  0.000000  0.500000  1
  Sm  Sm4  1  0.000000  0.000000  0.693641  1
  Mn  Mn5  1  0.500000  0.000000  0.000000  1
  P  P6  1  0.500000  0.500000  0.159529  1
  P  P7  1  0.500000  0.500000  0.370542  1
  P  P8  1  0.500000  0.500000  0.629458  1
  P  P9  1  0.500000  0.500000  0.840471  1
  Rh  Rh10  1  0.500000  0.500000  0.933171  1
  Rh  Rh11  1  0.500000  0.500000  0.066829  1
  Rh  Rh12  1  0.500000  0.500000  0.280646  1
  Rh  Rh13  1  0.500000  0.500000  0.500000  1
  Rh  Rh14  1  0.500000  0.500000  0.719354  1
  Rh  Rh15  1  0.500000  0.000000  0.205376  1
  Rh  Rh16  1  0.500000  0.000000  0.411426  1
  Rh  Rh17  1  0.500000  0.000000  0.588574  1
  Rh  Rh18  1  0.500000  0.000000  0.794624  1
  Rh  Rh19  1  0.000000  0.500000  0.000000  1
  Rh  Rh20  1  0.000000  0.500000  0.205233  1
  Rh  Rh21  1  0.000000  0.500000  0.410974  1
  Rh  Rh22  1  0.000000  0.500000  0.589026  1
  Rh  Rh23  1  0.000000  0.500000  0.794767  1
