# generated using pymatgen
data_TbEuB8
_symmetry_space_group_name_H-M   'P 1'
_cell_length_a   7.16706300
_cell_length_b   7.16878000
_cell_length_c   4.06870300
_cell_angle_alpha   90.00000000
_cell_angle_beta   90.00000000
_cell_angle_gamma   90.00000000
_symmetry_Int_Tables_number   1
_chemical_formula_structural   TbEuB8
_chemical_formula_sum   'Tb2 Eu2 B16'
_cell_volume   209.04628974
_cell_formula_units_Z   2
loop_
 _symmetry_equiv_pos_site_id
 _symmetry_equiv_pos_as_xyz
  1  'x, y, z'
loop_
 _atom_site_type_symbol
 _atom_site_label
 _atom_site_symmetry_multiplicity
 _atom_site_fract_x
 _atom_site_fract_y
 _atom_site_fract_z
 _atom_site_occupancy
  Tb  Tb0  1  0.682745  0.817240  0.000000  1
  Tb  Tb1  1  0.182745  0.682760  0.000000  1
  Eu  Eu2  1  0.816726  0.316447  0.000000  1
  Eu  Eu3  1  0.316726  0.183553  0.000000  1
  B  B4  1  0.538217  0.326542  0.500000  1
  B  B5  1  0.824299  0.035725  0.500000  1
  B  B6  1  0.038218  0.173458  0.500000  1
  B  B7  1  0.324299  0.464276  0.500000  1
  B  B8  1  0.675099  0.540493  0.500000  1
  B  B9  1  0.500040  0.501992  0.796940  1
  B  B10  1  0.961915  0.822887  0.500000  1
  B  B11  1  0.587503  0.086682  0.500000  1
  B  B12  1  0.413415  0.912857  0.500000  1
  B  B13  1  0.087503  0.413318  0.500000  1
  B  B14  1  0.461915  0.677113  0.500000  1
  B  B15  1  0.175099  0.959507  0.500000  1
  B  B16  1  0.000040  0.998008  0.796940  1
  B  B17  1  0.500040  0.501992  0.203060  1
  B  B18  1  0.913415  0.587143  0.500000  1
  B  B19  1  0.000040  0.998008  0.203060  1
