# generated using pymatgen
data_RbCaCuH4
_symmetry_space_group_name_H-M   'P 1'
_cell_length_a   7.73670500
_cell_length_b   7.73670500
_cell_length_c   7.73670500
_cell_angle_alpha   90.00000000
_cell_angle_beta   90.00000000
_cell_angle_gamma   90.00000000
_symmetry_Int_Tables_number   1
_chemical_formula_structural   RbCaCuH4
_chemical_formula_sum   'Rb4 Ca4 Cu4 H16'
_cell_volume   463.09288944
_cell_formula_units_Z   4
loop_
 _symmetry_equiv_pos_site_id
 _symmetry_equiv_pos_as_xyz
  1  'x, y, z'
loop_
 _atom_site_type_symbol
 _atom_site_label
 _atom_site_symmetry_multiplicity
 _atom_site_fract_x
 _atom_site_fract_y
 _atom_site_fract_z
 _atom_site_occupancy
  Rb  Rb0  1  0.159400  0.659400  0.840600  1
  Rb  Rb1  1  0.659400  0.840600  0.159400  1
  Rb  Rb2  1  0.840600  0.159400  0.659400  1
  Rb  Rb3  1  0.340600  0.340600  0.340600  1
  Ca  Ca4  1  0.843797  0.343797  0.156203  1
  Ca  Ca5  1  0.343797  0.156203  0.843797  1
  Ca  Ca6  1  0.156203  0.843797  0.343797  1
  Ca  Ca7  1  0.656203  0.656203  0.656203  1
  Cu  Cu8  1  0.446400  0.946400  0.553600  1
  Cu  Cu9  1  0.946400  0.553600  0.446400  1
  Cu  Cu10  1  0.553600  0.446400  0.946400  1
  Cu  Cu11  1  0.053600  0.053600  0.053600  1
  H  H12  1  0.565995  0.065995  0.434005  1
  H  H13  1  0.065995  0.434005  0.565995  1
  H  H14  1  0.434005  0.565995  0.065995  1
  H  H15  1  0.934005  0.934005  0.934005  1
  H  H16  1  0.251131  0.972113  0.077197  1
  H  H17  1  0.922803  0.751131  0.527887  1
  H  H18  1  0.472113  0.422803  0.748869  1
  H  H19  1  0.751131  0.527887  0.922803  1
  H  H20  1  0.422803  0.748869  0.472113  1
  H  H21  1  0.972113  0.077197  0.251131  1
  H  H22  1  0.748869  0.472113  0.422803  1
  H  H23  1  0.077197  0.251131  0.972113  1
  H  H24  1  0.527887  0.922803  0.751131  1
  H  H25  1  0.248869  0.027887  0.577197  1
  H  H26  1  0.577197  0.248869  0.027887  1
  H  H27  1  0.027887  0.577197  0.248869  1
