# generated using pymatgen
data_Tb10Er6MgCo4Ag3
_symmetry_space_group_name_H-M   'P 1'
_cell_length_a   9.43841887
_cell_length_b   9.43989280
_cell_length_c   9.43989400
_cell_angle_alpha   60.00000280
_cell_angle_beta   59.99483684
_cell_angle_gamma   59.99483318
_symmetry_Int_Tables_number   1
_chemical_formula_structural   Tb10Er6MgCo4Ag3
_chemical_formula_sum   'Tb10 Er6 Mg1 Co4 Ag3'
_cell_volume   594.68163834
_cell_formula_units_Z   1
loop_
 _symmetry_equiv_pos_site_id
 _symmetry_equiv_pos_as_xyz
  1  'x, y, z'
loop_
 _atom_site_type_symbol
 _atom_site_label
 _atom_site_symmetry_multiplicity
 _atom_site_fract_x
 _atom_site_fract_y
 _atom_site_fract_z
 _atom_site_occupancy
  Tb  Tb0  1  0.936223  0.562555  0.562556  1
  Tb  Tb1  1  0.561451  0.937605  0.937606  1
  Tb  Tb2  1  0.561452  0.937605  0.563337  1
  Tb  Tb3  1  0.936223  0.562555  0.938665  1
  Tb  Tb4  1  0.561452  0.563336  0.937606  1
  Tb  Tb5  1  0.936223  0.938664  0.562556  1
  Tb  Tb6  1  0.347600  0.347331  0.347331  1
  Tb  Tb7  1  0.347600  0.347331  0.957739  1
  Tb  Tb8  1  0.347600  0.957739  0.347331  1
  Tb  Tb9  1  0.946758  0.351080  0.351080  1
  Er  Er10  1  0.812795  0.186371  0.186371  1
  Er  Er11  1  0.184551  0.815396  0.815396  1
  Er  Er12  1  0.184551  0.815396  0.184658  1
  Er  Er13  1  0.812795  0.186371  0.814462  1
  Er  Er14  1  0.184551  0.184658  0.815396  1
  Er  Er15  1  0.812795  0.814462  0.186371  1
  Mg  Mg16  1  0.283845  0.572051  0.572051  1
  Co  Co17  1  0.139168  0.141607  0.141607  1
  Co  Co18  1  0.139168  0.141607  0.577619  1
  Co  Co19  1  0.139168  0.577619  0.141607  1
  Co  Co20  1  0.576376  0.141208  0.141208  1
  Ag  Ag21  1  0.582552  0.583040  0.583040  1
  Ag  Ag22  1  0.582552  0.583040  0.251369  1
  Ag  Ag23  1  0.582552  0.251369  0.583040  1
