# generated using pymatgen
data_RbPa4TlTe10
_symmetry_space_group_name_H-M   'P 1'
_cell_length_a   9.70085011
_cell_length_b   9.70084949
_cell_length_c   9.70085100
_cell_angle_alpha   128.86530212
_cell_angle_beta   128.86529158
_cell_angle_gamma   75.22741901
_symmetry_Int_Tables_number   1
_chemical_formula_structural   RbPa4TlTe10
_chemical_formula_sum   'Rb1 Pa4 Tl1 Te10'
_cell_volume   538.76506293
_cell_formula_units_Z   1
loop_
 _symmetry_equiv_pos_site_id
 _symmetry_equiv_pos_as_xyz
  1  'x, y, z'
loop_
 _atom_site_type_symbol
 _atom_site_label
 _atom_site_symmetry_multiplicity
 _atom_site_fract_x
 _atom_site_fract_y
 _atom_site_fract_z
 _atom_site_occupancy
  Rb  Rb0  1  0.750000  0.750000  0.000000  1
  Pa  Pa1  1  0.651820  0.151820  0.803640  1
  Pa  Pa2  1  0.348180  0.848180  0.196360  1
  Pa  Pa3  1  0.151820  0.348180  0.500000  1
  Pa  Pa4  1  0.848180  0.651820  0.500000  1
  Tl  Tl5  1  0.250000  0.250000  0.000000  1
  Te  Te6  1  0.019881  0.516768  0.794729  1
  Te  Te7  1  0.722039  0.225151  0.205271  1
  Te  Te8  1  0.516768  0.722039  0.496888  1
  Te  Te9  1  0.225151  0.019881  0.503112  1
  Te  Te10  1  0.983232  0.480119  0.205271  1
  Te  Te11  1  0.274849  0.777961  0.794729  1
  Te  Te12  1  0.480119  0.274849  0.496888  1
  Te  Te13  1  0.777961  0.983232  0.503112  1
  Te  Te14  1  0.001681  0.001681  0.000000  1
  Te  Te15  1  0.498319  0.498319  0.000000  1
