# generated using pymatgen
data_Pr16Mg2Hg2Ir3Pt
_symmetry_space_group_name_H-M   'P 1'
_cell_length_a   10.05714219
_cell_length_b   10.05714320
_cell_length_c   10.07299513
_cell_angle_alpha   60.08028465
_cell_angle_beta   60.08028195
_cell_angle_gamma   60.40375559
_symmetry_Int_Tables_number   1
_chemical_formula_structural   Pr16Mg2Hg2Ir3Pt
_chemical_formula_sum   'Pr16 Mg2 Hg2 Ir3 Pt1'
_cell_volume   723.48532051
_cell_formula_units_Z   1
loop_
 _symmetry_equiv_pos_site_id
 _symmetry_equiv_pos_as_xyz
  1  'x, y, z'
loop_
 _atom_site_type_symbol
 _atom_site_label
 _atom_site_symmetry_multiplicity
 _atom_site_fract_x
 _atom_site_fract_y
 _atom_site_fract_z
 _atom_site_occupancy
  Pr  Pr0  1  0.346577  0.346577  0.345754  1
  Pr  Pr1  1  0.351076  0.351076  0.954026  1
  Pr  Pr2  1  0.352095  0.951149  0.351603  1
  Pr  Pr3  1  0.951149  0.352095  0.351603  1
  Pr  Pr4  1  0.805819  0.189353  0.190486  1
  Pr  Pr5  1  0.187035  0.809554  0.810504  1
  Pr  Pr6  1  0.189353  0.805819  0.190486  1
  Pr  Pr7  1  0.809554  0.187035  0.810504  1
  Pr  Pr8  1  0.188501  0.188501  0.807624  1
  Pr  Pr9  1  0.805144  0.805144  0.192804  1
  Pr  Pr10  1  0.939342  0.561008  0.562663  1
  Pr  Pr11  1  0.561056  0.937767  0.939514  1
  Pr  Pr12  1  0.561008  0.939342  0.562663  1
  Pr  Pr13  1  0.937767  0.561056  0.939514  1
  Pr  Pr14  1  0.561305  0.561305  0.940984  1
  Pr  Pr15  1  0.937640  0.937640  0.561943  1
  Mg  Mg16  1  0.579685  0.273511  0.573037  1
  Mg  Mg17  1  0.273511  0.579685  0.573037  1
  Hg  Hg18  1  0.581351  0.581351  0.587745  1
  Hg  Hg19  1  0.581342  0.581342  0.249789  1
  Ir  Ir20  1  0.141866  0.141866  0.574607  1
  Ir  Ir21  1  0.141339  0.574172  0.142722  1
  Ir  Ir22  1  0.574172  0.141339  0.142722  1
  Pt  Pt23  1  0.142314  0.142314  0.143667  1
