# generated using pymatgen
data_KBa2TlFe4(PO4)6
_symmetry_space_group_name_H-M   'P 1'
_cell_length_a   10.02330100
_cell_length_b   10.02330100
_cell_length_c   10.02330100
_cell_angle_alpha   90.00000000
_cell_angle_beta   90.00000000
_cell_angle_gamma   90.00000000
_symmetry_Int_Tables_number   1
_chemical_formula_structural   KBa2TlFe4(PO4)6
_chemical_formula_sum   'K2 Ba4 Tl2 Fe8 P12 O48'
_cell_volume   1007.00660075
_cell_formula_units_Z   2
loop_
 _symmetry_equiv_pos_site_id
 _symmetry_equiv_pos_as_xyz
  1  'x, y, z'
loop_
 _atom_site_type_symbol
 _atom_site_label
 _atom_site_symmetry_multiplicity
 _atom_site_fract_x
 _atom_site_fract_y
 _atom_site_fract_z
 _atom_site_occupancy
  K  K0  1  0.699260  0.801095  0.199283  1
  K  K1  1  0.800740  0.198905  0.699283  1
  Ba  Ba2  1  0.069921  0.069572  0.069929  1
  Ba  Ba3  1  0.430079  0.930428  0.569929  1
  Ba  Ba4  1  0.568195  0.431457  0.931811  1
  Ba  Ba5  1  0.931805  0.568543  0.431811  1
  Tl  Tl6  1  0.200437  0.700758  0.799709  1
  Tl  Tl7  1  0.299563  0.299242  0.299709  1
  Fe  Fe8  1  0.085450  0.914386  0.414475  1
  Fe  Fe9  1  0.147293  0.351693  0.647598  1
  Fe  Fe10  1  0.352707  0.648307  0.147598  1
  Fe  Fe11  1  0.414550  0.085614  0.914475  1
  Fe  Fe12  1  0.585810  0.585679  0.585730  1
  Fe  Fe13  1  0.648081  0.147051  0.352281  1
  Fe  Fe14  1  0.851919  0.852949  0.852281  1
  Fe  Fe15  1  0.914190  0.414321  0.085730  1
  P  P16  1  0.038727  0.727247  0.127591  1
  P  P17  1  0.126724  0.040343  0.727125  1
  P  P18  1  0.227077  0.372844  0.960070  1
  P  P19  1  0.272923  0.627156  0.460070  1
  P  P20  1  0.373276  0.959657  0.227125  1
  P  P21  1  0.461273  0.272753  0.627591  1
  P  P22  1  0.540629  0.773121  0.873146  1
  P  P23  1  0.627732  0.461015  0.272960  1
  P  P24  1  0.727084  0.127294  0.039429  1
  P  P25  1  0.772916  0.872706  0.539429  1
  P  P26  1  0.872268  0.538985  0.772960  1
  P  P27  1  0.959371  0.226879  0.373146  1
  O  O28  1  0.999787  0.080760  0.347299  1
  O  O29  1  0.014795  0.800768  0.262054  1
  O  O30  1  0.023412  0.952059  0.800368  1
  O  O31  1  0.047643  0.300215  0.476451  1
  O  O32  1  0.078054  0.186768  0.737617  1
  O  O33  1  0.080883  0.347251  0.999934  1
  O  O34  1  0.152566  0.000337  0.580874  1
  O  O35  1  0.186045  0.739277  0.081186  1
  O  O36  1  0.198547  0.761324  0.481659  1
  O  O37  1  0.199699  0.523079  0.547375  1
  O  O38  1  0.238649  0.980690  0.301103  1
  O  O39  1  0.237963  0.419819  0.812900  1
  O  O40  1  0.262037  0.580181  0.312900  1
  O  O41  1  0.261351  0.019310  0.801103  1
  O  O42  1  0.300301  0.476921  0.047375  1
  O  O43  1  0.301453  0.238676  0.981659  1
  O  O44  1  0.313955  0.260723  0.581186  1
  O  O45  1  0.347434  0.999663  0.080874  1
  O  O46  1  0.419117  0.652749  0.499934  1
  O  O47  1  0.421946  0.813232  0.237617  1
  O  O48  1  0.452357  0.699785  0.976451  1
  O  O49  1  0.476588  0.047941  0.300368  1
  O  O50  1  0.485205  0.199232  0.762054  1
  O  O51  1  0.500213  0.919240  0.847299  1
  O  O52  1  0.499544  0.419484  0.652618  1
  O  O53  1  0.519623  0.698921  0.738656  1
  O  O54  1  0.524431  0.549497  0.200216  1
  O  O55  1  0.549760  0.200081  0.524287  1
  O  O56  1  0.581373  0.313743  0.261078  1
  O  O57  1  0.580444  0.152631  0.000579  1
  O  O58  1  0.652840  0.499747  0.419550  1
  O  O59  1  0.687012  0.762707  0.921800  1
  O  O60  1  0.699506  0.737945  0.516097  1
  O  O61  1  0.700165  0.975256  0.449984  1
  O  O62  1  0.737939  0.515096  0.699192  1
  O  O63  1  0.738607  0.079264  0.185989  1
  O  O64  1  0.761393  0.920736  0.685989  1
  O  O65  1  0.762061  0.484904  0.199192  1
  O  O66  1  0.799835  0.024744  0.949984  1
  O  O67  1  0.800494  0.262055  0.016097  1
  O  O68  1  0.812988  0.237293  0.421800  1
  O  O69  1  0.847160  0.500253  0.919550  1
  O  O70  1  0.919556  0.847369  0.500579  1
  O  O71  1  0.918627  0.686257  0.761078  1
  O  O72  1  0.950240  0.799919  0.024287  1
  O  O73  1  0.975569  0.450503  0.700216  1
  O  O74  1  0.980377  0.301079  0.238656  1
  O  O75  1  0.000456  0.580516  0.152618  1
