# generated using pymatgen
data_La2Pr6MgInIr2
_symmetry_space_group_name_H-M   'P 1'
_cell_length_a   10.09811660
_cell_length_b   10.09811235
_cell_length_c   10.11979464
_cell_angle_alpha   59.98245514
_cell_angle_beta   59.98179510
_cell_angle_gamma   60.02958336
_symmetry_Int_Tables_number   1
_chemical_formula_structural   La2Pr6MgInIr2
_chemical_formula_sum   'La4 Pr12 Mg2 In2 Ir4'
_cell_volume   729.65378986
_cell_formula_units_Z   2
loop_
 _symmetry_equiv_pos_site_id
 _symmetry_equiv_pos_as_xyz
  1  'x, y, z'
loop_
 _atom_site_type_symbol
 _atom_site_label
 _atom_site_symmetry_multiplicity
 _atom_site_fract_x
 _atom_site_fract_y
 _atom_site_fract_z
 _atom_site_occupancy
  La  La0  1  0.346144  0.346149  0.345339  1
  La  La1  1  0.347634  0.347612  0.959462  1
  La  La2  1  0.349028  0.958061  0.347081  1
  La  La3  1  0.958049  0.349034  0.347075  1
  Pr  Pr4  1  0.809921  0.189199  0.189931  1
  Pr  Pr5  1  0.187690  0.809899  0.810783  1
  Pr  Pr6  1  0.189183  0.809931  0.189930  1
  Pr  Pr7  1  0.809905  0.187673  0.810790  1
  Pr  Pr8  1  0.186000  0.185992  0.813762  1
  Pr  Pr9  1  0.806006  0.806003  0.192877  1
  Pr  Pr10  1  0.940023  0.561569  0.562489  1
  Pr  Pr11  1  0.561113  0.938461  0.938053  1
  Pr  Pr12  1  0.561572  0.940032  0.562486  1
  Pr  Pr13  1  0.938466  0.561105  0.938054  1
  Pr  Pr14  1  0.561408  0.561408  0.939677  1
  Pr  Pr15  1  0.938175  0.938173  0.561555  1
  Mg  Mg16  1  0.577925  0.270389  0.575534  1
  Mg  Mg17  1  0.270383  0.577927  0.575532  1
  In  In18  1  0.580588  0.580591  0.582621  1
  In  In19  1  0.580409  0.580410  0.255876  1
  Ir  Ir20  1  0.142113  0.142117  0.142133  1
  Ir  Ir21  1  0.142170  0.142166  0.573966  1
  Ir  Ir22  1  0.142639  0.573464  0.142495  1
  Ir  Ir23  1  0.573459  0.142636  0.142501  1
