# generated using pymatgen
data_NaNb8RhSe16
_symmetry_space_group_name_H-M   'P 1'
_cell_length_a   6.99338205
_cell_length_b   6.99372410
_cell_length_c   14.29008006
_cell_angle_alpha   90.00143864
_cell_angle_beta   89.98885670
_cell_angle_gamma   120.00423114
_symmetry_Int_Tables_number   1
_chemical_formula_structural   NaNb8RhSe16
_chemical_formula_sum   'Na1 Nb8 Rh1 Se16'
_cell_volume   605.26075558
_cell_formula_units_Z   1
loop_
 _symmetry_equiv_pos_site_id
 _symmetry_equiv_pos_as_xyz
  1  'x, y, z'
loop_
 _atom_site_type_symbol
 _atom_site_label
 _atom_site_symmetry_multiplicity
 _atom_site_fract_x
 _atom_site_fract_y
 _atom_site_fract_z
 _atom_site_occupancy
  Na  Na0  1  0.000000  0.000000  0.500000  1
  Nb  Nb1  1  0.000012  0.000003  0.220719  1
  Nb  Nb2  1  0.999988  0.999997  0.779281  1
  Nb  Nb3  1  0.507059  0.014150  0.219370  1
  Nb  Nb4  1  0.985869  0.492942  0.219342  1
  Nb  Nb5  1  0.507065  0.492922  0.219368  1
  Nb  Nb6  1  0.492941  0.985850  0.780630  1
  Nb  Nb7  1  0.014131  0.507058  0.780658  1
  Nb  Nb8  1  0.492935  0.507078  0.780632  1
  Rh  Rh9  1  0.000000  0.000000  0.000000  1
  Se  Se10  1  0.333359  0.666671  0.901613  1
  Se  Se11  1  0.666641  0.333329  0.098387  1
  Se  Se12  1  0.666661  0.333347  0.341577  1
  Se  Se13  1  0.333339  0.666653  0.658423  1
  Se  Se14  1  0.167432  0.832536  0.336510  1
  Se  Se15  1  0.167439  0.334911  0.336506  1
  Se  Se16  1  0.665047  0.832523  0.336511  1
  Se  Se17  1  0.832568  0.167464  0.663490  1
  Se  Se18  1  0.832561  0.665089  0.663494  1
  Se  Se19  1  0.334953  0.167477  0.663489  1
  Se  Se20  1  0.831547  0.168449  0.894615  1
  Se  Se21  1  0.831535  0.663082  0.894609  1
  Se  Se22  1  0.336841  0.168428  0.894595  1
  Se  Se23  1  0.168453  0.831551  0.105385  1
  Se  Se24  1  0.168465  0.336918  0.105391  1
  Se  Se25  1  0.663159  0.831572  0.105405  1
