# generated using pymatgen
data_Rb4Li2(TcH9)3
_symmetry_space_group_name_H-M   'P 1'
_cell_length_a   10.70312481
_cell_length_b   10.70312484
_cell_length_c   5.43174500
_cell_angle_alpha   90.00000000
_cell_angle_beta   90.00000000
_cell_angle_gamma   122.91091136
_symmetry_Int_Tables_number   1
_chemical_formula_structural   Rb4Li2(TcH9)3
_chemical_formula_sum   'Rb4 Li2 Tc3 H27'
_cell_volume   522.38385082
_cell_formula_units_Z   1
loop_
 _symmetry_equiv_pos_site_id
 _symmetry_equiv_pos_as_xyz
  1  'x, y, z'
loop_
 _atom_site_type_symbol
 _atom_site_label
 _atom_site_symmetry_multiplicity
 _atom_site_fract_x
 _atom_site_fract_y
 _atom_site_fract_z
 _atom_site_occupancy
  Rb  Rb0  1  0.270736  0.986572  0.500000  1
  Rb  Rb1  1  0.986572  0.270736  0.500000  1
  Rb  Rb2  1  0.770527  0.770527  0.500000  1
  Rb  Rb3  1  0.388550  0.388550  0.000000  1
  Li  Li4  1  0.364691  0.702759  0.000000  1
  Li  Li5  1  0.702759  0.364691  0.000000  1
  Tc  Tc6  1  0.025575  0.025575  0.000000  1
  Tc  Tc7  1  0.357206  0.670812  0.500000  1
  Tc  Tc8  1  0.670812  0.357206  0.500000  1
  H  H9  1  0.899319  0.027173  0.183361  1
  H  H10  1  0.027173  0.899319  0.183361  1
  H  H11  1  0.899319  0.027173  0.816639  1
  H  H12  1  0.027173  0.899319  0.816639  1
  H  H13  1  0.102055  0.102055  0.271490  1
  H  H14  1  0.102055  0.102055  0.728510  1
  H  H15  1  0.207317  0.075846  0.000000  1
  H  H16  1  0.075846  0.207317  0.000000  1
  H  H17  1  0.863701  0.863701  0.000000  1
  H  H18  1  0.245217  0.554285  0.273773  1
  H  H19  1  0.478095  0.684542  0.281012  1
  H  H20  1  0.245217  0.554285  0.726227  1
  H  H21  1  0.554285  0.245217  0.726227  1
  H  H22  1  0.350891  0.787294  0.297023  1
  H  H23  1  0.478095  0.684542  0.718988  1
  H  H24  1  0.684542  0.478095  0.718988  1
  H  H25  1  0.554285  0.245217  0.273773  1
  H  H26  1  0.350891  0.787294  0.702977  1
  H  H27  1  0.684542  0.478095  0.281012  1
  H  H28  1  0.787294  0.350891  0.702977  1
  H  H29  1  0.787294  0.350891  0.297023  1
  H  H30  1  0.358248  0.514978  0.500000  1
  H  H31  1  0.512480  0.837622  0.500000  1
  H  H32  1  0.514978  0.358248  0.500000  1
  H  H33  1  0.189954  0.644683  0.500000  1
  H  H34  1  0.837622  0.512480  0.500000  1
  H  H35  1  0.644683  0.189954  0.500000  1
