# generated using pymatgen
data_Tm8In2NiIr
_symmetry_space_group_name_H-M   'P 1'
_cell_length_a   9.48585002
_cell_length_b   9.48585249
_cell_length_c   9.48887605
_cell_angle_alpha   59.98482637
_cell_angle_beta   59.98484838
_cell_angle_gamma   60.24032740
_symmetry_Int_Tables_number   1
_chemical_formula_structural   Tm8In2NiIr
_chemical_formula_sum   'Tm16 In4 Ni2 Ir2'
_cell_volume   604.69315964
_cell_formula_units_Z   2
loop_
 _symmetry_equiv_pos_site_id
 _symmetry_equiv_pos_as_xyz
  1  'x, y, z'
loop_
 _atom_site_type_symbol
 _atom_site_label
 _atom_site_symmetry_multiplicity
 _atom_site_fract_x
 _atom_site_fract_y
 _atom_site_fract_z
 _atom_site_occupancy
  Tm  Tm0  1  0.597137  0.597137  0.601165  1
  Tm  Tm1  1  0.597132  0.597132  0.204583  1
  Tm  Tm2  1  0.597447  0.203702  0.599422  1
  Tm  Tm3  1  0.203702  0.597447  0.599422  1
  Tm  Tm4  1  0.062153  0.440432  0.438259  1
  Tm  Tm5  1  0.440432  0.062153  0.059175  1
  Tm  Tm6  1  0.440431  0.062153  0.438259  1
  Tm  Tm7  1  0.062153  0.440432  0.059175  1
  Tm  Tm8  1  0.439006  0.439006  0.061003  1
  Tm  Tm9  1  0.060080  0.060080  0.439928  1
  Tm  Tm10  1  0.188258  0.813746  0.808947  1
  Tm  Tm11  1  0.813755  0.188243  0.189060  1
  Tm  Tm12  1  0.813746  0.188258  0.808947  1
  Tm  Tm13  1  0.188243  0.813755  0.189061  1
  Tm  Tm14  1  0.809643  0.809643  0.190366  1
  Tm  Tm15  1  0.187368  0.187368  0.812645  1
  In  In16  1  0.833283  0.833283  0.832587  1
  In  In17  1  0.833276  0.833276  0.500867  1
  In  In18  1  0.833455  0.500766  0.832882  1
  In  In19  1  0.500766  0.833455  0.832882  1
  Ni  Ni20  1  0.391355  0.391354  0.392588  1
  Ni  Ni21  1  0.391148  0.391149  0.824790  1
  Ir  Ir22  1  0.391557  0.824474  0.391994  1
  Ir  Ir23  1  0.824474  0.391557  0.391994  1
