# generated using pymatgen
data_Hf3Sc2Sn2Sb
_symmetry_space_group_name_H-M   'P 1'
_cell_length_a   7.50727100
_cell_length_b   8.85235300
_cell_length_c   11.00771200
_cell_angle_alpha   90.00000000
_cell_angle_beta   90.00000000
_cell_angle_gamma   90.00000000
_symmetry_Int_Tables_number   1
_chemical_formula_structural   Hf3Sc2Sn2Sb
_chemical_formula_sum   'Hf12 Sc8 Sn8 Sb4'
_cell_volume   731.53965903
_cell_formula_units_Z   4
loop_
 _symmetry_equiv_pos_site_id
 _symmetry_equiv_pos_as_xyz
  1  'x, y, z'
loop_
 _atom_site_type_symbol
 _atom_site_label
 _atom_site_symmetry_multiplicity
 _atom_site_fract_x
 _atom_site_fract_y
 _atom_site_fract_z
 _atom_site_occupancy
  Hf  Hf0  1  0.810447  0.436473  0.557388  1
  Hf  Hf1  1  0.310447  0.063527  0.942612  1
  Hf  Hf2  1  0.189553  0.936473  0.442612  1
  Hf  Hf3  1  0.689553  0.563527  0.057388  1
  Hf  Hf4  1  0.310447  0.436473  0.942612  1
  Hf  Hf5  1  0.810447  0.063527  0.557388  1
  Hf  Hf6  1  0.689553  0.936473  0.057388  1
  Hf  Hf7  1  0.189553  0.563527  0.442612  1
  Hf  Hf8  1  0.012562  0.750000  0.990697  1
  Hf  Hf9  1  0.512562  0.750000  0.509303  1
  Hf  Hf10  1  0.987438  0.250000  0.009303  1
  Hf  Hf11  1  0.487438  0.250000  0.490697  1
  Sc  Sc12  1  0.149311  0.250000  0.721484  1
  Sc  Sc13  1  0.649311  0.250000  0.778516  1
  Sc  Sc14  1  0.850689  0.750000  0.278516  1
  Sc  Sc15  1  0.350689  0.750000  0.221484  1
  Sc  Sc16  1  0.183841  0.750000  0.718574  1
  Sc  Sc17  1  0.683841  0.750000  0.781426  1
  Sc  Sc18  1  0.816159  0.250000  0.281426  1
  Sc  Sc19  1  0.316159  0.250000  0.218574  1
  Sn  Sn20  1  0.567300  0.996496  0.326496  1
  Sn  Sn21  1  0.067300  0.503504  0.173504  1
  Sn  Sn22  1  0.432700  0.496496  0.673504  1
  Sn  Sn23  1  0.932700  0.003504  0.826496  1
  Sn  Sn24  1  0.432700  0.003504  0.673504  1
  Sn  Sn25  1  0.932700  0.496496  0.826496  1
  Sn  Sn26  1  0.567300  0.503504  0.326496  1
  Sn  Sn27  1  0.067300  0.996496  0.173504  1
  Sb  Sb28  1  0.401505  0.750000  0.961037  1
  Sb  Sb29  1  0.901505  0.750000  0.538963  1
  Sb  Sb30  1  0.598495  0.250000  0.038963  1
  Sb  Sb31  1  0.098495  0.250000  0.461037  1
