# generated using pymatgen
data_Y6HoCoI12
_symmetry_space_group_name_H-M   'P 1'
_cell_length_a   9.74345415
_cell_length_b   9.75109761
_cell_length_c   9.75041905
_cell_angle_alpha   106.87004314
_cell_angle_beta   106.89377477
_cell_angle_gamma   106.86641443
_symmetry_Int_Tables_number   1
_chemical_formula_structural   Y6HoCoI12
_chemical_formula_sum   'Y6 Ho1 Co1 I12'
_cell_volume   774.07843355
_cell_formula_units_Z   1
loop_
 _symmetry_equiv_pos_site_id
 _symmetry_equiv_pos_as_xyz
  1  'x, y, z'
loop_
 _atom_site_type_symbol
 _atom_site_label
 _atom_site_symmetry_multiplicity
 _atom_site_fract_x
 _atom_site_fract_y
 _atom_site_fract_z
 _atom_site_occupancy
  Y  Y0  1  0.500014  0.500053  0.500051  1
  Y  Y1  1  0.022052  0.092205  0.288463  1
  Y  Y2  1  0.092043  0.288455  0.022131  1
  Y  Y3  1  0.288490  0.022230  0.092208  1
  Y  Y4  1  0.977713  0.907788  0.711438  1
  Y  Y5  1  0.907592  0.711479  0.977757  1
  Ho  Ho6  1  0.712826  0.977920  0.908220  1
  Co  Co7  1  0.999212  0.999972  0.999775  1
  I  I8  1  0.160700  0.463529  0.386447  1
  I  I9  1  0.463569  0.386427  0.160700  1
  I  I10  1  0.386481  0.160663  0.463511  1
  I  I11  1  0.839381  0.536467  0.613571  1
  I  I12  1  0.536478  0.613663  0.839171  1
  I  I13  1  0.613508  0.839197  0.536583  1
  I  I14  1  0.677767  0.071731  0.224741  1
  I  I15  1  0.071785  0.224950  0.677802  1
  I  I16  1  0.224988  0.677834  0.071788  1
  I  I17  1  0.322105  0.928251  0.775133  1
  I  I18  1  0.928284  0.775086  0.322235  1
  I  I19  1  0.775014  0.322097  0.928271  1
