# generated using pymatgen
data_La5Sm3(CdRh)8
_symmetry_space_group_name_H-M   'P 1'
_cell_length_a   4.16848500
_cell_length_b   7.60078806
_cell_length_c   17.11049900
_cell_angle_alpha   89.77798624
_cell_angle_beta   90.00000000
_cell_angle_gamma   90.00000000
_symmetry_Int_Tables_number   1
_chemical_formula_structural   La5Sm3(CdRh)8
_chemical_formula_sum   'La5 Sm3 Cd8 Rh8'
_cell_volume   542.12106249
_cell_formula_units_Z   1
loop_
 _symmetry_equiv_pos_site_id
 _symmetry_equiv_pos_as_xyz
  1  'x, y, z'
loop_
 _atom_site_type_symbol
 _atom_site_label
 _atom_site_symmetry_multiplicity
 _atom_site_fract_x
 _atom_site_fract_y
 _atom_site_fract_z
 _atom_site_occupancy
  La  La0  1  0.750000  0.446228  0.218934  1
  La  La1  1  0.750000  0.945896  0.285699  1
  La  La2  1  0.750000  0.834877  0.060072  1
  La  La3  1  0.250000  0.054285  0.715644  1
  La  La4  1  0.250000  0.161302  0.937930  1
  Sm  Sm5  1  0.250000  0.554634  0.782558  1
  Sm  Sm6  1  0.750000  0.342056  0.442208  1
  Sm  Sm7  1  0.250000  0.662297  0.560114  1
  Cd  Cd8  1  0.250000  0.001381  0.438745  1
  Cd  Cd9  1  0.750000  0.504086  0.933208  1
  Cd  Cd10  1  0.750000  0.004637  0.562721  1
  Cd  Cd11  1  0.250000  0.616270  0.351735  1
  Cd  Cd12  1  0.750000  0.389059  0.651827  1
  Cd  Cd13  1  0.750000  0.874564  0.846007  1
  Cd  Cd14  1  0.250000  0.492098  0.063504  1
  Cd  Cd15  1  0.250000  0.118908  0.152487  1
  Rh  Rh16  1  0.250000  0.266079  0.558701  1
  Rh  Rh17  1  0.750000  0.236472  0.056099  1
  Rh  Rh18  1  0.250000  0.242961  0.311487  1
  Rh  Rh19  1  0.750000  0.257260  0.809427  1
  Rh  Rh20  1  0.250000  0.756934  0.941129  1
  Rh  Rh21  1  0.750000  0.757914  0.687523  1
  Rh  Rh22  1  0.750000  0.740864  0.442963  1
  Rh  Rh23  1  0.250000  0.738938  0.189280  1
