# generated using pymatgen
data_Mn4Nb4CrFe3
_symmetry_space_group_name_H-M   'P 1'
_cell_length_a   4.80336371
_cell_length_b   4.83108346
_cell_length_c   8.00782400
_cell_angle_alpha   90.00000000
_cell_angle_beta   90.00000000
_cell_angle_gamma   121.04459646
_symmetry_Int_Tables_number   1
_chemical_formula_structural   Mn4Nb4CrFe3
_chemical_formula_sum   'Mn4 Nb4 Cr1 Fe3'
_cell_volume   159.20871447
_cell_formula_units_Z   1
loop_
 _symmetry_equiv_pos_site_id
 _symmetry_equiv_pos_as_xyz
  1  'x, y, z'
loop_
 _atom_site_type_symbol
 _atom_site_label
 _atom_site_symmetry_multiplicity
 _atom_site_fract_x
 _atom_site_fract_y
 _atom_site_fract_z
 _atom_site_occupancy
  Mn  Mn0  1  0.823846  0.657618  0.250000  1
  Mn  Mn1  1  0.340393  0.173815  0.250000  1
  Mn  Mn2  1  0.172654  0.830968  0.750000  1
  Mn  Mn3  1  0.173626  0.341078  0.750000  1
  Nb  Nb4  1  0.331794  0.665848  0.434931  1
  Nb  Nb5  1  0.666530  0.332130  0.562904  1
  Nb  Nb6  1  0.666530  0.332130  0.937096  1
  Nb  Nb7  1  0.331794  0.665848  0.065069  1
  Cr  Cr8  1  0.660313  0.828732  0.750000  1
  Fe  Fe9  1  0.003256  0.000837  0.495771  1
  Fe  Fe10  1  0.003256  0.000837  0.004229  1
  Fe  Fe11  1  0.826007  0.170157  0.250000  1
