# generated using pymatgen
data_Nd2HfReF14
_symmetry_space_group_name_H-M   'P 1'
_cell_length_a   5.83486921
_cell_length_b   6.22669560
_cell_length_c   8.43289548
_cell_angle_alpha   101.99907853
_cell_angle_beta   89.98675186
_cell_angle_gamma   90.02981144
_symmetry_Int_Tables_number   1
_chemical_formula_structural   Nd2HfReF14
_chemical_formula_sum   'Nd2 Hf1 Re1 F14'
_cell_volume   299.68933967
_cell_formula_units_Z   1
loop_
 _symmetry_equiv_pos_site_id
 _symmetry_equiv_pos_as_xyz
  1  'x, y, z'
loop_
 _atom_site_type_symbol
 _atom_site_label
 _atom_site_symmetry_multiplicity
 _atom_site_fract_x
 _atom_site_fract_y
 _atom_site_fract_z
 _atom_site_occupancy
  Nd  Nd0  1  0.700617  0.658304  0.688570  1
  Nd  Nd1  1  0.200089  0.340580  0.312113  1
  Hf  Hf2  1  0.209486  0.189487  0.776443  1
  Re  Re3  1  0.709754  0.811234  0.224745  1
  F  F4  1  0.888143  0.448984  0.475013  1
  F  F5  1  0.387406  0.551851  0.524925  1
  F  F6  1  0.424199  0.936193  0.771033  1
  F  F7  1  0.920541  0.061937  0.229060  1
  F  F8  1  0.952257  0.969246  0.759904  1
  F  F9  1  0.450778  0.023109  0.237938  1
  F  F10  1  0.998476  0.446941  0.788121  1
  F  F11  1  0.500630  0.556218  0.212356  1
  F  F12  1  0.703870  0.760781  0.985171  1
  F  F13  1  0.202803  0.243096  0.018886  1
  F  F14  1  0.715459  0.864409  0.465023  1
  F  F15  1  0.213079  0.141236  0.533568  1
  F  F16  1  0.491730  0.378956  0.785336  1
  F  F17  1  0.983403  0.617440  0.211795  1
