# generated using pymatgen
data_Pr3Nd2NbRuO12
_symmetry_space_group_name_H-M   'P 1'
_cell_length_a   7.09735015
_cell_length_b   7.09735021
_cell_length_c   7.81983196
_cell_angle_alpha   73.86112204
_cell_angle_beta   73.86112260
_cell_angle_gamma   50.20652666
_symmetry_Int_Tables_number   1
_chemical_formula_structural   Pr3Nd2NbRuO12
_chemical_formula_sum   'Pr3 Nd2 Nb1 Ru1 O12'
_cell_volume   288.04665222
_cell_formula_units_Z   1
loop_
 _symmetry_equiv_pos_site_id
 _symmetry_equiv_pos_as_xyz
  1  'x, y, z'
loop_
 _atom_site_type_symbol
 _atom_site_label
 _atom_site_symmetry_multiplicity
 _atom_site_fract_x
 _atom_site_fract_y
 _atom_site_fract_z
 _atom_site_occupancy
  Pr  Pr0  1  0.683586  0.695147  0.170732  1
  Pr  Pr1  1  0.304853  0.316414  0.829268  1
  Pr  Pr2  1  0.998553  0.001447  0.500000  1
  Nd  Nd3  1  0.301447  0.312259  0.358624  1
  Nd  Nd4  1  0.687741  0.698553  0.641376  1
  Nb  Nb5  1  0.793136  0.206864  0.000000  1
  Ru  Ru6  1  0.247673  0.752327  0.000000  1
  O  O7  1  0.090474  0.596467  0.576063  1
  O  O8  1  0.004372  0.995075  0.191796  1
  O  O9  1  0.403533  0.909526  0.423937  1
  O  O10  1  0.503779  0.495374  0.173103  1
  O  O11  1  0.094503  0.586760  0.080500  1
  O  O12  1  0.900097  0.410556  0.423522  1
  O  O13  1  0.004925  0.995628  0.808204  1
  O  O14  1  0.589444  0.099902  0.576478  1
  O  O15  1  0.504626  0.496221  0.826897  1
  O  O16  1  0.576880  0.102862  0.079981  1
  O  O17  1  0.413240  0.905497  0.919500  1
  O  O18  1  0.897138  0.423120  0.920019  1
