# generated using pymatgen
data_Ho2Er6InAgIr2
_symmetry_space_group_name_H-M   'P 1'
_cell_length_a   9.53117063
_cell_length_b   9.54197407
_cell_length_c   9.53147601
_cell_angle_alpha   59.95557821
_cell_angle_beta   59.95670110
_cell_angle_gamma   59.94122612
_symmetry_Int_Tables_number   1
_chemical_formula_structural   Ho2Er6InAgIr2
_chemical_formula_sum   'Ho4 Er12 In2 Ag2 Ir4'
_cell_volume   612.27761601
_cell_formula_units_Z   2
loop_
 _symmetry_equiv_pos_site_id
 _symmetry_equiv_pos_as_xyz
  1  'x, y, z'
loop_
 _atom_site_type_symbol
 _atom_site_label
 _atom_site_symmetry_multiplicity
 _atom_site_fract_x
 _atom_site_fract_y
 _atom_site_fract_z
 _atom_site_occupancy
  Ho  Ho0  1  0.057904  0.066089  0.437443  1
  Ho  Ho1  1  0.649238  0.048916  0.649395  1
  Ho  Ho2  1  0.192310  0.807606  0.192220  1
  Ho  Ho3  1  0.436369  0.063837  0.436148  1
  Er  Er4  1  0.190525  0.189558  0.810599  1
  Er  Er5  1  0.649550  0.652254  0.649461  1
  Er  Er6  1  0.049831  0.650103  0.649701  1
  Er  Er7  1  0.437503  0.066035  0.057665  1
  Er  Er8  1  0.649622  0.650244  0.049870  1
  Er  Er9  1  0.190640  0.809082  0.810826  1
  Er  Er10  1  0.810346  0.189622  0.810765  1
  Er  Er11  1  0.810536  0.189504  0.190262  1
  Er  Er12  1  0.810700  0.809042  0.190644  1
  Er  Er13  1  0.057562  0.439251  0.437473  1
  Er  Er14  1  0.437381  0.438988  0.057632  1
  Er  Er15  1  0.061044  0.439251  0.060849  1
  In  In16  1  0.421635  0.741090  0.421412  1
  In  In17  1  0.421330  0.415943  0.421313  1
  Ag  Ag18  1  0.749659  0.416868  0.417304  1
  Ag  Ag19  1  0.417386  0.416439  0.749978  1
  Ir  Ir20  1  0.857886  0.858640  0.858056  1
  Ir  Ir21  1  0.425105  0.857942  0.858434  1
  Ir  Ir22  1  0.858396  0.857873  0.425016  1
  Ir  Ir23  1  0.857540  0.425824  0.857532  1
