# generated using pymatgen
data_Hf4GaN3
_symmetry_space_group_name_H-M   'P 1'
_cell_length_a   3.21016700
_cell_length_b   3.21016610
_cell_length_c   24.49808100
_cell_angle_alpha   90.00000000
_cell_angle_beta   90.00000000
_cell_angle_gamma   119.99997835
_symmetry_Int_Tables_number   1
_chemical_formula_structural   Hf4GaN3
_chemical_formula_sum   'Hf8 Ga2 N6'
_cell_volume   218.63411200
_cell_formula_units_Z   2
loop_
 _symmetry_equiv_pos_site_id
 _symmetry_equiv_pos_as_xyz
  1  'x, y, z'
loop_
 _atom_site_type_symbol
 _atom_site_label
 _atom_site_symmetry_multiplicity
 _atom_site_fract_x
 _atom_site_fract_y
 _atom_site_fract_z
 _atom_site_occupancy
  Hf  Hf0  1  0.333333  0.666667  0.444699  1
  Hf  Hf1  1  0.666667  0.333333  0.555301  1
  Hf  Hf2  1  0.666667  0.333333  0.944699  1
  Hf  Hf3  1  0.333333  0.666667  0.055301  1
  Hf  Hf4  1  0.000000  0.000000  0.341126  1
  Hf  Hf5  1  0.000000  0.000000  0.658874  1
  Hf  Hf6  1  0.000000  0.000000  0.841126  1
  Hf  Hf7  1  0.000000  0.000000  0.158874  1
  Ga  Ga8  1  0.333333  0.666667  0.250000  1
  Ga  Ga9  1  0.666667  0.333333  0.750000  1
  N  N10  1  0.000000  0.000000  0.500000  1
  N  N11  1  0.000000  0.000000  0.000000  1
  N  N12  1  0.666667  0.333333  0.393894  1
  N  N13  1  0.333333  0.666667  0.606106  1
  N  N14  1  0.333333  0.666667  0.893894  1
  N  N15  1  0.666667  0.333333  0.106106  1
