# generated using pymatgen
data_MgNb8BiSe16
_symmetry_space_group_name_H-M   'P 1'
_cell_length_a   7.02287400
_cell_length_b   7.02287648
_cell_length_c   14.30266600
_cell_angle_alpha   90.00000000
_cell_angle_beta   90.00000000
_cell_angle_gamma   120.00000716
_symmetry_Int_Tables_number   1
_chemical_formula_structural   MgNb8BiSe16
_chemical_formula_sum   'Mg1 Nb8 Bi1 Se16'
_cell_volume   610.91037953
_cell_formula_units_Z   1
loop_
 _symmetry_equiv_pos_site_id
 _symmetry_equiv_pos_as_xyz
  1  'x, y, z'
loop_
 _atom_site_type_symbol
 _atom_site_label
 _atom_site_symmetry_multiplicity
 _atom_site_fract_x
 _atom_site_fract_y
 _atom_site_fract_z
 _atom_site_occupancy
  Mg  Mg0  1  0.000000  0.000000  0.500000  1
  Nb  Nb1  1  0.000000  0.000000  0.257087  1
  Nb  Nb2  1  0.000000  0.000000  0.742913  1
  Nb  Nb3  1  0.508417  0.016834  0.258323  1
  Nb  Nb4  1  0.491583  0.983166  0.741677  1
  Nb  Nb5  1  0.983166  0.491583  0.258323  1
  Nb  Nb6  1  0.016834  0.508417  0.741677  1
  Nb  Nb7  1  0.508417  0.491583  0.258323  1
  Nb  Nb8  1  0.491583  0.508417  0.741677  1
  Bi  Bi9  1  0.000000  0.000000  0.000000  1
  Se  Se10  1  0.333333  0.666667  0.620533  1
  Se  Se11  1  0.666667  0.333333  0.379467  1
  Se  Se12  1  0.666667  0.333333  0.136481  1
  Se  Se13  1  0.333333  0.666667  0.863519  1
  Se  Se14  1  0.171211  0.342423  0.143276  1
  Se  Se15  1  0.828789  0.657577  0.856724  1
  Se  Se16  1  0.657577  0.828789  0.143276  1
  Se  Se17  1  0.832268  0.664536  0.626622  1
  Se  Se18  1  0.342423  0.171211  0.856724  1
  Se  Se19  1  0.167732  0.335464  0.373378  1
  Se  Se20  1  0.171211  0.828789  0.143276  1
  Se  Se21  1  0.335464  0.167732  0.626622  1
  Se  Se22  1  0.828789  0.171211  0.856724  1
  Se  Se23  1  0.664536  0.832268  0.373378  1
  Se  Se24  1  0.832268  0.167732  0.626622  1
  Se  Se25  1  0.167732  0.832268  0.373378  1
