# generated using pymatgen
data_Lu8Sc4Co4SnOs
_symmetry_space_group_name_H-M   'P 1'
_cell_length_a   7.97826926
_cell_length_b   7.97828279
_cell_length_c   7.97826925
_cell_angle_alpha   111.34704658
_cell_angle_beta   111.24768833
_cell_angle_gamma   105.87754480
_symmetry_Int_Tables_number   1
_chemical_formula_structural   Lu8Sc4Co4SnOs
_chemical_formula_sum   'Lu8 Sc4 Co4 Sn1 Os1'
_cell_volume   389.79123804
_cell_formula_units_Z   1
loop_
 _symmetry_equiv_pos_site_id
 _symmetry_equiv_pos_as_xyz
  1  'x, y, z'
loop_
 _atom_site_type_symbol
 _atom_site_label
 _atom_site_symmetry_multiplicity
 _atom_site_fract_x
 _atom_site_fract_y
 _atom_site_fract_z
 _atom_site_occupancy
  Lu  Lu0  1  0.185051  0.278445  0.463498  1
  Lu  Lu1  1  0.814949  0.721555  0.536502  1
  Lu  Lu2  1  0.185052  0.721555  0.906605  1
  Lu  Lu3  1  0.814948  0.278445  0.093395  1
  Lu  Lu4  1  0.312678  0.617488  0.304810  1
  Lu  Lu5  1  0.687322  0.382512  0.695190  1
  Lu  Lu6  1  0.312676  0.007874  0.695197  1
  Lu  Lu7  1  0.687324  0.992126  0.304803  1
  Sc  Sc8  1  0.412675  0.218339  0.194347  1
  Sc  Sc9  1  0.587325  0.781661  0.805653  1
  Sc  Sc10  1  0.023992  0.218339  0.805666  1
  Sc  Sc11  1  0.976008  0.781661  0.194334  1
  Co  Co12  1  0.367744  0.000000  0.367744  1
  Co  Co13  1  0.632256  0.000000  0.632256  1
  Co  Co14  1  0.113427  0.613439  0.500013  1
  Co  Co15  1  0.886573  0.386561  0.499987  1
  Sn  Sn16  1  0.500000  0.500000  0.000000  1
  Os  Os17  1  0.000000  0.000000  0.000000  1
