# generated using pymatgen
data_Li4DyPu3Si8
_symmetry_space_group_name_H-M   'P 1'
_cell_length_a   3.78574400
_cell_length_b   7.67303238
_cell_length_c   10.19864485
_cell_angle_alpha   90.00406301
_cell_angle_beta   90.00000000
_cell_angle_gamma   90.00000000
_symmetry_Int_Tables_number   1
_chemical_formula_structural   Li4DyPu3Si8
_chemical_formula_sum   'Li4 Dy1 Pu3 Si8'
_cell_volume   296.25162491
_cell_formula_units_Z   1
loop_
 _symmetry_equiv_pos_site_id
 _symmetry_equiv_pos_as_xyz
  1  'x, y, z'
loop_
 _atom_site_type_symbol
 _atom_site_label
 _atom_site_symmetry_multiplicity
 _atom_site_fract_x
 _atom_site_fract_y
 _atom_site_fract_z
 _atom_site_occupancy
  Li  Li0  1  0.250000  0.487632  0.394116  1
  Li  Li1  1  0.250000  0.990075  0.104427  1
  Li  Li2  1  0.750000  0.510855  0.604056  1
  Li  Li3  1  0.750000  0.010583  0.895689  1
  Dy  Dy4  1  0.750000  0.366517  0.136405  1
  Pu  Pu5  1  0.250000  0.135294  0.636566  1
  Pu  Pu6  1  0.250000  0.637315  0.863586  1
  Pu  Pu7  1  0.750000  0.862058  0.363762  1
  Si  Si8  1  0.250000  0.239032  0.933296  1
  Si  Si9  1  0.250000  0.739246  0.566279  1
  Si  Si10  1  0.750000  0.758806  0.066519  1
  Si  Si11  1  0.750000  0.260256  0.432783  1
  Si  Si12  1  0.250000  0.155250  0.317927  1
  Si  Si13  1  0.250000  0.660731  0.184021  1
  Si  Si14  1  0.750000  0.842268  0.681592  1
  Si  Si15  1  0.750000  0.344082  0.818979  1
