# generated using pymatgen
data_Er2TmMg3AgSn2
_symmetry_space_group_name_H-M   'P 1'
_cell_length_a   7.47453717
_cell_length_b   7.47453707
_cell_length_c   4.47275700
_cell_angle_alpha   90.00000000
_cell_angle_beta   90.00000000
_cell_angle_gamma   119.97552941
_symmetry_Int_Tables_number   1
_chemical_formula_structural   Er2TmMg3AgSn2
_chemical_formula_sum   'Er2 Tm1 Mg3 Ag1 Sn2'
_cell_volume   216.46195599
_cell_formula_units_Z   1
loop_
 _symmetry_equiv_pos_site_id
 _symmetry_equiv_pos_as_xyz
  1  'x, y, z'
loop_
 _atom_site_type_symbol
 _atom_site_label
 _atom_site_symmetry_multiplicity
 _atom_site_fract_x
 _atom_site_fract_y
 _atom_site_fract_z
 _atom_site_occupancy
  Er  Er0  1  0.584108  0.999945  0.000000  1
  Er  Er1  1  0.999945  0.584108  0.000000  1
  Tm  Tm2  1  0.415831  0.415831  0.000000  1
  Mg  Mg3  1  0.237162  0.000048  0.500000  1
  Mg  Mg4  1  0.000048  0.237162  0.500000  1
  Mg  Mg5  1  0.762803  0.762803  0.500000  1
  Ag  Ag6  1  0.000130  0.000130  0.000000  1
  Sn  Sn7  1  0.333420  0.666554  0.500000  1
  Sn  Sn8  1  0.666554  0.333420  0.500000  1
