# generated using pymatgen
data_Yb3ErVOs7
_symmetry_space_group_name_H-M   'P 1'
_cell_length_a   5.36925100
_cell_length_b   5.36924959
_cell_length_c   8.52022700
_cell_angle_alpha   90.00000000
_cell_angle_beta   90.00000000
_cell_angle_gamma   119.99999022
_symmetry_Int_Tables_number   1
_chemical_formula_structural   Yb3ErVOs7
_chemical_formula_sum   'Yb3 Er1 V1 Os7'
_cell_volume   212.72039914
_cell_formula_units_Z   1
loop_
 _symmetry_equiv_pos_site_id
 _symmetry_equiv_pos_as_xyz
  1  'x, y, z'
loop_
 _atom_site_type_symbol
 _atom_site_label
 _atom_site_symmetry_multiplicity
 _atom_site_fract_x
 _atom_site_fract_y
 _atom_site_fract_z
 _atom_site_occupancy
  Yb  Yb0  1  0.666667  0.333333  0.573629  1
  Yb  Yb1  1  0.666667  0.333333  0.935628  1
  Yb  Yb2  1  0.333333  0.666667  0.059597  1
  Er  Er3  1  0.333333  0.666667  0.427494  1
  V  V4  1  0.000000  0.000000  0.498857  1
  Os  Os5  1  0.000000  0.000000  0.002412  1
  Os  Os6  1  0.828141  0.171859  0.255298  1
  Os  Os7  1  0.828141  0.656283  0.255298  1
  Os  Os8  1  0.343717  0.171859  0.255298  1
  Os  Os9  1  0.171109  0.828891  0.745495  1
  Os  Os10  1  0.171109  0.342218  0.745495  1
  Os  Os11  1  0.657782  0.828891  0.745495  1
