# generated using pymatgen
data_Tl3Ir2Pd2PbO14
_symmetry_space_group_name_H-M   'P 1'
_cell_length_a   7.35475440
_cell_length_b   7.35168794
_cell_length_c   7.35475490
_cell_angle_alpha   59.46392710
_cell_angle_beta   59.38611524
_cell_angle_gamma   59.46393034
_symmetry_Int_Tables_number   1
_chemical_formula_structural   Tl3Ir2Pd2PbO14
_chemical_formula_sum   'Tl3 Ir2 Pd2 Pb1 O14'
_cell_volume   277.59972716
_cell_formula_units_Z   1
loop_
 _symmetry_equiv_pos_site_id
 _symmetry_equiv_pos_as_xyz
  1  'x, y, z'
loop_
 _atom_site_type_symbol
 _atom_site_label
 _atom_site_symmetry_multiplicity
 _atom_site_fract_x
 _atom_site_fract_y
 _atom_site_fract_z
 _atom_site_occupancy
  Tl  Tl0  1  0.625000  0.125000  0.125000  1
  Tl  Tl1  1  0.125000  0.625000  0.125000  1
  Tl  Tl2  1  0.125000  0.125000  0.625000  1
  Ir  Ir3  1  0.125000  0.625000  0.625000  1
  Ir  Ir4  1  0.625000  0.625000  0.125000  1
  Pd  Pd5  1  0.625000  0.125000  0.625000  1
  Pd  Pd6  1  0.625000  0.625000  0.625000  1
  Pb  Pb7  1  0.125000  0.125000  0.125000  1
  O  O8  1  0.708348  0.702974  0.288346  1
  O  O9  1  0.288924  0.298391  0.709721  1
  O  O10  1  0.710808  0.288354  0.710808  1
  O  O11  1  0.297018  0.704952  0.297018  1
  O  O12  1  0.288346  0.702974  0.708348  1
  O  O13  1  0.709721  0.298391  0.288924  1
  O  O14  1  0.541652  0.547026  0.961654  1
  O  O15  1  0.961076  0.951609  0.540279  1
  O  O16  1  0.539192  0.961646  0.539192  1
  O  O17  1  0.952982  0.545048  0.952982  1
  O  O18  1  0.961654  0.547026  0.541652  1
  O  O19  1  0.540279  0.951609  0.961076  1
  O  O20  1  0.252903  0.249377  0.252903  1
  O  O21  1  0.997097  0.000623  0.997097  1
