# generated using pymatgen
data_Er5Tm3B24IrRu3
_symmetry_space_group_name_H-M   'P 1'
_cell_length_a   3.62941000
_cell_length_b   9.08983042
_cell_length_c   11.44029302
_cell_angle_alpha   90.03525713
_cell_angle_beta   90.00000000
_cell_angle_gamma   90.00000000
_symmetry_Int_Tables_number   1
_chemical_formula_structural   Er5Tm3B24IrRu3
_chemical_formula_sum   'Er5 Tm3 B24 Ir1 Ru3'
_cell_volume   377.42344844
_cell_formula_units_Z   1
loop_
 _symmetry_equiv_pos_site_id
 _symmetry_equiv_pos_as_xyz
  1  'x, y, z'
loop_
 _atom_site_type_symbol
 _atom_site_label
 _atom_site_symmetry_multiplicity
 _atom_site_fract_x
 _atom_site_fract_y
 _atom_site_fract_z
 _atom_site_occupancy
  Er  Er0  1  0.000000  0.318539  0.414554  1
  Er  Er1  1  0.000000  0.679420  0.589181  1
  Er  Er2  1  0.000000  0.822942  0.083937  1
  Er  Er3  1  0.000000  0.179046  0.913212  1
  Er  Er4  1  0.000000  0.945765  0.373335  1
  Tm  Tm5  1  0.000000  0.056025  0.627059  1
  Tm  Tm6  1  0.000000  0.441799  0.125394  1
  Tm  Tm7  1  0.000000  0.555897  0.873375  1
  B  B8  1  0.500000  0.553715  0.434083  1
  B  B9  1  0.500000  0.445984  0.566719  1
  B  B10  1  0.500000  0.054258  0.066589  1
  B  B11  1  0.500000  0.946181  0.932969  1
  B  B12  1  0.500000  0.749584  0.421464  1
  B  B13  1  0.500000  0.251027  0.579948  1
  B  B14  1  0.500000  0.248473  0.079602  1
  B  B15  1  0.500000  0.751515  0.920171  1
  B  B16  1  0.500000  0.792352  0.265197  1
  B  B17  1  0.500000  0.208430  0.733958  1
  B  B18  1  0.500000  0.292060  0.234421  1
  B  B19  1  0.500000  0.708185  0.766048  1
  B  B20  1  0.500000  0.631538  0.183293  1
  B  B21  1  0.500000  0.368754  0.815139  1
  B  B22  1  0.500000  0.131819  0.315245  1
  B  B23  1  0.500000  0.868318  0.684994  1
  B  B24  1  0.500000  0.982657  0.212803  1
  B  B25  1  0.500000  0.017407  0.786710  1
  B  B26  1  0.500000  0.481316  0.286418  1
  B  B27  1  0.500000  0.517352  0.713421  1
  B  B28  1  0.500000  0.608241  0.029970  1
  B  B29  1  0.500000  0.391820  0.970236  1
  B  B30  1  0.500000  0.108164  0.470593  1
  B  B31  1  0.500000  0.891407  0.529804  1
  Ir  Ir32  1  0.000000  0.637149  0.321434  1
  Ru  Ru33  1  0.000000  0.362406  0.678644  1
  Ru  Ru34  1  0.000000  0.138312  0.179316  1
  Ru  Ru35  1  0.000000  0.862141  0.820765  1
