# generated using pymatgen
data_Ti3Co4ReSi4
_symmetry_space_group_name_H-M   'P 1'
_cell_length_a   3.68829300
_cell_length_b   6.06917290
_cell_length_c   6.91655434
_cell_angle_alpha   89.64799485
_cell_angle_beta   90.00000000
_cell_angle_gamma   90.00000000
_symmetry_Int_Tables_number   1
_chemical_formula_structural   Ti3Co4ReSi4
_chemical_formula_sum   'Ti3 Co4 Re1 Si4'
_cell_volume   154.82337162
_cell_formula_units_Z   1
loop_
 _symmetry_equiv_pos_site_id
 _symmetry_equiv_pos_as_xyz
  1  'x, y, z'
loop_
 _atom_site_type_symbol
 _atom_site_label
 _atom_site_symmetry_multiplicity
 _atom_site_fract_x
 _atom_site_fract_y
 _atom_site_fract_z
 _atom_site_occupancy
  Ti  Ti0  1  0.750000  0.476379  0.313920  1
  Ti  Ti1  1  0.250000  0.520500  0.690890  1
  Ti  Ti2  1  0.750000  0.980231  0.182039  1
  Co  Co3  1  0.250000  0.646886  0.064447  1
  Co  Co4  1  0.750000  0.362002  0.936336  1
  Co  Co5  1  0.250000  0.144194  0.437040  1
  Co  Co6  1  0.750000  0.851721  0.557974  1
  Re  Re7  1  0.250000  0.022540  0.821099  1
  Si  Si8  1  0.750000  0.736725  0.878669  1
  Si  Si9  1  0.250000  0.770076  0.382126  1
  Si  Si10  1  0.750000  0.219048  0.624286  1
  Si  Si11  1  0.250000  0.269699  0.111173  1
