# generated using pymatgen
data_Ac9Nd11Si15Sn
_symmetry_space_group_name_H-M   'P 1'
_cell_length_a   8.10795719
_cell_length_b   8.10609513
_cell_length_c   15.56596600
_cell_angle_alpha   89.94367323
_cell_angle_beta   89.96901998
_cell_angle_gamma   89.95764496
_symmetry_Int_Tables_number   1
_chemical_formula_structural   Ac9Nd11Si15Sn
_chemical_formula_sum   'Ac9 Nd11 Si15 Sn1'
_cell_volume   1023.05463768
_cell_formula_units_Z   1
loop_
 _symmetry_equiv_pos_site_id
 _symmetry_equiv_pos_as_xyz
  1  'x, y, z'
loop_
 _atom_site_type_symbol
 _atom_site_label
 _atom_site_symmetry_multiplicity
 _atom_site_fract_x
 _atom_site_fract_y
 _atom_site_fract_z
 _atom_site_occupancy
  Ac  Ac0  1  0.308019  0.308767  0.000239  1
  Ac  Ac1  1  0.369631  0.015739  0.451434  1
  Ac  Ac2  1  0.491229  0.863052  0.701463  1
  Ac  Ac3  1  0.515016  0.127568  0.201736  1
  Ac  Ac4  1  0.869086  0.484580  0.297848  1
  Ac  Ac5  1  0.126995  0.520550  0.800874  1
  Ac  Ac6  1  0.632034  0.984226  0.952365  1
  Ac  Ac7  1  0.007977  0.377176  0.543941  1
  Ac  Ac8  1  0.985310  0.630515  0.050460  1
  Nd  Nd9  1  0.188832  0.812841  0.250297  1
  Nd  Nd10  1  0.805113  0.187191  0.751572  1
  Nd  Nd11  1  0.683409  0.687241  0.497323  1
  Nd  Nd12  1  0.126832  0.983234  0.879884  1
  Nd  Nd13  1  0.516219  0.630974  0.128122  1
  Nd  Nd14  1  0.494389  0.377122  0.625291  1
  Nd  Nd15  1  0.632844  0.517928  0.875070  1
  Nd  Nd16  1  0.370083  0.486400  0.372509  1
  Nd  Nd17  1  0.870243  0.014912  0.377322  1
  Nd  Nd18  1  0.984782  0.127712  0.124868  1
  Nd  Nd19  1  0.005406  0.858081  0.618955  1
  Si  Si20  1  0.338450  0.703471  0.951990  1
  Si  Si21  1  0.660352  0.300020  0.451170  1
  Si  Si22  1  0.704411  0.338267  0.051069  1
  Si  Si23  1  0.301525  0.663892  0.545956  1
  Si  Si24  1  0.802515  0.836818  0.203859  1
  Si  Si25  1  0.162349  0.199464  0.298759  1
  Si  Si26  1  0.838854  0.802982  0.797210  1
  Si  Si27  1  0.283780  0.916628  0.063036  1
  Si  Si28  1  0.577662  0.784678  0.311093  1
  Si  Si29  1  0.437988  0.216158  0.810997  1
  Si  Si30  1  0.786199  0.576646  0.689151  1
  Si  Si31  1  0.214442  0.425614  0.193596  1
  Si  Si32  1  0.715210  0.079076  0.560775  1
  Si  Si33  1  0.917534  0.284555  0.938987  1
  Si  Si34  1  0.078425  0.717569  0.437084  1
  Sn  Sn35  1  0.196856  0.158352  0.693695  1
