# generated using pymatgen
data_TbDy9Ru3Rh
_symmetry_space_group_name_H-M   'P 1'
_cell_length_a   8.53046667
_cell_length_b   8.53866139
_cell_length_c   7.29323624
_cell_angle_alpha   83.43343607
_cell_angle_beta   83.38960705
_cell_angle_gamma   43.80185093
_symmetry_Int_Tables_number   1
_chemical_formula_structural   TbDy9Ru3Rh
_chemical_formula_sum   'Tb1 Dy9 Ru3 Rh1'
_cell_volume   364.87732130
_cell_formula_units_Z   1
loop_
 _symmetry_equiv_pos_site_id
 _symmetry_equiv_pos_as_xyz
  1  'x, y, z'
loop_
 _atom_site_type_symbol
 _atom_site_label
 _atom_site_symmetry_multiplicity
 _atom_site_fract_x
 _atom_site_fract_y
 _atom_site_fract_z
 _atom_site_occupancy
  Tb  Tb0  1  0.207562  0.980809  0.584950  1
  Dy  Dy1  1  0.020779  0.794246  0.917482  1
  Dy  Dy2  1  0.207461  0.356054  0.313204  1
  Dy  Dy3  1  0.643205  0.791964  0.185491  1
  Dy  Dy4  1  0.789499  0.643231  0.685597  1
  Dy  Dy5  1  0.358579  0.205094  0.816539  1
  Dy  Dy6  1  0.978934  0.206856  0.084817  1
  Dy  Dy7  1  0.791286  0.023511  0.413588  1
  Dy  Dy8  1  0.578740  0.421572  0.750877  1
  Dy  Dy9  1  0.423743  0.577842  0.247598  1
  Ru  Ru10  1  0.395936  0.825256  0.923973  1
  Ru  Ru11  1  0.825529  0.396642  0.425304  1
  Ru  Ru12  1  0.602271  0.176080  0.075263  1
  Rh  Rh13  1  0.176476  0.600843  0.575320  1
