# generated using pymatgen
data_La7Y13Pb16
_symmetry_space_group_name_H-M   'P 1'
_cell_length_a   8.36138619
_cell_length_b   8.43116372
_cell_length_c   15.96835203
_cell_angle_alpha   90.04025000
_cell_angle_beta   89.61005192
_cell_angle_gamma   90.40108420
_symmetry_Int_Tables_number   1
_chemical_formula_structural   La7Y13Pb16
_chemical_formula_sum   'La7 Y13 Pb16'
_cell_volume   1125.65449795
_cell_formula_units_Z   1
loop_
 _symmetry_equiv_pos_site_id
 _symmetry_equiv_pos_as_xyz
  1  'x, y, z'
loop_
 _atom_site_type_symbol
 _atom_site_label
 _atom_site_symmetry_multiplicity
 _atom_site_fract_x
 _atom_site_fract_y
 _atom_site_fract_z
 _atom_site_occupancy
  La  La0  1  0.523248  0.321238  0.401135  1
  La  La1  1  0.474979  0.678160  0.902750  1
  La  La2  1  0.977307  0.821876  0.596343  1
  La  La3  1  0.975377  0.823808  0.903770  1
  La  La4  1  0.477602  0.677977  0.596970  1
  La  La5  1  0.523935  0.320884  0.097840  1
  La  La6  1  0.021523  0.177517  0.403584  1
  Y  Y7  1  0.866409  0.658353  0.122588  1
  Y  Y8  1  0.363897  0.841253  0.377298  1
  Y  Y9  1  0.632332  0.158603  0.879315  1
  Y  Y10  1  0.135728  0.341098  0.623062  1
  Y  Y11  1  0.131789  0.341042  0.878539  1
  Y  Y12  1  0.635089  0.158892  0.621879  1
  Y  Y13  1  0.366809  0.842651  0.121344  1
  Y  Y14  1  0.864569  0.657758  0.375298  1
  Y  Y15  1  0.030367  0.176028  0.100090  1
  Y  Y16  1  0.700424  0.996724  0.248534  1
  Y  Y17  1  0.199399  0.504589  0.248666  1
  Y  Y18  1  0.800084  0.494638  0.750229  1
  Y  Y19  1  0.299562  0.004184  0.750897  1
  Pb  Pb20  1  0.061901  0.872003  0.249282  1
  Pb  Pb21  1  0.561218  0.629798  0.249308  1
  Pb  Pb22  1  0.437952  0.369980  0.750731  1
  Pb  Pb23  1  0.937703  0.129281  0.750423  1
  Pb  Pb24  1  0.839882  0.348090  0.246959  1
  Pb  Pb25  1  0.331648  0.146254  0.249510  1
  Pb  Pb26  1  0.665196  0.854133  0.750019  1
  Pb  Pb27  1  0.163981  0.648639  0.750011  1
  Pb  Pb28  1  0.794520  0.461723  0.956639  1
  Pb  Pb29  1  0.296757  0.041318  0.543686  1
  Pb  Pb30  1  0.713042  0.966051  0.045733  1
  Pb  Pb31  1  0.203106  0.539541  0.455681  1
  Pb  Pb32  1  0.203308  0.535899  0.044490  1
  Pb  Pb33  1  0.702342  0.956997  0.455615  1
  Pb  Pb34  1  0.289910  0.043352  0.959139  1
  Pb  Pb35  1  0.797103  0.459664  0.542644  1
