# generated using pymatgen
data_Li3Lu5(P3Ir4)4
_symmetry_space_group_name_H-M   'P 1'
_cell_length_a   12.66075600
_cell_length_b   12.66075572
_cell_length_c   3.94924900
_cell_angle_alpha   90.00000000
_cell_angle_beta   90.00000000
_cell_angle_gamma   120.00000074
_symmetry_Int_Tables_number   1
_chemical_formula_structural   Li3Lu5(P3Ir4)4
_chemical_formula_sum   'Li3 Lu5 P12 Ir16'
_cell_volume   548.23204074
_cell_formula_units_Z   1
loop_
 _symmetry_equiv_pos_site_id
 _symmetry_equiv_pos_as_xyz
  1  'x, y, z'
loop_
 _atom_site_type_symbol
 _atom_site_label
 _atom_site_symmetry_multiplicity
 _atom_site_fract_x
 _atom_site_fract_y
 _atom_site_fract_z
 _atom_site_occupancy
  Li  Li0  1  0.441971  0.000000  0.000000  1
  Li  Li1  1  0.000000  0.441971  0.000000  1
  Li  Li2  1  0.558029  0.558029  0.000000  1
  Lu  Lu3  1  0.333333  0.666667  0.000000  1
  Lu  Lu4  1  0.666667  0.333333  0.000000  1
  Lu  Lu5  1  0.808523  0.000000  0.500000  1
  Lu  Lu6  1  0.000000  0.808523  0.500000  1
  Lu  Lu7  1  0.191477  0.191477  0.500000  1
  P  P8  1  0.178235  0.000000  0.000000  1
  P  P9  1  0.000000  0.178235  0.000000  1
  P  P10  1  0.821765  0.821765  0.000000  1
  P  P11  1  0.171753  0.483829  0.500000  1
  P  P12  1  0.516171  0.687923  0.500000  1
  P  P13  1  0.312077  0.828247  0.500000  1
  P  P14  1  0.687923  0.516171  0.500000  1
  P  P15  1  0.828247  0.312077  0.500000  1
  P  P16  1  0.483829  0.171753  0.500000  1
  P  P17  1  0.630814  0.000000  0.000000  1
  P  P18  1  0.000000  0.630814  0.000000  1
  P  P19  1  0.369186  0.369186  0.000000  1
  Ir  Ir20  1  0.359341  0.491595  0.500000  1
  Ir  Ir21  1  0.508405  0.867746  0.500000  1
  Ir  Ir22  1  0.132254  0.640659  0.500000  1
  Ir  Ir23  1  0.867746  0.508405  0.500000  1
  Ir  Ir24  1  0.640659  0.132254  0.500000  1
  Ir  Ir25  1  0.491595  0.359341  0.500000  1
  Ir  Ir26  1  0.180615  0.371278  0.000000  1
  Ir  Ir27  1  0.628722  0.809337  0.000000  1
  Ir  Ir28  1  0.190663  0.819385  0.000000  1
  Ir  Ir29  1  0.809337  0.628722  0.000000  1
  Ir  Ir30  1  0.819385  0.190663  0.000000  1
  Ir  Ir31  1  0.371278  0.180615  0.000000  1
  Ir  Ir32  1  0.278716  0.000000  0.500000  1
  Ir  Ir33  1  0.000000  0.278716  0.500000  1
  Ir  Ir34  1  0.721284  0.721284  0.500000  1
  Ir  Ir35  1  0.000000  0.000000  0.000000  1
