# generated using pymatgen
data_LiCa4Sb4Pt3
_symmetry_space_group_name_H-M   'P 1'
_cell_length_a   4.66192200
_cell_length_b   7.45677065
_cell_length_c   8.00717350
_cell_angle_alpha   91.83880810
_cell_angle_beta   90.00000000
_cell_angle_gamma   90.00000000
_symmetry_Int_Tables_number   1
_chemical_formula_structural   LiCa4Sb4Pt3
_chemical_formula_sum   'Li1 Ca4 Sb4 Pt3'
_cell_volume   278.20910069
_cell_formula_units_Z   1
loop_
 _symmetry_equiv_pos_site_id
 _symmetry_equiv_pos_as_xyz
  1  'x, y, z'
loop_
 _atom_site_type_symbol
 _atom_site_label
 _atom_site_symmetry_multiplicity
 _atom_site_fract_x
 _atom_site_fract_y
 _atom_site_fract_z
 _atom_site_occupancy
  Li  Li0  1  0.250000  0.827592  0.922050  1
  Ca  Ca1  1  0.750000  0.004814  0.693699  1
  Ca  Ca2  1  0.250000  0.001367  0.303908  1
  Ca  Ca3  1  0.750000  0.487949  0.792223  1
  Ca  Ca4  1  0.250000  0.505327  0.209062  1
  Sb  Sb5  1  0.750000  0.308768  0.403745  1
  Sb  Sb6  1  0.250000  0.213407  0.908359  1
  Sb  Sb7  1  0.250000  0.690105  0.592442  1
  Sb  Sb8  1  0.750000  0.793785  0.095653  1
  Pt  Pt9  1  0.250000  0.303083  0.578362  1
  Pt  Pt10  1  0.750000  0.692942  0.421811  1
  Pt  Pt11  1  0.750000  0.170863  0.078686  1
