# generated using pymatgen
data_Li5RuO6
_symmetry_space_group_name_H-M   'P 1'
_cell_length_a   5.06147657
_cell_length_b   5.06145337
_cell_length_c   9.60369166
_cell_angle_alpha   94.87836459
_cell_angle_beta   85.12075185
_cell_angle_gamma   60.05613407
_symmetry_Int_Tables_number   1
_chemical_formula_structural   Li5RuO6
_chemical_formula_sum   'Li10 Ru2 O12'
_cell_volume   210.08849600
_cell_formula_units_Z   2
loop_
 _symmetry_equiv_pos_site_id
 _symmetry_equiv_pos_as_xyz
  1  'x, y, z'
loop_
 _atom_site_type_symbol
 _atom_site_label
 _atom_site_symmetry_multiplicity
 _atom_site_fract_x
 _atom_site_fract_y
 _atom_site_fract_z
 _atom_site_occupancy
  Li  Li0  1  0.666667  0.666667  0.999877  1
  Li  Li1  1  0.166676  0.166680  0.500129  1
  Li  Li2  1  0.840348  0.840341  0.500234  1
  Li  Li3  1  0.340338  0.340368  0.999761  1
  Li  Li4  1  0.992915  0.992830  0.999918  1
  Li  Li5  1  0.492837  0.492911  0.500082  1
  Li  Li6  1  0.749376  0.249385  0.749996  1
  Li  Li7  1  0.583816  0.083839  0.250005  1
  Li  Li8  1  0.249289  0.749285  0.250002  1
  Li  Li9  1  0.084064  0.584047  0.749996  1
  Ru  Ru10  1  0.416612  0.916600  0.750002  1
  Ru  Ru11  1  0.916800  0.416805  0.250003  1
  O  O12  1  0.263594  0.069829  0.134137  1
  O  O13  1  0.763400  0.569899  0.634160  1
  O  O14  1  0.569835  0.763584  0.365861  1
  O  O15  1  0.069897  0.263402  0.865840  1
  O  O16  1  0.645631  0.377254  0.131836  1
  O  O17  1  0.145632  0.877258  0.631850  1
  O  O18  1  0.956102  0.687767  0.131848  1
  O  O19  1  0.456061  0.187838  0.631841  1
  O  O20  1  0.187760  0.456104  0.368150  1
  O  O21  1  0.687831  0.956057  0.868155  1
  O  O22  1  0.877260  0.145627  0.368164  1
  O  O23  1  0.377259  0.645625  0.868153  1
