# generated using pymatgen
data_Dy5Er3Ga12CoCu3
_symmetry_space_group_name_H-M   'P 1'
_cell_length_a   6.97368304
_cell_length_b   8.78965173
_cell_length_c   8.78168337
_cell_angle_alpha   120.08358490
_cell_angle_beta   90.01197070
_cell_angle_gamma   89.99148487
_symmetry_Int_Tables_number   1
_chemical_formula_structural   Dy5Er3Ga12CoCu3
_chemical_formula_sum   'Dy5 Er3 Ga12 Co1 Cu3'
_cell_volume   465.77466679
_cell_formula_units_Z   1
loop_
 _symmetry_equiv_pos_site_id
 _symmetry_equiv_pos_as_xyz
  1  'x, y, z'
loop_
 _atom_site_type_symbol
 _atom_site_label
 _atom_site_symmetry_multiplicity
 _atom_site_fract_x
 _atom_site_fract_y
 _atom_site_fract_z
 _atom_site_occupancy
  Dy  Dy0  1  0.745718  0.999973  0.000088  1
  Dy  Dy1  1  0.252327  0.000024  0.999852  1
  Dy  Dy2  1  0.749704  0.485200  0.514932  1
  Dy  Dy3  1  0.255369  0.521945  0.478204  1
  Dy  Dy4  1  0.749913  0.029657  0.514819  1
  Er  Er5  1  0.256060  0.955831  0.477897  1
  Er  Er6  1  0.749902  0.485586  0.971047  1
  Er  Er7  1  0.256104  0.522013  0.043827  1
  Ga  Ga8  1  0.963723  0.830665  0.168477  1
  Ga  Ga9  1  0.040339  0.170762  0.829660  1
  Ga  Ga10  1  0.962673  0.338035  0.168357  1
  Ga  Ga11  1  0.462823  0.170452  0.830042  1
  Ga  Ga12  1  0.039707  0.659032  0.830194  1
  Ga  Ga13  1  0.539244  0.826042  0.172989  1
  Ga  Ga14  1  0.963367  0.831131  0.661790  1
  Ga  Ga15  1  0.463518  0.659610  0.830449  1
  Ga  Ga16  1  0.040506  0.170141  0.341242  1
  Ga  Ga17  1  0.540263  0.347257  0.172812  1
  Ga  Ga18  1  0.462675  0.169874  0.340543  1
  Ga  Ga19  1  0.539577  0.826698  0.652760  1
  Co  Co20  1  0.516492  0.666796  0.332541  1
  Cu  Cu21  1  0.946135  0.666523  0.331990  1
  Cu  Cu22  1  0.047101  0.333388  0.667788  1
  Cu  Cu23  1  0.456761  0.333359  0.667701  1
