# generated using pymatgen
data_Nd16CdHg3(OsPd)2
_symmetry_space_group_name_H-M   'P 1'
_cell_length_a   9.96046357
_cell_length_b   9.98146030
_cell_length_c   10.06952000
_cell_angle_alpha   59.70773477
_cell_angle_beta   59.63715317
_cell_angle_gamma   59.68359823
_symmetry_Int_Tables_number   1
_chemical_formula_structural   Nd16CdHg3(OsPd)2
_chemical_formula_sum   'Nd16 Cd1 Hg3 Os2 Pd2'
_cell_volume   702.68411553
_cell_formula_units_Z   1
loop_
 _symmetry_equiv_pos_site_id
 _symmetry_equiv_pos_as_xyz
  1  'x, y, z'
loop_
 _atom_site_type_symbol
 _atom_site_label
 _atom_site_symmetry_multiplicity
 _atom_site_fract_x
 _atom_site_fract_y
 _atom_site_fract_z
 _atom_site_occupancy
  Nd  Nd0  1  0.350274  0.349484  0.355955  1
  Nd  Nd1  1  0.350274  0.349484  0.944287  1
  Nd  Nd2  1  0.344857  0.953563  0.350790  1
  Nd  Nd3  1  0.951521  0.345272  0.351603  1
  Nd  Nd4  1  0.814713  0.189177  0.193103  1
  Nd  Nd5  1  0.187931  0.815532  0.803838  1
  Nd  Nd6  1  0.187931  0.815532  0.192701  1
  Nd  Nd7  1  0.814713  0.189177  0.803008  1
  Nd  Nd8  1  0.188787  0.189494  0.810860  1
  Nd  Nd9  1  0.804723  0.804715  0.195281  1
  Nd  Nd10  1  0.937705  0.555929  0.566144  1
  Nd  Nd11  1  0.555068  0.938790  0.940160  1
  Nd  Nd12  1  0.555068  0.938790  0.565981  1
  Nd  Nd13  1  0.937705  0.555929  0.940222  1
  Nd  Nd14  1  0.562207  0.563016  0.937388  1
  Nd  Nd15  1  0.938161  0.939492  0.561174  1
  Cd  Cd16  1  0.259963  0.580487  0.579776  1
  Hg  Hg17  1  0.582467  0.584767  0.584567  1
  Hg  Hg18  1  0.582467  0.584767  0.248200  1
  Hg  Hg19  1  0.583295  0.246677  0.585015  1
  Os  Os20  1  0.144837  0.145027  0.135992  1
  Os  Os21  1  0.144837  0.145027  0.574144  1
  Pd  Pd22  1  0.147465  0.572616  0.139959  1
  Pd  Pd23  1  0.573034  0.147256  0.139854  1
