# generated using pymatgen
data_LiNb6SbS12
_symmetry_space_group_name_H-M   'P 1'
_cell_length_a   5.83480300
_cell_length_b   5.83480221
_cell_length_c   13.41927400
_cell_angle_alpha   90.00000000
_cell_angle_beta   90.00000000
_cell_angle_gamma   119.99999881
_symmetry_Int_Tables_number   1
_chemical_formula_structural   LiNb6SbS12
_chemical_formula_sum   'Li1 Nb6 Sb1 S12'
_cell_volume   395.65075043
_cell_formula_units_Z   1
loop_
 _symmetry_equiv_pos_site_id
 _symmetry_equiv_pos_as_xyz
  1  'x, y, z'
loop_
 _atom_site_type_symbol
 _atom_site_label
 _atom_site_symmetry_multiplicity
 _atom_site_fract_x
 _atom_site_fract_y
 _atom_site_fract_z
 _atom_site_occupancy
  Li  Li0  1  0.000000  0.000000  0.000000  1
  Nb  Nb1  1  0.000000  0.000000  0.763932  1
  Nb  Nb2  1  0.000000  0.000000  0.236068  1
  Nb  Nb3  1  0.333333  0.666667  0.236781  1
  Nb  Nb4  1  0.666667  0.333333  0.763219  1
  Nb  Nb5  1  0.666667  0.333333  0.236781  1
  Nb  Nb6  1  0.333333  0.666667  0.763219  1
  Sb  Sb7  1  0.000000  0.000000  0.500000  1
  S  S8  1  0.335611  0.000000  0.120498  1
  S  S9  1  0.000000  0.335611  0.120498  1
  S  S10  1  0.664389  0.664389  0.120498  1
  S  S11  1  0.334457  0.334457  0.646141  1
  S  S12  1  0.665543  0.665543  0.353859  1
  S  S13  1  0.665543  0.000000  0.646141  1
  S  S14  1  0.000000  0.665543  0.646141  1
  S  S15  1  0.000000  0.664389  0.879502  1
  S  S16  1  0.335611  0.335611  0.879502  1
  S  S17  1  0.000000  0.334457  0.353859  1
  S  S18  1  0.334457  0.000000  0.353859  1
  S  S19  1  0.664389  0.000000  0.879502  1
