# generated using pymatgen
data_Th2MgGa2
_symmetry_space_group_name_H-M   'P 1'
_cell_length_a   7.58659900
_cell_length_b   7.58659900
_cell_length_c   4.38722000
_cell_angle_alpha   90.00000000
_cell_angle_beta   90.00000000
_cell_angle_gamma   90.00000000
_symmetry_Int_Tables_number   1
_chemical_formula_structural   Th2MgGa2
_chemical_formula_sum   'Th4 Mg2 Ga4'
_cell_volume   252.51295943
_cell_formula_units_Z   2
loop_
 _symmetry_equiv_pos_site_id
 _symmetry_equiv_pos_as_xyz
  1  'x, y, z'
loop_
 _atom_site_type_symbol
 _atom_site_label
 _atom_site_symmetry_multiplicity
 _atom_site_fract_x
 _atom_site_fract_y
 _atom_site_fract_z
 _atom_site_occupancy
  Th  Th0  1  0.675634  0.175634  0.500000  1
  Th  Th1  1  0.324366  0.824366  0.500000  1
  Th  Th2  1  0.175634  0.324366  0.500000  1
  Th  Th3  1  0.824366  0.675634  0.500000  1
  Mg  Mg4  1  0.000000  0.000000  0.000000  1
  Mg  Mg5  1  0.500000  0.500000  0.000000  1
  Ga  Ga6  1  0.123430  0.623430  0.000000  1
  Ga  Ga7  1  0.876570  0.376570  0.000000  1
  Ga  Ga8  1  0.623430  0.876570  0.000000  1
  Ga  Ga9  1  0.376570  0.123430  0.000000  1
