# generated using pymatgen
data_Th2ZnCu(Si2Ir)2
_symmetry_space_group_name_H-M   'P 1'
_cell_length_a   4.20308800
_cell_length_b   4.20308800
_cell_length_c   10.05431500
_cell_angle_alpha   90.00000000
_cell_angle_beta   90.00000000
_cell_angle_gamma   90.00000000
_symmetry_Int_Tables_number   1
_chemical_formula_structural   Th2ZnCu(Si2Ir)2
_chemical_formula_sum   'Th2 Zn1 Cu1 Si4 Ir2'
_cell_volume   177.61901336
_cell_formula_units_Z   1
loop_
 _symmetry_equiv_pos_site_id
 _symmetry_equiv_pos_as_xyz
  1  'x, y, z'
loop_
 _atom_site_type_symbol
 _atom_site_label
 _atom_site_symmetry_multiplicity
 _atom_site_fract_x
 _atom_site_fract_y
 _atom_site_fract_z
 _atom_site_occupancy
  Th  Th0  1  0.000000  0.500000  0.254592  1
  Th  Th1  1  0.500000  0.000000  0.745408  1
  Zn  Zn2  1  0.500000  0.500000  0.000000  1
  Cu  Cu3  1  0.000000  0.000000  0.000000  1
  Si  Si4  1  0.000000  0.000000  0.500000  1
  Si  Si5  1  0.500000  0.500000  0.500000  1
  Si  Si6  1  0.000000  0.500000  0.862160  1
  Si  Si7  1  0.500000  0.000000  0.137840  1
  Ir  Ir8  1  0.000000  0.500000  0.623607  1
  Ir  Ir9  1  0.500000  0.000000  0.376393  1
