# generated using pymatgen
data_YHoEr2(B6Ru)2
_symmetry_space_group_name_H-M   'P 1'
_cell_length_a   3.64404700
_cell_length_b   9.11281603
_cell_length_c   11.49378803
_cell_angle_alpha   89.99116332
_cell_angle_beta   90.00000000
_cell_angle_gamma   90.00000000
_symmetry_Int_Tables_number   1
_chemical_formula_structural   YHoEr2(B6Ru)2
_chemical_formula_sum   'Y2 Ho2 Er4 B24 Ru4'
_cell_volume   381.68030533
_cell_formula_units_Z   2
loop_
 _symmetry_equiv_pos_site_id
 _symmetry_equiv_pos_as_xyz
  1  'x, y, z'
loop_
 _atom_site_type_symbol
 _atom_site_label
 _atom_site_symmetry_multiplicity
 _atom_site_fract_x
 _atom_site_fract_y
 _atom_site_fract_z
 _atom_site_occupancy
  Y  Y0  1  0.000000  0.322241  0.414104  1
  Y  Y1  1  0.000000  0.677759  0.585896  1
  Ho  Ho2  1  0.000000  0.822370  0.085737  1
  Ho  Ho3  1  0.000000  0.177630  0.914263  1
  Er  Er4  1  0.000000  0.943843  0.372133  1
  Er  Er5  1  0.000000  0.056157  0.627867  1
  Er  Er6  1  0.000000  0.443849  0.127512  1
  Er  Er7  1  0.000000  0.556151  0.872488  1
  B  B8  1  0.500000  0.554443  0.432679  1
  B  B9  1  0.500000  0.445557  0.567321  1
  B  B10  1  0.500000  0.054132  0.066793  1
  B  B11  1  0.500000  0.945868  0.933207  1
  B  B12  1  0.500000  0.748870  0.419209  1
  B  B13  1  0.500000  0.251130  0.580791  1
  B  B14  1  0.500000  0.248516  0.080098  1
  B  B15  1  0.500000  0.751484  0.919902  1
  B  B16  1  0.500000  0.791632  0.265623  1
  B  B17  1  0.500000  0.208368  0.734377  1
  B  B18  1  0.500000  0.291240  0.233569  1
  B  B19  1  0.500000  0.708760  0.766431  1
  B  B20  1  0.500000  0.631855  0.184524  1
  B  B21  1  0.500000  0.368145  0.815476  1
  B  B22  1  0.500000  0.131340  0.314854  1
  B  B23  1  0.500000  0.868660  0.685146  1
  B  B24  1  0.500000  0.983249  0.212755  1
  B  B25  1  0.500000  0.016751  0.787245  1
  B  B26  1  0.500000  0.483717  0.286586  1
  B  B27  1  0.500000  0.516283  0.713414  1
  B  B28  1  0.500000  0.606874  0.029408  1
  B  B29  1  0.500000  0.393126  0.970592  1
  B  B30  1  0.500000  0.105906  0.470801  1
  B  B31  1  0.500000  0.894094  0.529199  1
  Ru  Ru32  1  0.000000  0.638473  0.320414  1
  Ru  Ru33  1  0.000000  0.361527  0.679586  1
  Ru  Ru34  1  0.000000  0.137903  0.178843  1
  Ru  Ru35  1  0.000000  0.862097  0.821157  1
