# generated using pymatgen
data_Dy2Zn3Pt4
_symmetry_space_group_name_H-M   'P 1'
_cell_length_a   8.05226730
_cell_length_b   8.05226882
_cell_length_c   7.68184700
_cell_angle_alpha   90.00000000
_cell_angle_beta   90.00000000
_cell_angle_gamma   139.43486261
_symmetry_Int_Tables_number   1
_chemical_formula_structural   Dy2Zn3Pt4
_chemical_formula_sum   'Dy4 Zn6 Pt8'
_cell_volume   323.90968938
_cell_formula_units_Z   2
loop_
 _symmetry_equiv_pos_site_id
 _symmetry_equiv_pos_as_xyz
  1  'x, y, z'
loop_
 _atom_site_type_symbol
 _atom_site_label
 _atom_site_symmetry_multiplicity
 _atom_site_fract_x
 _atom_site_fract_y
 _atom_site_fract_z
 _atom_site_occupancy
  Dy  Dy0  1  0.610623  0.389377  0.911723  1
  Dy  Dy1  1  0.389377  0.610623  0.088277  1
  Dy  Dy2  1  0.889377  0.110623  0.411723  1
  Dy  Dy3  1  0.110623  0.889377  0.588277  1
  Zn  Zn4  1  0.500000  0.500000  0.500000  1
  Zn  Zn5  1  0.000000  0.000000  0.000000  1
  Zn  Zn6  1  0.522205  0.977795  0.750000  1
  Zn  Zn7  1  0.977795  0.522205  0.250000  1
  Zn  Zn8  1  0.477795  0.022205  0.250000  1
  Zn  Zn9  1  0.022205  0.477795  0.750000  1
  Pt  Pt10  1  0.693219  0.806781  0.750000  1
  Pt  Pt11  1  0.806781  0.693219  0.250000  1
  Pt  Pt12  1  0.306781  0.193219  0.250000  1
  Pt  Pt13  1  0.193219  0.306781  0.750000  1
  Pt  Pt14  1  0.677685  0.322315  0.527355  1
  Pt  Pt15  1  0.322315  0.677685  0.472645  1
  Pt  Pt16  1  0.822315  0.177685  0.027355  1
  Pt  Pt17  1  0.177685  0.822315  0.972645  1
