# generated using pymatgen
data_Y2Er3Lu(Co3P2)6
_symmetry_space_group_name_H-M   'P 1'
_cell_length_a   3.68502000
_cell_length_b   10.49221601
_cell_length_c   12.14842701
_cell_angle_alpha   89.99551065
_cell_angle_beta   90.00000000
_cell_angle_gamma   90.00000000
_symmetry_Int_Tables_number   1
_chemical_formula_structural   Y2Er3Lu(Co3P2)6
_chemical_formula_sum   'Y2 Er3 Lu1 Co18 P12'
_cell_volume   469.70709429
_cell_formula_units_Z   1
loop_
 _symmetry_equiv_pos_site_id
 _symmetry_equiv_pos_as_xyz
  1  'x, y, z'
loop_
 _atom_site_type_symbol
 _atom_site_label
 _atom_site_symmetry_multiplicity
 _atom_site_fract_x
 _atom_site_fract_y
 _atom_site_fract_z
 _atom_site_occupancy
  Y  Y0  1  0.750000  0.250087  0.478052  1
  Y  Y1  1  0.250000  0.749946  0.522170  1
  Er  Er2  1  0.250000  0.568026  0.794248  1
  Er  Er3  1  0.750000  0.067789  0.205724  1
  Er  Er4  1  0.750000  0.432197  0.205620  1
  Lu  Lu5  1  0.250000  0.932108  0.794265  1
  Co  Co6  1  0.250000  0.249943  0.841367  1
  Co  Co7  1  0.750000  0.750147  0.158504  1
  Co  Co8  1  0.250000  0.249865  0.295655  1
  Co  Co9  1  0.750000  0.750902  0.704638  1
  Co  Co10  1  0.750000  0.249592  0.013407  1
  Co  Co11  1  0.250000  0.750433  0.985838  1
  Co  Co12  1  0.250000  0.416805  0.005312  1
  Co  Co13  1  0.250000  0.082749  0.004876  1
  Co  Co14  1  0.750000  0.583546  0.994413  1
  Co  Co15  1  0.750000  0.916862  0.994049  1
  Co  Co16  1  0.250000  0.452824  0.569820  1
  Co  Co17  1  0.250000  0.047093  0.570432  1
  Co  Co18  1  0.750000  0.547313  0.430272  1
  Co  Co19  1  0.750000  0.952772  0.430641  1
  Co  Co20  1  0.250000  0.871095  0.289778  1
  Co  Co21  1  0.250000  0.628901  0.289614  1
  Co  Co22  1  0.750000  0.128110  0.710846  1
  Co  Co23  1  0.750000  0.370999  0.710301  1
  P  P24  1  0.250000  0.249785  0.117263  1
  P  P25  1  0.750000  0.750763  0.882128  1
  P  P26  1  0.250000  0.250038  0.656735  1
  P  P27  1  0.750000  0.749999  0.343387  1
  P  P28  1  0.250000  0.439384  0.383220  1
  P  P29  1  0.250000  0.060515  0.383476  1
  P  P30  1  0.750000  0.560805  0.616868  1
  P  P31  1  0.750000  0.939324  0.617771  1
  P  P32  1  0.250000  0.903021  0.107135  1
  P  P33  1  0.250000  0.597114  0.106905  1
  P  P34  1  0.750000  0.096004  0.892378  1
  P  P35  1  0.750000  0.403142  0.892893  1
