# generated using pymatgen
data_La8Sc12Si15Pt
_symmetry_space_group_name_H-M   'P 1'
_cell_length_a   7.28433532
_cell_length_b   7.63832629
_cell_length_c   14.34793200
_cell_angle_alpha   90.00000000
_cell_angle_beta   90.00000000
_cell_angle_gamma   90.44769534
_symmetry_Int_Tables_number   1
_chemical_formula_structural   La8Sc12Si15Pt
_chemical_formula_sum   'La8 Sc12 Si15 Pt1'
_cell_volume   798.29643151
_cell_formula_units_Z   1
loop_
 _symmetry_equiv_pos_site_id
 _symmetry_equiv_pos_as_xyz
  1  'x, y, z'
loop_
 _atom_site_type_symbol
 _atom_site_label
 _atom_site_symmetry_multiplicity
 _atom_site_fract_x
 _atom_site_fract_y
 _atom_site_fract_z
 _atom_site_occupancy
  La  La0  1  0.012588  0.173112  0.401353  1
  La  La1  1  0.511980  0.329439  0.402101  1
  La  La2  1  0.486735  0.669428  0.903603  1
  La  La3  1  0.486735  0.669428  0.596397  1
  La  La4  1  0.990953  0.828318  0.597282  1
  La  La5  1  0.990953  0.828318  0.902718  1
  La  La6  1  0.511980  0.329439  0.097899  1
  La  La7  1  0.012588  0.173112  0.098647  1
  Sc  Sc8  1  0.327461  0.178646  0.625238  1
  Sc  Sc9  1  0.672303  0.825389  0.373925  1
  Sc  Sc10  1  0.648370  0.996407  0.750000  1
  Sc  Sc11  1  0.171875  0.674820  0.374346  1
  Sc  Sc12  1  0.829344  0.322055  0.876780  1
  Sc  Sc13  1  0.829344  0.322055  0.623220  1
  Sc  Sc14  1  0.840672  0.504330  0.250000  1
  Sc  Sc15  1  0.341487  0.997009  0.250000  1
  Sc  Sc16  1  0.327461  0.178646  0.874762  1
  Sc  Sc17  1  0.171875  0.674820  0.125654  1
  Sc  Sc18  1  0.672303  0.825389  0.126075  1
  Sc  Sc19  1  0.163336  0.497701  0.750000  1
  Si  Si20  1  0.467173  0.628897  0.250000  1
  Si  Si21  1  0.027653  0.129589  0.750000  1
  Si  Si22  1  0.538934  0.374293  0.750000  1
  Si  Si23  1  0.149319  0.462622  0.539350  1
  Si  Si24  1  0.970209  0.872277  0.250000  1
  Si  Si25  1  0.710374  0.115027  0.250000  1
  Si  Si26  1  0.850149  0.537225  0.040707  1
  Si  Si27  1  0.351840  0.963312  0.039552  1
  Si  Si28  1  0.149319  0.462622  0.960650  1
  Si  Si29  1  0.649022  0.037175  0.539237  1
  Si  Si30  1  0.351840  0.963312  0.460448  1
  Si  Si31  1  0.850149  0.537225  0.459293  1
  Si  Si32  1  0.788349  0.605595  0.750000  1
  Si  Si33  1  0.212075  0.388066  0.250000  1
  Si  Si34  1  0.649022  0.037175  0.960763  1
  Pt  Pt35  1  0.284228  0.887725  0.750000  1
