# generated using pymatgen
data_Ca2B(Pd2Pt)2
_symmetry_space_group_name_H-M   'P 1'
_cell_length_a   5.93576298
_cell_length_b   5.93576355
_cell_length_c   6.02585400
_cell_angle_alpha   59.49664714
_cell_angle_beta   59.49664389
_cell_angle_gamma   58.72015026
_symmetry_Int_Tables_number   1
_chemical_formula_structural   Ca2B(Pd2Pt)2
_chemical_formula_sum   'Ca2 B1 Pd4 Pt2'
_cell_volume   147.50148472
_cell_formula_units_Z   1
loop_
 _symmetry_equiv_pos_site_id
 _symmetry_equiv_pos_as_xyz
  1  'x, y, z'
loop_
 _atom_site_type_symbol
 _atom_site_label
 _atom_site_symmetry_multiplicity
 _atom_site_fract_x
 _atom_site_fract_y
 _atom_site_fract_z
 _atom_site_occupancy
  Ca  Ca0  1  0.251283  0.251283  0.247106  1
  Ca  Ca1  1  0.748717  0.748717  0.749672  1
  B  B2  1  0.000000  0.000000  0.007361  1
  Pd  Pd3  1  0.741608  0.741608  0.256327  1
  Pd  Pd4  1  0.258392  0.258392  0.739542  1
  Pd  Pd5  1  0.748317  0.251683  0.743924  1
  Pd  Pd6  1  0.251683  0.748317  0.743924  1
  Pt  Pt7  1  0.743610  0.256390  0.256073  1
  Pt  Pt8  1  0.256390  0.743610  0.256073  1
