# generated using pymatgen
data_Sm2Al8Fe9
_symmetry_space_group_name_H-M   'P 1'
_cell_length_a   6.57990434
_cell_length_b   6.58106473
_cell_length_c   6.57983774
_cell_angle_alpha   83.86713922
_cell_angle_beta   96.15220934
_cell_angle_gamma   96.13127726
_symmetry_Int_Tables_number   1
_chemical_formula_structural   Sm2Al8Fe9
_chemical_formula_sum   'Sm2 Al8 Fe9'
_cell_volume   280.34950586
_cell_formula_units_Z   1
loop_
 _symmetry_equiv_pos_site_id
 _symmetry_equiv_pos_as_xyz
  1  'x, y, z'
loop_
 _atom_site_type_symbol
 _atom_site_label
 _atom_site_symmetry_multiplicity
 _atom_site_fract_x
 _atom_site_fract_y
 _atom_site_fract_z
 _atom_site_occupancy
  Sm  Sm0  1  0.638455  0.361487  0.361533  1
  Sm  Sm1  1  0.361545  0.638514  0.638467  1
  Al  Al2  1  0.313076  0.313076  0.999986  1
  Al  Al3  1  0.686924  0.686924  0.000014  1
  Al  Al4  1  0.879841  0.120186  0.120214  1
  Al  Al5  1  0.313027  0.000012  0.313039  1
  Al  Al6  1  0.999978  0.686890  0.313125  1
  Al  Al7  1  0.686973  0.999988  0.686960  1
  Al  Al8  1  0.000022  0.313111  0.686876  1
  Al  Al9  1  0.120159  0.879814  0.879785  1
  Fe  Fe10  1  0.499999  0.000000  0.000000  1
  Fe  Fe11  1  0.000000  0.499999  0.000000  1
  Fe  Fe12  1  0.335762  0.664109  0.161080  1
  Fe  Fe13  1  0.160966  0.335750  0.335800  1
  Fe  Fe14  1  0.664250  0.838914  0.335935  1
  Fe  Fe15  1  0.000000  0.000000  0.499999  1
  Fe  Fe16  1  0.335750  0.161085  0.664065  1
  Fe  Fe17  1  0.839035  0.664248  0.664200  1
  Fe  Fe18  1  0.664240  0.335891  0.838921  1
