# generated using pymatgen
data_Gd2HoTh(InNi2)2
_symmetry_space_group_name_H-M   'P 1'
_cell_length_a   7.60311200
_cell_length_b   7.60311231
_cell_length_c   3.65528400
_cell_angle_alpha   90.00000000
_cell_angle_beta   90.00000000
_cell_angle_gamma   91.14995479
_symmetry_Int_Tables_number   1
_chemical_formula_structural   Gd2HoTh(InNi2)2
_chemical_formula_sum   'Gd2 Ho1 Th1 In2 Ni4'
_cell_volume   211.25959411
_cell_formula_units_Z   1
loop_
 _symmetry_equiv_pos_site_id
 _symmetry_equiv_pos_as_xyz
  1  'x, y, z'
loop_
 _atom_site_type_symbol
 _atom_site_label
 _atom_site_symmetry_multiplicity
 _atom_site_fract_x
 _atom_site_fract_y
 _atom_site_fract_z
 _atom_site_occupancy
  Gd  Gd0  1  0.674989  0.171275  0.500000  1
  Gd  Gd1  1  0.328725  0.825011  0.500000  1
  Ho  Ho2  1  0.826636  0.673364  0.500000  1
  Th  Th3  1  0.169927  0.330073  0.500000  1
  In  In4  1  0.509729  0.503725  0.000000  1
  In  In5  1  0.996275  0.990271  0.000000  1
  Ni  Ni6  1  0.127175  0.623047  0.000000  1
  Ni  Ni7  1  0.876953  0.372825  0.000000  1
  Ni  Ni8  1  0.618355  0.881645  0.000000  1
  Ni  Ni9  1  0.371237  0.128763  0.000000  1
