# generated using pymatgen
data_US4Cl
_symmetry_space_group_name_H-M   'P 1'
_cell_length_a   7.09679327
_cell_length_b   7.66814143
_cell_length_c   7.19767381
_cell_angle_alpha   106.18856953
_cell_angle_beta   119.60130406
_cell_angle_gamma   88.70898024
_symmetry_Int_Tables_number   1
_chemical_formula_structural   US4Cl
_chemical_formula_sum   'U2 S8 Cl2'
_cell_volume   323.93896823
_cell_formula_units_Z   2
loop_
 _symmetry_equiv_pos_site_id
 _symmetry_equiv_pos_as_xyz
  1  'x, y, z'
loop_
 _atom_site_type_symbol
 _atom_site_label
 _atom_site_symmetry_multiplicity
 _atom_site_fract_x
 _atom_site_fract_y
 _atom_site_fract_z
 _atom_site_occupancy
  U  U0  1  0.312873  0.000623  0.125507  1
  U  U1  1  0.687195  0.999381  0.874629  1
  S  S2  1  0.519300  0.273967  0.075406  1
  S  S3  1  0.043911  0.275957  0.122734  1
  S  S4  1  0.004565  0.854244  0.187642  1
  S  S5  1  0.737410  0.153398  0.297347  1
  S  S6  1  0.262636  0.846614  0.702621  1
  S  S7  1  0.995359  0.145738  0.812331  1
  S  S8  1  0.955949  0.723987  0.877152  1
  S  S9  1  0.480748  0.726087  0.924524  1
  Cl  Cl10  1  0.561666  0.798262  0.425330  1
  Cl  Cl11  1  0.438388  0.201740  0.574777  1
