# generated using pymatgen
data_Tm2LuSc3CoBi2
_symmetry_space_group_name_H-M   'P 1'
_cell_length_a   7.94944789
_cell_length_b   7.94293569
_cell_length_c   4.06719400
_cell_angle_alpha   90.00000000
_cell_angle_beta   90.00000000
_cell_angle_gamma   119.97290102
_symmetry_Int_Tables_number   1
_chemical_formula_structural   Tm2LuSc3CoBi2
_chemical_formula_sum   'Tm2 Lu1 Sc3 Co1 Bi2'
_cell_volume   222.46518744
_cell_formula_units_Z   1
loop_
 _symmetry_equiv_pos_site_id
 _symmetry_equiv_pos_as_xyz
  1  'x, y, z'
loop_
 _atom_site_type_symbol
 _atom_site_label
 _atom_site_symmetry_multiplicity
 _atom_site_fract_x
 _atom_site_fract_y
 _atom_site_fract_z
 _atom_site_occupancy
  Tm  Tm0  1  0.383371  0.383427  0.500000  1
  Tm  Tm1  1  0.616629  0.000055  0.500000  1
  Lu  Lu2  1  0.000000  0.617143  0.500000  1
  Sc  Sc3  1  0.224150  0.999700  0.000000  1
  Sc  Sc4  1  0.000000  0.224504  0.000000  1
  Sc  Sc5  1  0.775850  0.775550  0.000000  1
  Co  Co6  1  0.000000  0.999188  0.500000  1
  Bi  Bi7  1  0.667079  0.333756  0.000000  1
  Bi  Bi8  1  0.332921  0.666677  0.000000  1
