# generated using pymatgen
data_LaYTmRh9
_symmetry_space_group_name_H-M   'P 1'
_cell_length_a   5.31866500
_cell_length_b   5.31883101
_cell_length_c   17.57549601
_cell_angle_alpha   90.00153220
_cell_angle_beta   89.99638417
_cell_angle_gamma   119.99456549
_symmetry_Int_Tables_number   1
_chemical_formula_structural   LaYTmRh9
_chemical_formula_sum   'La2 Y2 Tm2 Rh18'
_cell_volume   430.60674686
_cell_formula_units_Z   2
loop_
 _symmetry_equiv_pos_site_id
 _symmetry_equiv_pos_as_xyz
  1  'x, y, z'
loop_
 _atom_site_type_symbol
 _atom_site_label
 _atom_site_symmetry_multiplicity
 _atom_site_fract_x
 _atom_site_fract_y
 _atom_site_fract_z
 _atom_site_occupancy
  La  La0  1  0.333327  0.666667  0.750466  1
  La  La1  1  0.666673  0.333333  0.249534  1
  Y  Y2  1  0.666666  0.333330  0.458583  1
  Y  Y3  1  0.333334  0.666670  0.541417  1
  Tm  Tm4  1  0.333334  0.666672  0.958966  1
  Tm  Tm5  1  0.666666  0.333328  0.041034  1
  Rh  Rh6  1  0.167238  0.832756  0.375193  1
  Rh  Rh7  1  0.167257  0.334507  0.375180  1
  Rh  Rh8  1  0.665498  0.832759  0.375187  1
  Rh  Rh9  1  0.832762  0.167244  0.624807  1
  Rh  Rh10  1  0.832743  0.665493  0.624820  1
  Rh  Rh11  1  0.334502  0.167241  0.624813  1
  Rh  Rh12  1  0.832415  0.167583  0.876436  1
  Rh  Rh13  1  0.832417  0.664823  0.876416  1
  Rh  Rh14  1  0.335182  0.167589  0.876426  1
  Rh  Rh15  1  0.167585  0.832417  0.123564  1
  Rh  Rh16  1  0.167583  0.335177  0.123584  1
  Rh  Rh17  1  0.664818  0.832411  0.123574  1
  Rh  Rh18  1  0.333301  0.666735  0.249754  1
  Rh  Rh19  1  0.666699  0.333265  0.750246  1
  Rh  Rh20  1  0.000003  0.999931  0.249454  1
  Rh  Rh21  1  0.999997  0.000069  0.750546  1
  Rh  Rh22  1  0.000000  0.000000  0.500000  1
  Rh  Rh23  1  0.000000  0.000000  0.000000  1
