# generated using pymatgen
data_Sm8HoEr11Pb16
_symmetry_space_group_name_H-M   'P 1'
_cell_length_a   8.21642854
_cell_length_b   8.32141759
_cell_length_c   15.67736600
_cell_angle_alpha   89.98675261
_cell_angle_beta   90.13118917
_cell_angle_gamma   90.11012668
_symmetry_Int_Tables_number   1
_chemical_formula_structural   Sm8HoEr11Pb16
_chemical_formula_sum   'Sm8 Ho1 Er11 Pb16'
_cell_volume   1071.89327016
_cell_formula_units_Z   1
loop_
 _symmetry_equiv_pos_site_id
 _symmetry_equiv_pos_as_xyz
  1  'x, y, z'
loop_
 _atom_site_type_symbol
 _atom_site_label
 _atom_site_symmetry_multiplicity
 _atom_site_fract_x
 _atom_site_fract_y
 _atom_site_fract_z
 _atom_site_occupancy
  Sm  Sm0  1  0.471744  0.678797  0.597709  1
  Sm  Sm1  1  0.973821  0.821914  0.903411  1
  Sm  Sm2  1  0.527251  0.322465  0.097287  1
  Sm  Sm3  1  0.028752  0.175913  0.401019  1
  Sm  Sm4  1  0.526888  0.322542  0.402128  1
  Sm  Sm5  1  0.026597  0.177694  0.097588  1
  Sm  Sm6  1  0.473594  0.678021  0.903223  1
  Sm  Sm7  1  0.972086  0.822975  0.597973  1
  Ho  Ho8  1  0.130249  0.341399  0.621237  1
  Er  Er9  1  0.631722  0.158320  0.622678  1
  Er  Er10  1  0.132169  0.342117  0.877853  1
  Er  Er11  1  0.367866  0.842250  0.122604  1
  Er  Er12  1  0.868551  0.657554  0.377543  1
  Er  Er13  1  0.369552  0.842094  0.376565  1
  Er  Er14  1  0.868023  0.657854  0.122553  1
  Er  Er15  1  0.632096  0.157859  0.878086  1
  Er  Er16  1  0.798331  0.494710  0.750144  1
  Er  Er17  1  0.298718  0.005366  0.750203  1
  Er  Er18  1  0.201533  0.505429  0.249628  1
  Er  Er19  1  0.701707  0.994776  0.250092  1
  Pb  Pb20  1  0.709821  0.960943  0.456861  1
  Pb  Pb21  1  0.208584  0.539616  0.043301  1
  Pb  Pb22  1  0.291314  0.039993  0.957552  1
  Pb  Pb23  1  0.788136  0.462189  0.542943  1
  Pb  Pb24  1  0.291289  0.038016  0.542488  1
  Pb  Pb25  1  0.791822  0.460488  0.957270  1
  Pb  Pb26  1  0.708738  0.959964  0.043351  1
  Pb  Pb27  1  0.209334  0.539771  0.455899  1
  Pb  Pb28  1  0.435785  0.373093  0.750534  1
  Pb  Pb29  1  0.935927  0.126379  0.750521  1
  Pb  Pb30  1  0.563881  0.626641  0.249599  1
  Pb  Pb31  1  0.063722  0.872509  0.249877  1
  Pb  Pb32  1  0.661428  0.847085  0.750658  1
  Pb  Pb33  1  0.161274  0.652637  0.750371  1
  Pb  Pb34  1  0.338953  0.153414  0.249429  1
  Pb  Pb35  1  0.838745  0.347210  0.249823  1
