# generated using pymatgen
data_LuZrMn12P7
_symmetry_space_group_name_H-M   'P 1'
_cell_length_a   9.23705900
_cell_length_b   9.23705997
_cell_length_c   3.56347100
_cell_angle_alpha   90.00000000
_cell_angle_beta   90.00000000
_cell_angle_gamma   120.00000728
_symmetry_Int_Tables_number   1
_chemical_formula_structural   LuZrMn12P7
_chemical_formula_sum   'Lu1 Zr1 Mn12 P7'
_cell_volume   263.31239863
_cell_formula_units_Z   1
loop_
 _symmetry_equiv_pos_site_id
 _symmetry_equiv_pos_as_xyz
  1  'x, y, z'
loop_
 _atom_site_type_symbol
 _atom_site_label
 _atom_site_symmetry_multiplicity
 _atom_site_fract_x
 _atom_site_fract_y
 _atom_site_fract_z
 _atom_site_occupancy
  Lu  Lu0  1  0.000000  0.000000  0.500000  1
  Zr  Zr1  1  0.666667  0.333333  0.000000  1
  Mn  Mn2  1  0.759153  0.714830  0.000000  1
  Mn  Mn3  1  0.285170  0.044324  0.000000  1
  Mn  Mn4  1  0.955676  0.240847  0.000000  1
  Mn  Mn5  1  0.492484  0.945548  0.000000  1
  Mn  Mn6  1  0.054452  0.546936  0.000000  1
  Mn  Mn7  1  0.453064  0.507516  0.000000  1
  Mn  Mn8  1  0.726699  0.106069  0.500000  1
  Mn  Mn9  1  0.893931  0.620632  0.500000  1
  Mn  Mn10  1  0.379368  0.273301  0.500000  1
  Mn  Mn11  1  0.562192  0.769903  0.500000  1
  Mn  Mn12  1  0.230097  0.792290  0.500000  1
  Mn  Mn13  1  0.207710  0.437808  0.500000  1
  P  P14  1  0.464775  0.078523  0.500000  1
  P  P15  1  0.921477  0.386252  0.500000  1
  P  P16  1  0.613748  0.535225  0.500000  1
  P  P17  1  0.746596  0.956801  0.000000  1
  P  P18  1  0.043199  0.789795  0.000000  1
  P  P19  1  0.210205  0.253404  0.000000  1
  P  P20  1  0.333333  0.666667  0.000000  1
