# generated using pymatgen
data_Cu2TePtO8
_symmetry_space_group_name_H-M   'P 1'
_cell_length_a   6.35568717
_cell_length_b   6.35189027
_cell_length_c   6.35188946
_cell_angle_alpha   127.93716702
_cell_angle_beta   123.51165339
_cell_angle_gamma   80.37879882
_symmetry_Int_Tables_number   1
_chemical_formula_structural   Cu2TePtO8
_chemical_formula_sum   'Cu2 Te1 Pt1 O8'
_cell_volume   162.73309757
_cell_formula_units_Z   1
loop_
 _symmetry_equiv_pos_site_id
 _symmetry_equiv_pos_as_xyz
  1  'x, y, z'
loop_
 _atom_site_type_symbol
 _atom_site_label
 _atom_site_symmetry_multiplicity
 _atom_site_fract_x
 _atom_site_fract_y
 _atom_site_fract_z
 _atom_site_occupancy
  Cu  Cu0  1  0.000000  0.500000  0.000000  1
  Cu  Cu1  1  0.000000  0.000000  0.500000  1
  Te  Te2  1  0.500000  0.500000  0.000000  1
  Pt  Pt3  1  0.000000  0.500000  0.500000  1
  O  O4  1  0.840739  0.296350  0.544389  1
  O  O5  1  0.271208  0.745596  0.992985  1
  O  O6  1  0.271208  0.278223  0.525612  1
  O  O7  1  0.243381  0.287616  0.955765  1
  O  O8  1  0.756619  0.712384  0.044235  1
  O  O9  1  0.728792  0.254404  0.007015  1
  O  O10  1  0.728792  0.721777  0.474388  1
  O  O11  1  0.159261  0.703650  0.455611  1
