# generated using pymatgen
data_DyY4Cr3(Co4P3)4
_symmetry_space_group_name_H-M   'P 1'
_cell_length_a   12.00266800
_cell_length_b   12.00266802
_cell_length_c   3.67384800
_cell_angle_alpha   90.00000000
_cell_angle_beta   90.00000000
_cell_angle_gamma   119.99999444
_symmetry_Int_Tables_number   1
_chemical_formula_structural   DyY4Cr3(Co4P3)4
_chemical_formula_sum   'Dy1 Y4 Cr3 Co16 P12'
_cell_volume   458.36075665
_cell_formula_units_Z   1
loop_
 _symmetry_equiv_pos_site_id
 _symmetry_equiv_pos_as_xyz
  1  'x, y, z'
loop_
 _atom_site_type_symbol
 _atom_site_label
 _atom_site_symmetry_multiplicity
 _atom_site_fract_x
 _atom_site_fract_y
 _atom_site_fract_z
 _atom_site_occupancy
  Dy  Dy0  1  0.333333  0.666667  0.000000  1
  Y  Y1  1  0.666667  0.333333  0.000000  1
  Y  Y2  1  0.187190  0.187200  0.500000  1
  Y  Y3  1  0.812800  0.999990  0.500000  1
  Y  Y4  1  0.000010  0.812810  0.500000  1
  Cr  Cr5  1  0.554627  0.554735  0.000000  1
  Cr  Cr6  1  0.445265  0.999892  0.000000  1
  Cr  Cr7  1  0.000108  0.445373  0.000000  1
  Co  Co8  1  0.823171  0.200496  0.000000  1
  Co  Co9  1  0.799504  0.622675  0.000000  1
  Co  Co10  1  0.377325  0.176829  0.000000  1
  Co  Co11  1  0.200563  0.823095  0.000000  1
  Co  Co12  1  0.622533  0.799437  0.000000  1
  Co  Co13  1  0.176905  0.377467  0.000000  1
  Co  Co14  1  0.643856  0.125827  0.500000  1
  Co  Co15  1  0.874173  0.518029  0.500000  1
  Co  Co16  1  0.481971  0.356144  0.500000  1
  Co  Co17  1  0.126058  0.643904  0.500000  1
  Co  Co18  1  0.517846  0.873942  0.500000  1
  Co  Co19  1  0.356096  0.482154  0.500000  1
  Co  Co20  1  0.717004  0.717048  0.500000  1
  Co  Co21  1  0.282952  0.999956  0.500000  1
  Co  Co22  1  0.000044  0.282996  0.500000  1
  Co  Co23  1  0.000000  0.000000  0.000000  1
  P  P24  1  0.367156  0.367171  0.000000  1
  P  P25  1  0.632829  0.999984  0.000000  1
  P  P26  1  0.000016  0.632844  0.000000  1
  P  P27  1  0.837528  0.317157  0.500000  1
  P  P28  1  0.682843  0.520371  0.500000  1
  P  P29  1  0.479629  0.162472  0.500000  1
  P  P30  1  0.317147  0.837309  0.500000  1
  P  P31  1  0.520161  0.682853  0.500000  1
  P  P32  1  0.162691  0.479839  0.500000  1
  P  P33  1  0.820350  0.820360  0.000000  1
  P  P34  1  0.179640  0.999991  0.000000  1
  P  P35  1  0.000009  0.179650  0.000000  1
