# generated using pymatgen
data_Ho4LuZr3(Co4P3)4
_symmetry_space_group_name_H-M   'P 1'
_cell_length_a   12.26294603
_cell_length_b   12.26294550
_cell_length_c   3.69714800
_cell_angle_alpha   90.00000000
_cell_angle_beta   90.00000000
_cell_angle_gamma   120.00859979
_symmetry_Int_Tables_number   1
_chemical_formula_structural   Ho4LuZr3(Co4P3)4
_chemical_formula_sum   'Ho4 Lu1 Zr3 Co16 P12'
_cell_volume   481.44806090
_cell_formula_units_Z   1
loop_
 _symmetry_equiv_pos_site_id
 _symmetry_equiv_pos_as_xyz
  1  'x, y, z'
loop_
 _atom_site_type_symbol
 _atom_site_label
 _atom_site_symmetry_multiplicity
 _atom_site_fract_x
 _atom_site_fract_y
 _atom_site_fract_z
 _atom_site_occupancy
  Ho  Ho0  1  0.666718  0.333234  0.000000  1
  Ho  Ho1  1  0.333234  0.666718  0.000000  1
  Ho  Ho2  1  0.181429  0.999792  0.500000  1
  Ho  Ho3  1  0.999792  0.181429  0.500000  1
  Lu  Lu4  1  0.818109  0.818109  0.500000  1
  Zr  Zr5  1  0.442535  0.442535  0.000000  1
  Zr  Zr6  1  0.558319  0.999823  0.000000  1
  Zr  Zr7  1  0.999823  0.558319  0.000000  1
  Co  Co8  1  0.875360  0.354575  0.500000  1
  Co  Co9  1  0.645615  0.521210  0.500000  1
  Co  Co10  1  0.479546  0.124630  0.500000  1
  Co  Co11  1  0.354575  0.875360  0.500000  1
  Co  Co12  1  0.521210  0.645615  0.500000  1
  Co  Co13  1  0.124630  0.479546  0.500000  1
  Co  Co14  1  0.805709  0.177840  0.000000  1
  Co  Co15  1  0.821733  0.628351  0.000000  1
  Co  Co16  1  0.372633  0.194396  0.000000  1
  Co  Co17  1  0.177840  0.805709  0.000000  1
  Co  Co18  1  0.628351  0.821733  0.000000  1
  Co  Co19  1  0.194396  0.372633  0.000000  1
  Co  Co20  1  0.277231  0.277231  0.500000  1
  Co  Co21  1  0.723127  0.999204  0.500000  1
  Co  Co22  1  0.999204  0.723127  0.500000  1
  Co  Co23  1  0.999169  0.999169  0.000000  1
  P  P24  1  0.693943  0.171714  0.500000  1
  P  P25  1  0.827924  0.521742  0.500000  1
  P  P26  1  0.478259  0.306387  0.500000  1
  P  P27  1  0.171714  0.693943  0.500000  1
  P  P28  1  0.521742  0.827924  0.500000  1
  P  P29  1  0.306387  0.478259  0.500000  1
  P  P30  1  0.177725  0.177725  0.000000  1
  P  P31  1  0.821938  0.998564  0.000000  1
  P  P32  1  0.998564  0.821938  0.000000  1
  P  P33  1  0.651050  0.651050  0.000000  1
  P  P34  1  0.350434  0.000030  0.000000  1
  P  P35  1  0.000030  0.350434  0.000000  1
