# generated using pymatgen
data_U3Ga3Ir2Pd
_symmetry_space_group_name_H-M   'P 1'
_cell_length_a   7.03581807
_cell_length_b   7.03646746
_cell_length_c   4.01407600
_cell_angle_alpha   90.00000000
_cell_angle_beta   90.00000000
_cell_angle_gamma   120.01336375
_symmetry_Int_Tables_number   1
_chemical_formula_structural   U3Ga3Ir2Pd
_chemical_formula_sum   'U3 Ga3 Ir2 Pd1'
_cell_volume   172.07865739
_cell_formula_units_Z   1
loop_
 _symmetry_equiv_pos_site_id
 _symmetry_equiv_pos_as_xyz
  1  'x, y, z'
loop_
 _atom_site_type_symbol
 _atom_site_label
 _atom_site_symmetry_multiplicity
 _atom_site_fract_x
 _atom_site_fract_y
 _atom_site_fract_z
 _atom_site_occupancy
  U  U0  1  0.000067  0.428562  0.500000  1
  U  U1  1  0.571531  0.571472  0.500000  1
  U  U2  1  0.428363  0.999997  0.500000  1
  Ga  Ga3  1  0.999967  0.758149  0.000000  1
  Ga  Ga4  1  0.241758  0.241855  0.000000  1
  Ga  Ga5  1  0.758278  0.000082  0.000000  1
  Ir  Ir6  1  0.333324  0.666526  0.000000  1
  Ir  Ir7  1  0.666786  0.333443  0.000000  1
  Pd  Pd8  1  0.999927  0.999914  0.500000  1
