# generated using pymatgen
data_Li8Ac7NdSi7Sn
_symmetry_space_group_name_H-M   'P 1'
_cell_length_a   9.32656300
_cell_length_b   9.32656369
_cell_length_c   8.00202700
_cell_angle_alpha   90.00000000
_cell_angle_beta   90.00000000
_cell_angle_gamma   120.00000109
_symmetry_Int_Tables_number   1
_chemical_formula_structural   Li8Ac7NdSi7Sn
_chemical_formula_sum   'Li8 Ac7 Nd1 Si7 Sn1'
_cell_volume   602.80094992
_cell_formula_units_Z   1
loop_
 _symmetry_equiv_pos_site_id
 _symmetry_equiv_pos_as_xyz
  1  'x, y, z'
loop_
 _atom_site_type_symbol
 _atom_site_label
 _atom_site_symmetry_multiplicity
 _atom_site_fract_x
 _atom_site_fract_y
 _atom_site_fract_z
 _atom_site_occupancy
  Li  Li0  1  0.163670  0.327340  0.277414  1
  Li  Li1  1  0.163670  0.836330  0.277414  1
  Li  Li2  1  0.672660  0.836330  0.277414  1
  Li  Li3  1  0.840224  0.680447  0.793586  1
  Li  Li4  1  0.840224  0.159776  0.793586  1
  Li  Li5  1  0.319553  0.159776  0.793586  1
  Li  Li6  1  0.333333  0.666667  0.673917  1
  Li  Li7  1  0.666667  0.333333  0.169779  1
  Ac  Ac8  1  0.509453  0.018907  0.491932  1
  Ac  Ac9  1  0.509453  0.490547  0.491932  1
  Ac  Ac10  1  0.981093  0.490547  0.491932  1
  Ac  Ac11  1  0.484521  0.969040  0.997507  1
  Ac  Ac12  1  0.484521  0.515479  0.997507  1
  Ac  Ac13  1  0.030960  0.515479  0.997507  1
  Ac  Ac14  1  0.000000  0.000000  0.507923  1
  Nd  Nd15  1  0.000000  0.000000  0.014029  1
  Si  Si16  1  0.166023  0.332047  0.728185  1
  Si  Si17  1  0.166023  0.833977  0.728185  1
  Si  Si18  1  0.667953  0.833977  0.728185  1
  Si  Si19  1  0.836245  0.672488  0.215556  1
  Si  Si20  1  0.836245  0.163755  0.215556  1
  Si  Si21  1  0.327512  0.163755  0.215556  1
  Si  Si22  1  0.333333  0.666667  0.284170  1
  Sn  Sn23  1  0.666667  0.333333  0.779617  1
