# generated using pymatgen
data_YbZrPt2O7
_symmetry_space_group_name_H-M   'P 1'
_cell_length_a   7.17071511
_cell_length_b   7.17071570
_cell_length_c   7.17813800
_cell_angle_alpha   59.96574452
_cell_angle_beta   59.96574178
_cell_angle_gamma   59.31882044
_symmetry_Int_Tables_number   1
_chemical_formula_structural   YbZrPt2O7
_chemical_formula_sum   'Yb2 Zr2 Pt4 O14'
_cell_volume   259.48559857
_cell_formula_units_Z   2
loop_
 _symmetry_equiv_pos_site_id
 _symmetry_equiv_pos_as_xyz
  1  'x, y, z'
loop_
 _atom_site_type_symbol
 _atom_site_label
 _atom_site_symmetry_multiplicity
 _atom_site_fract_x
 _atom_site_fract_y
 _atom_site_fract_z
 _atom_site_occupancy
  Yb  Yb0  1  0.625000  0.125000  0.625000  1
  Yb  Yb1  1  0.125000  0.625000  0.625000  1
  Zr  Zr2  1  0.625000  0.625000  0.125000  1
  Zr  Zr3  1  0.625000  0.625000  0.625000  1
  Pt  Pt4  1  0.625000  0.125000  0.125000  1
  Pt  Pt5  1  0.125000  0.125000  0.125000  1
  Pt  Pt6  1  0.125000  0.625000  0.125000  1
  Pt  Pt7  1  0.125000  0.125000  0.625000  1
  O  O8  1  0.015106  0.472318  0.467871  1
  O  O9  1  0.781049  0.781049  0.218951  1
  O  O10  1  0.777682  0.234894  0.205295  1
  O  O11  1  0.015106  0.472318  0.044705  1
  O  O12  1  0.472318  0.015106  0.467871  1
  O  O13  1  0.731329  0.731329  0.768671  1
  O  O14  1  0.030851  0.030851  0.469149  1
  O  O15  1  0.777682  0.234894  0.782129  1
  O  O16  1  0.518671  0.518671  0.481329  1
  O  O17  1  0.219149  0.219149  0.780851  1
  O  O18  1  0.234894  0.777682  0.205295  1
  O  O19  1  0.472318  0.015106  0.044705  1
  O  O20  1  0.468951  0.468951  0.031049  1
  O  O21  1  0.234894  0.777682  0.782129  1
