# generated using pymatgen
data_Nd2Ho3Tm15Pt16
_symmetry_space_group_name_H-M   'P 1'
_cell_length_a   7.41998641
_cell_length_b   7.50704940
_cell_length_c   14.61997300
_cell_angle_alpha   90.00146539
_cell_angle_beta   90.03531187
_cell_angle_gamma   89.98125426
_symmetry_Int_Tables_number   1
_chemical_formula_structural   Nd2Ho3Tm15Pt16
_chemical_formula_sum   'Nd2 Ho3 Tm15 Pt16'
_cell_volume   814.36452808
_cell_formula_units_Z   1
loop_
 _symmetry_equiv_pos_site_id
 _symmetry_equiv_pos_as_xyz
  1  'x, y, z'
loop_
 _atom_site_type_symbol
 _atom_site_label
 _atom_site_symmetry_multiplicity
 _atom_site_fract_x
 _atom_site_fract_y
 _atom_site_fract_z
 _atom_site_occupancy
  Nd  Nd0  1  0.001616  0.175454  0.407196  1
  Nd  Nd1  1  0.501589  0.325154  0.407765  1
  Ho  Ho2  1  0.000182  0.178052  0.092328  1
  Ho  Ho3  1  0.500354  0.679582  0.907506  1
  Ho  Ho4  1  0.000747  0.818294  0.594020  1
  Tm  Tm5  1  0.657032  0.166819  0.623772  1
  Tm  Tm6  1  0.155702  0.333274  0.877555  1
  Tm  Tm7  1  0.344346  0.833426  0.121133  1
  Tm  Tm8  1  0.845999  0.667103  0.376483  1
  Tm  Tm9  1  0.346859  0.832098  0.376807  1
  Tm  Tm10  1  0.844626  0.666951  0.120553  1
  Tm  Tm11  1  0.655361  0.167075  0.877938  1
  Tm  Tm12  1  0.157196  0.333218  0.623452  1
  Tm  Tm13  1  0.501116  0.682458  0.594392  1
  Tm  Tm14  1  0.001124  0.819417  0.906617  1
  Tm  Tm15  1  0.499806  0.320803  0.092969  1
  Tm  Tm16  1  0.817983  0.509557  0.750755  1
  Tm  Tm17  1  0.318032  0.990354  0.750893  1
  Tm  Tm18  1  0.181292  0.490538  0.247626  1
  Tm  Tm19  1  0.681271  0.009490  0.247809  1
  Pt  Pt20  1  0.679761  0.955578  0.461589  1
  Pt  Pt21  1  0.186469  0.532487  0.041727  1
  Pt  Pt22  1  0.314280  0.032579  0.957745  1
  Pt  Pt23  1  0.815493  0.473594  0.545834  1
  Pt  Pt24  1  0.317798  0.026364  0.546075  1
  Pt  Pt25  1  0.816396  0.467582  0.957566  1
  Pt  Pt26  1  0.684152  0.967908  0.041894  1
  Pt  Pt27  1  0.179795  0.544419  0.461687  1
  Pt  Pt28  1  0.452320  0.385601  0.749923  1
  Pt  Pt29  1  0.952272  0.114539  0.750460  1
  Pt  Pt30  1  0.546544  0.618520  0.247910  1
  Pt  Pt31  1  0.046976  0.881108  0.248357  1
  Pt  Pt32  1  0.680994  0.856325  0.750476  1
  Pt  Pt33  1  0.181112  0.643732  0.751055  1
  Pt  Pt34  1  0.317312  0.141614  0.245100  1
  Pt  Pt35  1  0.816093  0.358939  0.245033  1
