# generated using pymatgen
data_Sr4Cu3Rh
_symmetry_space_group_name_H-M   'P 1'
_cell_length_a   4.33020000
_cell_length_b   4.33019932
_cell_length_c   15.47953100
_cell_angle_alpha   90.00000000
_cell_angle_beta   90.00000000
_cell_angle_gamma   119.99998989
_symmetry_Int_Tables_number   1
_chemical_formula_structural   Sr4Cu3Rh
_chemical_formula_sum   'Sr4 Cu3 Rh1'
_cell_volume   251.36471712
_cell_formula_units_Z   1
loop_
 _symmetry_equiv_pos_site_id
 _symmetry_equiv_pos_as_xyz
  1  'x, y, z'
loop_
 _atom_site_type_symbol
 _atom_site_label
 _atom_site_symmetry_multiplicity
 _atom_site_fract_x
 _atom_site_fract_y
 _atom_site_fract_z
 _atom_site_occupancy
  Sr  Sr0  1  0.333333  0.666667  0.376821  1
  Sr  Sr1  1  0.666667  0.333333  0.621281  1
  Sr  Sr2  1  0.666667  0.333333  0.878719  1
  Sr  Sr3  1  0.333333  0.666667  0.123179  1
  Cu  Cu4  1  0.000000  0.000000  0.750000  1
  Cu  Cu5  1  0.333333  0.666667  0.750000  1
  Cu  Cu6  1  0.666667  0.333333  0.250000  1
  Rh  Rh7  1  0.000000  0.000000  0.250000  1
