# generated using pymatgen
data_SmYGaNiI2
_symmetry_space_group_name_H-M   'P 1'
_cell_length_a   4.18426200
_cell_length_b   4.18426184
_cell_length_c   11.86056800
_cell_angle_alpha   90.00000000
_cell_angle_beta   90.00000000
_cell_angle_gamma   120.00000129
_symmetry_Int_Tables_number   1
_chemical_formula_structural   SmYGaNiI2
_chemical_formula_sum   'Sm1 Y1 Ga1 Ni1 I2'
_cell_volume   179.83484195
_cell_formula_units_Z   1
loop_
 _symmetry_equiv_pos_site_id
 _symmetry_equiv_pos_as_xyz
  1  'x, y, z'
loop_
 _atom_site_type_symbol
 _atom_site_label
 _atom_site_symmetry_multiplicity
 _atom_site_fract_x
 _atom_site_fract_y
 _atom_site_fract_z
 _atom_site_occupancy
  Sm  Sm0  1  0.000000  0.000000  0.842827  1
  Y  Y1  1  0.000000  0.000000  0.158151  1
  Ga  Ga2  1  0.666667  0.333333  0.005211  1
  Ni  Ni3  1  0.333333  0.666667  0.999436  1
  I  I4  1  0.666667  0.333333  0.661718  1
  I  I5  1  0.333333  0.666667  0.332658  1
