# generated using pymatgen
data_Ta9GaSi5W
_symmetry_space_group_name_H-M   'P 1'
_cell_length_a   7.56333644
_cell_length_b   7.56333566
_cell_length_c   7.56333551
_cell_angle_alpha   128.55008381
_cell_angle_beta   128.55008446
_cell_angle_gamma   75.73559638
_symmetry_Int_Tables_number   1
_chemical_formula_structural   Ta9GaSi5W
_chemical_formula_sum   'Ta9 Ga1 Si5 W1'
_cell_volume   257.39254582
_cell_formula_units_Z   1
loop_
 _symmetry_equiv_pos_site_id
 _symmetry_equiv_pos_as_xyz
  1  'x, y, z'
loop_
 _atom_site_type_symbol
 _atom_site_label
 _atom_site_symmetry_multiplicity
 _atom_site_fract_x
 _atom_site_fract_y
 _atom_site_fract_z
 _atom_site_occupancy
  Ta  Ta0  1  0.017762  0.188073  0.505702  1
  Ta  Ta1  1  0.682370  0.512058  0.494298  1
  Ta  Ta2  1  0.512058  0.017762  0.829689  1
  Ta  Ta3  1  0.188073  0.682370  0.170311  1
  Ta  Ta4  1  0.988158  0.817554  0.505923  1
  Ta  Ta5  1  0.311632  0.482236  0.494077  1
  Ta  Ta6  1  0.482236  0.988158  0.170604  1
  Ta  Ta7  1  0.817554  0.311632  0.829396  1
  Ta  Ta8  1  0.499127  0.499127  0.000000  1
  Ga  Ga9  1  0.749963  0.749963  0.000000  1
  Si  Si10  1  0.250528  0.250528  0.000000  1
  Si  Si11  1  0.367056  0.128554  0.495710  1
  Si  Si12  1  0.632844  0.871347  0.504290  1
  Si  Si13  1  0.871347  0.367056  0.238503  1
  Si  Si14  1  0.128554  0.632844  0.761497  1
  W  W15  1  0.000738  0.000738  0.000000  1
