# generated using pymatgen
data_Y3U(MoN2)4
_symmetry_space_group_name_H-M   'P 1'
_cell_length_a   3.20436500
_cell_length_b   5.67853503
_cell_length_c   10.74030390
_cell_angle_alpha   89.51386928
_cell_angle_beta   90.00000000
_cell_angle_gamma   90.00000000
_symmetry_Int_Tables_number   1
_chemical_formula_structural   Y3U(MoN2)4
_chemical_formula_sum   'Y3 U1 Mo4 N8'
_cell_volume   195.42459767
_cell_formula_units_Z   1
loop_
 _symmetry_equiv_pos_site_id
 _symmetry_equiv_pos_as_xyz
  1  'x, y, z'
loop_
 _atom_site_type_symbol
 _atom_site_label
 _atom_site_symmetry_multiplicity
 _atom_site_fract_x
 _atom_site_fract_y
 _atom_site_fract_z
 _atom_site_occupancy
  Y  Y0  1  0.250000  0.574081  0.643868  1
  Y  Y1  1  0.750000  0.922889  0.150747  1
  Y  Y2  1  0.750000  0.421838  0.352007  1
  U  U3  1  0.250000  0.073059  0.856148  1
  Mo  Mo4  1  0.250000  0.437442  0.096047  1
  Mo  Mo5  1  0.250000  0.932316  0.406262  1
  Mo  Mo6  1  0.750000  0.570716  0.899294  1
  Mo  Mo7  1  0.750000  0.065885  0.590525  1
  N  N8  1  0.250000  0.166415  0.247463  1
  N  N9  1  0.250000  0.666034  0.253286  1
  N  N10  1  0.750000  0.844059  0.754858  1
  N  N11  1  0.750000  0.320621  0.749807  1
  N  N12  1  0.250000  0.761882  0.994585  1
  N  N13  1  0.250000  0.256550  0.505839  1
  N  N14  1  0.750000  0.246559  0.003599  1
  N  N15  1  0.750000  0.739654  0.495665  1
