# generated using pymatgen
data_Yb2Si(S2O7)4
_symmetry_space_group_name_H-M   'P 1'
_cell_length_a   12.84462100
_cell_length_b   6.96792229
_cell_length_c   13.27823300
_cell_angle_alpha   65.69296321
_cell_angle_beta   90.00000000
_cell_angle_gamma   90.00000000
_symmetry_Int_Tables_number   1
_chemical_formula_structural   Yb2Si(S2O7)4
_chemical_formula_sum   'Yb4 Si2 S16 O56'
_cell_volume   1083.05715742
_cell_formula_units_Z   2
loop_
 _symmetry_equiv_pos_site_id
 _symmetry_equiv_pos_as_xyz
  1  'x, y, z'
loop_
 _atom_site_type_symbol
 _atom_site_label
 _atom_site_symmetry_multiplicity
 _atom_site_fract_x
 _atom_site_fract_y
 _atom_site_fract_z
 _atom_site_occupancy
  Yb  Yb0  1  0.632740  0.632851  0.158424  1
  Yb  Yb1  1  0.867260  0.632851  0.658424  1
  Yb  Yb2  1  0.367260  0.367149  0.841576  1
  Yb  Yb3  1  0.132740  0.367149  0.341576  1
  Si  Si4  1  0.500000  0.000000  0.500000  1
  Si  Si5  1  0.000000  0.000000  0.000000  1
  S  S6  1  0.528534  0.181636  0.101568  1
  S  S7  1  0.971466  0.181636  0.601568  1
  S  S8  1  0.471466  0.818364  0.898432  1
  S  S9  1  0.028534  0.818364  0.398432  1
  S  S10  1  0.414285  0.267510  0.271221  1
  S  S11  1  0.085715  0.267510  0.771221  1
  S  S12  1  0.585715  0.732490  0.728779  1
  S  S13  1  0.914285  0.732490  0.228779  1
  S  S14  1  0.717546  0.134805  0.404500  1
  S  S15  1  0.782454  0.134805  0.904500  1
  S  S16  1  0.282454  0.865195  0.595500  1
  S  S17  1  0.217546  0.865195  0.095500  1
  S  S18  1  0.651080  0.721022  0.439697  1
  S  S19  1  0.848920  0.721022  0.939697  1
  S  S20  1  0.348920  0.278978  0.560303  1
  S  S21  1  0.151080  0.278978  0.060303  1
  O  O22  1  0.473006  0.080929  0.357430  1
  O  O23  1  0.026994  0.080929  0.857430  1
  O  O24  1  0.526994  0.919071  0.642570  1
  O  O25  1  0.973006  0.919071  0.142570  1
  O  O26  1  0.603121  0.317547  0.121954  1
  O  O27  1  0.896879  0.317547  0.621954  1
  O  O28  1  0.396879  0.682453  0.878046  1
  O  O29  1  0.103121  0.682453  0.378046  1
  O  O30  1  0.620627  0.140032  0.468998  1
  O  O31  1  0.879373  0.140032  0.968998  1
  O  O32  1  0.379373  0.859968  0.531002  1
  O  O33  1  0.120627  0.859968  0.031002  1
  O  O34  1  0.414253  0.204895  0.170214  1
  O  O35  1  0.085747  0.204895  0.670214  1
  O  O36  1  0.585747  0.795105  0.829786  1
  O  O37  1  0.914253  0.795105  0.329786  1
  O  O38  1  0.551072  0.958644  0.154527  1
  O  O39  1  0.948928  0.958644  0.654527  1
  O  O40  1  0.448928  0.041356  0.845473  1
  O  O41  1  0.051072  0.041356  0.345473  1
  O  O42  1  0.306047  0.264866  0.300377  1
  O  O43  1  0.193953  0.264866  0.800377  1
  O  O44  1  0.693953  0.735134  0.699623  1
  O  O45  1  0.806047  0.735134  0.199623  1
  O  O46  1  0.471636  0.460919  0.245201  1
  O  O47  1  0.028364  0.460919  0.745201  1
  O  O48  1  0.528364  0.539081  0.754799  1
  O  O49  1  0.971636  0.539081  0.254799  1
  O  O50  1  0.804668  0.057064  0.477080  1
  O  O51  1  0.695332  0.057064  0.977080  1
  O  O52  1  0.195332  0.942936  0.522920  1
  O  O53  1  0.304668  0.942936  0.022920  1
  O  O54  1  0.727424  0.324580  0.305761  1
  O  O55  1  0.772576  0.324580  0.805761  1
  O  O56  1  0.272576  0.675420  0.694239  1
  O  O57  1  0.227424  0.675420  0.194239  1
  O  O58  1  0.485658  0.258170  0.991327  1
  O  O59  1  0.014342  0.258170  0.491327  1
  O  O60  1  0.514342  0.741830  0.008673  1
  O  O61  1  0.985658  0.741830  0.508673  1
  O  O62  1  0.688733  0.958441  0.355387  1
  O  O63  1  0.811267  0.958441  0.855387  1
  O  O64  1  0.311267  0.041559  0.644613  1
  O  O65  1  0.188733  0.041559  0.144613  1
  O  O66  1  0.558457  0.765081  0.499005  1
  O  O67  1  0.941543  0.765081  0.999005  1
  O  O68  1  0.441543  0.234919  0.500995  1
  O  O69  1  0.058457  0.234919  0.000995  1
  O  O70  1  0.619380  0.629990  0.365842  1
  O  O71  1  0.880620  0.629990  0.865842  1
  O  O72  1  0.380620  0.370010  0.634158  1
  O  O73  1  0.119380  0.370010  0.134158  1
  O  O74  1  0.733508  0.621611  0.517210  1
  O  O75  1  0.766492  0.621611  0.017210  1
  O  O76  1  0.266492  0.378389  0.482790  1
  O  O77  1  0.233508  0.378389  0.982790  1
