# generated using pymatgen
data_Tm4Al17GaCuRh5
_symmetry_space_group_name_H-M   'P 1'
_cell_length_a   7.52513197
_cell_length_b   7.52513173
_cell_length_c   9.41304215
_cell_angle_alpha   90.09995134
_cell_angle_beta   90.09994374
_cell_angle_gamma   119.49579546
_symmetry_Int_Tables_number   1
_chemical_formula_structural   Tm4Al17GaCuRh5
_chemical_formula_sum   'Tm4 Al17 Ga1 Cu1 Rh5'
_cell_volume   463.94920311
_cell_formula_units_Z   1
loop_
 _symmetry_equiv_pos_site_id
 _symmetry_equiv_pos_as_xyz
  1  'x, y, z'
loop_
 _atom_site_type_symbol
 _atom_site_label
 _atom_site_symmetry_multiplicity
 _atom_site_fract_x
 _atom_site_fract_y
 _atom_site_fract_z
 _atom_site_occupancy
  Tm  Tm0  1  0.994406  0.675888  0.250008  1
  Tm  Tm1  1  0.004451  0.326818  0.750306  1
  Tm  Tm2  1  0.675888  0.994406  0.250008  1
  Tm  Tm3  1  0.326818  0.004451  0.750306  1
  Al  Al4  1  0.870340  0.870340  0.748754  1
  Al  Al5  1  0.000623  0.339586  0.077784  1
  Al  Al6  1  0.999317  0.661719  0.922408  1
  Al  Al7  1  0.000420  0.664696  0.574888  1
  Al  Al8  1  0.335807  0.000058  0.425025  1
  Al  Al9  1  0.000058  0.335807  0.425025  1
  Al  Al10  1  0.664696  0.000420  0.574888  1
  Al  Al11  1  0.661719  0.999317  0.922408  1
  Al  Al12  1  0.339586  0.000623  0.077784  1
  Al  Al13  1  0.332004  0.332004  0.553830  1
  Al  Al14  1  0.666465  0.666465  0.449673  1
  Al  Al15  1  0.663585  0.663585  0.052319  1
  Al  Al16  1  0.334659  0.334659  0.944592  1
  Al  Al17  1  0.338848  0.552138  0.250532  1
  Al  Al18  1  0.660750  0.448881  0.749553  1
  Al  Al19  1  0.552138  0.338848  0.250532  1
  Al  Al20  1  0.448881  0.660750  0.749553  1
  Ga  Ga21  1  0.132627  0.132627  0.249428  1
  Cu  Cu22  1  0.999357  0.999357  0.998398  1
  Rh  Rh23  1  0.671421  0.326974  0.000002  1
  Rh  Rh24  1  0.326974  0.671421  0.000002  1
  Rh  Rh25  1  0.327373  0.671569  0.499989  1
  Rh  Rh26  1  0.671569  0.327373  0.499989  1
  Rh  Rh27  1  0.999222  0.999222  0.502017  1
