# generated using pymatgen
data_LuSc5Al14(Si5Tc3)2
_symmetry_space_group_name_H-M   'P 1'
_cell_length_a   8.51771727
_cell_length_b   8.51771594
_cell_length_c   9.23074600
_cell_angle_alpha   90.00000000
_cell_angle_beta   90.00000000
_cell_angle_gamma   120.02863743
_symmetry_Int_Tables_number   1
_chemical_formula_structural   LuSc5Al14(Si5Tc3)2
_chemical_formula_sum   'Lu1 Sc5 Al14 Si10 Tc6'
_cell_volume   579.81361398
_cell_formula_units_Z   1
loop_
 _symmetry_equiv_pos_site_id
 _symmetry_equiv_pos_as_xyz
  1  'x, y, z'
loop_
 _atom_site_type_symbol
 _atom_site_label
 _atom_site_symmetry_multiplicity
 _atom_site_fract_x
 _atom_site_fract_y
 _atom_site_fract_z
 _atom_site_occupancy
  Lu  Lu0  1  0.198526  0.801474  0.250000  1
  Sc  Sc1  1  0.200543  0.400556  0.250000  1
  Sc  Sc2  1  0.599444  0.799457  0.250000  1
  Sc  Sc3  1  0.799703  0.200297  0.750000  1
  Sc  Sc4  1  0.799419  0.599330  0.750000  1
  Sc  Sc5  1  0.400670  0.200581  0.750000  1
  Al  Al6  1  0.162630  0.837370  0.915233  1
  Al  Al7  1  0.162616  0.324789  0.917157  1
  Al  Al8  1  0.675211  0.837384  0.917157  1
  Al  Al9  1  0.837354  0.162646  0.081835  1
  Al  Al10  1  0.835816  0.673946  0.080980  1
  Al  Al11  1  0.326054  0.164184  0.080980  1
  Al  Al12  1  0.837354  0.162646  0.418165  1
  Al  Al13  1  0.835816  0.673946  0.419020  1
  Al  Al14  1  0.326054  0.164184  0.419020  1
  Al  Al15  1  0.162630  0.837370  0.584767  1
  Al  Al16  1  0.162616  0.324789  0.582843  1
  Al  Al17  1  0.675211  0.837384  0.582843  1
  Al  Al18  1  0.997677  0.002323  0.250000  1
  Al  Al19  1  0.999966  0.000034  0.750000  1
  Si  Si20  1  0.563489  0.436511  0.250000  1
  Si  Si21  1  0.565828  0.129463  0.250000  1
  Si  Si22  1  0.870537  0.434172  0.250000  1
  Si  Si23  1  0.436203  0.563797  0.750000  1
  Si  Si24  1  0.436782  0.872593  0.750000  1
  Si  Si25  1  0.127407  0.563218  0.750000  1
  Si  Si26  1  0.334794  0.665206  0.454500  1
  Si  Si27  1  0.666836  0.333164  0.548630  1
  Si  Si28  1  0.666836  0.333164  0.951370  1
  Si  Si29  1  0.334794  0.665206  0.045500  1
  Tc  Tc30  1  0.500204  0.499796  0.500456  1
  Tc  Tc31  1  0.500498  0.000110  0.500494  1
  Tc  Tc32  1  0.999890  0.499502  0.500494  1
  Tc  Tc33  1  0.500204  0.499796  0.999544  1
  Tc  Tc34  1  0.500498  0.000110  0.999506  1
  Tc  Tc35  1  0.999890  0.499502  0.999506  1
