# generated using pymatgen
data_Li4YTm3(SiO4)4
_symmetry_space_group_name_H-M   'P 1'
_cell_length_a   5.41133857
_cell_length_b   10.84438329
_cell_length_c   6.18830301
_cell_angle_alpha   90.08880995
_cell_angle_beta   89.87738866
_cell_angle_gamma   113.67450907
_symmetry_Int_Tables_number   1
_chemical_formula_structural   Li4YTm3(SiO4)4
_chemical_formula_sum   'Li4 Y1 Tm3 Si4 O16'
_cell_volume   332.58316157
_cell_formula_units_Z   1
loop_
 _symmetry_equiv_pos_site_id
 _symmetry_equiv_pos_as_xyz
  1  'x, y, z'
loop_
 _atom_site_type_symbol
 _atom_site_label
 _atom_site_symmetry_multiplicity
 _atom_site_fract_x
 _atom_site_fract_y
 _atom_site_fract_z
 _atom_site_occupancy
  Li  Li0  1  0.917002  0.567240  0.132322  1
  Li  Li1  1  0.917080  0.067741  0.367187  1
  Li  Li2  1  0.081221  0.430920  0.866966  1
  Li  Li3  1  0.084554  0.932501  0.632568  1
  Y  Y4  1  0.446354  0.652496  0.378856  1
  Tm  Tm5  1  0.447332  0.152456  0.120157  1
  Tm  Tm6  1  0.552417  0.347338  0.620841  1
  Tm  Tm7  1  0.553962  0.849409  0.879043  1
  Si  Si8  1  0.096739  0.859884  0.144639  1
  Si  Si9  1  0.904215  0.641777  0.650374  1
  Si  Si10  1  0.904484  0.142038  0.852685  1
  Si  Si11  1  0.093993  0.356378  0.352911  1
  O  O12  1  0.811631  0.523473  0.835249  1
  O  O13  1  0.186818  0.975909  0.333316  1
  O  O14  1  0.814170  0.024588  0.665957  1
  O  O15  1  0.182067  0.472498  0.164664  1
  O  O16  1  0.758923  0.749956  0.659943  1
  O  O17  1  0.240550  0.751170  0.152160  1
  O  O18  1  0.242345  0.249461  0.343336  1
  O  O19  1  0.756780  0.249341  0.843219  1
  O  O20  1  0.230410  0.443724  0.575514  1
  O  O21  1  0.768637  0.054457  0.075127  1
  O  O22  1  0.773860  0.554050  0.426783  1
  O  O23  1  0.234956  0.948807  0.924037  1
  O  O24  1  0.764336  0.273704  0.366257  1
  O  O25  1  0.234122  0.224965  0.864846  1
  O  O26  1  0.233281  0.726310  0.639944  1
  O  O27  1  0.767760  0.777407  0.131099  1
