# generated using pymatgen
data_Tb3Ho(Zn14Cu3)2
_symmetry_space_group_name_H-M   'P 1'
_cell_length_a   8.90181400
_cell_length_b   8.90181368
_cell_length_c   8.66113900
_cell_angle_alpha   90.00000000
_cell_angle_beta   90.00000000
_cell_angle_gamma   119.99837521
_symmetry_Int_Tables_number   1
_chemical_formula_structural   Tb3Ho(Zn14Cu3)2
_chemical_formula_sum   'Tb3 Ho1 Zn28 Cu6'
_cell_volume   594.38763450
_cell_formula_units_Z   1
loop_
 _symmetry_equiv_pos_site_id
 _symmetry_equiv_pos_as_xyz
  1  'x, y, z'
loop_
 _atom_site_type_symbol
 _atom_site_label
 _atom_site_symmetry_multiplicity
 _atom_site_fract_x
 _atom_site_fract_y
 _atom_site_fract_z
 _atom_site_occupancy
  Tb  Tb0  1  0.000000  0.000000  0.750000  1
  Tb  Tb1  1  0.000002  0.999998  0.250000  1
  Tb  Tb2  1  0.666656  0.333344  0.250000  1
  Ho  Ho3  1  0.333304  0.666696  0.750000  1
  Zn  Zn4  1  0.666670  0.333330  0.597531  1
  Zn  Zn5  1  0.333332  0.666668  0.403213  1
  Zn  Zn6  1  0.333332  0.666668  0.096787  1
  Zn  Zn7  1  0.666670  0.333330  0.902469  1
  Zn  Zn8  1  0.666834  0.035683  0.750000  1
  Zn  Zn9  1  0.368860  0.333171  0.750000  1
  Zn  Zn10  1  0.964329  0.631185  0.750000  1
  Zn  Zn11  1  0.368815  0.035671  0.750000  1
  Zn  Zn12  1  0.964317  0.333166  0.750000  1
  Zn  Zn13  1  0.666829  0.631140  0.750000  1
  Zn  Zn14  1  0.332590  0.963437  0.250000  1
  Zn  Zn15  1  0.630841  0.667405  0.250000  1
  Zn  Zn16  1  0.036553  0.369115  0.250000  1
  Zn  Zn17  1  0.630885  0.963447  0.250000  1
  Zn  Zn18  1  0.036563  0.667410  0.250000  1
  Zn  Zn19  1  0.332595  0.369159  0.250000  1
  Zn  Zn20  1  0.835375  0.670778  0.480342  1
  Zn  Zn21  1  0.835413  0.164587  0.480374  1
  Zn  Zn22  1  0.329222  0.164625  0.480342  1
  Zn  Zn23  1  0.164797  0.329562  0.519976  1
  Zn  Zn24  1  0.164758  0.835242  0.519944  1
  Zn  Zn25  1  0.670438  0.835203  0.519976  1
  Zn  Zn26  1  0.164797  0.329562  0.980024  1
  Zn  Zn27  1  0.164758  0.835242  0.980056  1
  Zn  Zn28  1  0.670438  0.835203  0.980024  1
  Zn  Zn29  1  0.835375  0.670778  0.019658  1
  Zn  Zn30  1  0.835413  0.164587  0.019626  1
  Zn  Zn31  1  0.329222  0.164625  0.019658  1
  Cu  Cu32  1  0.499859  0.999711  0.500219  1
  Cu  Cu33  1  0.499861  0.500139  0.500222  1
  Cu  Cu34  1  0.000289  0.500141  0.500219  1
  Cu  Cu35  1  0.499859  0.999711  0.999781  1
  Cu  Cu36  1  0.499861  0.500139  0.999778  1
  Cu  Cu37  1  0.000289  0.500141  0.999781  1
