# generated using pymatgen
data_CsY5Tm5(C2I9)2
_symmetry_space_group_name_H-M   'P 1'
_cell_length_a   11.45707910
_cell_length_b   11.47398740
_cell_length_c   11.47566250
_cell_angle_alpha   113.23311594
_cell_angle_beta   86.69420277
_cell_angle_gamma   120.06387445
_symmetry_Int_Tables_number   1
_chemical_formula_structural   CsY5Tm5(C2I9)2
_chemical_formula_sum   'Cs1 Y5 Tm5 C4 I18'
_cell_volume   1181.02099893
_cell_formula_units_Z   1
loop_
 _symmetry_equiv_pos_site_id
 _symmetry_equiv_pos_as_xyz
  1  'x, y, z'
loop_
 _atom_site_type_symbol
 _atom_site_label
 _atom_site_symmetry_multiplicity
 _atom_site_fract_x
 _atom_site_fract_y
 _atom_site_fract_z
 _atom_site_occupancy
  Cs  Cs0  1  0.499951  0.999503  0.499794  1
  Y  Y1  1  0.104436  0.946358  0.001581  1
  Y  Y2  1  0.035479  0.962007  0.675684  1
  Y  Y3  1  0.320394  0.273976  0.287254  1
  Y  Y4  1  0.722692  0.647053  0.984331  1
  Y  Y5  1  0.895925  0.055069  0.999304  1
  Tm  Tm6  1  0.682487  0.727026  0.714806  1
  Tm  Tm7  1  0.274289  0.349746  0.016457  1
  Tm  Tm8  1  0.093503  0.385564  0.288792  1
  Tm  Tm9  1  0.965099  0.038797  0.321438  1
  Tm  Tm10  1  0.907027  0.614595  0.711641  1
  C  C11  1  0.151239  0.220356  0.120780  1
  C  C12  1  0.847122  0.778856  0.878212  1
  C  C13  1  0.923298  0.855215  0.801886  1
  C  C14  1  0.074857  0.143843  0.197009  1
  I  I15  1  0.450222  0.531416  0.831210  1
  I  I16  1  0.383949  0.039616  0.157654  1
  I  I17  1  0.776807  0.855324  0.502071  1
  I  I18  1  0.841385  0.311394  0.155546  1
  I  I19  1  0.547228  0.469210  0.165361  1
  I  I20  1  0.217699  0.142827  0.497226  1
  I  I21  1  0.318866  0.101812  0.831463  1
  I  I22  1  0.684781  0.904445  0.174021  1
  I  I23  1  0.973633  0.759284  0.173610  1
  I  I24  1  0.935978  0.295339  0.496837  1
  I  I25  1  0.030398  0.247388  0.831923  1
  I  I26  1  0.064709  0.699060  0.501007  1
  I  I27  1  0.259136  0.615522  0.181410  1
  I  I28  1  0.742818  0.380341  0.814614  1
  I  I29  1  0.647160  0.442738  0.506808  1
  I  I30  1  0.158185  0.688499  0.844224  1
  I  I31  1  0.616929  0.955738  0.840069  1
  I  I32  1  0.352320  0.562081  0.495976  1
