# generated using pymatgen
data_Er4AgPt3Pb2
_symmetry_space_group_name_H-M   'P 1'
_cell_length_a   8.07158839
_cell_length_b   8.07158839
_cell_length_c   3.53284500
_cell_angle_alpha   90.00000000
_cell_angle_beta   90.00000000
_cell_angle_gamma   88.70001848
_symmetry_Int_Tables_number   1
_chemical_formula_structural   Er4AgPt3Pb2
_chemical_formula_sum   'Er4 Ag1 Pt3 Pb2'
_cell_volume   230.10751534
_cell_formula_units_Z   1
loop_
 _symmetry_equiv_pos_site_id
 _symmetry_equiv_pos_as_xyz
  1  'x, y, z'
loop_
 _atom_site_type_symbol
 _atom_site_label
 _atom_site_symmetry_multiplicity
 _atom_site_fract_x
 _atom_site_fract_y
 _atom_site_fract_z
 _atom_site_occupancy
  Er  Er0  1  0.308017  0.156766  0.499999  1
  Er  Er1  1  0.853644  0.353643  0.499999  1
  Er  Er2  1  0.171746  0.671746  0.499999  1
  Er  Er3  1  0.656766  0.808018  0.499999  1
  Ag  Ag4  1  0.628719  0.128719  0.000000  1
  Pt  Pt5  1  0.134629  0.379368  0.000000  1
  Pt  Pt6  1  0.879367  0.634629  0.000000  1
  Pt  Pt7  1  0.378645  0.878644  0.000000  1
  Pb  Pb8  1  0.989539  0.998929  0.000000  1
  Pb  Pb9  1  0.498929  0.489539  0.000000  1
