# generated using pymatgen
data_PrSm5NiCl10
_symmetry_space_group_name_H-M   'P 1'
_cell_length_a   7.28045254
_cell_length_b   9.09384104
_cell_length_c   9.09010600
_cell_angle_alpha   107.91362504
_cell_angle_beta   95.91694569
_cell_angle_gamma   106.46066602
_symmetry_Int_Tables_number   1
_chemical_formula_structural   PrSm5NiCl10
_chemical_formula_sum   'Pr1 Sm5 Ni1 Cl10'
_cell_volume   537.11720241
_cell_formula_units_Z   1
loop_
 _symmetry_equiv_pos_site_id
 _symmetry_equiv_pos_as_xyz
  1  'x, y, z'
loop_
 _atom_site_type_symbol
 _atom_site_label
 _atom_site_symmetry_multiplicity
 _atom_site_fract_x
 _atom_site_fract_y
 _atom_site_fract_z
 _atom_site_occupancy
  Pr  Pr0  1  0.357555  0.940955  0.248298  1
  Sm  Sm1  1  0.860850  0.138723  0.185361  1
  Sm  Sm2  1  0.138094  0.861041  0.815638  1
  Sm  Sm3  1  0.533132  0.697707  0.899291  1
  Sm  Sm4  1  0.466442  0.301415  0.096910  1
  Sm  Sm5  1  0.640552  0.057658  0.756314  1
  Ni  Ni6  1  0.500162  0.999556  0.999925  1
  Cl  Cl7  1  0.741762  0.078024  0.449156  1
  Cl  Cl8  1  0.266049  0.926722  0.560849  1
  Cl  Cl9  1  0.944862  0.827424  0.076111  1
  Cl  Cl10  1  0.050026  0.170934  0.921831  1
  Cl  Cl11  1  0.278061  0.247202  0.338885  1
  Cl  Cl12  1  0.720788  0.759128  0.659234  1
  Cl  Cl13  1  0.589751  0.368021  0.833931  1
  Cl  Cl14  1  0.413025  0.625924  0.160491  1
  Cl  Cl15  1  0.840600  0.445791  0.269498  1
  Cl  Cl16  1  0.158289  0.553776  0.728277  1
