# generated using pymatgen
data_Yb5(Pr2Pd3)2
_symmetry_space_group_name_H-M   'P 1'
_cell_length_a   7.69511206
_cell_length_b   7.68608604
_cell_length_c   7.70219520
_cell_angle_alpha   70.57707662
_cell_angle_beta   70.70682383
_cell_angle_gamma   70.87011042
_symmetry_Int_Tables_number   1
_chemical_formula_structural   Yb5(Pr2Pd3)2
_chemical_formula_sum   'Yb5 Pr4 Pd6'
_cell_volume   393.16519654
_cell_formula_units_Z   1
loop_
 _symmetry_equiv_pos_site_id
 _symmetry_equiv_pos_as_xyz
  1  'x, y, z'
loop_
 _atom_site_type_symbol
 _atom_site_label
 _atom_site_symmetry_multiplicity
 _atom_site_fract_x
 _atom_site_fract_y
 _atom_site_fract_z
 _atom_site_occupancy
  Yb  Yb0  1  0.003140  0.000796  0.996324  1
  Yb  Yb1  1  0.803315  0.804000  0.804190  1
  Yb  Yb2  1  0.197607  0.201673  0.199059  1
  Yb  Yb3  1  0.330332  0.604319  0.840444  1
  Yb  Yb4  1  0.841806  0.332002  0.603991  1
  Pr  Pr5  1  0.601451  0.842024  0.335382  1
  Pr  Pr6  1  0.661087  0.397326  0.157825  1
  Pr  Pr7  1  0.155374  0.660706  0.401314  1
  Pr  Pr8  1  0.400639  0.160359  0.662652  1
  Pd  Pd9  1  0.161654  0.958733  0.586112  1
  Pd  Pd10  1  0.590104  0.156759  0.958101  1
  Pd  Pd11  1  0.956166  0.587792  0.157379  1
  Pd  Pd12  1  0.837840  0.044451  0.416824  1
  Pd  Pd13  1  0.413476  0.834047  0.044651  1
  Pd  Pd14  1  0.046012  0.415014  0.835751  1
