# generated using pymatgen
data_Er20Bi7Os4Pb
_symmetry_space_group_name_H-M   'P 1'
_cell_length_a   7.88809994
_cell_length_b   9.00157731
_cell_length_c   12.35334800
_cell_angle_alpha   90.02160945
_cell_angle_beta   90.08128666
_cell_angle_gamma   90.02199251
_symmetry_Int_Tables_number   1
_chemical_formula_structural   Er20Bi7Os4Pb
_chemical_formula_sum   'Er20 Bi7 Os4 Pb1'
_cell_volume   877.15268208
_cell_formula_units_Z   1
loop_
 _symmetry_equiv_pos_site_id
 _symmetry_equiv_pos_as_xyz
  1  'x, y, z'
loop_
 _atom_site_type_symbol
 _atom_site_label
 _atom_site_symmetry_multiplicity
 _atom_site_fract_x
 _atom_site_fract_y
 _atom_site_fract_z
 _atom_site_occupancy
  Er  Er0  1  0.662084  0.751585  0.709237  1
  Er  Er1  1  0.339903  0.249325  0.292491  1
  Er  Er2  1  0.158066  0.247687  0.790844  1
  Er  Er3  1  0.840261  0.749846  0.208387  1
  Er  Er4  1  0.122219  0.752078  0.808654  1
  Er  Er5  1  0.875299  0.249985  0.189756  1
  Er  Er6  1  0.628585  0.248499  0.690061  1
  Er  Er7  1  0.375452  0.750447  0.310195  1
  Er  Er8  1  0.555460  0.749657  0.995479  1
  Er  Er9  1  0.444269  0.250172  0.004622  1
  Er  Er10  1  0.054258  0.247845  0.505836  1
  Er  Er11  1  0.944071  0.751860  0.496653  1
  Er  Er12  1  0.826317  0.458310  0.934304  1
  Er  Er13  1  0.172985  0.541651  0.065253  1
  Er  Er14  1  0.327540  0.541089  0.565739  1
  Er  Er15  1  0.172944  0.959052  0.065454  1
  Er  Er16  1  0.673963  0.459063  0.434455  1
  Er  Er17  1  0.827477  0.041183  0.931797  1
  Er  Er18  1  0.673896  0.041444  0.435244  1
  Er  Er19  1  0.324895  0.959747  0.565837  1
  Bi  Bi20  1  0.066744  0.993355  0.326662  1
  Bi  Bi21  1  0.432885  0.993468  0.828353  1
  Bi  Bi22  1  0.067427  0.506397  0.328638  1
  Bi  Bi23  1  0.566754  0.006390  0.172115  1
  Bi  Bi24  1  0.933963  0.494023  0.672067  1
  Bi  Bi25  1  0.566332  0.493532  0.172508  1
  Bi  Bi26  1  0.432833  0.506103  0.827335  1
  Os  Os27  1  0.924627  0.749910  0.991087  1
  Os  Os28  1  0.075272  0.250244  0.009070  1
  Os  Os29  1  0.426183  0.250620  0.509369  1
  Os  Os30  1  0.574604  0.750108  0.491328  1
  Pb  Pb31  1  0.932434  0.005325  0.671171  1
