# generated using pymatgen
data_Mg2NbAlPt12
_symmetry_space_group_name_H-M   'P 1'
_cell_length_a   5.61437600
_cell_length_b   5.61437742
_cell_length_c   7.92390500
_cell_angle_alpha   90.00000000
_cell_angle_beta   90.00000000
_cell_angle_gamma   90.02226772
_symmetry_Int_Tables_number   1
_chemical_formula_structural   Mg2NbAlPt12
_chemical_formula_sum   'Mg2 Nb1 Al1 Pt12'
_cell_volume   249.77118037
_cell_formula_units_Z   1
loop_
 _symmetry_equiv_pos_site_id
 _symmetry_equiv_pos_as_xyz
  1  'x, y, z'
loop_
 _atom_site_type_symbol
 _atom_site_label
 _atom_site_symmetry_multiplicity
 _atom_site_fract_x
 _atom_site_fract_y
 _atom_site_fract_z
 _atom_site_occupancy
  Mg  Mg0  1  0.500000  0.000000  0.249923  1
  Mg  Mg1  1  0.500000  0.000000  0.750048  1
  Nb  Nb2  1  0.000000  0.500000  0.749933  1
  Al  Al3  1  0.000000  0.500000  0.249958  1
  Pt  Pt4  1  0.246322  0.253678  0.000702  1
  Pt  Pt5  1  0.753752  0.253752  0.499276  1
  Pt  Pt6  1  0.753570  0.253570  0.000645  1
  Pt  Pt7  1  0.753678  0.746322  0.000702  1
  Pt  Pt8  1  0.500000  0.500000  0.749989  1
  Pt  Pt9  1  0.246555  0.253445  0.499415  1
  Pt  Pt10  1  0.753445  0.746555  0.499415  1
  Pt  Pt11  1  0.246248  0.746248  0.499276  1
  Pt  Pt12  1  0.500000  0.500000  0.250041  1
  Pt  Pt13  1  0.000000  0.000000  0.749989  1
  Pt  Pt14  1  0.000000  0.000000  0.250041  1
  Pt  Pt15  1  0.246430  0.746430  0.000645  1
