# generated using pymatgen
data_Er5TmB14OsW
_symmetry_space_group_name_H-M   'P 1'
_cell_length_a   8.03212628
_cell_length_b   8.03212618
_cell_length_c   9.34105933
_cell_angle_alpha   89.97036542
_cell_angle_beta   90.02963523
_cell_angle_gamma   155.02183519
_symmetry_Int_Tables_number   1
_chemical_formula_structural   Er5TmB14OsW
_chemical_formula_sum   'Er5 Tm1 B14 Os1 W1'
_cell_volume   254.47801544
_cell_formula_units_Z   1
loop_
 _symmetry_equiv_pos_site_id
 _symmetry_equiv_pos_as_xyz
  1  'x, y, z'
loop_
 _atom_site_type_symbol
 _atom_site_label
 _atom_site_symmetry_multiplicity
 _atom_site_fract_x
 _atom_site_fract_y
 _atom_site_fract_z
 _atom_site_occupancy
  Er  Er0  1  0.893758  0.106242  0.438083  1
  Er  Er1  1  0.107381  0.892619  0.558184  1
  Er  Er2  1  0.893735  0.106265  0.061899  1
  Er  Er3  1  0.243886  0.756114  0.249964  1
  Er  Er4  1  0.754454  0.245546  0.750061  1
  Tm  Tm5  1  0.107226  0.892774  0.942104  1
  B  B6  1  0.726774  0.273226  0.464843  1
  B  B7  1  0.271621  0.728379  0.532128  1
  B  B8  1  0.726626  0.273374  0.035062  1
  B  B9  1  0.271432  0.728568  0.967799  1
  B  B10  1  0.631956  0.368044  0.150553  1
  B  B11  1  0.365126  0.634874  0.852889  1
  B  B12  1  0.631969  0.368031  0.349163  1
  B  B13  1  0.365139  0.634861  0.647118  1
  B  B14  1  0.520530  0.479470  0.096142  1
  B  B15  1  0.481231  0.518769  0.909621  1
  B  B16  1  0.520477  0.479523  0.403668  1
  B  B17  1  0.481116  0.518884  0.590554  1
  B  B18  1  0.455826  0.544174  0.249954  1
  B  B19  1  0.548028  0.451972  0.750288  1
  Os  Os20  1  0.053686  0.946314  0.249818  1
  W  W21  1  0.948028  0.051972  0.750105  1
