# generated using pymatgen
data_La7Ho3Zn2(Si2O)3
_symmetry_space_group_name_H-M   'P 1'
_cell_length_a   10.90521606
_cell_length_b   10.88530331
_cell_length_c   4.52257100
_cell_angle_alpha   90.00000000
_cell_angle_beta   90.00000000
_cell_angle_gamma   119.93961809
_symmetry_Int_Tables_number   1
_chemical_formula_structural   La7Ho3Zn2(Si2O)3
_chemical_formula_sum   'La7 Ho3 Zn2 Si6 O3'
_cell_volume   465.21612426
_cell_formula_units_Z   1
loop_
 _symmetry_equiv_pos_site_id
 _symmetry_equiv_pos_as_xyz
  1  'x, y, z'
loop_
 _atom_site_type_symbol
 _atom_site_label
 _atom_site_symmetry_multiplicity
 _atom_site_fract_x
 _atom_site_fract_y
 _atom_site_fract_z
 _atom_site_occupancy
  La  La0  1  0.213641  0.787894  0.000000  1
  La  La1  1  0.575769  0.787884  0.000000  1
  La  La2  1  0.786359  0.574253  0.000000  1
  La  La3  1  0.000000  0.000000  0.000000  1
  La  La4  1  0.213641  0.425747  0.000000  1
  La  La5  1  0.424231  0.212116  0.000000  1
  La  La6  1  0.786359  0.212106  0.000000  1
  Ho  Ho7  1  0.000000  0.500000  0.500000  1
  Ho  Ho8  1  0.500000  0.500000  0.500000  1
  Ho  Ho9  1  0.500000  0.000000  0.500000  1
  Zn  Zn10  1  0.000000  0.778298  0.500000  1
  Zn  Zn11  1  0.000000  0.221702  0.500000  1
  Si  Si12  1  0.224567  0.221689  0.500000  1
  Si  Si13  1  0.775433  0.997122  0.500000  1
  Si  Si14  1  0.332146  0.666074  0.500000  1
  Si  Si15  1  0.224567  0.002878  0.500000  1
  Si  Si16  1  0.667854  0.333926  0.500000  1
  Si  Si17  1  0.775433  0.778311  0.500000  1
  O  O18  1  0.000000  0.500000  0.000000  1
  O  O19  1  0.500000  0.500000  0.000000  1
  O  O20  1  0.500000  0.000000  0.000000  1
