# generated using pymatgen
data_Sm2Cr3Re14C3
_symmetry_space_group_name_H-M   'P 1'
_cell_length_a   6.96215840
_cell_length_b   6.96215865
_cell_length_c   6.96215919
_cell_angle_alpha   82.70446048
_cell_angle_beta   82.70445395
_cell_angle_gamma   82.70444634
_symmetry_Int_Tables_number   1
_chemical_formula_structural   Sm2Cr3Re14C3
_chemical_formula_sum   'Sm2 Cr3 Re14 C3'
_cell_volume   329.91089984
_cell_formula_units_Z   1
loop_
 _symmetry_equiv_pos_site_id
 _symmetry_equiv_pos_as_xyz
  1  'x, y, z'
loop_
 _atom_site_type_symbol
 _atom_site_label
 _atom_site_symmetry_multiplicity
 _atom_site_fract_x
 _atom_site_fract_y
 _atom_site_fract_z
 _atom_site_occupancy
  Sm  Sm0  1  0.648468  0.648468  0.648468  1
  Sm  Sm1  1  0.351532  0.351532  0.351532  1
  Cr  Cr2  1  0.000000  0.000000  0.500000  1
  Cr  Cr3  1  0.500000  0.000000  0.000000  1
  Cr  Cr4  1  0.000000  0.500000  0.000000  1
  Re  Re5  1  0.721235  0.278765  0.000000  1
  Re  Re6  1  0.000000  0.721235  0.278765  1
  Re  Re7  1  0.278765  0.000000  0.721235  1
  Re  Re8  1  0.000000  0.278765  0.721235  1
  Re  Re9  1  0.721235  0.000000  0.278765  1
  Re  Re10  1  0.278765  0.721235  0.000000  1
  Re  Re11  1  0.344562  0.344562  0.864863  1
  Re  Re12  1  0.864863  0.344562  0.344562  1
  Re  Re13  1  0.344562  0.864863  0.344562  1
  Re  Re14  1  0.655438  0.655438  0.135137  1
  Re  Re15  1  0.135137  0.655438  0.655438  1
  Re  Re16  1  0.655438  0.135137  0.655438  1
  Re  Re17  1  0.900619  0.900619  0.900619  1
  Re  Re18  1  0.099381  0.099381  0.099381  1
  C  C19  1  0.500000  0.500000  0.000000  1
  C  C20  1  0.000000  0.500000  0.500000  1
  C  C21  1  0.500000  0.000000  0.500000  1
