# generated using pymatgen
data_DyZr3(ScPt)4
_symmetry_space_group_name_H-M   'P 1'
_cell_length_a   4.63816500
_cell_length_b   6.80899115
_cell_length_c   8.18598420
_cell_angle_alpha   90.91558955
_cell_angle_beta   90.00000000
_cell_angle_gamma   90.00000000
_symmetry_Int_Tables_number   1
_chemical_formula_structural   DyZr3(ScPt)4
_chemical_formula_sum   'Dy1 Zr3 Sc4 Pt4'
_cell_volume   258.49039640
_cell_formula_units_Z   1
loop_
 _symmetry_equiv_pos_site_id
 _symmetry_equiv_pos_as_xyz
  1  'x, y, z'
loop_
 _atom_site_type_symbol
 _atom_site_label
 _atom_site_symmetry_multiplicity
 _atom_site_fract_x
 _atom_site_fract_y
 _atom_site_fract_z
 _atom_site_occupancy
  Dy  Dy0  1  0.250000  0.512141  0.180500  1
  Zr  Zr1  1  0.250000  0.148720  0.916037  1
  Zr  Zr2  1  0.250000  0.650005  0.579970  1
  Zr  Zr3  1  0.750000  0.853213  0.082418  1
  Sc  Sc4  1  0.750000  0.344203  0.424920  1
  Sc  Sc5  1  0.250000  0.016653  0.328374  1
  Sc  Sc6  1  0.750000  0.984874  0.675942  1
  Sc  Sc7  1  0.750000  0.484113  0.817660  1
  Pt  Pt8  1  0.250000  0.254347  0.594396  1
  Pt  Pt9  1  0.250000  0.760599  0.903953  1
  Pt  Pt10  1  0.750000  0.747636  0.408657  1
  Pt  Pt11  1  0.750000  0.243495  0.087172  1
