# generated using pymatgen
data_Pr3Dy7(SiAs)4
_symmetry_space_group_name_H-M   'P 1'
_cell_length_a   8.56464464
_cell_length_b   8.01015374
_cell_length_c   7.74549340
_cell_angle_alpha   89.64160310
_cell_angle_beta   90.01807497
_cell_angle_gamma   124.64114313
_symmetry_Int_Tables_number   1
_chemical_formula_structural   Pr3Dy7(SiAs)4
_chemical_formula_sum   'Pr3 Dy7 Si4 As4'
_cell_volume   437.16351631
_cell_formula_units_Z   1
loop_
 _symmetry_equiv_pos_site_id
 _symmetry_equiv_pos_as_xyz
  1  'x, y, z'
loop_
 _atom_site_type_symbol
 _atom_site_label
 _atom_site_symmetry_multiplicity
 _atom_site_fract_x
 _atom_site_fract_y
 _atom_site_fract_z
 _atom_site_occupancy
  Pr  Pr0  1  0.057307  0.348321  0.322014  1
  Pr  Pr1  1  0.944275  0.657847  0.676561  1
  Pr  Pr2  1  0.443306  0.153870  0.824523  1
  Dy  Dy3  1  0.781096  0.517230  0.164585  1
  Dy  Dy4  1  0.555482  0.835849  0.171591  1
  Dy  Dy5  1  0.217061  0.481704  0.834262  1
  Dy  Dy6  1  0.718884  0.982158  0.663163  1
  Dy  Dy7  1  0.282896  0.020736  0.335568  1
  Dy  Dy8  1  0.999954  0.999512  0.000305  1
  Dy  Dy9  1  0.499917  0.501340  0.499524  1
  Si  Si10  1  0.381350  0.382950  0.120460  1
  Si  Si11  1  0.618871  0.621245  0.881291  1
  Si  Si12  1  0.120350  0.122099  0.620959  1
  Si  Si13  1  0.876257  0.880458  0.374565  1
  As  As14  1  0.814333  0.217764  0.975274  1
  As  As15  1  0.183940  0.769677  0.036403  1
  As  As16  1  0.679070  0.275999  0.473194  1
  As  As17  1  0.325649  0.731240  0.525756  1
