# generated using pymatgen
data_RbBi(SeO4)2
_symmetry_space_group_name_H-M   'P 1'
_cell_length_a   5.12412760
_cell_length_b   5.12412736
_cell_length_c   9.76846502
_cell_angle_alpha   105.13845979
_cell_angle_beta   105.13845725
_cell_angle_gamma   62.54869642
_symmetry_Int_Tables_number   1
_chemical_formula_structural   RbBi(SeO4)2
_chemical_formula_sum   'Rb1 Bi1 Se2 O8'
_cell_volume   216.72251312
_cell_formula_units_Z   1
loop_
 _symmetry_equiv_pos_site_id
 _symmetry_equiv_pos_as_xyz
  1  'x, y, z'
loop_
 _atom_site_type_symbol
 _atom_site_label
 _atom_site_symmetry_multiplicity
 _atom_site_fract_x
 _atom_site_fract_y
 _atom_site_fract_z
 _atom_site_occupancy
  Rb  Rb0  1  0.951034  0.048965  0.000000  1
  Bi  Bi1  1  0.537842  0.462158  0.500000  1
  Se  Se2  1  0.788992  0.784216  0.279315  1
  Se  Se3  1  0.215784  0.211008  0.720686  1
  O  O4  1  0.631715  0.722718  0.111455  1
  O  O5  1  0.136875  0.510795  0.303013  1
  O  O6  1  0.815087  0.114898  0.316434  1
  O  O7  1  0.591883  0.820758  0.403463  1
  O  O8  1  0.179242  0.408118  0.596537  1
  O  O9  1  0.885102  0.184913  0.683565  1
  O  O10  1  0.489205  0.863125  0.696988  1
  O  O11  1  0.277282  0.368285  0.888544  1
