# generated using pymatgen
data_Tb3Tm5B24MoRu3
_symmetry_space_group_name_H-M   'P 1'
_cell_length_a   3.64197600
_cell_length_b   9.12631890
_cell_length_c   11.52193403
_cell_angle_alpha   89.87310898
_cell_angle_beta   90.00000000
_cell_angle_gamma   90.00000000
_symmetry_Int_Tables_number   1
_chemical_formula_structural   Tb3Tm5B24MoRu3
_chemical_formula_sum   'Tb3 Tm5 B24 Mo1 Ru3'
_cell_volume   382.96319603
_cell_formula_units_Z   1
loop_
 _symmetry_equiv_pos_site_id
 _symmetry_equiv_pos_as_xyz
  1  'x, y, z'
loop_
 _atom_site_type_symbol
 _atom_site_label
 _atom_site_symmetry_multiplicity
 _atom_site_fract_x
 _atom_site_fract_y
 _atom_site_fract_z
 _atom_site_occupancy
  Tb  Tb0  1  0.000000  0.321976  0.413478  1
  Tb  Tb1  1  0.000000  0.677605  0.585040  1
  Tb  Tb2  1  0.000000  0.820767  0.086802  1
  Tm  Tm3  1  0.000000  0.177500  0.914959  1
  Tm  Tm4  1  0.000000  0.945471  0.372187  1
  Tm  Tm5  1  0.000000  0.058075  0.629513  1
  Tm  Tm6  1  0.000000  0.442542  0.126617  1
  Tm  Tm7  1  0.000000  0.556716  0.870584  1
  B  B8  1  0.500000  0.551559  0.435016  1
  B  B9  1  0.500000  0.445473  0.568783  1
  B  B10  1  0.500000  0.054287  0.066697  1
  B  B11  1  0.500000  0.946599  0.932747  1
  B  B12  1  0.500000  0.751923  0.420872  1
  B  B13  1  0.500000  0.251180  0.582319  1
  B  B14  1  0.500000  0.248633  0.079742  1
  B  B15  1  0.500000  0.750847  0.918195  1
  B  B16  1  0.500000  0.794526  0.264750  1
  B  B17  1  0.500000  0.208208  0.735531  1
  B  B18  1  0.500000  0.290650  0.232404  1
  B  B19  1  0.500000  0.709588  0.765891  1
  B  B20  1  0.500000  0.630614  0.182885  1
  B  B21  1  0.500000  0.368071  0.815849  1
  B  B22  1  0.500000  0.130815  0.313821  1
  B  B23  1  0.500000  0.870602  0.685729  1
  B  B24  1  0.500000  0.983646  0.212746  1
  B  B25  1  0.500000  0.018167  0.788386  1
  B  B26  1  0.500000  0.478477  0.285756  1
  B  B27  1  0.500000  0.515897  0.713578  1
  B  B28  1  0.500000  0.603294  0.026899  1
  B  B29  1  0.500000  0.394256  0.969997  1
  B  B30  1  0.500000  0.104341  0.472147  1
  B  B31  1  0.500000  0.898868  0.529640  1
  Mo  Mo32  1  0.000000  0.637940  0.320574  1
  Ru  Ru33  1  0.000000  0.359974  0.681720  1
  Ru  Ru34  1  0.000000  0.138191  0.177660  1
  Ru  Ru35  1  0.000000  0.862722  0.820485  1
