# generated using pymatgen
data_HoEr2Th3Si4
_symmetry_space_group_name_H-M   'P 1'
_cell_length_a   7.58313938
_cell_length_b   7.58313987
_cell_length_c   4.24145200
_cell_angle_alpha   90.00000000
_cell_angle_beta   90.00000000
_cell_angle_gamma   90.59411478
_symmetry_Int_Tables_number   1
_chemical_formula_structural   HoEr2Th3Si4
_chemical_formula_sum   'Ho1 Er2 Th3 Si4'
_cell_volume   243.88737156
_cell_formula_units_Z   1
loop_
 _symmetry_equiv_pos_site_id
 _symmetry_equiv_pos_as_xyz
  1  'x, y, z'
loop_
 _atom_site_type_symbol
 _atom_site_label
 _atom_site_symmetry_multiplicity
 _atom_site_fract_x
 _atom_site_fract_y
 _atom_site_fract_z
 _atom_site_occupancy
  Ho  Ho0  1  0.676161  0.176161  0.500000  1
  Er  Er1  1  0.500785  0.501215  0.000000  1
  Er  Er2  1  0.001215  0.000785  0.000000  1
  Th  Th3  1  0.323078  0.823078  0.500000  1
  Th  Th4  1  0.178078  0.320059  0.500000  1
  Th  Th5  1  0.820059  0.678078  0.500000  1
  Si  Si6  1  0.116498  0.616498  0.000000  1
  Si  Si7  1  0.879197  0.379197  0.000000  1
  Si  Si8  1  0.618647  0.886284  0.000000  1
  Si  Si9  1  0.386284  0.118647  0.000000  1
