# generated using pymatgen
data_YbHo3S4
_symmetry_space_group_name_H-M   'P 1'
_cell_length_a   12.88100585
_cell_length_b   12.88100590
_cell_length_c   12.88100573
_cell_angle_alpha   17.47456351
_cell_angle_beta   17.47456290
_cell_angle_gamma   17.47456002
_symmetry_Int_Tables_number   1
_chemical_formula_structural   YbHo3S4
_chemical_formula_sum   'Yb1 Ho3 S4'
_cell_volume   168.18702061
_cell_formula_units_Z   1
loop_
 _symmetry_equiv_pos_site_id
 _symmetry_equiv_pos_as_xyz
  1  'x, y, z'
loop_
 _atom_site_type_symbol
 _atom_site_label
 _atom_site_symmetry_multiplicity
 _atom_site_fract_x
 _atom_site_fract_y
 _atom_site_fract_z
 _atom_site_occupancy
  Yb  Yb0  1  0.000000  0.000000  0.000000  1
  Ho  Ho1  1  0.248901  0.248901  0.248901  1
  Ho  Ho2  1  0.500000  0.500000  0.500000  1
  Ho  Ho3  1  0.751099  0.751099  0.751099  1
  S  S4  1  0.375852  0.375852  0.375852  1
  S  S5  1  0.125197  0.125197  0.125197  1
  S  S6  1  0.624148  0.624148  0.624148  1
  S  S7  1  0.874803  0.874803  0.874803  1
