# generated using pymatgen
data_Yb3Ho(CdPd5)2
_symmetry_space_group_name_H-M   'P 1'
_cell_length_a   4.29556600
_cell_length_b   5.80748981
_cell_length_c   11.47435900
_cell_angle_alpha   89.96976119
_cell_angle_beta   90.00000000
_cell_angle_gamma   90.00000000
_symmetry_Int_Tables_number   1
_chemical_formula_structural   Yb3Ho(CdPd5)2
_chemical_formula_sum   'Yb3 Ho1 Cd2 Pd10'
_cell_volume   286.24454940
_cell_formula_units_Z   1
loop_
 _symmetry_equiv_pos_site_id
 _symmetry_equiv_pos_as_xyz
  1  'x, y, z'
loop_
 _atom_site_type_symbol
 _atom_site_label
 _atom_site_symmetry_multiplicity
 _atom_site_fract_x
 _atom_site_fract_y
 _atom_site_fract_z
 _atom_site_occupancy
  Yb  Yb0  1  0.500000  0.794966  0.632839  1
  Yb  Yb1  1  0.500000  0.705955  0.137711  1
  Yb  Yb2  1  0.500000  0.205089  0.363775  1
  Ho  Ho3  1  0.500000  0.295991  0.863853  1
  Cd  Cd4  1  0.000000  0.501360  0.498139  1
  Cd  Cd5  1  0.000000  0.995098  0.003336  1
  Pd  Pd6  1  0.500000  0.717547  0.381297  1
  Pd  Pd7  1  0.500000  0.283009  0.618874  1
  Pd  Pd8  1  0.000000  0.041211  0.751423  1
  Pd  Pd9  1  0.500000  0.784598  0.880353  1
  Pd  Pd10  1  0.000000  0.456827  0.249478  1
  Pd  Pd11  1  0.000000  0.956848  0.251146  1
  Pd  Pd12  1  0.000000  0.542374  0.749463  1
  Pd  Pd13  1  0.000000  0.497710  0.000118  1
  Pd  Pd14  1  0.000000  0.002333  0.500932  1
  Pd  Pd15  1  0.500000  0.219082  0.117265  1
