# generated using pymatgen
data_SmAl6Fe5Cu
_symmetry_space_group_name_H-M   'P 1'
_cell_length_a   4.98520599
_cell_length_b   6.59646193
_cell_length_c   6.59646064
_cell_angle_alpha   98.96087726
_cell_angle_beta   112.20179668
_cell_angle_gamma   67.79820381
_symmetry_Int_Tables_number   1
_chemical_formula_structural   SmAl6Fe5Cu
_chemical_formula_sum   'Sm1 Al6 Fe5 Cu1'
_cell_volume   185.92802343
_cell_formula_units_Z   1
loop_
 _symmetry_equiv_pos_site_id
 _symmetry_equiv_pos_as_xyz
  1  'x, y, z'
loop_
 _atom_site_type_symbol
 _atom_site_label
 _atom_site_symmetry_multiplicity
 _atom_site_fract_x
 _atom_site_fract_y
 _atom_site_fract_z
 _atom_site_occupancy
  Sm  Sm0  1  0.000000  0.003368  0.003368  1
  Al  Al1  1  0.655091  0.344143  0.654324  1
  Al  Al2  1  0.344909  0.654324  0.344143  1
  Al  Al3  1  0.000000  0.342020  0.342020  1
  Al  Al4  1  0.000000  0.662137  0.662137  1
  Al  Al5  1  0.702585  0.795877  0.201048  1
  Al  Al6  1  0.297415  0.201048  0.795877  1
  Fe  Fe7  1  0.497228  0.002961  0.493337  1
  Fe  Fe8  1  0.993148  0.002961  0.493337  1
  Fe  Fe9  1  0.502772  0.493337  0.002961  1
  Fe  Fe10  1  0.006852  0.493337  0.002961  1
  Fe  Fe11  1  0.500000  0.240416  0.240416  1
  Cu  Cu12  1  0.500000  0.764071  0.764071  1
