# generated using pymatgen
data_Ta(Nb3N4)3
_symmetry_space_group_name_H-M   'P 1'
_cell_length_a   5.25470900
_cell_length_b   5.25470833
_cell_length_c   10.47288100
_cell_angle_alpha   90.00000000
_cell_angle_beta   90.00000000
_cell_angle_gamma   119.99999791
_symmetry_Int_Tables_number   1
_chemical_formula_structural   Ta(Nb3N4)3
_chemical_formula_sum   'Ta1 Nb9 N12'
_cell_volume   250.43446402
_cell_formula_units_Z   1
loop_
 _symmetry_equiv_pos_site_id
 _symmetry_equiv_pos_as_xyz
  1  'x, y, z'
loop_
 _atom_site_type_symbol
 _atom_site_label
 _atom_site_symmetry_multiplicity
 _atom_site_fract_x
 _atom_site_fract_y
 _atom_site_fract_z
 _atom_site_occupancy
  Ta  Ta0  1  0.666667  0.333333  0.500000  1
  Nb  Nb1  1  0.675049  0.676142  0.749769  1
  Nb  Nb2  1  0.323858  0.998908  0.749769  1
  Nb  Nb3  1  0.001092  0.324951  0.749769  1
  Nb  Nb4  1  0.323858  0.324951  0.250231  1
  Nb  Nb5  1  0.675049  0.998908  0.250231  1
  Nb  Nb6  1  0.001092  0.676142  0.250231  1
  Nb  Nb7  1  0.666667  0.333333  0.000000  1
  Nb  Nb8  1  0.333333  0.666667  0.000000  1
  Nb  Nb9  1  0.333333  0.666667  0.500000  1
  N  N10  1  0.662090  0.657629  0.379314  1
  N  N11  1  0.342371  0.004461  0.379314  1
  N  N12  1  0.995539  0.337910  0.379314  1
  N  N13  1  0.342371  0.337910  0.620686  1
  N  N14  1  0.662090  0.004461  0.620686  1
  N  N15  1  0.995539  0.657629  0.620686  1
  N  N16  1  0.338672  0.338853  0.876692  1
  N  N17  1  0.661147  0.999819  0.876692  1
  N  N18  1  0.000181  0.661328  0.876692  1
  N  N19  1  0.661147  0.661328  0.123308  1
  N  N20  1  0.338672  0.999819  0.123308  1
  N  N21  1  0.000181  0.338853  0.123308  1
