# generated using pymatgen
data_Tb2Er3(OsO6)2
_symmetry_space_group_name_H-M   'P 1'
_cell_length_a   6.85740490
_cell_length_b   6.85740566
_cell_length_c   7.46538888
_cell_angle_alpha   74.13408559
_cell_angle_beta   74.13408125
_cell_angle_gamma   48.64369903
_symmetry_Int_Tables_number   1
_chemical_formula_structural   Tb2Er3(OsO6)2
_chemical_formula_sum   'Tb2 Er3 Os2 O12'
_cell_volume   251.36688781
_cell_formula_units_Z   1
loop_
 _symmetry_equiv_pos_site_id
 _symmetry_equiv_pos_as_xyz
  1  'x, y, z'
loop_
 _atom_site_type_symbol
 _atom_site_label
 _atom_site_symmetry_multiplicity
 _atom_site_fract_x
 _atom_site_fract_y
 _atom_site_fract_z
 _atom_site_occupancy
  Tb  Tb0  1  0.698737  0.698737  0.642672  1
  Tb  Tb1  1  0.301263  0.301263  0.357328  1
  Er  Er2  1  0.688149  0.688149  0.170275  1
  Er  Er3  1  0.311851  0.311851  0.829725  1
  Er  Er4  1  0.000000  0.000000  0.500000  1
  Os  Os5  1  0.781066  0.218934  0.000000  1
  Os  Os6  1  0.218934  0.781066  0.000000  1
  O  O7  1  0.000122  0.000122  0.205300  1
  O  O8  1  0.999878  0.999878  0.794700  1
  O  O9  1  0.581363  0.085221  0.083532  1
  O  O10  1  0.418637  0.914779  0.916468  1
  O  O11  1  0.914779  0.418637  0.916468  1
  O  O12  1  0.085221  0.581363  0.083532  1
  O  O13  1  0.500104  0.500104  0.173941  1
  O  O14  1  0.499896  0.499896  0.826059  1
  O  O15  1  0.403049  0.900011  0.424648  1
  O  O16  1  0.596951  0.099989  0.575352  1
  O  O17  1  0.099989  0.596951  0.575352  1
  O  O18  1  0.900011  0.403049  0.424648  1
