# generated using pymatgen
data_Nd6Al24Tc3RuPt3Rh
_symmetry_space_group_name_H-M   'P 1'
_cell_length_a   8.93543129
_cell_length_b   8.89450771
_cell_length_c   9.67296200
_cell_angle_alpha   89.97460036
_cell_angle_beta   89.98552125
_cell_angle_gamma   119.63716907
_symmetry_Int_Tables_number   1
_chemical_formula_structural   Nd6Al24Tc3RuPt3Rh
_chemical_formula_sum   'Nd6 Al24 Tc3 Ru1 Pt3 Rh1'
_cell_volume   668.19572782
_cell_formula_units_Z   1
loop_
 _symmetry_equiv_pos_site_id
 _symmetry_equiv_pos_as_xyz
  1  'x, y, z'
loop_
 _atom_site_type_symbol
 _atom_site_label
 _atom_site_symmetry_multiplicity
 _atom_site_fract_x
 _atom_site_fract_y
 _atom_site_fract_z
 _atom_site_occupancy
  Nd  Nd0  1  0.187141  0.383284  0.249208  1
  Nd  Nd1  1  0.812859  0.616716  0.750792  1
  Nd  Nd2  1  0.621064  0.811340  0.250134  1
  Nd  Nd3  1  0.378936  0.188660  0.749866  1
  Nd  Nd4  1  0.186956  0.805688  0.248317  1
  Nd  Nd5  1  0.813044  0.194312  0.751683  1
  Al  Al6  1  0.328783  0.664913  0.019113  1
  Al  Al7  1  0.671217  0.335087  0.980887  1
  Al  Al8  1  0.670474  0.332136  0.520035  1
  Al  Al9  1  0.329526  0.667864  0.479965  1
  Al  Al10  1  0.158637  0.325705  0.575305  1
  Al  Al11  1  0.841363  0.674295  0.424695  1
  Al  Al12  1  0.676250  0.841074  0.575668  1
  Al  Al13  1  0.841580  0.675225  0.077092  1
  Al  Al14  1  0.323750  0.158926  0.424332  1
  Al  Al15  1  0.158420  0.324775  0.922908  1
  Al  Al16  1  0.161628  0.835500  0.575311  1
  Al  Al17  1  0.323821  0.162197  0.076166  1
  Al  Al18  1  0.838372  0.164500  0.424689  1
  Al  Al19  1  0.676179  0.837803  0.923834  1
  Al  Al20  1  0.841567  0.167092  0.078027  1
  Al  Al21  1  0.158433  0.832908  0.921973  1
  Al  Al22  1  0.562808  0.125847  0.253143  1
  Al  Al23  1  0.437192  0.874153  0.746857  1
  Al  Al24  1  0.872476  0.437568  0.250883  1
  Al  Al25  1  0.127524  0.562432  0.749117  1
  Al  Al26  1  0.564839  0.436235  0.250545  1
  Al  Al27  1  0.435161  0.563765  0.749455  1
  Al  Al28  1  0.997730  0.000342  0.250413  1
  Al  Al29  1  0.002270  0.999658  0.749587  1
  Tc  Tc30  1  0.000000  0.500000  0.000000  1
  Tc  Tc31  1  0.000000  0.000000  0.000000  1
  Tc  Tc32  1  0.000000  0.000000  0.500000  1
  Ru  Ru33  1  0.000000  0.500000  0.500000  1
  Pt  Pt34  1  0.500000  0.000000  0.000000  1
  Pt  Pt35  1  0.500000  0.500000  0.000000  1
  Pt  Pt36  1  0.500000  0.500000  0.500000  1
  Rh  Rh37  1  0.500000  0.000000  0.500000  1
