# generated using pymatgen
data_Mg6TaReN8
_symmetry_space_group_name_H-M   'P 1'
_cell_length_a   6.82390100
_cell_length_b   5.89072733
_cell_length_c   5.30758929
_cell_angle_alpha   90.03809990
_cell_angle_beta   90.00000000
_cell_angle_gamma   90.00000000
_symmetry_Int_Tables_number   1
_chemical_formula_structural   Mg6TaReN8
_chemical_formula_sum   'Mg6 Ta1 Re1 N8'
_cell_volume   213.35304774
_cell_formula_units_Z   1
loop_
 _symmetry_equiv_pos_site_id
 _symmetry_equiv_pos_as_xyz
  1  'x, y, z'
loop_
 _atom_site_type_symbol
 _atom_site_label
 _atom_site_symmetry_multiplicity
 _atom_site_fract_x
 _atom_site_fract_y
 _atom_site_fract_z
 _atom_site_occupancy
  Mg  Mg0  1  0.247689  0.171910  0.850822  1
  Mg  Mg1  1  0.752311  0.171910  0.850822  1
  Mg  Mg2  1  0.243334  0.835749  0.363602  1
  Mg  Mg3  1  0.756666  0.835749  0.363602  1
  Mg  Mg4  1  0.000000  0.652369  0.851927  1
  Mg  Mg5  1  0.500000  0.329239  0.363613  1
  Ta  Ta6  1  0.000000  0.330140  0.351205  1
  Re  Re7  1  0.500000  0.670438  0.849278  1
  N  N8  1  0.000000  0.649080  0.457930  1
  N  N9  1  0.500000  0.373244  0.955339  1
  N  N10  1  0.000000  0.324694  0.985201  1
  N  N11  1  0.500000  0.671812  0.504875  1
  N  N12  1  0.759592  0.173320  0.458719  1
  N  N13  1  0.240408  0.173320  0.458719  1
  N  N14  1  0.723018  0.818512  0.956793  1
  N  N15  1  0.276982  0.818512  0.956793  1
