# generated using pymatgen
data_CePrSi2(PdRh)2
_symmetry_space_group_name_H-M   'P 1'
_cell_length_a   9.49293955
_cell_length_b   9.49293843
_cell_length_c   4.12554200
_cell_angle_alpha   90.00000000
_cell_angle_beta   90.00000000
_cell_angle_gamma   155.40291101
_symmetry_Int_Tables_number   1
_chemical_formula_structural   CePrSi2(PdRh)2
_chemical_formula_sum   'Ce1 Pr1 Si2 Pd2 Rh2'
_cell_volume   154.74640442
_cell_formula_units_Z   1
loop_
 _symmetry_equiv_pos_site_id
 _symmetry_equiv_pos_as_xyz
  1  'x, y, z'
loop_
 _atom_site_type_symbol
 _atom_site_label
 _atom_site_symmetry_multiplicity
 _atom_site_fract_x
 _atom_site_fract_y
 _atom_site_fract_z
 _atom_site_occupancy
  Ce  Ce0  1  0.894135  0.105865  0.250000  1
  Pr  Pr1  1  0.105985  0.894015  0.750000  1
  Si  Si2  1  0.318887  0.681113  0.750000  1
  Si  Si3  1  0.681154  0.318846  0.250000  1
  Pd  Pd4  1  0.548339  0.451661  0.250000  1
  Pd  Pd5  1  0.450354  0.549646  0.750000  1
  Rh  Rh6  1  0.251118  0.748882  0.250000  1
  Rh  Rh7  1  0.750029  0.249971  0.750000  1
