# generated using pymatgen
data_Sm3Tm7(Ga2Ru3)2
_symmetry_space_group_name_H-M   'P 1'
_cell_length_a   8.30150931
_cell_length_b   8.30150899
_cell_length_c   8.30151009
_cell_angle_alpha   109.50493473
_cell_angle_beta   109.50492919
_cell_angle_gamma   109.50492036
_symmetry_Int_Tables_number   1
_chemical_formula_structural   Sm3Tm7(Ga2Ru3)2
_chemical_formula_sum   'Sm3 Tm7 Ga4 Ru6'
_cell_volume   439.85155519
_cell_formula_units_Z   1
loop_
 _symmetry_equiv_pos_site_id
 _symmetry_equiv_pos_as_xyz
  1  'x, y, z'
loop_
 _atom_site_type_symbol
 _atom_site_label
 _atom_site_symmetry_multiplicity
 _atom_site_fract_x
 _atom_site_fract_y
 _atom_site_fract_z
 _atom_site_occupancy
  Sm  Sm0  1  0.251611  0.186404  0.932401  1
  Sm  Sm1  1  0.932401  0.251611  0.186404  1
  Sm  Sm2  1  0.186404  0.932401  0.251611  1
  Tm  Tm3  1  0.780616  0.780616  0.780616  1
  Tm  Tm4  1  0.319328  0.570321  0.751016  1
  Tm  Tm5  1  0.751016  0.319328  0.570321  1
  Tm  Tm6  1  0.570321  0.751016  0.319328  1
  Tm  Tm7  1  0.715704  0.501951  0.998459  1
  Tm  Tm8  1  0.998459  0.715704  0.501951  1
  Tm  Tm9  1  0.501951  0.998459  0.715704  1
  Ga  Ga10  1  0.417663  0.417663  0.417663  1
  Ga  Ga11  1  0.087304  0.497427  0.999060  1
  Ga  Ga12  1  0.999060  0.087304  0.497427  1
  Ga  Ga13  1  0.497427  0.999060  0.087304  1
  Ru  Ru14  1  0.869560  0.118334  0.742842  1
  Ru  Ru15  1  0.742842  0.869560  0.118334  1
  Ru  Ru16  1  0.118334  0.742842  0.869560  1
  Ru  Ru17  1  0.253015  0.627552  0.379433  1
  Ru  Ru18  1  0.379433  0.253015  0.627552  1
  Ru  Ru19  1  0.627552  0.379433  0.253015  1
