# generated using pymatgen
data_Pu4V3TcB16
_symmetry_space_group_name_H-M   'P 1'
_cell_length_a   5.97409501
_cell_length_b   11.55684634
_cell_length_c   3.53079700
_cell_angle_alpha   90.00000000
_cell_angle_beta   90.00000000
_cell_angle_gamma   89.95955271
_symmetry_Int_Tables_number   1
_chemical_formula_structural   Pu4V3TcB16
_chemical_formula_sum   'Pu4 V3 Tc1 B16'
_cell_volume   243.77215964
_cell_formula_units_Z   1
loop_
 _symmetry_equiv_pos_site_id
 _symmetry_equiv_pos_as_xyz
  1  'x, y, z'
loop_
 _atom_site_type_symbol
 _atom_site_label
 _atom_site_symmetry_multiplicity
 _atom_site_fract_x
 _atom_site_fract_y
 _atom_site_fract_z
 _atom_site_occupancy
  Pu  Pu0  1  0.625405  0.347483  0.000000  1
  Pu  Pu1  1  0.373590  0.652199  0.000000  1
  Pu  Pu2  1  0.124838  0.150120  0.000000  1
  Pu  Pu3  1  0.874883  0.851159  0.000000  1
  V  V4  1  0.627598  0.083308  0.000000  1
  V  V5  1  0.372542  0.915935  0.000000  1
  V  V6  1  0.130802  0.415656  0.000000  1
  Tc  Tc7  1  0.871452  0.584088  0.000000  1
  B  B8  1  0.784282  0.185494  0.500000  1
  B  B9  1  0.215079  0.814588  0.500000  1
  B  B10  1  0.285025  0.313482  0.500000  1
  B  B11  1  0.715680  0.686228  0.500000  1
  B  B12  1  0.864688  0.032922  0.500000  1
  B  B13  1  0.135009  0.967355  0.500000  1
  B  B14  1  0.365229  0.467450  0.500000  1
  B  B15  1  0.634781  0.532548  0.500000  1
  B  B16  1  0.885261  0.452647  0.500000  1
  B  B17  1  0.114828  0.547193  0.500000  1
  B  B18  1  0.385629  0.046627  0.500000  1
  B  B19  1  0.613763  0.953405  0.500000  1
  B  B20  1  0.975168  0.307772  0.500000  1
  B  B21  1  0.024532  0.692605  0.500000  1
  B  B22  1  0.474844  0.191630  0.500000  1
  B  B23  1  0.525089  0.808104  0.500000  1
