# generated using pymatgen
data_Tb6Co2P12Ru15Rh
_symmetry_space_group_name_H-M   'P 1'
_cell_length_a   3.92084100
_cell_length_b   11.13534800
_cell_length_c   12.61961900
_cell_angle_alpha   90.00000000
_cell_angle_beta   90.00000000
_cell_angle_gamma   90.00000000
_symmetry_Int_Tables_number   1
_chemical_formula_structural   Tb6Co2P12Ru15Rh
_chemical_formula_sum   'Tb6 Co2 P12 Ru15 Rh1'
_cell_volume   550.97166939
_cell_formula_units_Z   1
loop_
 _symmetry_equiv_pos_site_id
 _symmetry_equiv_pos_as_xyz
  1  'x, y, z'
loop_
 _atom_site_type_symbol
 _atom_site_label
 _atom_site_symmetry_multiplicity
 _atom_site_fract_x
 _atom_site_fract_y
 _atom_site_fract_z
 _atom_site_occupancy
  Tb  Tb0  1  0.000000  0.500000  0.526113  1
  Tb  Tb1  1  0.500000  0.000000  0.476191  1
  Tb  Tb2  1  0.500000  0.817644  0.203648  1
  Tb  Tb3  1  0.500000  0.182356  0.203648  1
  Tb  Tb4  1  0.000000  0.679582  0.795506  1
  Tb  Tb5  1  0.000000  0.320418  0.795506  1
  Co  Co6  1  0.000000  0.500000  0.987336  1
  Co  Co7  1  0.500000  0.000000  0.012990  1
  P  P8  1  0.500000  0.500000  0.883069  1
  P  P9  1  0.000000  0.000000  0.114712  1
  P  P10  1  0.500000  0.500000  0.338678  1
  P  P11  1  0.000000  0.000000  0.661829  1
  P  P12  1  0.500000  0.302349  0.617611  1
  P  P13  1  0.500000  0.697651  0.617611  1
  P  P14  1  0.000000  0.198349  0.383130  1
  P  P15  1  0.000000  0.801651  0.383130  1
  P  P16  1  0.500000  0.849289  0.898058  1
  P  P17  1  0.500000  0.150711  0.898058  1
  P  P18  1  0.000000  0.650033  0.101619  1
  P  P19  1  0.000000  0.349967  0.101619  1
  Ru  Ru20  1  0.500000  0.500000  0.154256  1
  Ru  Ru21  1  0.000000  0.000000  0.846464  1
  Ru  Ru22  1  0.500000  0.500000  0.695330  1
  Ru  Ru23  1  0.500000  0.334739  0.990721  1
  Ru  Ru24  1  0.500000  0.665261  0.990721  1
  Ru  Ru25  1  0.000000  0.165892  0.009370  1
  Ru  Ru26  1  0.000000  0.834108  0.009370  1
  Ru  Ru27  1  0.500000  0.301131  0.429824  1
  Ru  Ru28  1  0.500000  0.698869  0.429824  1
  Ru  Ru29  1  0.000000  0.197648  0.570226  1
  Ru  Ru30  1  0.000000  0.802352  0.570226  1
  Ru  Ru31  1  0.500000  0.878513  0.715908  1
  Ru  Ru32  1  0.500000  0.121487  0.715908  1
  Ru  Ru33  1  0.000000  0.621905  0.284049  1
  Ru  Ru34  1  0.000000  0.378095  0.284049  1
  Rh  Rh35  1  0.000000  0.000000  0.303691  1
