# generated using pymatgen
data_Nb6Fe15Si7Ru
_symmetry_space_group_name_H-M   'P 1'
_cell_length_a   8.00112333
_cell_length_b   7.96776303
_cell_length_c   7.96776300
_cell_angle_alpha   59.99999598
_cell_angle_beta   60.13782477
_cell_angle_gamma   60.13782511
_symmetry_Int_Tables_number   1
_chemical_formula_structural   Nb6Fe15Si7Ru
_chemical_formula_sum   'Nb6 Fe15 Si7 Ru1'
_cell_volume   359.92363675
_cell_formula_units_Z   1
loop_
 _symmetry_equiv_pos_site_id
 _symmetry_equiv_pos_as_xyz
  1  'x, y, z'
loop_
 _atom_site_type_symbol
 _atom_site_label
 _atom_site_symmetry_multiplicity
 _atom_site_fract_x
 _atom_site_fract_y
 _atom_site_fract_z
 _atom_site_occupancy
  Nb  Nb0  1  0.798372  0.200044  0.801541  1
  Nb  Nb1  1  0.798372  0.801541  0.200044  1
  Nb  Nb2  1  0.204006  0.797140  0.201714  1
  Nb  Nb3  1  0.204006  0.201714  0.797140  1
  Nb  Nb4  1  0.204006  0.797140  0.797140  1
  Nb  Nb5  1  0.798372  0.200044  0.200044  1
  Fe  Fe6  1  0.614379  0.622407  0.140808  1
  Fe  Fe7  1  0.382426  0.379345  0.858884  1
  Fe  Fe8  1  0.826053  0.519910  0.827019  1
  Fe  Fe9  1  0.826053  0.827019  0.827019  1
  Fe  Fe10  1  0.826053  0.827019  0.519910  1
  Fe  Fe11  1  0.382426  0.379345  0.379345  1
  Fe  Fe12  1  0.138622  0.620460  0.620460  1
  Fe  Fe13  1  0.614379  0.622407  0.622407  1
  Fe  Fe14  1  0.176801  0.170946  0.170946  1
  Fe  Fe15  1  0.176801  0.481307  0.170946  1
  Fe  Fe16  1  0.521520  0.826160  0.826160  1
  Fe  Fe17  1  0.614379  0.140808  0.622407  1
  Fe  Fe18  1  0.176801  0.170946  0.481307  1
  Fe  Fe19  1  0.382426  0.858884  0.379345  1
  Fe  Fe20  1  0.478337  0.173887  0.173887  1
  Si  Si21  1  0.501211  0.999789  0.999789  1
  Si  Si22  1  0.004104  0.500533  0.994830  1
  Si  Si23  1  0.501211  0.499210  0.999789  1
  Si  Si24  1  0.487234  0.504255  0.504255  1
  Si  Si25  1  0.004104  0.500533  0.500533  1
  Si  Si26  1  0.004104  0.994830  0.500533  1
  Si  Si27  1  0.501211  0.999789  0.499210  1
  Ru  Ru28  1  0.852233  0.382589  0.382589  1
