# generated using pymatgen
data_U6Fe3Ni3As8
_symmetry_space_group_name_H-M   'P 1'
_cell_length_a   7.70982753
_cell_length_b   7.72066640
_cell_length_c   7.72066701
_cell_angle_alpha   109.43586633
_cell_angle_beta   109.09914389
_cell_angle_gamma   109.93675704
_symmetry_Int_Tables_number   1
_chemical_formula_structural   U6Fe3Ni3As8
_chemical_formula_sum   'U6 Fe3 Ni3 As8'
_cell_volume   353.51099407
_cell_formula_units_Z   1
loop_
 _symmetry_equiv_pos_site_id
 _symmetry_equiv_pos_as_xyz
  1  'x, y, z'
loop_
 _atom_site_type_symbol
 _atom_site_label
 _atom_site_symmetry_multiplicity
 _atom_site_fract_x
 _atom_site_fract_y
 _atom_site_fract_z
 _atom_site_occupancy
  U  U0  1  0.882361  0.257278  0.131226  1
  U  U1  1  0.617639  0.748864  0.374917  1
  U  U2  1  0.250000  0.119128  0.869128  1
  U  U3  1  0.750000  0.381293  0.631293  1
  U  U4  1  0.131571  0.875493  0.251750  1
  U  U5  1  0.368429  0.620179  0.743923  1
  Fe  Fe6  1  0.377267  0.248954  0.626993  1
  Fe  Fe7  1  0.122733  0.749726  0.871686  1
  Fe  Fe8  1  0.250000  0.620219  0.370219  1
  Ni  Ni9  1  0.750000  0.876790  0.126790  1
  Ni  Ni10  1  0.625705  0.376177  0.251061  1
  Ni  Ni11  1  0.874295  0.125357  0.750471  1
  As  As12  1  0.662933  0.500935  0.000064  1
  As  As13  1  0.498400  0.998359  0.663681  1
  As  As14  1  0.001600  0.665281  0.499958  1
  As  As15  1  0.837067  0.837131  0.838002  1
  As  As16  1  0.498964  0.999747  0.162277  1
  As  As17  1  0.164652  0.501418  0.999010  1
  As  As18  1  0.001036  0.163314  0.500785  1
  As  As19  1  0.335348  0.334358  0.336766  1
