# generated using pymatgen
data_Er11Sc(Si3Os)4
_symmetry_space_group_name_H-M   'P 1'
_cell_length_a   4.14421000
_cell_length_b   10.67958548
_cell_length_c   12.17980247
_cell_angle_alpha   89.86462269
_cell_angle_beta   90.00000000
_cell_angle_gamma   90.00000000
_symmetry_Int_Tables_number   1
_chemical_formula_structural   Er11Sc(Si3Os)4
_chemical_formula_sum   'Er11 Sc1 Si12 Os4'
_cell_volume   539.05761224
_cell_formula_units_Z   1
loop_
 _symmetry_equiv_pos_site_id
 _symmetry_equiv_pos_as_xyz
  1  'x, y, z'
loop_
 _atom_site_type_symbol
 _atom_site_label
 _atom_site_symmetry_multiplicity
 _atom_site_fract_x
 _atom_site_fract_y
 _atom_site_fract_z
 _atom_site_occupancy
  Er  Er0  1  0.250000  0.880798  0.018937  1
  Er  Er1  1  0.250000  0.619473  0.520147  1
  Er  Er2  1  0.750000  0.119998  0.977816  1
  Er  Er3  1  0.750000  0.377782  0.481912  1
  Er  Er4  1  0.250000  0.922725  0.605906  1
  Er  Er5  1  0.250000  0.579222  0.104892  1
  Er  Er6  1  0.750000  0.078439  0.396265  1
  Er  Er7  1  0.750000  0.419383  0.893402  1
  Er  Er8  1  0.250000  0.659933  0.799581  1
  Er  Er9  1  0.250000  0.840139  0.300007  1
  Er  Er10  1  0.750000  0.338597  0.200100  1
  Sc  Sc11  1  0.750000  0.161049  0.702158  1
  Si  Si12  1  0.250000  0.014100  0.819773  1
  Si  Si13  1  0.250000  0.488405  0.321334  1
  Si  Si14  1  0.750000  0.989694  0.178495  1
  Si  Si15  1  0.750000  0.511608  0.678868  1
  Si  Si16  1  0.250000  0.246827  0.837449  1
  Si  Si17  1  0.250000  0.250226  0.343701  1
  Si  Si18  1  0.750000  0.751313  0.158001  1
  Si  Si19  1  0.750000  0.749175  0.657755  1
  Si  Si20  1  0.250000  0.199157  0.551384  1
  Si  Si21  1  0.250000  0.298389  0.042670  1
  Si  Si22  1  0.750000  0.799000  0.456265  1
  Si  Si23  1  0.750000  0.701554  0.955122  1
  Os  Os24  1  0.250000  0.388974  0.680177  1
  Os  Os25  1  0.250000  0.111381  0.180846  1
  Os  Os26  1  0.750000  0.610925  0.319631  1
  Os  Os27  1  0.750000  0.891733  0.817405  1
