# generated using pymatgen
data_HoTh7InSe17
_symmetry_space_group_name_H-M   'P 1'
_cell_length_a   8.47340685
_cell_length_b   8.46221531
_cell_length_c   11.23363500
_cell_angle_alpha   80.69806060
_cell_angle_beta   80.88125407
_cell_angle_gamma   65.07597312
_symmetry_Int_Tables_number   1
_chemical_formula_structural   HoTh7InSe17
_chemical_formula_sum   'Ho1 Th7 In1 Se17'
_cell_volume   717.18664418
_cell_formula_units_Z   1
loop_
 _symmetry_equiv_pos_site_id
 _symmetry_equiv_pos_as_xyz
  1  'x, y, z'
loop_
 _atom_site_type_symbol
 _atom_site_label
 _atom_site_symmetry_multiplicity
 _atom_site_fract_x
 _atom_site_fract_y
 _atom_site_fract_z
 _atom_site_occupancy
  Ho  Ho0  1  0.814255  0.309495  0.301147  1
  Th  Th1  1  0.305924  0.814393  0.298890  1
  Th  Th2  1  0.183830  0.694462  0.699425  1
  Th  Th3  1  0.695142  0.185704  0.696435  1
  Th  Th4  1  0.205783  0.203759  0.539617  1
  Th  Th5  1  0.794724  0.795630  0.456037  1
  Th  Th6  1  0.679533  0.675292  0.981394  1
  Th  Th7  1  0.321223  0.321583  0.022733  1
  In  In8  1  0.995915  0.004462  0.003000  1
  Se  Se9  1  0.824199  0.429136  0.531139  1
  Se  Se10  1  0.433308  0.820076  0.534231  1
  Se  Se11  1  0.177998  0.566659  0.464210  1
  Se  Se12  1  0.570440  0.178303  0.464281  1
  Se  Se13  1  0.947044  0.331758  0.040090  1
  Se  Se14  1  0.332248  0.946914  0.035240  1
  Se  Se15  1  0.053029  0.670394  0.964308  1
  Se  Se16  1  0.667704  0.053201  0.961372  1
  Se  Se17  1  0.209267  0.208214  0.279907  1
  Se  Se18  1  0.789205  0.788258  0.720300  1
  Se  Se19  1  0.057265  0.057225  0.765830  1
  Se  Se20  1  0.939202  0.953771  0.238531  1
  Se  Se21  1  0.301797  0.301921  0.753744  1
  Se  Se22  1  0.698475  0.695831  0.245517  1
  Se  Se23  1  0.520059  0.520537  0.830669  1
  Se  Se24  1  0.478992  0.480288  0.167588  1
  Se  Se25  1  0.003438  0.992732  0.504365  1
