# generated using pymatgen
data_NdEu3(SiPd2)4
_symmetry_space_group_name_H-M   'P 1'
_cell_length_a   5.67751016
_cell_length_b   6.94838200
_cell_length_c   7.59121582
_cell_angle_alpha   90.00000000
_cell_angle_beta   89.90060372
_cell_angle_gamma   90.00000000
_symmetry_Int_Tables_number   1
_chemical_formula_structural   NdEu3(SiPd2)4
_chemical_formula_sum   'Nd1 Eu3 Si4 Pd8'
_cell_volume   299.46928937
_cell_formula_units_Z   1
loop_
 _symmetry_equiv_pos_site_id
 _symmetry_equiv_pos_as_xyz
  1  'x, y, z'
loop_
 _atom_site_type_symbol
 _atom_site_label
 _atom_site_symmetry_multiplicity
 _atom_site_fract_x
 _atom_site_fract_y
 _atom_site_fract_z
 _atom_site_occupancy
  Nd  Nd0  1  0.358810  0.750000  0.029355  1
  Eu  Eu1  1  0.137275  0.750000  0.528399  1
  Eu  Eu2  1  0.862327  0.250000  0.471107  1
  Eu  Eu3  1  0.639331  0.250000  0.971143  1
  Si  Si4  1  0.855743  0.750000  0.873553  1
  Si  Si5  1  0.145188  0.250000  0.125739  1
  Si  Si6  1  0.356308  0.250000  0.625438  1
  Si  Si7  1  0.643809  0.750000  0.375147  1
  Pd  Pd8  1  0.592212  0.553372  0.671590  1
  Pd  Pd9  1  0.406231  0.447413  0.327541  1
  Pd  Pd10  1  0.096844  0.446812  0.830197  1
  Pd  Pd11  1  0.406231  0.052587  0.327541  1
  Pd  Pd12  1  0.905318  0.553694  0.170732  1
  Pd  Pd13  1  0.592212  0.946628  0.671590  1
  Pd  Pd14  1  0.905318  0.946306  0.170732  1
  Pd  Pd15  1  0.096844  0.053188  0.830197  1
