# generated using pymatgen
data_NaV2BiO7
_symmetry_space_group_name_H-M   'P 1'
_cell_length_a   6.01881299
_cell_length_b   6.01881247
_cell_length_c   5.10422136
_cell_angle_alpha   97.54421500
_cell_angle_beta   97.54421513
_cell_angle_gamma   103.21298151
_symmetry_Int_Tables_number   1
_chemical_formula_structural   NaV2BiO7
_chemical_formula_sum   'Na1 V2 Bi1 O7'
_cell_volume   175.94279764
_cell_formula_units_Z   1
loop_
 _symmetry_equiv_pos_site_id
 _symmetry_equiv_pos_as_xyz
  1  'x, y, z'
loop_
 _atom_site_type_symbol
 _atom_site_label
 _atom_site_symmetry_multiplicity
 _atom_site_fract_x
 _atom_site_fract_y
 _atom_site_fract_z
 _atom_site_occupancy
  Na  Na0  1  0.255368  0.744631  0.000000  1
  V  V1  1  0.182149  0.260114  0.416843  1
  V  V2  1  0.739886  0.817851  0.583158  1
  Bi  Bi3  1  0.638469  0.361530  0.000000  1
  O  O4  1  0.356819  0.151208  0.216335  1
  O  O5  1  0.031194  0.419882  0.246616  1
  O  O6  1  0.574941  0.657225  0.281374  1
  O  O7  1  0.982716  0.017283  0.499999  1
  O  O8  1  0.342775  0.425059  0.718627  1
  O  O9  1  0.580118  0.968807  0.753382  1
  O  O10  1  0.848793  0.643182  0.783663  1
