# generated using pymatgen
data_Sr4Yb6Si10O
_symmetry_space_group_name_H-M   'P 1'
_cell_length_a   10.96152528
_cell_length_b   10.98299814
_cell_length_c   10.98299665
_cell_angle_alpha   155.54981617
_cell_angle_beta   110.78419739
_cell_angle_gamma   74.63335254
_symmetry_Int_Tables_number   1
_chemical_formula_structural   Sr4Yb6Si10O
_chemical_formula_sum   'Sr4 Yb6 Si10 O1'
_cell_volume   505.87933243
_cell_formula_units_Z   1
loop_
 _symmetry_equiv_pos_site_id
 _symmetry_equiv_pos_as_xyz
  1  'x, y, z'
loop_
 _atom_site_type_symbol
 _atom_site_label
 _atom_site_symmetry_multiplicity
 _atom_site_fract_x
 _atom_site_fract_y
 _atom_site_fract_z
 _atom_site_occupancy
  Sr  Sr0  1  0.158073  0.157484  0.000588  1
  Sr  Sr1  1  0.528604  0.192345  0.336261  1
  Sr  Sr2  1  0.499648  0.999270  0.500377  1
  Sr  Sr3  1  0.139788  0.808617  0.331170  1
  Yb  Yb4  1  0.857436  0.857298  0.000139  1
  Yb  Yb5  1  0.188987  0.998920  0.190067  1
  Yb  Yb6  1  0.483748  0.814987  0.668761  1
  Yb  Yb7  1  0.851064  0.185881  0.665183  1
  Yb  Yb8  1  0.808026  0.998836  0.809190  1
  Yb  Yb9  1  0.999512  0.499466  0.500046  1
  Si  Si10  1  0.410565  0.567649  0.842916  1
  Si  Si11  1  0.272892  0.431791  0.841101  1
  Si  Si12  1  0.590390  0.432088  0.158301  1
  Si  Si13  1  0.724275  0.567291  0.156984  1
  Si  Si14  1  0.696406  0.371480  0.324926  1
  Si  Si15  1  0.646538  0.644409  0.002129  1
  Si  Si16  1  0.305167  0.629878  0.675289  1
  Si  Si17  1  0.357085  0.355561  0.001524  1
  Si  Si18  1  0.040808  0.368760  0.672048  1
  Si  Si19  1  0.950715  0.627679  0.323035  1
  O  O20  1  0.990274  0.990310  0.999964  1
