# generated using pymatgen
data_Ho2Nb3Ni9As7
_symmetry_space_group_name_H-M   'P 1'
_cell_length_a   9.61635300
_cell_length_b   9.61635326
_cell_length_c   3.83098600
_cell_angle_alpha   90.00000000
_cell_angle_beta   90.00000000
_cell_angle_gamma   120.00000255
_symmetry_Int_Tables_number   1
_chemical_formula_structural   Ho2Nb3Ni9As7
_chemical_formula_sum   'Ho2 Nb3 Ni9 As7'
_cell_volume   306.80468805
_cell_formula_units_Z   1
loop_
 _symmetry_equiv_pos_site_id
 _symmetry_equiv_pos_as_xyz
  1  'x, y, z'
loop_
 _atom_site_type_symbol
 _atom_site_label
 _atom_site_symmetry_multiplicity
 _atom_site_fract_x
 _atom_site_fract_y
 _atom_site_fract_z
 _atom_site_occupancy
  Ho  Ho0  1  0.333333  0.666667  0.000000  1
  Ho  Ho1  1  0.666667  0.333333  0.500000  1
  Nb  Nb2  1  0.223563  0.117673  0.500000  1
  Nb  Nb3  1  0.882327  0.105889  0.500000  1
  Nb  Nb4  1  0.894111  0.776437  0.500000  1
  Ni  Ni5  1  0.128906  0.285154  0.000000  1
  Ni  Ni6  1  0.714846  0.843753  0.000000  1
  Ni  Ni7  1  0.156247  0.871094  0.000000  1
  Ni  Ni8  1  0.428838  0.365677  0.000000  1
  Ni  Ni9  1  0.634323  0.063161  0.000000  1
  Ni  Ni10  1  0.936839  0.571162  0.000000  1
  Ni  Ni11  1  0.058282  0.439846  0.500000  1
  Ni  Ni12  1  0.560154  0.618436  0.500000  1
  Ni  Ni13  1  0.381564  0.941718  0.500000  1
  As  As14  1  0.292984  0.413394  0.500000  1
  As  As15  1  0.586606  0.879591  0.500000  1
  As  As16  1  0.120409  0.707016  0.500000  1
  As  As17  1  0.418679  0.113126  0.000000  1
  As  As18  1  0.886874  0.305552  0.000000  1
  As  As19  1  0.694448  0.581321  0.000000  1
  As  As20  1  0.000000  0.000000  0.000000  1
