# generated using pymatgen
data_Dy2ErTm7Bi6
_symmetry_space_group_name_H-M   'P 1'
_cell_length_a   8.20416200
_cell_length_b   9.44498400
_cell_length_c   11.94338600
_cell_angle_alpha   90.00000000
_cell_angle_beta   90.00000000
_cell_angle_gamma   90.00000000
_symmetry_Int_Tables_number   1
_chemical_formula_structural   Dy2ErTm7Bi6
_chemical_formula_sum   'Dy4 Er2 Tm14 Bi12'
_cell_volume   925.47123012
_cell_formula_units_Z   2
loop_
 _symmetry_equiv_pos_site_id
 _symmetry_equiv_pos_as_xyz
  1  'x, y, z'
loop_
 _atom_site_type_symbol
 _atom_site_label
 _atom_site_symmetry_multiplicity
 _atom_site_fract_x
 _atom_site_fract_y
 _atom_site_fract_z
 _atom_site_occupancy
  Dy  Dy0  1  0.312473  0.250000  0.218166  1
  Dy  Dy1  1  0.812473  0.250000  0.281834  1
  Dy  Dy2  1  0.687520  0.750000  0.781784  1
  Dy  Dy3  1  0.187520  0.750000  0.718216  1
  Er  Er4  1  0.352473  0.750000  0.217031  1
  Er  Er5  1  0.852473  0.750000  0.282969  1
  Tm  Tm6  1  0.647360  0.250000  0.782844  1
  Tm  Tm7  1  0.147360  0.250000  0.717156  1
  Tm  Tm8  1  0.692497  0.565824  0.059228  1
  Tm  Tm9  1  0.192497  0.934176  0.440772  1
  Tm  Tm10  1  0.307472  0.065896  0.940599  1
  Tm  Tm11  1  0.807472  0.434104  0.559401  1
  Tm  Tm12  1  0.307472  0.434104  0.940599  1
  Tm  Tm13  1  0.807472  0.065896  0.559401  1
  Tm  Tm14  1  0.692497  0.934176  0.059228  1
  Tm  Tm15  1  0.192497  0.565824  0.440772  1
  Tm  Tm16  1  0.476181  0.250000  0.488963  1
  Tm  Tm17  1  0.976181  0.250000  0.011037  1
  Tm  Tm18  1  0.523946  0.750000  0.511246  1
  Tm  Tm19  1  0.023946  0.750000  0.988754  1
  Bi  Bi20  1  0.405242  0.750000  0.958106  1
  Bi  Bi21  1  0.905242  0.750000  0.541894  1
  Bi  Bi22  1  0.594908  0.250000  0.041573  1
  Bi  Bi23  1  0.094908  0.250000  0.458427  1
  Bi  Bi24  1  0.565295  0.995020  0.325961  1
  Bi  Bi25  1  0.065295  0.504980  0.174039  1
  Bi  Bi26  1  0.434684  0.494735  0.674142  1
  Bi  Bi27  1  0.934684  0.005265  0.825858  1
  Bi  Bi28  1  0.434684  0.005265  0.674142  1
  Bi  Bi29  1  0.934684  0.494735  0.825858  1
  Bi  Bi30  1  0.565295  0.504980  0.325961  1
  Bi  Bi31  1  0.065295  0.995020  0.174039  1
