# generated using pymatgen
data_Ho3Al12Ru3Rh
_symmetry_space_group_name_H-M   'P 1'
_cell_length_a   8.78104096
_cell_length_b   8.78104074
_cell_length_c   9.53335900
_cell_angle_alpha   90.00000000
_cell_angle_beta   90.00000000
_cell_angle_gamma   119.40855140
_symmetry_Int_Tables_number   1
_chemical_formula_structural   Ho3Al12Ru3Rh
_chemical_formula_sum   'Ho6 Al24 Ru6 Rh2'
_cell_volume   640.36290312
_cell_formula_units_Z   2
loop_
 _symmetry_equiv_pos_site_id
 _symmetry_equiv_pos_as_xyz
  1  'x, y, z'
loop_
 _atom_site_type_symbol
 _atom_site_label
 _atom_site_symmetry_multiplicity
 _atom_site_fract_x
 _atom_site_fract_y
 _atom_site_fract_z
 _atom_site_occupancy
  Ho  Ho0  1  0.189557  0.386649  0.250000  1
  Ho  Ho1  1  0.810443  0.613351  0.750000  1
  Ho  Ho2  1  0.613351  0.810443  0.250000  1
  Ho  Ho3  1  0.386649  0.189557  0.750000  1
  Ho  Ho4  1  0.194847  0.805153  0.250000  1
  Ho  Ho5  1  0.805153  0.194847  0.750000  1
  Al  Al6  1  0.332148  0.667852  0.019075  1
  Al  Al7  1  0.667852  0.332148  0.980925  1
  Al  Al8  1  0.667852  0.332148  0.519075  1
  Al  Al9  1  0.332148  0.667852  0.480925  1
  Al  Al10  1  0.161267  0.323557  0.578475  1
  Al  Al11  1  0.838733  0.676443  0.421525  1
  Al  Al12  1  0.676443  0.838733  0.578475  1
  Al  Al13  1  0.838733  0.676443  0.078475  1
  Al  Al14  1  0.323557  0.161267  0.421525  1
  Al  Al15  1  0.161267  0.323557  0.921525  1
  Al  Al16  1  0.163060  0.836940  0.577947  1
  Al  Al17  1  0.323557  0.161267  0.078475  1
  Al  Al18  1  0.836940  0.163060  0.422053  1
  Al  Al19  1  0.676443  0.838733  0.921525  1
  Al  Al20  1  0.836940  0.163060  0.077947  1
  Al  Al21  1  0.163060  0.836940  0.922053  1
  Al  Al22  1  0.560185  0.122470  0.250000  1
  Al  Al23  1  0.439815  0.877530  0.750000  1
  Al  Al24  1  0.877530  0.439815  0.250000  1
  Al  Al25  1  0.122470  0.560185  0.750000  1
  Al  Al26  1  0.560750  0.439250  0.250000  1
  Al  Al27  1  0.439250  0.560750  0.750000  1
  Al  Al28  1  0.999493  0.000507  0.250000  1
  Al  Al29  1  0.000507  0.999493  0.750000  1
  Ru  Ru30  1  0.500000  0.000000  0.000000  1
  Ru  Ru31  1  0.000000  0.500000  0.000000  1
  Ru  Ru32  1  0.500000  0.000000  0.500000  1
  Ru  Ru33  1  0.000000  0.500000  0.500000  1
  Ru  Ru34  1  0.000000  0.000000  0.000000  1
  Ru  Ru35  1  0.000000  0.000000  0.500000  1
  Rh  Rh36  1  0.500000  0.500000  0.000000  1
  Rh  Rh37  1  0.500000  0.500000  0.500000  1
