# generated using pymatgen
data_Dy2Er3Lu3(Si3Rh)4
_symmetry_space_group_name_H-M   'P 1'
_cell_length_a   8.12845900
_cell_length_b   8.12846013
_cell_length_c   7.80374400
_cell_angle_alpha   90.00000000
_cell_angle_beta   90.00000000
_cell_angle_gamma   119.99999948
_symmetry_Int_Tables_number   1
_chemical_formula_structural   Dy2Er3Lu3(Si3Rh)4
_chemical_formula_sum   'Dy2 Er3 Lu3 Si12 Rh4'
_cell_volume   446.52949105
_cell_formula_units_Z   1
loop_
 _symmetry_equiv_pos_site_id
 _symmetry_equiv_pos_as_xyz
  1  'x, y, z'
loop_
 _atom_site_type_symbol
 _atom_site_label
 _atom_site_symmetry_multiplicity
 _atom_site_fract_x
 _atom_site_fract_y
 _atom_site_fract_z
 _atom_site_occupancy
  Dy  Dy0  1  0.000000  0.000000  0.250000  1
  Dy  Dy1  1  0.000000  0.000000  0.750000  1
  Er  Er2  1  0.508551  0.491449  0.750000  1
  Er  Er3  1  0.982897  0.491449  0.750000  1
  Er  Er4  1  0.508551  0.017103  0.750000  1
  Lu  Lu5  1  0.491176  0.508824  0.250000  1
  Lu  Lu6  1  0.491176  0.982352  0.250000  1
  Lu  Lu7  1  0.017648  0.508824  0.250000  1
  Si  Si8  1  0.832545  0.167455  0.499520  1
  Si  Si9  1  0.832545  0.665091  0.499520  1
  Si  Si10  1  0.334909  0.167455  0.499520  1
  Si  Si11  1  0.832545  0.167455  0.000480  1
  Si  Si12  1  0.832545  0.665091  0.000480  1
  Si  Si13  1  0.334909  0.167455  0.000480  1
  Si  Si14  1  0.167205  0.832795  0.002335  1
  Si  Si15  1  0.665590  0.832795  0.002335  1
  Si  Si16  1  0.167205  0.334410  0.002335  1
  Si  Si17  1  0.167205  0.832795  0.497665  1
  Si  Si18  1  0.665590  0.832795  0.497665  1
  Si  Si19  1  0.167205  0.334410  0.497665  1
  Rh  Rh20  1  0.666667  0.333333  0.461689  1
  Rh  Rh21  1  0.666667  0.333333  0.038311  1
  Rh  Rh22  1  0.333333  0.666667  0.970207  1
  Rh  Rh23  1  0.333333  0.666667  0.529793  1
