# generated using pymatgen
data_Cs4CdGeSe5
_symmetry_space_group_name_H-M   'P 1'
_cell_length_a   8.29059888
_cell_length_b   9.50938892
_cell_length_c   11.61949800
_cell_angle_alpha   74.41863566
_cell_angle_beta   87.03654903
_cell_angle_gamma   80.95346301
_symmetry_Int_Tables_number   1
_chemical_formula_structural   Cs4CdGeSe5
_chemical_formula_sum   'Cs8 Cd2 Ge2 Se10'
_cell_volume   871.37943222
_cell_formula_units_Z   2
loop_
 _symmetry_equiv_pos_site_id
 _symmetry_equiv_pos_as_xyz
  1  'x, y, z'
loop_
 _atom_site_type_symbol
 _atom_site_label
 _atom_site_symmetry_multiplicity
 _atom_site_fract_x
 _atom_site_fract_y
 _atom_site_fract_z
 _atom_site_occupancy
  Cs  Cs0  1  0.439203  0.309682  0.102358  1
  Cs  Cs1  1  0.560797  0.690318  0.897642  1
  Cs  Cs2  1  0.186894  0.084578  0.864494  1
  Cs  Cs3  1  0.061590  0.614474  0.746602  1
  Cs  Cs4  1  0.813106  0.915422  0.135506  1
  Cs  Cs5  1  0.938410  0.385526  0.253398  1
  Cs  Cs6  1  0.557577  0.724330  0.491531  1
  Cs  Cs7  1  0.442423  0.275670  0.508469  1
  Cd  Cd8  1  0.906775  0.085787  0.596993  1
  Cd  Cd9  1  0.093225  0.914213  0.403007  1
  Ge  Ge10  1  0.281603  0.713038  0.207869  1
  Ge  Ge11  1  0.718397  0.286962  0.792131  1
  Se  Se12  1  0.871436  0.374666  0.612385  1
  Se  Se13  1  0.217984  0.954897  0.597514  1
  Se  Se14  1  0.444013  0.406595  0.774888  1
  Se  Se15  1  0.159534  0.677057  0.039741  1
  Se  Se16  1  0.840466  0.322943  0.960259  1
  Se  Se17  1  0.555987  0.593405  0.225112  1
  Se  Se18  1  0.128564  0.625334  0.387615  1
  Se  Se19  1  0.273721  0.973007  0.194849  1
  Se  Se20  1  0.726279  0.026993  0.805151  1
  Se  Se21  1  0.782016  0.045103  0.402486  1
