# generated using pymatgen
data_TbFeSiPd
_symmetry_space_group_name_H-M   'P 1'
_cell_length_a   8.93159059
_cell_length_b   8.93159114
_cell_length_c   4.02226300
_cell_angle_alpha   90.00000000
_cell_angle_beta   90.00000000
_cell_angle_gamma   154.44033354
_symmetry_Int_Tables_number   1
_chemical_formula_structural   TbFeSiPd
_chemical_formula_sum   'Tb2 Fe2 Si2 Pd2'
_cell_volume   138.43929483
_cell_formula_units_Z   2
loop_
 _symmetry_equiv_pos_site_id
 _symmetry_equiv_pos_as_xyz
  1  'x, y, z'
loop_
 _atom_site_type_symbol
 _atom_site_label
 _atom_site_symmetry_multiplicity
 _atom_site_fract_x
 _atom_site_fract_y
 _atom_site_fract_z
 _atom_site_occupancy
  Tb  Tb0  1  0.613645  0.386355  0.250000  1
  Tb  Tb1  1  0.386355  0.613645  0.750000  1
  Fe  Fe2  1  0.250310  0.749690  0.250000  1
  Fe  Fe3  1  0.749690  0.250310  0.750000  1
  Si  Si4  1  0.812713  0.187287  0.250000  1
  Si  Si5  1  0.187287  0.812713  0.750000  1
  Pd  Pd6  1  0.951434  0.048566  0.250000  1
  Pd  Pd7  1  0.048566  0.951434  0.750000  1
