# generated using pymatgen
data_TcAg2OsF12
_symmetry_space_group_name_H-M   'P 1'
_cell_length_a   5.47121817
_cell_length_b   5.51082095
_cell_length_c   10.61638402
_cell_angle_alpha   74.92865166
_cell_angle_beta   75.30141480
_cell_angle_gamma   60.22132379
_symmetry_Int_Tables_number   1
_chemical_formula_structural   TcAg2OsF12
_chemical_formula_sum   'Tc1 Ag2 Os1 F12'
_cell_volume   265.28786960
_cell_formula_units_Z   1
loop_
 _symmetry_equiv_pos_site_id
 _symmetry_equiv_pos_as_xyz
  1  'x, y, z'
loop_
 _atom_site_type_symbol
 _atom_site_label
 _atom_site_symmetry_multiplicity
 _atom_site_fract_x
 _atom_site_fract_y
 _atom_site_fract_z
 _atom_site_occupancy
  Tc  Tc0  1  0.258764  0.244103  0.250036  1
  Ag  Ag1  1  0.504785  0.502317  0.488915  1
  Ag  Ag2  1  0.996474  0.996028  0.011092  1
  Os  Os3  1  0.741263  0.756032  0.749945  1
  F  F4  1  0.496887  0.783796  0.639730  1
  F  F5  1  0.515150  0.196875  0.359265  1
  F  F6  1  0.769588  0.081550  0.640934  1
  F  F7  1  0.211454  0.927290  0.358521  1
  F  F8  1  0.714036  0.431190  0.859571  1
  F  F9  1  0.304409  0.561159  0.141585  1
  F  F10  1  0.985013  0.728617  0.860534  1
  F  F11  1  0.003550  0.290516  0.140337  1
  F  F12  1  0.574709  0.989816  0.141509  1
  F  F13  1  0.415117  0.998229  0.858927  1
  F  F14  1  0.942366  0.495714  0.358792  1
  F  F15  1  0.066435  0.516767  0.640306  1
