# generated using pymatgen
data_LiNd4P12Ru9Rh10
_symmetry_space_group_name_H-M   'P 1'
_cell_length_a   12.66362305
_cell_length_b   12.64402141
_cell_length_c   3.97179500
_cell_angle_alpha   90.00000000
_cell_angle_beta   90.00000000
_cell_angle_gamma   119.94881727
_symmetry_Int_Tables_number   1
_chemical_formula_structural   LiNd4P12Ru9Rh10
_chemical_formula_sum   'Li1 Nd4 P12 Ru9 Rh10'
_cell_volume   551.04163080
_cell_formula_units_Z   1
loop_
 _symmetry_equiv_pos_site_id
 _symmetry_equiv_pos_as_xyz
  1  'x, y, z'
loop_
 _atom_site_type_symbol
 _atom_site_label
 _atom_site_symmetry_multiplicity
 _atom_site_fract_x
 _atom_site_fract_y
 _atom_site_fract_z
 _atom_site_occupancy
  Li  Li0  1  0.000000  0.187135  0.500000  1
  Nd  Nd1  1  0.817222  0.818252  0.500000  1
  Nd  Nd2  1  0.182778  0.001030  0.500000  1
  Nd  Nd3  1  0.665890  0.332305  0.000000  1
  Nd  Nd4  1  0.334110  0.666416  0.000000  1
  P  P5  1  0.000000  0.817061  0.000000  1
  P  P6  1  0.182132  0.185453  0.000000  1
  P  P7  1  0.817868  0.003321  0.000000  1
  P  P8  1  0.691870  0.170489  0.500000  1
  P  P9  1  0.829681  0.517881  0.500000  1
  P  P10  1  0.478833  0.310895  0.500000  1
  P  P11  1  0.170319  0.688200  0.500000  1
  P  P12  1  0.521167  0.832062  0.500000  1
  P  P13  1  0.308130  0.478620  0.500000  1
  P  P14  1  0.000000  0.369688  0.000000  1
  P  P15  1  0.628272  0.628445  0.000000  1
  P  P16  1  0.371728  0.000173  0.000000  1
  Ru  Ru17  1  0.000000  0.712897  0.500000  1
  Ru  Ru18  1  0.283162  0.284114  0.500000  1
  Ru  Ru19  1  0.716838  0.000952  0.500000  1
  Ru  Ru20  1  0.876131  0.361490  0.500000  1
  Ru  Ru21  1  0.638385  0.512863  0.500000  1
  Ru  Ru22  1  0.488201  0.124943  0.500000  1
  Ru  Ru23  1  0.361615  0.874479  0.500000  1
  Ru  Ru24  1  0.511799  0.636741  0.500000  1
  Ru  Ru25  1  0.123869  0.485359  0.500000  1
  Rh  Rh26  1  0.000000  0.550415  0.000000  1
  Rh  Rh27  1  0.450439  0.447205  0.000000  1
  Rh  Rh28  1  0.549561  0.996765  0.000000  1
  Rh  Rh29  1  0.810560  0.184767  0.000000  1
  Rh  Rh30  1  0.818045  0.624166  0.000000  1
  Rh  Rh31  1  0.375522  0.193567  0.000000  1
  Rh  Rh32  1  0.181955  0.806120  0.000000  1
  Rh  Rh33  1  0.624478  0.818043  0.000000  1
  Rh  Rh34  1  0.189440  0.374206  0.000000  1
  Rh  Rh35  1  0.000000  0.003483  0.000000  1
