# generated using pymatgen
data_Dy4FeTc2Ru5
_symmetry_space_group_name_H-M   'P 1'
_cell_length_a   5.34767417
_cell_length_b   5.12749339
_cell_length_c   9.03506600
_cell_angle_alpha   90.00000000
_cell_angle_beta   90.00000000
_cell_angle_gamma   119.78028682
_symmetry_Int_Tables_number   1
_chemical_formula_structural   Dy4FeTc2Ru5
_chemical_formula_sum   'Dy4 Fe1 Tc2 Ru5'
_cell_volume   215.02515766
_cell_formula_units_Z   1
loop_
 _symmetry_equiv_pos_site_id
 _symmetry_equiv_pos_as_xyz
  1  'x, y, z'
loop_
 _atom_site_type_symbol
 _atom_site_label
 _atom_site_symmetry_multiplicity
 _atom_site_fract_x
 _atom_site_fract_y
 _atom_site_fract_z
 _atom_site_occupancy
  Dy  Dy0  1  0.669627  0.336866  0.568633  1
  Dy  Dy1  1  0.328273  0.662411  0.437208  1
  Dy  Dy2  1  0.328273  0.662411  0.062792  1
  Dy  Dy3  1  0.669627  0.336866  0.931367  1
  Fe  Fe4  1  0.164320  0.327619  0.750000  1
  Tc  Tc5  1  0.838237  0.668609  0.250000  1
  Tc  Tc6  1  0.833562  0.175048  0.250000  1
  Ru  Ru7  1  0.993820  0.999747  0.503537  1
  Ru  Ru8  1  0.993820  0.999747  0.996463  1
  Ru  Ru9  1  0.174998  0.826307  0.750000  1
  Ru  Ru10  1  0.655791  0.829338  0.750000  1
  Ru  Ru11  1  0.349652  0.175034  0.250000  1
