# generated using pymatgen
data_Er4ZnPt3
_symmetry_space_group_name_H-M   'P 1'
_cell_length_a   4.53024900
_cell_length_b   5.53873880
_cell_length_c   7.00271169
_cell_angle_alpha   89.87741533
_cell_angle_beta   90.00000000
_cell_angle_gamma   90.00000000
_symmetry_Int_Tables_number   1
_chemical_formula_structural   Er4ZnPt3
_chemical_formula_sum   'Er4 Zn1 Pt3'
_cell_volume   175.71070052
_cell_formula_units_Z   1
loop_
 _symmetry_equiv_pos_site_id
 _symmetry_equiv_pos_as_xyz
  1  'x, y, z'
loop_
 _atom_site_type_symbol
 _atom_site_label
 _atom_site_symmetry_multiplicity
 _atom_site_fract_x
 _atom_site_fract_y
 _atom_site_fract_z
 _atom_site_occupancy
  Er  Er0  1  0.000000  0.640321  0.313824  1
  Er  Er1  1  0.000000  0.851621  0.821934  1
  Er  Er2  1  0.500000  0.368856  0.691780  1
  Er  Er3  1  0.500000  0.139125  0.171982  1
  Zn  Zn4  1  0.000000  0.136630  0.466406  1
  Pt  Pt5  1  0.000000  0.337216  0.956408  1
  Pt  Pt6  1  0.500000  0.870285  0.532076  1
  Pt  Pt7  1  0.500000  0.655948  0.045590  1
