# generated using pymatgen
data_Pr4In5Sn11Ir8
_symmetry_space_group_name_H-M   'P 1'
_cell_length_a   4.55324100
_cell_length_b   7.22052605
_cell_length_c   18.77638411
_cell_angle_alpha   90.01267200
_cell_angle_beta   90.00000000
_cell_angle_gamma   90.00000000
_symmetry_Int_Tables_number   1
_chemical_formula_structural   Pr4In5Sn11Ir8
_chemical_formula_sum   'Pr4 In5 Sn11 Ir8'
_cell_volume   617.30732053
_cell_formula_units_Z   1
loop_
 _symmetry_equiv_pos_site_id
 _symmetry_equiv_pos_as_xyz
  1  'x, y, z'
loop_
 _atom_site_type_symbol
 _atom_site_label
 _atom_site_symmetry_multiplicity
 _atom_site_fract_x
 _atom_site_fract_y
 _atom_site_fract_z
 _atom_site_occupancy
  Pr  Pr0  1  0.250000  0.998646  0.859188  1
  Pr  Pr1  1  0.250000  0.502656  0.358457  1
  Pr  Pr2  1  0.750000  0.004221  0.141307  1
  Pr  Pr3  1  0.750000  0.498980  0.641797  1
  In  In4  1  0.250000  0.306978  0.180016  1
  In  In5  1  0.250000  0.193480  0.679982  1
  In  In6  1  0.750000  0.693901  0.819673  1
  In  In7  1  0.750000  0.804539  0.317349  1
  In  In8  1  0.250000  0.724606  0.195897  1
  Sn  Sn9  1  0.250000  0.775376  0.697617  1
  Sn  Sn10  1  0.750000  0.274831  0.802534  1
  Sn  Sn11  1  0.750000  0.223103  0.304117  1
  Sn  Sn12  1  0.250000  0.863994  0.034638  1
  Sn  Sn13  1  0.250000  0.634931  0.533965  1
  Sn  Sn14  1  0.750000  0.136740  0.966701  1
  Sn  Sn15  1  0.750000  0.364770  0.466425  1
  Sn  Sn16  1  0.250000  0.524046  0.929013  1
  Sn  Sn17  1  0.250000  0.974551  0.428930  1
  Sn  Sn18  1  0.750000  0.479227  0.072028  1
  Sn  Sn19  1  0.750000  0.024875  0.570521  1
  Ir  Ir20  1  0.250000  0.253995  0.031679  1
  Ir  Ir21  1  0.250000  0.247556  0.531985  1
  Ir  Ir22  1  0.750000  0.748083  0.967545  1
  Ir  Ir23  1  0.750000  0.752118  0.467752  1
  Ir  Ir24  1  0.250000  0.028260  0.284659  1
  Ir  Ir25  1  0.250000  0.474086  0.784182  1
  Ir  Ir26  1  0.750000  0.974049  0.715383  1
  Ir  Ir27  1  0.750000  0.517403  0.216662  1
