# generated using pymatgen
data_Al6SnSe10
_symmetry_space_group_name_H-M   'P 1'
_cell_length_a   9.77419199
_cell_length_b   9.77419133
_cell_length_c   9.69801637
_cell_angle_alpha   90.32754482
_cell_angle_beta   90.32754537
_cell_angle_gamma   90.09408681
_symmetry_Int_Tables_number   1
_chemical_formula_structural   Al6SnSe10
_chemical_formula_sum   'Al12 Sn2 Se20'
_cell_volume   926.46669553
_cell_formula_units_Z   2
loop_
 _symmetry_equiv_pos_site_id
 _symmetry_equiv_pos_as_xyz
  1  'x, y, z'
loop_
 _atom_site_type_symbol
 _atom_site_label
 _atom_site_symmetry_multiplicity
 _atom_site_fract_x
 _atom_site_fract_y
 _atom_site_fract_z
 _atom_site_occupancy
  Al  Al0  1  0.576370  0.840016  0.882821  1
  Al  Al1  1  0.875550  0.566427  0.838016  1
  Al  Al2  1  0.259971  0.648694  0.833240  1
  Al  Al3  1  0.162742  0.347571  0.740685  1
  Al  Al4  1  0.830710  0.260042  0.660723  1
  Al  Al5  1  0.837452  0.881963  0.575353  1
  Al  Al6  1  0.118037  0.162548  0.424647  1
  Al  Al7  1  0.739958  0.169290  0.339277  1
  Al  Al8  1  0.652429  0.837258  0.259315  1
  Al  Al9  1  0.351306  0.740029  0.166760  1
  Al  Al10  1  0.433573  0.124450  0.161984  1
  Al  Al11  1  0.159984  0.423630  0.117179  1
  Sn  Sn12  1  0.262243  0.004483  0.751196  1
  Sn  Sn13  1  0.995517  0.737757  0.248804  1
  Se  Se14  1  0.185068  0.814932  0.000000  1
  Se  Se15  1  0.322895  0.424458  0.924911  1
  Se  Se16  1  0.505037  0.074273  0.924351  1
  Se  Se17  1  0.823085  0.818535  0.823589  1
  Se  Se18  1  0.999769  0.189992  0.826349  1
  Se  Se19  1  0.693262  0.438746  0.743716  1
  Se  Se20  1  0.434927  0.752742  0.695641  1
  Se  Se21  1  0.073893  0.574546  0.679268  1
  Se  Se22  1  0.681209  0.074482  0.571500  1
  Se  Se23  1  0.304852  0.247808  0.565402  1
  Se  Se24  1  0.072240  0.927760  0.500000  1
  Se  Se25  1  0.752192  0.695148  0.434598  1
  Se  Se26  1  0.925518  0.318791  0.428500  1
  Se  Se27  1  0.425454  0.926107  0.320732  1
  Se  Se28  1  0.247258  0.565073  0.304359  1
  Se  Se29  1  0.561254  0.306738  0.256284  1
  Se  Se30  1  0.810008  0.000231  0.173651  1
  Se  Se31  1  0.181465  0.176915  0.176411  1
  Se  Se32  1  0.925727  0.494963  0.075649  1
  Se  Se33  1  0.575542  0.677105  0.075089  1
