# generated using pymatgen
data_Tb3YMn(Ga8Co)2
_symmetry_space_group_name_H-M   'P 1'
_cell_length_a   6.05672500
_cell_length_b   6.04549900
_cell_length_c   11.19011300
_cell_angle_alpha   90.00000000
_cell_angle_beta   90.00000000
_cell_angle_gamma   90.00000000
_symmetry_Int_Tables_number   1
_chemical_formula_structural   Tb3YMn(Ga8Co)2
_chemical_formula_sum   'Tb3 Y1 Mn1 Ga16 Co2'
_cell_volume   409.73633757
_cell_formula_units_Z   1
loop_
 _symmetry_equiv_pos_site_id
 _symmetry_equiv_pos_as_xyz
  1  'x, y, z'
loop_
 _atom_site_type_symbol
 _atom_site_label
 _atom_site_symmetry_multiplicity
 _atom_site_fract_x
 _atom_site_fract_y
 _atom_site_fract_z
 _atom_site_occupancy
  Tb  Tb0  1  0.000000  0.500000  0.806622  1
  Tb  Tb1  1  0.500000  0.000000  0.193456  1
  Tb  Tb2  1  0.000000  0.500000  0.193251  1
  Y  Y3  1  0.500000  0.000000  0.806686  1
  Mn  Mn4  1  0.000000  0.000000  0.999926  1
  Ga  Ga5  1  0.249453  0.249590  0.614697  1
  Ga  Ga6  1  0.750547  0.750410  0.614697  1
  Ga  Ga7  1  0.750547  0.249590  0.614697  1
  Ga  Ga8  1  0.249453  0.750410  0.614697  1
  Ga  Ga9  1  0.750551  0.750383  0.385409  1
  Ga  Ga10  1  0.249449  0.249617  0.385409  1
  Ga  Ga11  1  0.249449  0.750383  0.385409  1
  Ga  Ga12  1  0.750551  0.249617  0.385409  1
  Ga  Ga13  1  0.283101  0.283277  0.999907  1
  Ga  Ga14  1  0.716899  0.716723  0.999907  1
  Ga  Ga15  1  0.716899  0.283277  0.999907  1
  Ga  Ga16  1  0.283101  0.716723  0.999907  1
  Ga  Ga17  1  0.500000  0.500000  0.803951  1
  Ga  Ga18  1  0.500000  0.500000  0.196011  1
  Ga  Ga19  1  0.000000  0.000000  0.779770  1
  Ga  Ga20  1  0.000000  0.000000  0.220196  1
  Co  Co21  1  0.500000  0.000000  0.500100  1
  Co  Co22  1  0.000000  0.500000  0.499979  1
