# generated using pymatgen
data_Be3(TcB)2
_symmetry_space_group_name_H-M   'P 1'
_cell_length_a   5.64146409
_cell_length_b   5.64146394
_cell_length_c   5.75764135
_cell_angle_alpha   99.26947502
_cell_angle_beta   99.26946511
_cell_angle_gamma   43.77956667
_symmetry_Int_Tables_number   1
_chemical_formula_structural   Be3(TcB)2
_chemical_formula_sum   'Be6 Tc4 B4'
_cell_volume   124.85856248
_cell_formula_units_Z   2
loop_
 _symmetry_equiv_pos_site_id
 _symmetry_equiv_pos_as_xyz
  1  'x, y, z'
loop_
 _atom_site_type_symbol
 _atom_site_label
 _atom_site_symmetry_multiplicity
 _atom_site_fract_x
 _atom_site_fract_y
 _atom_site_fract_z
 _atom_site_occupancy
  Be  Be0  1  0.077958  0.348899  0.812359  1
  Be  Be1  1  0.651101  0.922042  0.687641  1
  Be  Be2  1  0.922042  0.651101  0.187641  1
  Be  Be3  1  0.348899  0.077958  0.312359  1
  Be  Be4  1  0.848816  0.151184  0.750000  1
  Be  Be5  1  0.151184  0.848816  0.250000  1
  Tc  Tc6  1  0.243570  0.537129  0.569075  1
  Tc  Tc7  1  0.462871  0.756430  0.930925  1
  Tc  Tc8  1  0.756430  0.462871  0.430925  1
  Tc  Tc9  1  0.537129  0.243570  0.069075  1
  B  B10  1  0.052489  0.747483  0.925682  1
  B  B11  1  0.252517  0.947511  0.574318  1
  B  B12  1  0.947511  0.252517  0.074318  1
  B  B13  1  0.747483  0.052489  0.425682  1
