# generated using pymatgen
data_Sm2Dy4Al24ZnOs7
_symmetry_space_group_name_H-M   'P 1'
_cell_length_a   8.89383916
_cell_length_b   8.88314399
_cell_length_c   9.55818640
_cell_angle_alpha   89.97589729
_cell_angle_beta   89.95050569
_cell_angle_gamma   120.02593877
_symmetry_Int_Tables_number   1
_chemical_formula_structural   Sm2Dy4Al24ZnOs7
_chemical_formula_sum   'Sm2 Dy4 Al24 Zn1 Os7'
_cell_volume   653.80487413
_cell_formula_units_Z   1
loop_
 _symmetry_equiv_pos_site_id
 _symmetry_equiv_pos_as_xyz
  1  'x, y, z'
loop_
 _atom_site_type_symbol
 _atom_site_label
 _atom_site_symmetry_multiplicity
 _atom_site_fract_x
 _atom_site_fract_y
 _atom_site_fract_z
 _atom_site_occupancy
  Sm  Sm0  1  0.191310  0.383209  0.246538  1
  Sm  Sm1  1  0.808690  0.616791  0.753462  1
  Dy  Dy2  1  0.614024  0.808228  0.247762  1
  Dy  Dy3  1  0.385976  0.191772  0.752238  1
  Dy  Dy4  1  0.194174  0.805176  0.254448  1
  Dy  Dy5  1  0.805826  0.194824  0.745552  1
  Al  Al6  1  0.329260  0.670895  0.019999  1
  Al  Al7  1  0.670740  0.329105  0.980001  1
  Al  Al8  1  0.666006  0.334012  0.516796  1
  Al  Al9  1  0.333994  0.665988  0.483204  1
  Al  Al10  1  0.162398  0.325948  0.573432  1
  Al  Al11  1  0.837602  0.674052  0.426568  1
  Al  Al12  1  0.673792  0.838026  0.572645  1
  Al  Al13  1  0.849428  0.677207  0.081677  1
  Al  Al14  1  0.326208  0.161974  0.427355  1
  Al  Al15  1  0.150572  0.322793  0.918323  1
  Al  Al16  1  0.163368  0.837587  0.574950  1
  Al  Al17  1  0.322786  0.149829  0.080392  1
  Al  Al18  1  0.836632  0.162413  0.425050  1
  Al  Al19  1  0.677214  0.850171  0.919608  1
  Al  Al20  1  0.835810  0.162585  0.074829  1
  Al  Al21  1  0.164190  0.837415  0.925171  1
  Al  Al22  1  0.561497  0.120562  0.249174  1
  Al  Al23  1  0.438503  0.879438  0.750826  1
  Al  Al24  1  0.878214  0.438328  0.249312  1
  Al  Al25  1  0.121786  0.561672  0.750688  1
  Al  Al26  1  0.565118  0.436408  0.255204  1
  Al  Al27  1  0.434882  0.563592  0.744796  1
  Al  Al28  1  0.997612  0.997874  0.250694  1
  Al  Al29  1  0.002388  0.002126  0.749306  1
  Zn  Zn30  1  0.500000  0.500000  0.000000  1
  Os  Os31  1  0.500000  0.000000  0.000000  1
  Os  Os32  1  0.000000  0.500000  0.000000  1
  Os  Os33  1  0.500000  0.000000  0.500000  1
  Os  Os34  1  0.000000  0.500000  0.500000  1
  Os  Os35  1  0.500000  0.500000  0.500000  1
  Os  Os36  1  0.000000  0.000000  0.000000  1
  Os  Os37  1  0.000000  0.000000  0.500000  1
