# generated using pymatgen
data_Hf7Zr11Ta4(Re2O3)2
_symmetry_space_group_name_H-M   'P 1'
_cell_length_a   8.63314937
_cell_length_b   8.71795962
_cell_length_c   8.51232034
_cell_angle_alpha   89.94078264
_cell_angle_beta   90.05085333
_cell_angle_gamma   119.74663910
_symmetry_Int_Tables_number   1
_chemical_formula_structural   Hf7Zr11Ta4(Re2O3)2
_chemical_formula_sum   'Hf7 Zr11 Ta4 Re4 O6'
_cell_volume   556.24425939
_cell_formula_units_Z   1
loop_
 _symmetry_equiv_pos_site_id
 _symmetry_equiv_pos_as_xyz
  1  'x, y, z'
loop_
 _atom_site_type_symbol
 _atom_site_label
 _atom_site_symmetry_multiplicity
 _atom_site_fract_x
 _atom_site_fract_y
 _atom_site_fract_z
 _atom_site_occupancy
  Hf  Hf0  1  0.453520  0.907849  0.249951  1
  Hf  Hf1  1  0.545671  0.091685  0.750081  1
  Hf  Hf2  1  0.094025  0.547916  0.249911  1
  Hf  Hf3  1  0.906839  0.453115  0.750195  1
  Hf  Hf4  1  0.454024  0.547356  0.250052  1
  Hf  Hf5  1  0.546262  0.452627  0.749959  1
  Hf  Hf6  1  0.204999  0.797193  0.938970  1
  Zr  Zr7  1  0.203460  0.406922  0.563467  1
  Zr  Zr8  1  0.796524  0.592717  0.436391  1
  Zr  Zr9  1  0.589610  0.795732  0.562261  1
  Zr  Zr10  1  0.796317  0.592715  0.063650  1
  Zr  Zr11  1  0.410488  0.204354  0.437501  1
  Zr  Zr12  1  0.204059  0.408068  0.936305  1
  Zr  Zr13  1  0.206342  0.795316  0.563483  1
  Zr  Zr14  1  0.410556  0.204456  0.062500  1
  Zr  Zr15  1  0.793863  0.204586  0.437596  1
  Zr  Zr16  1  0.588844  0.795181  0.937435  1
  Zr  Zr17  1  0.793610  0.204437  0.062572  1
  Ta  Ta18  1  0.110101  0.220298  0.249874  1
  Ta  Ta19  1  0.890440  0.779398  0.750317  1
  Ta  Ta20  1  0.000261  0.999901  0.999972  1
  Ta  Ta21  1  0.000088  0.999814  0.499895  1
  Re  Re22  1  0.774677  0.885533  0.249918  1
  Re  Re23  1  0.225555  0.113246  0.750510  1
  Re  Re24  1  0.111209  0.885236  0.248941  1
  Re  Re25  1  0.889452  0.114214  0.749933  1
  O  O26  1  0.496677  0.997378  0.999030  1
  O  O27  1  0.002360  0.502996  0.999295  1
  O  O28  1  0.500052  0.999968  0.499867  1
  O  O29  1  0.500052  0.499998  0.000050  1
  O  O30  1  0.000019  0.499906  0.500013  1
  O  O31  1  0.500046  0.499892  0.500105  1
