# generated using pymatgen
data_Yb4NbAlGaSbO12
_symmetry_space_group_name_H-M   'P 1'
_cell_length_a   5.37413418
_cell_length_b   5.49503742
_cell_length_c   7.65928000
_cell_angle_alpha   90.09231913
_cell_angle_beta   90.21877240
_cell_angle_gamma   90.01814455
_symmetry_Int_Tables_number   1
_chemical_formula_structural   Yb4NbAlGaSbO12
_chemical_formula_sum   'Yb4 Nb1 Al1 Ga1 Sb1 O12'
_cell_volume   226.18476729
_cell_formula_units_Z   1
loop_
 _symmetry_equiv_pos_site_id
 _symmetry_equiv_pos_as_xyz
  1  'x, y, z'
loop_
 _atom_site_type_symbol
 _atom_site_label
 _atom_site_symmetry_multiplicity
 _atom_site_fract_x
 _atom_site_fract_y
 _atom_site_fract_z
 _atom_site_occupancy
  Yb  Yb0  1  0.512072  0.551813  0.245402  1
  Yb  Yb1  1  0.985636  0.051495  0.247784  1
  Yb  Yb2  1  0.487928  0.448187  0.754598  1
  Yb  Yb3  1  0.014364  0.948505  0.752216  1
  Nb  Nb4  1  0.000000  0.500000  0.000000  1
  Al  Al5  1  0.500000  0.000000  0.000000  1
  Ga  Ga6  1  0.000000  0.500000  0.500000  1
  Sb  Sb7  1  0.500000  0.000000  0.500000  1
  O  O8  1  0.406857  0.973183  0.245887  1
  O  O9  1  0.086259  0.475432  0.252476  1
  O  O10  1  0.593143  0.026817  0.754113  1
  O  O11  1  0.913741  0.524568  0.747524  1
  O  O12  1  0.784556  0.795392  0.043093  1
  O  O13  1  0.698403  0.297656  0.448115  1
  O  O14  1  0.200175  0.201125  0.551708  1
  O  O15  1  0.297498  0.715207  0.958601  1
  O  O16  1  0.215444  0.204608  0.956907  1
  O  O17  1  0.301597  0.702344  0.551885  1
  O  O18  1  0.799825  0.798875  0.448292  1
  O  O19  1  0.702502  0.284793  0.041399  1
