# generated using pymatgen
data_CaTm7(B6Os)4
_symmetry_space_group_name_H-M   'P 1'
_cell_length_a   3.61739600
_cell_length_b   9.08484687
_cell_length_c   11.46720200
_cell_angle_alpha   89.91012352
_cell_angle_beta   90.00000000
_cell_angle_gamma   90.00000000
_symmetry_Int_Tables_number   1
_chemical_formula_structural   CaTm7(B6Os)4
_chemical_formula_sum   'Ca1 Tm7 B24 Os4'
_cell_volume   376.85180001
_cell_formula_units_Z   1
loop_
 _symmetry_equiv_pos_site_id
 _symmetry_equiv_pos_as_xyz
  1  'x, y, z'
loop_
 _atom_site_type_symbol
 _atom_site_label
 _atom_site_symmetry_multiplicity
 _atom_site_fract_x
 _atom_site_fract_y
 _atom_site_fract_z
 _atom_site_occupancy
  Ca  Ca0  1  0.000000  0.321992  0.413879  1
  Tm  Tm1  1  0.000000  0.676696  0.585072  1
  Tm  Tm2  1  0.000000  0.821819  0.086211  1
  Tm  Tm3  1  0.000000  0.178766  0.914635  1
  Tm  Tm4  1  0.000000  0.944091  0.371944  1
  Tm  Tm5  1  0.000000  0.057315  0.627519  1
  Tm  Tm6  1  0.000000  0.443391  0.128415  1
  Tm  Tm7  1  0.000000  0.556032  0.873109  1
  B  B8  1  0.500000  0.554700  0.433081  1
  B  B9  1  0.500000  0.446740  0.567772  1
  B  B10  1  0.500000  0.052954  0.065854  1
  B  B11  1  0.500000  0.945974  0.932940  1
  B  B12  1  0.500000  0.749280  0.419564  1
  B  B13  1  0.500000  0.251387  0.581700  1
  B  B14  1  0.500000  0.248073  0.079818  1
  B  B15  1  0.500000  0.751252  0.919915  1
  B  B16  1  0.500000  0.792154  0.265494  1
  B  B17  1  0.500000  0.208939  0.735048  1
  B  B18  1  0.500000  0.290324  0.232967  1
  B  B19  1  0.500000  0.708586  0.766108  1
  B  B20  1  0.500000  0.632116  0.185146  1
  B  B21  1  0.500000  0.368746  0.815853  1
  B  B22  1  0.500000  0.130227  0.313796  1
  B  B23  1  0.500000  0.868639  0.684776  1
  B  B24  1  0.500000  0.982032  0.211681  1
  B  B25  1  0.500000  0.017494  0.787247  1
  B  B26  1  0.500000  0.483670  0.286901  1
  B  B27  1  0.500000  0.517653  0.713346  1
  B  B28  1  0.500000  0.607015  0.029636  1
  B  B29  1  0.500000  0.393384  0.970942  1
  B  B30  1  0.500000  0.102231  0.471690  1
  B  B31  1  0.500000  0.895496  0.528864  1
  Os  Os32  1  0.000000  0.640285  0.320079  1
  Os  Os33  1  0.000000  0.362256  0.681104  1
  Os  Os34  1  0.000000  0.135960  0.176632  1
  Os  Os35  1  0.000000  0.862333  0.821261  1
