# generated using pymatgen
data_Er3Al3GePd2
_symmetry_space_group_name_H-M   'P 1'
_cell_length_a   7.02707000
_cell_length_b   7.02707025
_cell_length_c   4.14948100
_cell_angle_alpha   90.00000000
_cell_angle_beta   90.00000000
_cell_angle_gamma   119.99998941
_symmetry_Int_Tables_number   1
_chemical_formula_structural   Er3Al3GePd2
_chemical_formula_sum   'Er3 Al3 Ge1 Pd2'
_cell_volume   177.44878635
_cell_formula_units_Z   1
loop_
 _symmetry_equiv_pos_site_id
 _symmetry_equiv_pos_as_xyz
  1  'x, y, z'
loop_
 _atom_site_type_symbol
 _atom_site_label
 _atom_site_symmetry_multiplicity
 _atom_site_fract_x
 _atom_site_fract_y
 _atom_site_fract_z
 _atom_site_occupancy
  Er  Er0  1  0.420139  0.003757  0.500000  1
  Er  Er1  1  0.996243  0.416382  0.500000  1
  Er  Er2  1  0.583618  0.579861  0.500000  1
  Al  Al3  1  0.769484  0.014919  0.000000  1
  Al  Al4  1  0.985081  0.754565  0.000000  1
  Al  Al5  1  0.245435  0.230516  0.000000  1
  Ge  Ge6  1  0.333333  0.666667  0.000000  1
  Pd  Pd7  1  0.666667  0.333333  0.000000  1
  Pd  Pd8  1  0.000000  0.000000  0.500000  1
