# generated using pymatgen
data_Nd5Bi(MoO7)2
_symmetry_space_group_name_H-M   'P 1'
_cell_length_a   6.63196232
_cell_length_b   6.78069194
_cell_length_c   7.71341000
_cell_angle_alpha   90.00000000
_cell_angle_beta   90.00000000
_cell_angle_gamma   108.89546380
_symmetry_Int_Tables_number   1
_chemical_formula_structural   Nd5Bi(MoO7)2
_chemical_formula_sum   'Nd5 Bi1 Mo2 O14'
_cell_volume   328.17430412
_cell_formula_units_Z   1
loop_
 _symmetry_equiv_pos_site_id
 _symmetry_equiv_pos_as_xyz
  1  'x, y, z'
loop_
 _atom_site_type_symbol
 _atom_site_label
 _atom_site_symmetry_multiplicity
 _atom_site_fract_x
 _atom_site_fract_y
 _atom_site_fract_z
 _atom_site_occupancy
  Nd  Nd0  1  0.541012  0.531630  0.500940  1
  Nd  Nd1  1  0.541012  0.531630  0.999060  1
  Nd  Nd2  1  0.010638  0.464131  0.750000  1
  Nd  Nd3  1  0.535586  0.004723  0.750000  1
  Nd  Nd4  1  0.447045  0.000934  0.250000  1
  Bi  Bi5  1  0.011947  0.507185  0.250000  1
  Mo  Mo6  1  0.995194  0.996439  0.500069  1
  Mo  Mo7  1  0.995194  0.996439  0.999931  1
  O  O8  1  0.932612  0.068979  0.750000  1
  O  O9  1  0.058134  0.939512  0.250000  1
  O  O10  1  0.371584  0.635855  0.250000  1
  O  O11  1  0.638874  0.363017  0.750000  1
  O  O12  1  0.381875  0.636199  0.750000  1
  O  O13  1  0.624908  0.359620  0.250000  1
  O  O14  1  0.298824  0.058570  0.966877  1
  O  O15  1  0.680327  0.926259  0.469891  1
  O  O16  1  0.298824  0.058570  0.533123  1
  O  O17  1  0.680327  0.926259  0.030109  1
  O  O18  1  0.057017  0.309297  0.469529  1
  O  O19  1  0.921023  0.687726  0.962734  1
  O  O20  1  0.921023  0.687726  0.537266  1
  O  O21  1  0.057017  0.309297  0.030471  1
