# generated using pymatgen
data_Y2HoEr5(Si3Rh)4
_symmetry_space_group_name_H-M   'P 1'
_cell_length_a   8.16044700
_cell_length_b   8.16044818
_cell_length_c   7.85215100
_cell_angle_alpha   90.00000000
_cell_angle_beta   90.00000000
_cell_angle_gamma   120.01511849
_symmetry_Int_Tables_number   1
_chemical_formula_structural   Y2HoEr5(Si3Rh)4
_chemical_formula_sum   'Y2 Ho1 Er5 Si12 Rh4'
_cell_volume   452.77355345
_cell_formula_units_Z   1
loop_
 _symmetry_equiv_pos_site_id
 _symmetry_equiv_pos_as_xyz
  1  'x, y, z'
loop_
 _atom_site_type_symbol
 _atom_site_label
 _atom_site_symmetry_multiplicity
 _atom_site_fract_x
 _atom_site_fract_y
 _atom_site_fract_z
 _atom_site_occupancy
  Y  Y0  1  0.000092  0.999908  0.250000  1
  Y  Y1  1  0.999958  0.000042  0.750000  1
  Ho  Ho2  1  0.491503  0.508497  0.250000  1
  Er  Er3  1  0.491534  0.983287  0.250000  1
  Er  Er4  1  0.016713  0.508466  0.250000  1
  Er  Er5  1  0.508622  0.491378  0.750000  1
  Er  Er6  1  0.982694  0.491263  0.750000  1
  Er  Er7  1  0.508737  0.017306  0.750000  1
  Si  Si8  1  0.832921  0.167079  0.501117  1
  Si  Si9  1  0.832935  0.665748  0.501377  1
  Si  Si10  1  0.334252  0.167065  0.501377  1
  Si  Si11  1  0.832921  0.167079  0.998883  1
  Si  Si12  1  0.832935  0.665748  0.998623  1
  Si  Si13  1  0.334252  0.167065  0.998623  1
  Si  Si14  1  0.167231  0.832769  0.001199  1
  Si  Si15  1  0.665546  0.832877  0.000816  1
  Si  Si16  1  0.167123  0.334454  0.000816  1
  Si  Si17  1  0.167231  0.832769  0.498801  1
  Si  Si18  1  0.665546  0.832877  0.499184  1
  Si  Si19  1  0.167123  0.334454  0.499184  1
  Rh  Rh20  1  0.666892  0.333108  0.466375  1
  Rh  Rh21  1  0.666892  0.333108  0.033625  1
  Rh  Rh22  1  0.333172  0.666828  0.964686  1
  Rh  Rh23  1  0.333172  0.666828  0.535314  1
