# generated using pymatgen
data_TlI6
_symmetry_space_group_name_H-M   'P 1'
_cell_length_a   8.86957600
_cell_length_b   8.86957659
_cell_length_c   12.00335000
_cell_angle_alpha   93.35593587
_cell_angle_beta   93.35592962
_cell_angle_gamma   52.68694906
_symmetry_Int_Tables_number   1
_chemical_formula_structural   TlI6
_chemical_formula_sum   'Tl2 I12'
_cell_volume   749.42813621
_cell_formula_units_Z   2
loop_
 _symmetry_equiv_pos_site_id
 _symmetry_equiv_pos_as_xyz
  1  'x, y, z'
loop_
 _atom_site_type_symbol
 _atom_site_label
 _atom_site_symmetry_multiplicity
 _atom_site_fract_x
 _atom_site_fract_y
 _atom_site_fract_z
 _atom_site_occupancy
  Tl  Tl0  1  0.750602  0.249398  0.750000  1
  Tl  Tl1  1  0.249398  0.750602  0.250000  1
  I  I2  1  0.188642  0.161395  0.664055  1
  I  I3  1  0.838605  0.811358  0.835945  1
  I  I4  1  0.852926  0.824372  0.587051  1
  I  I5  1  0.175628  0.147074  0.912949  1
  I  I6  1  0.147074  0.175628  0.412949  1
  I  I7  1  0.824372  0.852926  0.087051  1
  I  I8  1  0.313498  0.588998  0.535338  1
  I  I9  1  0.411002  0.686502  0.964662  1
  I  I10  1  0.686502  0.411002  0.464662  1
  I  I11  1  0.588998  0.313498  0.035338  1
  I  I12  1  0.161395  0.188642  0.164055  1
  I  I13  1  0.811358  0.838605  0.335945  1
