# generated using pymatgen
data_SrFe4PbCl16
_symmetry_space_group_name_H-M   'P 1'
_cell_length_a   7.15873500
_cell_length_b   7.53065290
_cell_length_c   13.12707085
_cell_angle_alpha   85.61993059
_cell_angle_beta   90.00000000
_cell_angle_gamma   90.00000000
_symmetry_Int_Tables_number   1
_chemical_formula_structural   SrFe4PbCl16
_chemical_formula_sum   'Sr1 Fe4 Pb1 Cl16'
_cell_volume   705.61284963
_cell_formula_units_Z   1
loop_
 _symmetry_equiv_pos_site_id
 _symmetry_equiv_pos_as_xyz
  1  'x, y, z'
loop_
 _atom_site_type_symbol
 _atom_site_label
 _atom_site_symmetry_multiplicity
 _atom_site_fract_x
 _atom_site_fract_y
 _atom_site_fract_z
 _atom_site_occupancy
  Sr  Sr0  1  0.158325  0.500000  0.250000  1
  Fe  Fe1  1  0.262101  0.324928  0.919154  1
  Fe  Fe2  1  0.738178  0.675023  0.080706  1
  Fe  Fe3  1  0.262101  0.675072  0.580846  1
  Fe  Fe4  1  0.738178  0.324977  0.419294  1
  Pb  Pb5  1  0.843005  0.500000  0.750000  1
  Cl  Cl6  1  0.304551  0.267892  0.085800  1
  Cl  Cl7  1  0.175809  0.604226  0.881519  1
  Cl  Cl8  1  0.025118  0.171179  0.861269  1
  Cl  Cl9  1  0.823739  0.604256  0.381770  1
  Cl  Cl10  1  0.526481  0.738843  0.657691  1
  Cl  Cl11  1  0.473478  0.738596  0.157598  1
  Cl  Cl12  1  0.695376  0.267931  0.585878  1
  Cl  Cl13  1  0.304551  0.732108  0.414200  1
  Cl  Cl14  1  0.526481  0.261157  0.842309  1
  Cl  Cl15  1  0.473478  0.261404  0.342402  1
  Cl  Cl16  1  0.175809  0.395774  0.618481  1
  Cl  Cl17  1  0.823739  0.395744  0.118230  1
  Cl  Cl18  1  0.695376  0.732069  0.914122  1
  Cl  Cl19  1  0.974505  0.829305  0.138491  1
  Cl  Cl20  1  0.974505  0.170695  0.361509  1
  Cl  Cl21  1  0.025118  0.828821  0.638731  1
