# generated using pymatgen
data_CeZnTeO6
_symmetry_space_group_name_H-M   'P 1'
_cell_length_a   5.13245800
_cell_length_b   5.19397100
_cell_length_c   8.98988900
_cell_angle_alpha   90.00000000
_cell_angle_beta   90.00000000
_cell_angle_gamma   90.00000000
_symmetry_Int_Tables_number   1
_chemical_formula_structural   CeZnTeO6
_chemical_formula_sum   'Ce2 Zn2 Te2 O12'
_cell_volume   239.65100470
_cell_formula_units_Z   2
loop_
 _symmetry_equiv_pos_site_id
 _symmetry_equiv_pos_as_xyz
  1  'x, y, z'
loop_
 _atom_site_type_symbol
 _atom_site_label
 _atom_site_symmetry_multiplicity
 _atom_site_fract_x
 _atom_site_fract_y
 _atom_site_fract_z
 _atom_site_occupancy
  Ce  Ce0  1  0.000000  0.500000  0.874008  1
  Ce  Ce1  1  0.500000  0.000000  0.125992  1
  Zn  Zn2  1  0.500000  0.500000  0.519735  1
  Zn  Zn3  1  0.000000  0.000000  0.480265  1
  Te  Te4  1  0.000000  0.500000  0.260582  1
  Te  Te5  1  0.500000  0.000000  0.739418  1
  O  O6  1  0.213455  0.313825  0.401561  1
  O  O7  1  0.786545  0.686175  0.401561  1
  O  O8  1  0.734352  0.709113  0.734691  1
  O  O9  1  0.286545  0.813825  0.598439  1
  O  O10  1  0.801611  0.656951  0.093392  1
  O  O11  1  0.698389  0.156951  0.906608  1
  O  O12  1  0.265648  0.290887  0.734691  1
  O  O13  1  0.713455  0.186175  0.598439  1
  O  O14  1  0.234352  0.790887  0.265309  1
  O  O15  1  0.765648  0.209113  0.265309  1
  O  O16  1  0.301611  0.843049  0.906608  1
  O  O17  1  0.198389  0.343049  0.093392  1
