# generated using pymatgen
data_Pr5NdDy10Cd3HgPt4
_symmetry_space_group_name_H-M   'P 1'
_cell_length_a   9.81457524
_cell_length_b   9.81457483
_cell_length_c   9.79962700
_cell_angle_alpha   60.05036507
_cell_angle_beta   60.05036644
_cell_angle_gamma   60.11414127
_symmetry_Int_Tables_number   1
_chemical_formula_structural   Pr5NdDy10Cd3HgPt4
_chemical_formula_sum   'Pr5 Nd1 Dy10 Cd3 Hg1 Pt4'
_cell_volume   668.56178624
_cell_formula_units_Z   1
loop_
 _symmetry_equiv_pos_site_id
 _symmetry_equiv_pos_as_xyz
  1  'x, y, z'
loop_
 _atom_site_type_symbol
 _atom_site_label
 _atom_site_symmetry_multiplicity
 _atom_site_fract_x
 _atom_site_fract_y
 _atom_site_fract_z
 _atom_site_occupancy
  Pr  Pr0  1  0.938612  0.560946  0.561707  1
  Pr  Pr1  1  0.561463  0.938911  0.937341  1
  Pr  Pr2  1  0.560946  0.938612  0.561707  1
  Pr  Pr3  1  0.938911  0.561463  0.937341  1
  Pr  Pr4  1  0.559967  0.559967  0.939162  1
  Nd  Nd5  1  0.938347  0.938347  0.561481  1
  Dy  Dy6  1  0.350119  0.350119  0.349858  1
  Dy  Dy7  1  0.350785  0.350785  0.948474  1
  Dy  Dy8  1  0.351633  0.946475  0.351143  1
  Dy  Dy9  1  0.946475  0.351633  0.351143  1
  Dy  Dy10  1  0.812035  0.187884  0.189082  1
  Dy  Dy11  1  0.188036  0.811574  0.810564  1
  Dy  Dy12  1  0.187884  0.812035  0.189082  1
  Dy  Dy13  1  0.811574  0.188036  0.810564  1
  Dy  Dy14  1  0.188032  0.188032  0.812010  1
  Dy  Dy15  1  0.810791  0.810791  0.188931  1
  Cd  Cd16  1  0.579538  0.579538  0.260907  1
  Cd  Cd17  1  0.580309  0.261078  0.578995  1
  Cd  Cd18  1  0.261078  0.580309  0.578995  1
  Hg  Hg19  1  0.582606  0.582606  0.582333  1
  Pt  Pt20  1  0.143044  0.143044  0.143310  1
  Pt  Pt21  1  0.142809  0.142809  0.571063  1
  Pt  Pt22  1  0.142812  0.572191  0.142400  1
  Pt  Pt23  1  0.572191  0.142812  0.142400  1
