# generated using pymatgen
data_BPbClF4
_symmetry_space_group_name_H-M   'P 1'
_cell_length_a   4.59479300
_cell_length_b   5.20379300
_cell_length_c   9.13889800
_cell_angle_alpha   90.00000000
_cell_angle_beta   90.00000000
_cell_angle_gamma   90.00000000
_symmetry_Int_Tables_number   1
_chemical_formula_structural   BPbClF4
_chemical_formula_sum   'B2 Pb2 Cl2 F8'
_cell_volume   218.51426487
_cell_formula_units_Z   2
loop_
 _symmetry_equiv_pos_site_id
 _symmetry_equiv_pos_as_xyz
  1  'x, y, z'
loop_
 _atom_site_type_symbol
 _atom_site_label
 _atom_site_symmetry_multiplicity
 _atom_site_fract_x
 _atom_site_fract_y
 _atom_site_fract_z
 _atom_site_occupancy
  B  B0  1  0.887584  0.000000  0.132205  1
  B  B1  1  0.387584  0.500000  0.867795  1
  Pb  Pb2  1  0.469036  0.500000  0.306390  1
  Pb  Pb3  1  0.969036  0.000000  0.693610  1
  Cl  Cl4  1  0.478409  0.000000  0.480518  1
  Cl  Cl5  1  0.978409  0.500000  0.519482  1
  F  F6  1  0.581601  0.000000  0.141698  1
  F  F7  1  0.081601  0.500000  0.858302  1
  F  F8  1  0.990941  0.775659  0.207091  1
  F  F9  1  0.990941  0.224341  0.207091  1
  F  F10  1  0.490941  0.724341  0.792909  1
  F  F11  1  0.490941  0.275659  0.792909  1
  F  F12  1  0.984188  0.000000  0.987345  1
  F  F13  1  0.484188  0.500000  0.012655  1
