# generated using pymatgen
data_Pr6EuNiCl12
_symmetry_space_group_name_H-M   'P 1'
_cell_length_a   9.23591625
_cell_length_b   9.23906869
_cell_length_c   9.10289800
_cell_angle_alpha   106.80735505
_cell_angle_beta   106.50953745
_cell_angle_gamma   106.64464154
_symmetry_Int_Tables_number   1
_chemical_formula_structural   Pr6EuNiCl12
_chemical_formula_sum   'Pr6 Eu1 Ni1 Cl12'
_cell_volume   652.90337248
_cell_formula_units_Z   1
loop_
 _symmetry_equiv_pos_site_id
 _symmetry_equiv_pos_as_xyz
  1  'x, y, z'
loop_
 _atom_site_type_symbol
 _atom_site_label
 _atom_site_symmetry_multiplicity
 _atom_site_fract_x
 _atom_site_fract_y
 _atom_site_fract_z
 _atom_site_occupancy
  Pr  Pr0  1  0.110192  0.320112  0.021310  1
  Pr  Pr1  1  0.320076  0.020254  0.110775  1
  Pr  Pr2  1  0.021615  0.112151  0.322737  1
  Pr  Pr3  1  0.978386  0.887849  0.677264  1
  Pr  Pr4  1  0.679924  0.979747  0.889225  1
  Pr  Pr5  1  0.889808  0.679888  0.978690  1
  Eu  Eu6  1  0.500000  0.500000  0.500000  1
  Ni  Ni7  1  0.000000  0.000000  0.000000  1
  Cl  Cl8  1  0.214103  0.683394  0.073256  1
  Cl  Cl9  1  0.450403  0.366224  0.157059  1
  Cl  Cl10  1  0.684051  0.074251  0.218585  1
  Cl  Cl11  1  0.926968  0.785894  0.317648  1
  Cl  Cl12  1  0.162053  0.452919  0.372220  1
  Cl  Cl13  1  0.369202  0.163221  0.456002  1
  Cl  Cl14  1  0.630798  0.836779  0.543999  1
  Cl  Cl15  1  0.837948  0.547081  0.627780  1
  Cl  Cl16  1  0.073033  0.214106  0.682353  1
  Cl  Cl17  1  0.315950  0.925750  0.781415  1
  Cl  Cl18  1  0.549597  0.633776  0.842942  1
  Cl  Cl19  1  0.785897  0.316606  0.926744  1
