# generated using pymatgen
data_YbDyEr2(Al8Pt3)3
_symmetry_space_group_name_H-M   'P 1'
_cell_length_a   7.51999785
_cell_length_b   7.52126177
_cell_length_c   13.18010145
_cell_angle_alpha   84.57464518
_cell_angle_beta   100.90522384
_cell_angle_gamma   119.81366539
_symmetry_Int_Tables_number   1
_chemical_formula_structural   YbDyEr2(Al8Pt3)3
_chemical_formula_sum   'Yb1 Dy1 Er2 Al24 Pt9'
_cell_volume   635.11990093
_cell_formula_units_Z   1
loop_
 _symmetry_equiv_pos_site_id
 _symmetry_equiv_pos_as_xyz
  1  'x, y, z'
loop_
 _atom_site_type_symbol
 _atom_site_label
 _atom_site_symmetry_multiplicity
 _atom_site_fract_x
 _atom_site_fract_y
 _atom_site_fract_z
 _atom_site_occupancy
  Yb  Yb0  1  0.732804  0.998538  0.192210  1
  Dy  Dy1  1  0.268163  0.001368  0.807960  1
  Er  Er2  1  0.062492  0.668690  0.192393  1
  Er  Er3  1  0.936801  0.330661  0.807667  1
  Al  Al4  1  0.807577  0.869426  0.815371  1
  Al  Al5  1  0.194236  0.129931  0.184094  1
  Al  Al6  1  0.981895  0.666022  0.943525  1
  Al  Al7  1  0.017730  0.333941  0.055264  1
  Al  Al8  1  0.397582  0.664236  0.816430  1
  Al  Al9  1  0.603539  0.339060  0.183102  1
  Al  Al10  1  0.882410  0.665145  0.671390  1
  Al  Al11  1  0.116762  0.333987  0.329190  1
  Al  Al12  1  0.603165  0.458392  0.816093  1
  Al  Al13  1  0.394042  0.540541  0.183476  1
  Al  Al14  1  0.230003  0.339750  0.669702  1
  Al  Al15  1  0.770013  0.661031  0.330808  1
  Al  Al16  1  0.853433  0.333340  0.559328  1
  Al  Al17  1  0.185791  0.999392  0.559305  1
  Al  Al18  1  0.814106  0.000463  0.441077  1
  Al  Al19  1  0.352299  0.999148  0.055372  1
  Al  Al20  1  0.647745  0.000692  0.944531  1
  Al  Al21  1  0.556616  0.993463  0.671615  1
  Al  Al22  1  0.444676  0.006740  0.329128  1
  Al  Al23  1  0.521265  0.668004  0.561916  1
  Al  Al24  1  0.479204  0.332284  0.439021  1
  Al  Al25  1  0.683629  0.667901  0.046092  1
  Al  Al26  1  0.315723  0.331889  0.952636  1
  Al  Al27  1  0.146908  0.666290  0.441690  1
  Pt  Pt28  1  0.328102  0.671015  0.999226  1
  Pt  Pt29  1  0.546212  0.324859  0.637668  1
  Pt  Pt30  1  0.453378  0.674341  0.363007  1
  Pt  Pt31  1  0.888086  0.008366  0.638706  1
  Pt  Pt32  1  0.113272  0.992080  0.361867  1
  Pt  Pt33  1  0.670926  0.328562  0.999118  1
  Pt  Pt34  1  0.203820  0.666608  0.639020  1
  Pt  Pt35  1  0.795578  0.333609  0.361912  1
  Pt  Pt36  1  0.000015  0.000237  0.999090  1
