# generated using pymatgen
data_ZnIr2Rh2Pb3O14
_symmetry_space_group_name_H-M   'P 1'
_cell_length_a   7.32032836
_cell_length_b   7.21351863
_cell_length_c   7.32032994
_cell_angle_alpha   59.44656201
_cell_angle_beta   59.86821611
_cell_angle_gamma   59.44656531
_symmetry_Int_Tables_number   1
_chemical_formula_structural   ZnIr2Rh2Pb3O14
_chemical_formula_sum   'Zn1 Ir2 Rh2 Pb3 O14'
_cell_volume   270.75861870
_cell_formula_units_Z   1
loop_
 _symmetry_equiv_pos_site_id
 _symmetry_equiv_pos_as_xyz
  1  'x, y, z'
loop_
 _atom_site_type_symbol
 _atom_site_label
 _atom_site_symmetry_multiplicity
 _atom_site_fract_x
 _atom_site_fract_y
 _atom_site_fract_z
 _atom_site_occupancy
  Zn  Zn0  1  0.125000  0.625000  0.125000  1
  Ir  Ir1  1  0.125000  0.625000  0.625000  1
  Ir  Ir2  1  0.625000  0.625000  0.125000  1
  Rh  Rh3  1  0.625000  0.125000  0.625000  1
  Rh  Rh4  1  0.625000  0.625000  0.625000  1
  Pb  Pb5  1  0.625000  0.125000  0.125000  1
  Pb  Pb6  1  0.125000  0.125000  0.625000  1
  Pb  Pb7  1  0.125000  0.125000  0.125000  1
  O  O8  1  0.700717  0.704558  0.293555  1
  O  O9  1  0.291908  0.291951  0.710378  1
  O  O10  1  0.709655  0.289066  0.709655  1
  O  O11  1  0.306073  0.708609  0.306073  1
  O  O12  1  0.293555  0.704558  0.700717  1
  O  O13  1  0.710378  0.291951  0.291908  1
  O  O14  1  0.549283  0.545442  0.956445  1
  O  O15  1  0.958092  0.958049  0.539622  1
  O  O16  1  0.540345  0.960934  0.540345  1
  O  O17  1  0.943927  0.541391  0.943927  1
  O  O18  1  0.956445  0.545442  0.549283  1
  O  O19  1  0.539622  0.958049  0.958092  1
  O  O20  1  0.231727  0.299312  0.231727  1
  O  O21  1  0.018273  0.950688  0.018273  1
