# generated using pymatgen
data_Ce6Ti4Al4Si8Os7
_symmetry_space_group_name_H-M   'P 1'
_cell_length_a   8.84071969
_cell_length_b   8.84071943
_cell_length_c   8.84071900
_cell_angle_alpha   59.99811019
_cell_angle_beta   59.99810969
_cell_angle_gamma   59.99810948
_symmetry_Int_Tables_number   1
_chemical_formula_structural   Ce6Ti4Al4Si8Os7
_chemical_formula_sum   'Ce6 Ti4 Al4 Si8 Os7'
_cell_volume   488.57271009
_cell_formula_units_Z   1
loop_
 _symmetry_equiv_pos_site_id
 _symmetry_equiv_pos_as_xyz
  1  'x, y, z'
loop_
 _atom_site_type_symbol
 _atom_site_label
 _atom_site_symmetry_multiplicity
 _atom_site_fract_x
 _atom_site_fract_y
 _atom_site_fract_z
 _atom_site_occupancy
  Ce  Ce0  1  0.191602  0.808344  0.808344  1
  Ce  Ce1  1  0.808370  0.191580  0.191580  1
  Ce  Ce2  1  0.808344  0.191602  0.808344  1
  Ce  Ce3  1  0.808344  0.808344  0.191602  1
  Ce  Ce4  1  0.191580  0.808370  0.191580  1
  Ce  Ce5  1  0.191580  0.191580  0.808370  1
  Ti  Ti6  1  0.620395  0.620395  0.620395  1
  Ti  Ti7  1  0.620383  0.620383  0.138854  1
  Ti  Ti8  1  0.138854  0.620383  0.620383  1
  Ti  Ti9  1  0.620383  0.138854  0.620383  1
  Al  Al10  1  0.382307  0.382307  0.382307  1
  Al  Al11  1  0.382284  0.382284  0.853146  1
  Al  Al12  1  0.382284  0.853146  0.382284  1
  Al  Al13  1  0.853146  0.382284  0.382284  1
  Si  Si14  1  0.833933  0.833933  0.833933  1
  Si  Si15  1  0.833948  0.833948  0.498206  1
  Si  Si16  1  0.498206  0.833948  0.833948  1
  Si  Si17  1  0.833948  0.498206  0.833948  1
  Si  Si18  1  0.169953  0.169953  0.169953  1
  Si  Si19  1  0.169980  0.169980  0.490126  1
  Si  Si20  1  0.169980  0.490126  0.169980  1
  Si  Si21  1  0.490126  0.169980  0.169980  1
  Os  Os22  1  0.500009  0.500009  0.500009  1
  Os  Os23  1  0.999961  0.500061  0.500061  1
  Os  Os24  1  0.500051  0.999965  0.999965  1
  Os  Os25  1  0.500061  0.999961  0.500061  1
  Os  Os26  1  0.500061  0.500061  0.999961  1
  Os  Os27  1  0.999965  0.500051  0.999965  1
  Os  Os28  1  0.999965  0.999965  0.500051  1
