# generated using pymatgen
data_Eu4ErSb3O14
_symmetry_space_group_name_H-M   'P 1'
_cell_length_a   7.59623084
_cell_length_b   7.59623026
_cell_length_c   7.59623099
_cell_angle_alpha   60.29995316
_cell_angle_beta   60.29996227
_cell_angle_gamma   60.29996640
_symmetry_Int_Tables_number   1
_chemical_formula_structural   Eu4ErSb3O14
_chemical_formula_sum   'Eu4 Er1 Sb3 O14'
_cell_volume   312.04513558
_cell_formula_units_Z   1
loop_
 _symmetry_equiv_pos_site_id
 _symmetry_equiv_pos_as_xyz
  1  'x, y, z'
loop_
 _atom_site_type_symbol
 _atom_site_label
 _atom_site_symmetry_multiplicity
 _atom_site_fract_x
 _atom_site_fract_y
 _atom_site_fract_z
 _atom_site_occupancy
  Eu  Eu0  1  0.500000  0.000000  0.500000  1
  Eu  Eu1  1  0.000000  0.500000  0.500000  1
  Eu  Eu2  1  0.500000  0.500000  0.000000  1
  Eu  Eu3  1  0.500000  0.500000  0.500000  1
  Er  Er4  1  0.000000  0.000000  0.000000  1
  Sb  Sb5  1  0.000000  0.000000  0.500000  1
  Sb  Sb6  1  0.500000  0.000000  0.000000  1
  Sb  Sb7  1  0.000000  0.500000  0.000000  1
  O  O8  1  0.084911  0.084911  0.647159  1
  O  O9  1  0.915089  0.915089  0.352841  1
  O  O10  1  0.352841  0.915089  0.915089  1
  O  O11  1  0.647159  0.084911  0.084911  1
  O  O12  1  0.916386  0.318847  0.318847  1
  O  O13  1  0.083614  0.681153  0.681153  1
  O  O14  1  0.681153  0.681153  0.083614  1
  O  O15  1  0.318847  0.318847  0.916386  1
  O  O16  1  0.375979  0.375979  0.375979  1
  O  O17  1  0.624021  0.624021  0.624021  1
  O  O18  1  0.915089  0.352841  0.915089  1
  O  O19  1  0.084911  0.647159  0.084911  1
  O  O20  1  0.681153  0.083614  0.681153  1
  O  O21  1  0.318847  0.916386  0.318847  1
