# generated using pymatgen
data_Cs3LuPBr9
_symmetry_space_group_name_H-M   'P 1'
_cell_length_a   10.36329943
_cell_length_b   10.36330103
_cell_length_c   10.36330082
_cell_angle_alpha   81.66540461
_cell_angle_beta   81.66540096
_cell_angle_gamma   81.66538782
_symmetry_Int_Tables_number   1
_chemical_formula_structural   Cs3LuPBr9
_chemical_formula_sum   'Cs6 Lu2 P2 Br18'
_cell_volume   1080.84433901
_cell_formula_units_Z   2
loop_
 _symmetry_equiv_pos_site_id
 _symmetry_equiv_pos_as_xyz
  1  'x, y, z'
loop_
 _atom_site_type_symbol
 _atom_site_label
 _atom_site_symmetry_multiplicity
 _atom_site_fract_x
 _atom_site_fract_y
 _atom_site_fract_z
 _atom_site_occupancy
  Cs  Cs0  1  0.761628  0.408211  0.068874  1
  Cs  Cs1  1  0.068874  0.761628  0.408211  1
  Cs  Cs2  1  0.238372  0.591789  0.931126  1
  Cs  Cs3  1  0.408211  0.068874  0.761628  1
  Cs  Cs4  1  0.931126  0.238372  0.591789  1
  Cs  Cs5  1  0.591789  0.931126  0.238372  1
  Lu  Lu6  1  0.837517  0.837517  0.837517  1
  Lu  Lu7  1  0.162483  0.162483  0.162483  1
  P  P8  1  0.350684  0.350684  0.350684  1
  P  P9  1  0.649316  0.649316  0.649316  1
  Br  Br10  1  0.442900  0.743374  0.593394  1
  Br  Br11  1  0.256626  0.406606  0.557100  1
  Br  Br12  1  0.408671  0.250464  0.080426  1
  Br  Br13  1  0.080426  0.408671  0.250464  1
  Br  Br14  1  0.902203  0.738799  0.080894  1
  Br  Br15  1  0.919106  0.097797  0.261201  1
  Br  Br16  1  0.591329  0.749536  0.919574  1
  Br  Br17  1  0.749536  0.919574  0.591329  1
  Br  Br18  1  0.593394  0.442900  0.743374  1
  Br  Br19  1  0.250464  0.080426  0.408671  1
  Br  Br20  1  0.743374  0.593394  0.442900  1
  Br  Br21  1  0.738799  0.080894  0.902203  1
  Br  Br22  1  0.097797  0.261201  0.919106  1
  Br  Br23  1  0.406606  0.557100  0.256626  1
  Br  Br24  1  0.557100  0.256626  0.406606  1
  Br  Br25  1  0.919574  0.591329  0.749536  1
  Br  Br26  1  0.261201  0.919106  0.097797  1
  Br  Br27  1  0.080894  0.902203  0.738799  1
