# generated using pymatgen
data_FeNiSb4(Cl2O3)2
_symmetry_space_group_name_H-M   'P 1'
_cell_length_a   7.91192336
_cell_length_b   8.96834344
_cell_length_c   10.60482531
_cell_angle_alpha   66.29849421
_cell_angle_beta   82.13326666
_cell_angle_gamma   93.48187071
_symmetry_Int_Tables_number   1
_chemical_formula_structural   FeNiSb4(Cl2O3)2
_chemical_formula_sum   'Fe2 Ni2 Sb8 Cl8 O12'
_cell_volume   676.94970094
_cell_formula_units_Z   2
loop_
 _symmetry_equiv_pos_site_id
 _symmetry_equiv_pos_as_xyz
  1  'x, y, z'
loop_
 _atom_site_type_symbol
 _atom_site_label
 _atom_site_symmetry_multiplicity
 _atom_site_fract_x
 _atom_site_fract_y
 _atom_site_fract_z
 _atom_site_occupancy
  Fe  Fe0  1  0.519287  0.612851  0.093482  1
  Fe  Fe1  1  0.480995  0.887455  0.406098  1
  Ni  Ni2  1  0.521597  0.107844  0.590477  1
  Ni  Ni3  1  0.478150  0.391594  0.910324  1
  Sb  Sb4  1  0.694724  0.046820  0.925088  1
  Sb  Sb5  1  0.700904  0.535683  0.428779  1
  Sb  Sb6  1  0.299086  0.964219  0.071258  1
  Sb  Sb7  1  0.305276  0.453313  0.574833  1
  Sb  Sb8  1  0.710620  0.792523  0.735746  1
  Sb  Sb9  1  0.710402  0.290050  0.232930  1
  Sb  Sb10  1  0.289664  0.209932  0.267195  1
  Sb  Sb11  1  0.289273  0.707315  0.764214  1
  Cl  Cl12  1  0.778538  0.938655  0.282050  1
  Cl  Cl13  1  0.768585  0.438040  0.791130  1
  Cl  Cl14  1  0.231076  0.062015  0.708882  1
  Cl  Cl15  1  0.221671  0.561451  0.217776  1
  Cl  Cl16  1  0.841239  0.212178  0.468785  1
  Cl  Cl17  1  0.850229  0.728747  0.962044  1
  Cl  Cl18  1  0.149793  0.771327  0.537794  1
  Cl  Cl19  1  0.158798  0.287884  0.031200  1
  O  O20  1  0.483435  0.645026  0.437050  1
  O  O21  1  0.476622  0.156163  0.934513  1
  O  O22  1  0.523279  0.343771  0.565432  1
  O  O23  1  0.516685  0.855076  0.062887  1
  O  O24  1  0.352433  0.005258  0.236820  1
  O  O25  1  0.360771  0.505230  0.734328  1
  O  O26  1  0.639227  0.994701  0.765718  1
  O  O27  1  0.647703  0.494854  0.263077  1
  O  O28  1  0.500252  0.151552  0.381136  1
  O  O29  1  0.501492  0.646265  0.882982  1
  O  O30  1  0.498408  0.853751  0.617012  1
  O  O31  1  0.499782  0.348456  0.118958  1
