# generated using pymatgen
data_Y8Er2(AlSb)3
_symmetry_space_group_name_H-M   'P 1'
_cell_length_a   8.83947821
_cell_length_b   8.85427444
_cell_length_c   6.47940400
_cell_angle_alpha   89.99660921
_cell_angle_beta   90.01262656
_cell_angle_gamma   120.05735540
_symmetry_Int_Tables_number   1
_chemical_formula_structural   Y8Er2(AlSb)3
_chemical_formula_sum   'Y8 Er2 Al3 Sb3'
_cell_volume   438.92871910
_cell_formula_units_Z   1
loop_
 _symmetry_equiv_pos_site_id
 _symmetry_equiv_pos_as_xyz
  1  'x, y, z'
loop_
 _atom_site_type_symbol
 _atom_site_label
 _atom_site_symmetry_multiplicity
 _atom_site_fract_x
 _atom_site_fract_y
 _atom_site_fract_z
 _atom_site_occupancy
  Y  Y0  1  0.333133  0.677520  0.002485  1
  Y  Y1  1  0.666429  0.326820  0.497808  1
  Y  Y2  1  0.235288  0.990971  0.250173  1
  Y  Y3  1  0.758053  0.000703  0.750054  1
  Y  Y4  1  0.989475  0.235447  0.249855  1
  Y  Y5  1  0.761698  0.763058  0.250030  1
  Y  Y6  1  0.244932  0.234500  0.750177  1
  Y  Y7  1  0.011252  0.768142  0.749708  1
  Er  Er8  1  0.666498  0.325563  0.002470  1
  Er  Er9  1  0.333027  0.679090  0.497221  1
  Al  Al10  1  0.599479  0.999199  0.250059  1
  Al  Al11  1  0.404000  0.003429  0.750051  1
  Al  Al12  1  0.995051  0.599747  0.249885  1
  Sb  Sb13  1  0.389090  0.392674  0.250017  1
  Sb  Sb14  1  0.608297  0.606307  0.750078  1
  Sb  Sb15  1  0.004300  0.396828  0.749926  1
