# generated using pymatgen
data_Hf4Pa2Sn5
_symmetry_space_group_name_H-M   'P 1'
_cell_length_a   11.13834486
_cell_length_b   11.13558935
_cell_length_c   11.13558863
_cell_angle_alpha   149.32504421
_cell_angle_beta   132.26042489
_cell_angle_gamma   57.81792923
_symmetry_Int_Tables_number   1
_chemical_formula_structural   Hf4Pa2Sn5
_chemical_formula_sum   'Hf8 Pa4 Sn10'
_cell_volume   517.64242455
_cell_formula_units_Z   2
loop_
 _symmetry_equiv_pos_site_id
 _symmetry_equiv_pos_as_xyz
  1  'x, y, z'
loop_
 _atom_site_type_symbol
 _atom_site_label
 _atom_site_symmetry_multiplicity
 _atom_site_fract_x
 _atom_site_fract_y
 _atom_site_fract_z
 _atom_site_occupancy
  Hf  Hf0  1  0.308976  0.559076  0.250007  1
  Hf  Hf1  1  0.691024  0.440924  0.749993  1
  Hf  Hf2  1  0.691024  0.941031  0.250100  1
  Hf  Hf3  1  0.308976  0.058969  0.749900  1
  Hf  Hf4  1  0.677735  0.432321  0.245415  1
  Hf  Hf5  1  0.322265  0.567679  0.754585  1
  Hf  Hf6  1  0.186891  0.932310  0.254581  1
  Hf  Hf7  1  0.813109  0.067690  0.745419  1
  Pa  Pa8  1  0.243157  0.141546  0.101610  1
  Pa  Pa9  1  0.756843  0.858454  0.898390  1
  Pa  Pa10  1  0.039846  0.641553  0.398293  1
  Pa  Pa11  1  0.960154  0.358447  0.601707  1
  Sn  Sn12  1  0.575681  0.285226  0.290455  1
  Sn  Sn13  1  0.424319  0.714774  0.709545  1
  Sn  Sn14  1  0.994805  0.785211  0.209594  1
  Sn  Sn15  1  0.005195  0.214789  0.790406  1
  Sn  Sn16  1  0.000000  0.250056  0.250056  1
  Sn  Sn17  1  0.000000  0.749944  0.749944  1
  Sn  Sn18  1  0.470525  0.066172  0.404352  1
  Sn  Sn19  1  0.529475  0.933828  0.595648  1
  Sn  Sn20  1  0.661964  0.566205  0.095758  1
  Sn  Sn21  1  0.338036  0.433795  0.904242  1
