# generated using pymatgen
data_Pr15NdMgHg3Pt4
_symmetry_space_group_name_H-M   'P 1'
_cell_length_a   10.07845229
_cell_length_b   10.09722039
_cell_length_c   10.09771800
_cell_angle_alpha   59.99836321
_cell_angle_beta   59.93673888
_cell_angle_gamma   59.92988755
_symmetry_Int_Tables_number   1
_chemical_formula_structural   Pr15NdMgHg3Pt4
_chemical_formula_sum   'Pr15 Nd1 Mg1 Hg3 Pt4'
_cell_volume   725.87203170
_cell_formula_units_Z   1
loop_
 _symmetry_equiv_pos_site_id
 _symmetry_equiv_pos_as_xyz
  1  'x, y, z'
loop_
 _atom_site_type_symbol
 _atom_site_label
 _atom_site_symmetry_multiplicity
 _atom_site_fract_x
 _atom_site_fract_y
 _atom_site_fract_z
 _atom_site_occupancy
  Pr  Pr0  1  0.350622  0.349390  0.349118  1
  Pr  Pr1  1  0.350622  0.349390  0.950871  1
  Pr  Pr2  1  0.351601  0.948101  0.350150  1
  Pr  Pr3  1  0.940498  0.353857  0.352823  1
  Pr  Pr4  1  0.806721  0.193198  0.193853  1
  Pr  Pr5  1  0.188598  0.809873  0.808650  1
  Pr  Pr6  1  0.188598  0.809873  0.192879  1
  Pr  Pr7  1  0.806721  0.193198  0.806227  1
  Pr  Pr8  1  0.188505  0.192364  0.809565  1
  Pr  Pr9  1  0.805522  0.806668  0.193904  1
  Pr  Pr10  1  0.937385  0.564138  0.564791  1
  Pr  Pr11  1  0.561343  0.938348  0.934893  1
  Pr  Pr12  1  0.561343  0.938348  0.565416  1
  Pr  Pr13  1  0.937385  0.564138  0.933685  1
  Pr  Pr14  1  0.561104  0.563741  0.937577  1
  Nd  Nd15  1  0.935970  0.935733  0.564148  1
  Mg  Mg16  1  0.285066  0.571732  0.571601  1
  Hg  Hg17  1  0.581186  0.586773  0.587069  1
  Hg  Hg18  1  0.581186  0.586773  0.244972  1
  Hg  Hg19  1  0.581441  0.244558  0.587001  1
  Pt  Pt20  1  0.142338  0.143008  0.144978  1
  Pt  Pt21  1  0.142338  0.143008  0.569675  1
  Pt  Pt22  1  0.142029  0.571781  0.143095  1
  Pt  Pt23  1  0.571879  0.142006  0.143058  1
