# generated using pymatgen
data_Dy4Zn10SiSn
_symmetry_space_group_name_H-M   'P 1'
_cell_length_a   8.25386613
_cell_length_b   8.25386571
_cell_length_c   8.85643700
_cell_angle_alpha   90.00000000
_cell_angle_beta   90.00000000
_cell_angle_gamma   149.60906696
_symmetry_Int_Tables_number   1
_chemical_formula_structural   Dy4Zn10SiSn
_chemical_formula_sum   'Dy4 Zn10 Si1 Sn1'
_cell_volume   305.23630670
_cell_formula_units_Z   1
loop_
 _symmetry_equiv_pos_site_id
 _symmetry_equiv_pos_as_xyz
  1  'x, y, z'
loop_
 _atom_site_type_symbol
 _atom_site_label
 _atom_site_symmetry_multiplicity
 _atom_site_fract_x
 _atom_site_fract_y
 _atom_site_fract_z
 _atom_site_occupancy
  Dy  Dy0  1  0.198641  0.801359  0.250000  1
  Dy  Dy1  1  0.797853  0.202147  0.750000  1
  Dy  Dy2  1  0.000656  0.999344  0.481854  1
  Dy  Dy3  1  0.000656  0.999344  0.018146  1
  Zn  Zn4  1  0.812381  0.187619  0.390557  1
  Zn  Zn5  1  0.186567  0.813433  0.606044  1
  Zn  Zn6  1  0.812381  0.187619  0.109443  1
  Zn  Zn7  1  0.186567  0.813433  0.893956  1
  Zn  Zn8  1  0.648894  0.351106  0.472620  1
  Zn  Zn9  1  0.345126  0.654874  0.516904  1
  Zn  Zn10  1  0.648894  0.351106  0.027380  1
  Zn  Zn11  1  0.345126  0.654874  0.983096  1
  Zn  Zn12  1  0.402229  0.597771  0.250000  1
  Zn  Zn13  1  0.609895  0.390105  0.750000  1
  Si  Si14  1  0.555447  0.444553  0.250000  1
  Sn  Sn15  1  0.448686  0.551314  0.750000  1
