# generated using pymatgen
data_YbTm19Pt16
_symmetry_space_group_name_H-M   'P 1'
_cell_length_a   7.37137168
_cell_length_b   7.46383102
_cell_length_c   14.66173020
_cell_angle_alpha   90.00814210
_cell_angle_beta   89.87147149
_cell_angle_gamma   90.00529625
_symmetry_Int_Tables_number   1
_chemical_formula_structural   YbTm19Pt16
_chemical_formula_sum   'Yb1 Tm19 Pt16'
_cell_volume   806.66689267
_cell_formula_units_Z   1
loop_
 _symmetry_equiv_pos_site_id
 _symmetry_equiv_pos_as_xyz
  1  'x, y, z'
loop_
 _atom_site_type_symbol
 _atom_site_label
 _atom_site_symmetry_multiplicity
 _atom_site_fract_x
 _atom_site_fract_y
 _atom_site_fract_z
 _atom_site_occupancy
  Yb  Yb0  1  0.983117  0.823468  0.593799  1
  Tm  Tm1  1  0.638015  0.166472  0.622239  1
  Tm  Tm2  1  0.136782  0.331684  0.878650  1
  Tm  Tm3  1  0.363622  0.831632  0.121804  1
  Tm  Tm4  1  0.862415  0.668640  0.379385  1
  Tm  Tm5  1  0.362596  0.830857  0.378206  1
  Tm  Tm6  1  0.863477  0.668522  0.121841  1
  Tm  Tm7  1  0.635752  0.169136  0.878808  1
  Tm  Tm8  1  0.136861  0.332287  0.621657  1
  Tm  Tm9  1  0.482922  0.675213  0.594492  1
  Tm  Tm10  1  0.982215  0.824246  0.904933  1
  Tm  Tm11  1  0.517100  0.323889  0.094804  1
  Tm  Tm12  1  0.016504  0.177787  0.404628  1
  Tm  Tm13  1  0.515520  0.323164  0.406592  1
  Tm  Tm14  1  0.017086  0.176311  0.094878  1
  Tm  Tm15  1  0.481630  0.675684  0.904531  1
  Tm  Tm16  1  0.800484  0.510327  0.749824  1
  Tm  Tm17  1  0.298482  0.989724  0.749089  1
  Tm  Tm18  1  0.199854  0.490607  0.249826  1
  Tm  Tm19  1  0.700411  0.009909  0.250012  1
  Pt  Pt20  1  0.691451  0.975027  0.454497  1
  Pt  Pt21  1  0.196410  0.527902  0.042198  1
  Pt  Pt22  1  0.302952  0.027612  0.958254  1
  Pt  Pt23  1  0.799398  0.464872  0.540565  1
  Pt  Pt24  1  0.312372  0.036046  0.540271  1
  Pt  Pt25  1  0.803163  0.472763  0.958078  1
  Pt  Pt26  1  0.697096  0.971925  0.041575  1
  Pt  Pt27  1  0.198080  0.525497  0.457347  1
  Pt  Pt28  1  0.433876  0.384468  0.749523  1
  Pt  Pt29  1  0.931572  0.115994  0.751959  1
  Pt  Pt30  1  0.568254  0.613399  0.250161  1
  Pt  Pt31  1  0.067870  0.886445  0.250519  1
  Pt  Pt32  1  0.658585  0.856905  0.751388  1
  Pt  Pt33  1  0.163608  0.640890  0.753297  1
  Pt  Pt34  1  0.340052  0.144005  0.250128  1
  Pt  Pt35  1  0.840418  0.356690  0.250242  1
