# generated using pymatgen
data_V4WS10
_symmetry_space_group_name_H-M   'P 1'
_cell_length_a   13.53024037
_cell_length_b   13.53024059
_cell_length_c   6.51554636
_cell_angle_alpha   78.48044398
_cell_angle_beta   78.48044375
_cell_angle_gamma   13.55864859
_symmetry_Int_Tables_number   1
_chemical_formula_structural   V4WS10
_chemical_formula_sum   'V4 W1 S10'
_cell_volume   273.92373120
_cell_formula_units_Z   1
loop_
 _symmetry_equiv_pos_site_id
 _symmetry_equiv_pos_as_xyz
  1  'x, y, z'
loop_
 _atom_site_type_symbol
 _atom_site_label
 _atom_site_symmetry_multiplicity
 _atom_site_fract_x
 _atom_site_fract_y
 _atom_site_fract_z
 _atom_site_occupancy
  V  V0  1  0.368190  0.368190  0.763216  1
  V  V1  1  0.767050  0.767050  0.966080  1
  V  V2  1  0.166482  0.166482  0.167615  1
  V  V3  1  0.565888  0.565888  0.368634  1
  W  W4  1  0.966908  0.966908  0.565545  1
  S  S5  1  0.516961  0.516961  0.712510  1
  S  S6  1  0.715711  0.715711  0.305016  1
  S  S7  1  0.115401  0.115401  0.503845  1
  S  S8  1  0.914461  0.914461  0.912350  1
  S  S9  1  0.315790  0.315790  0.103525  1
  S  S10  1  0.882514  0.882514  0.493131  1
  S  S11  1  0.284616  0.284616  0.695413  1
  S  S12  1  0.684379  0.684379  0.894788  1
  S  S13  1  0.084461  0.084461  0.096976  1
  S  S14  1  0.484490  0.484490  0.284256  1
