# generated using pymatgen
data_LiPa4NO9
_symmetry_space_group_name_H-M   'P 1'
_cell_length_a   6.48821820
_cell_length_b   6.48802314
_cell_length_c   6.48767400
_cell_angle_alpha   99.59674447
_cell_angle_beta   99.59975803
_cell_angle_gamma   131.80060449
_symmetry_Int_Tables_number   1
_chemical_formula_structural   LiPa4NO9
_chemical_formula_sum   'Li1 Pa4 N1 O9'
_cell_volume   185.84237383
_cell_formula_units_Z   1
loop_
 _symmetry_equiv_pos_site_id
 _symmetry_equiv_pos_as_xyz
  1  'x, y, z'
loop_
 _atom_site_type_symbol
 _atom_site_label
 _atom_site_symmetry_multiplicity
 _atom_site_fract_x
 _atom_site_fract_y
 _atom_site_fract_z
 _atom_site_occupancy
  Li  Li0  1  0.000001  0.000009  0.000002  1
  Pa  Pa1  1  0.403931  0.207809  0.600687  1
  Pa  Pa2  1  0.792200  0.392886  0.196110  1
  Pa  Pa3  1  0.196743  0.596070  0.803875  1
  Pa  Pa4  1  0.607118  0.803237  0.399328  1
  N  N5  1  0.750000  0.249996  0.499997  1
  O  O6  1  0.153429  0.463488  0.106039  1
  O  O7  1  0.536473  0.642520  0.689925  1
  O  O8  1  0.952604  0.846578  0.310055  1
  O  O9  1  0.357438  0.047392  0.893967  1
  O  O10  1  0.844244  0.539522  0.899595  1
  O  O11  1  0.250011  0.750002  0.500004  1
  O  O12  1  0.639942  0.944638  0.100405  1
  O  O13  1  0.055351  0.155759  0.695288  1
  O  O14  1  0.460515  0.360095  0.304724  1
