# generated using pymatgen
data_ErTm7In3Ni
_symmetry_space_group_name_H-M   'P 1'
_cell_length_a   10.31662700
_cell_length_b   10.31662720
_cell_length_c   6.84372400
_cell_angle_alpha   90.00000000
_cell_angle_beta   90.00000000
_cell_angle_gamma   120.00000258
_symmetry_Int_Tables_number   1
_chemical_formula_structural   ErTm7In3Ni
_chemical_formula_sum   'Er2 Tm14 In6 Ni2'
_cell_volume   630.81000495
_cell_formula_units_Z   2
loop_
 _symmetry_equiv_pos_site_id
 _symmetry_equiv_pos_as_xyz
  1  'x, y, z'
loop_
 _atom_site_type_symbol
 _atom_site_label
 _atom_site_symmetry_multiplicity
 _atom_site_fract_x
 _atom_site_fract_y
 _atom_site_fract_z
 _atom_site_occupancy
  Er  Er0  1  0.000000  0.000000  0.506618  1
  Er  Er1  1  0.000000  0.000000  0.006618  1
  Tm  Tm2  1  0.532724  0.065449  0.524881  1
  Tm  Tm3  1  0.934551  0.467276  0.524881  1
  Tm  Tm4  1  0.532724  0.467276  0.524881  1
  Tm  Tm5  1  0.467276  0.934551  0.024881  1
  Tm  Tm6  1  0.065449  0.532724  0.024881  1
  Tm  Tm7  1  0.467276  0.532724  0.024881  1
  Tm  Tm8  1  0.177805  0.355611  0.730406  1
  Tm  Tm9  1  0.644389  0.822195  0.730406  1
  Tm  Tm10  1  0.177805  0.822195  0.730406  1
  Tm  Tm11  1  0.822195  0.644389  0.230406  1
  Tm  Tm12  1  0.355611  0.177805  0.230406  1
  Tm  Tm13  1  0.822195  0.177805  0.230406  1
  Tm  Tm14  1  0.666667  0.333333  0.909445  1
  Tm  Tm15  1  0.333333  0.666667  0.409445  1
  In  In16  1  0.837523  0.675045  0.766349  1
  In  In17  1  0.324955  0.162477  0.766349  1
  In  In18  1  0.837523  0.162477  0.766349  1
  In  In19  1  0.162477  0.324955  0.266349  1
  In  In20  1  0.675045  0.837523  0.266349  1
  In  In21  1  0.162477  0.837523  0.266349  1
  Ni  Ni22  1  0.666667  0.333333  0.296871  1
  Ni  Ni23  1  0.333333  0.666667  0.796871  1
