# generated using pymatgen
data_Cs4As2PdS8
_symmetry_space_group_name_H-M   'P 1'
_cell_length_a   13.52738300
_cell_length_b   7.55252853
_cell_length_c   10.01402817
_cell_angle_alpha   86.09705298
_cell_angle_beta   90.00000000
_cell_angle_gamma   90.00000000
_symmetry_Int_Tables_number   1
_chemical_formula_structural   Cs4As2PdS8
_chemical_formula_sum   'Cs8 As4 Pd2 S16'
_cell_volume   1020.71988493
_cell_formula_units_Z   2
loop_
 _symmetry_equiv_pos_site_id
 _symmetry_equiv_pos_as_xyz
  1  'x, y, z'
loop_
 _atom_site_type_symbol
 _atom_site_label
 _atom_site_symmetry_multiplicity
 _atom_site_fract_x
 _atom_site_fract_y
 _atom_site_fract_z
 _atom_site_occupancy
  Cs  Cs0  1  0.131070  0.823897  0.676401  1
  Cs  Cs1  1  0.631070  0.176103  0.823599  1
  Cs  Cs2  1  0.868930  0.176103  0.323599  1
  Cs  Cs3  1  0.368930  0.823897  0.176401  1
  Cs  Cs4  1  0.345830  0.275717  0.535738  1
  Cs  Cs5  1  0.845830  0.724283  0.964262  1
  Cs  Cs6  1  0.654170  0.724283  0.464262  1
  Cs  Cs7  1  0.154170  0.275717  0.035738  1
  As  As8  1  0.420053  0.762344  0.757574  1
  As  As9  1  0.920053  0.237656  0.742426  1
  As  As10  1  0.579947  0.237656  0.242426  1
  As  As11  1  0.079947  0.762344  0.257574  1
  Pd  Pd12  1  0.000000  0.500000  0.500000  1
  Pd  Pd13  1  0.500000  0.500000  0.000000  1
  S  S14  1  0.073617  0.314556  0.672953  1
  S  S15  1  0.573617  0.685444  0.827047  1
  S  S16  1  0.926383  0.685444  0.327047  1
  S  S17  1  0.426383  0.314556  0.172953  1
  S  S18  1  0.393929  0.763237  0.545745  1
  S  S19  1  0.893929  0.236763  0.954255  1
  S  S20  1  0.606071  0.236763  0.454255  1
  S  S21  1  0.106071  0.763237  0.045745  1
  S  S22  1  0.144827  0.522769  0.369406  1
  S  S23  1  0.644827  0.477231  0.130594  1
  S  S24  1  0.855173  0.477231  0.630594  1
  S  S25  1  0.355173  0.522769  0.869406  1
  S  S26  1  0.373558  0.007365  0.836136  1
  S  S27  1  0.873558  0.992635  0.663864  1
  S  S28  1  0.626442  0.992635  0.163864  1
  S  S29  1  0.126442  0.007365  0.336136  1
