# generated using pymatgen
data_Tb2TmTh(Ga3Rh)6
_symmetry_space_group_name_H-M   'P 1'
_cell_length_a   7.59168745
_cell_length_b   7.60615002
_cell_length_c   9.51377900
_cell_angle_alpha   90.00000000
_cell_angle_beta   90.00000000
_cell_angle_gamma   119.60171607
_symmetry_Int_Tables_number   1
_chemical_formula_structural   Tb2TmTh(Ga3Rh)6
_chemical_formula_sum   'Tb2 Tm1 Th1 Ga18 Rh6'
_cell_volume   477.65676155
_cell_formula_units_Z   1
loop_
 _symmetry_equiv_pos_site_id
 _symmetry_equiv_pos_as_xyz
  1  'x, y, z'
loop_
 _atom_site_type_symbol
 _atom_site_label
 _atom_site_symmetry_multiplicity
 _atom_site_fract_x
 _atom_site_fract_y
 _atom_site_fract_z
 _atom_site_occupancy
  Tb  Tb0  1  0.002564  0.331036  0.750000  1
  Tb  Tb1  1  0.669670  0.996969  0.250000  1
  Tm  Tm2  1  0.330390  0.002299  0.750000  1
  Th  Th3  1  0.997072  0.668734  0.250000  1
  Ga  Ga4  1  0.128497  0.130344  0.250000  1
  Ga  Ga5  1  0.875055  0.876459  0.750000  1
  Ga  Ga6  1  0.000543  0.329077  0.076792  1
  Ga  Ga7  1  0.000493  0.666376  0.913533  1
  Ga  Ga8  1  0.000493  0.666376  0.586467  1
  Ga  Ga9  1  0.340044  0.005352  0.423943  1
  Ga  Ga10  1  0.000543  0.329077  0.423208  1
  Ga  Ga11  1  0.664127  0.000453  0.581282  1
  Ga  Ga12  1  0.664127  0.000453  0.918718  1
  Ga  Ga13  1  0.340044  0.005352  0.076057  1
  Ga  Ga14  1  0.332259  0.331053  0.567188  1
  Ga  Ga15  1  0.662472  0.667456  0.440184  1
  Ga  Ga16  1  0.662472  0.667456  0.059816  1
  Ga  Ga17  1  0.332259  0.331053  0.932812  1
  Ga  Ga18  1  0.341755  0.546694  0.250000  1
  Ga  Ga19  1  0.659359  0.450271  0.750000  1
  Ga  Ga20  1  0.542487  0.335381  0.250000  1
  Ga  Ga21  1  0.452130  0.662612  0.750000  1
  Rh  Rh22  1  0.673702  0.331336  0.000317  1
  Rh  Rh23  1  0.325927  0.670659  0.000195  1
  Rh  Rh24  1  0.325927  0.670659  0.499805  1
  Rh  Rh25  1  0.673702  0.331336  0.499683  1
  Rh  Rh26  1  0.000945  0.997837  0.000284  1
  Rh  Rh27  1  0.000945  0.997837  0.499716  1
