# generated using pymatgen
data_Er2Zr2(Al8Pt3)3
_symmetry_space_group_name_H-M   'P 1'
_cell_length_a   7.49718133
_cell_length_b   7.50039498
_cell_length_c   13.05085148
_cell_angle_alpha   84.45352315
_cell_angle_beta   101.00954940
_cell_angle_gamma   119.90600413
_symmetry_Int_Tables_number   1
_chemical_formula_structural   Er2Zr2(Al8Pt3)3
_chemical_formula_sum   'Er2 Zr2 Al24 Pt9'
_cell_volume   624.44483520
_cell_formula_units_Z   1
loop_
 _symmetry_equiv_pos_site_id
 _symmetry_equiv_pos_as_xyz
  1  'x, y, z'
loop_
 _atom_site_type_symbol
 _atom_site_label
 _atom_site_symmetry_multiplicity
 _atom_site_fract_x
 _atom_site_fract_y
 _atom_site_fract_z
 _atom_site_occupancy
  Er  Er0  1  0.062107  0.667958  0.192278  1
  Er  Er1  1  0.937893  0.332042  0.807722  1
  Zr  Zr2  1  0.731870  0.999767  0.190368  1
  Zr  Zr3  1  0.268130  0.000233  0.809632  1
  Al  Al4  1  0.811768  0.869245  0.815240  1
  Al  Al5  1  0.188232  0.130755  0.184760  1
  Al  Al6  1  0.984066  0.668774  0.942387  1
  Al  Al7  1  0.015934  0.331226  0.057613  1
  Al  Al8  1  0.398672  0.668902  0.816431  1
  Al  Al9  1  0.601328  0.331098  0.183569  1
  Al  Al10  1  0.885010  0.667124  0.672846  1
  Al  Al11  1  0.114990  0.332876  0.327154  1
  Al  Al12  1  0.597862  0.453005  0.815729  1
  Al  Al13  1  0.402138  0.546995  0.184271  1
  Al  Al14  1  0.230237  0.337749  0.671390  1
  Al  Al15  1  0.769763  0.662251  0.328610  1
  Al  Al16  1  0.852711  0.333071  0.559580  1
  Al  Al17  1  0.186911  0.999656  0.560867  1
  Al  Al18  1  0.813089  0.000344  0.439133  1
  Al  Al19  1  0.354434  0.998380  0.056585  1
  Al  Al20  1  0.645566  0.001620  0.943415  1
  Al  Al21  1  0.554596  0.993444  0.673000  1
  Al  Al22  1  0.445404  0.006556  0.327000  1
  Al  Al23  1  0.521327  0.667304  0.562996  1
  Al  Al24  1  0.478673  0.332696  0.437004  1
  Al  Al25  1  0.684141  0.670199  0.048881  1
  Al  Al26  1  0.315859  0.329801  0.951119  1
  Al  Al27  1  0.147289  0.666929  0.440420  1
  Pt  Pt28  1  0.326885  0.670488  0.000131  1
  Pt  Pt29  1  0.545914  0.323914  0.637617  1
  Pt  Pt30  1  0.454086  0.676086  0.362383  1
  Pt  Pt31  1  0.888339  0.009351  0.638787  1
  Pt  Pt32  1  0.111661  0.990649  0.361213  1
  Pt  Pt33  1  0.673115  0.329512  0.999869  1
  Pt  Pt34  1  0.202706  0.665855  0.639310  1
  Pt  Pt35  1  0.797294  0.334145  0.360690  1
  Pt  Pt36  1  0.000000  0.000000  0.000000  1
