# generated using pymatgen
data_Zr10Al2InCu2Te3
_symmetry_space_group_name_H-M   'P 1'
_cell_length_a   8.59827900
_cell_length_b   8.58390406
_cell_length_c   5.83413300
_cell_angle_alpha   90.00000000
_cell_angle_beta   90.00000000
_cell_angle_gamma   119.94470492
_symmetry_Int_Tables_number   1
_chemical_formula_structural   Zr10Al2InCu2Te3
_chemical_formula_sum   'Zr10 Al2 In1 Cu2 Te3'
_cell_volume   373.11702036
_cell_formula_units_Z   1
loop_
 _symmetry_equiv_pos_site_id
 _symmetry_equiv_pos_as_xyz
  1  'x, y, z'
loop_
 _atom_site_type_symbol
 _atom_site_label
 _atom_site_symmetry_multiplicity
 _atom_site_fract_x
 _atom_site_fract_y
 _atom_site_fract_z
 _atom_site_occupancy
  Zr  Zr0  1  0.741739  0.743050  0.250000  1
  Zr  Zr1  1  0.258261  0.001311  0.250000  1
  Zr  Zr2  1  0.000000  0.256693  0.250000  1
  Zr  Zr3  1  0.284375  0.273868  0.750000  1
  Zr  Zr4  1  0.715625  0.989492  0.750000  1
  Zr  Zr5  1  0.000000  0.726569  0.750000  1
  Zr  Zr6  1  0.662205  0.333366  0.507654  1
  Zr  Zr7  1  0.337795  0.671162  0.507654  1
  Zr  Zr8  1  0.337795  0.671162  0.992346  1
  Zr  Zr9  1  0.662205  0.333366  0.992346  1
  Al  Al10  1  0.624091  0.621777  0.750000  1
  Al  Al11  1  0.375909  0.997686  0.750000  1
  In  In12  1  0.000000  0.372402  0.750000  1
  Cu  Cu13  1  0.000000  0.001513  0.528915  1
  Cu  Cu14  1  0.000000  0.001513  0.971085  1
  Te  Te15  1  0.390097  0.392605  0.250000  1
  Te  Te16  1  0.609903  0.002508  0.250000  1
  Te  Te17  1  0.000000  0.609955  0.250000  1
