# generated using pymatgen
data_Er2U2Ga12Tc
_symmetry_space_group_name_H-M   'P 1'
_cell_length_a   7.43060190
_cell_length_b   7.47252900
_cell_length_c   7.43039735
_cell_angle_alpha   109.35727853
_cell_angle_beta   109.47023668
_cell_angle_gamma   109.35836842
_symmetry_Int_Tables_number   1
_chemical_formula_structural   Er2U2Ga12Tc
_chemical_formula_sum   'Er2 U2 Ga12 Tc1'
_cell_volume   318.49028873
_cell_formula_units_Z   1
loop_
 _symmetry_equiv_pos_site_id
 _symmetry_equiv_pos_as_xyz
  1  'x, y, z'
loop_
 _atom_site_type_symbol
 _atom_site_label
 _atom_site_symmetry_multiplicity
 _atom_site_fract_x
 _atom_site_fract_y
 _atom_site_fract_z
 _atom_site_occupancy
  Er  Er0  1  0.500000  0.500000  0.500000  1
  Er  Er1  1  0.000000  0.500000  0.000000  1
  U  U2  1  0.000000  0.000000  0.500000  1
  U  U3  1  0.500000  0.000000  0.000000  1
  Ga  Ga4  1  0.749879  0.249724  0.499713  1
  Ga  Ga5  1  0.001775  0.710368  0.708742  1
  Ga  Ga6  1  0.292453  0.999986  0.292315  1
  Ga  Ga7  1  0.499858  0.249714  0.749987  1
  Ga  Ga8  1  0.749955  0.499887  0.249954  1
  Ga  Ga9  1  0.250121  0.750276  0.500287  1
  Ga  Ga10  1  0.250045  0.500113  0.750046  1
  Ga  Ga11  1  0.707547  0.000014  0.707685  1
  Ga  Ga12  1  0.500142  0.750286  0.250013  1
  Ga  Ga13  1  0.708613  0.710370  0.001636  1
  Ga  Ga14  1  0.291387  0.289630  0.998364  1
  Ga  Ga15  1  0.998225  0.289632  0.291258  1
  Tc  Tc16  1  0.000000  0.000000  0.000000  1
