# generated using pymatgen
data_Ca2Ta3Hg2SbO14
_symmetry_space_group_name_H-M   'P 1'
_cell_length_a   7.62274836
_cell_length_b   7.48606362
_cell_length_c   7.44766681
_cell_angle_alpha   58.83121155
_cell_angle_beta   59.21925887
_cell_angle_gamma   59.39414872
_symmetry_Int_Tables_number   1
_chemical_formula_structural   Ca2Ta3Hg2SbO14
_chemical_formula_sum   'Ca2 Ta3 Hg2 Sb1 O14'
_cell_volume   294.66870407
_cell_formula_units_Z   1
loop_
 _symmetry_equiv_pos_site_id
 _symmetry_equiv_pos_as_xyz
  1  'x, y, z'
loop_
 _atom_site_type_symbol
 _atom_site_label
 _atom_site_symmetry_multiplicity
 _atom_site_fract_x
 _atom_site_fract_y
 _atom_site_fract_z
 _atom_site_occupancy
  Ca  Ca0  1  0.625000  0.625000  0.625000  1
  Ca  Ca1  1  0.125000  0.625000  0.625000  1
  Ta  Ta2  1  0.125000  0.625000  0.125000  1
  Ta  Ta3  1  0.125000  0.125000  0.125000  1
  Ta  Ta4  1  0.625000  0.125000  0.125000  1
  Hg  Hg5  1  0.625000  0.125000  0.625000  1
  Hg  Hg6  1  0.625000  0.625000  0.125000  1
  Sb  Sb7  1  0.125000  0.125000  0.625000  1
  O  O8  1  0.813204  0.808852  0.197619  1
  O  O9  1  0.809030  0.201906  0.803742  1
  O  O10  1  0.064679  0.048094  0.446258  1
  O  O11  1  0.816605  0.182383  0.184407  1
  O  O12  1  0.436796  0.441148  0.052381  1
  O  O13  1  0.069674  0.441148  0.052381  1
  O  O14  1  0.199124  0.801876  0.799876  1
  O  O15  1  0.440970  0.048094  0.446258  1
  O  O16  1  0.512169  0.489921  0.485741  1
  O  O17  1  0.180326  0.808852  0.197619  1
  O  O18  1  0.185321  0.201906  0.803742  1
  O  O19  1  0.737831  0.760079  0.764259  1
  O  O20  1  0.433395  0.067617  0.065593  1
  O  O21  1  0.050876  0.448124  0.450124  1
