# generated using pymatgen
data_Ac3U2O10
_symmetry_space_group_name_H-M   'P 1'
_cell_length_a   7.05032685
_cell_length_b   8.00802741
_cell_length_c   8.92424729
_cell_angle_alpha   101.62490688
_cell_angle_beta   98.09699554
_cell_angle_gamma   107.36691359
_symmetry_Int_Tables_number   1
_chemical_formula_structural   Ac3U2O10
_chemical_formula_sum   'Ac6 U4 O20'
_cell_volume   460.00651213
_cell_formula_units_Z   2
loop_
 _symmetry_equiv_pos_site_id
 _symmetry_equiv_pos_as_xyz
  1  'x, y, z'
loop_
 _atom_site_type_symbol
 _atom_site_label
 _atom_site_symmetry_multiplicity
 _atom_site_fract_x
 _atom_site_fract_y
 _atom_site_fract_z
 _atom_site_occupancy
  Ac  Ac0  1  0.609052  0.699831  0.704328  1
  Ac  Ac1  1  0.390948  0.300169  0.295672  1
  Ac  Ac2  1  0.202983  0.898579  0.897365  1
  Ac  Ac3  1  0.000000  0.500000  0.500000  1
  Ac  Ac4  1  0.797017  0.101421  0.102635  1
  Ac  Ac5  1  0.000000  0.000000  0.500000  1
  U  U6  1  0.402402  0.806814  0.303013  1
  U  U7  1  0.191037  0.406251  0.908384  1
  U  U8  1  0.808963  0.593749  0.091616  1
  U  U9  1  0.597598  0.193186  0.696987  1
  O  O10  1  0.415002  0.525525  0.121943  1
  O  O11  1  0.560670  0.000768  0.833287  1
  O  O12  1  0.298654  0.166143  0.744074  1
  O  O13  1  0.363792  0.609595  0.432764  1
  O  O14  1  0.055698  0.727551  0.312565  1
  O  O15  1  0.439330  0.999232  0.166713  1
  O  O16  1  0.144583  0.191119  0.019295  1
  O  O17  1  0.584998  0.474475  0.878057  1
  O  O18  1  0.860933  0.345938  0.956111  1
  O  O19  1  0.258049  0.594082  0.769660  1
  O  O20  1  0.953037  0.770592  0.652191  1
  O  O21  1  0.360467  0.051795  0.451598  1
  O  O22  1  0.639533  0.948205  0.548402  1
  O  O23  1  0.046963  0.229408  0.347809  1
  O  O24  1  0.741951  0.405918  0.230340  1
  O  O25  1  0.139067  0.654062  0.043889  1
  O  O26  1  0.855417  0.808881  0.980705  1
  O  O27  1  0.944302  0.272449  0.687435  1
  O  O28  1  0.636208  0.390405  0.567236  1
  O  O29  1  0.701346  0.833857  0.255926  1
