# generated using pymatgen
data_Ca3Er(SbPt)4
_symmetry_space_group_name_H-M   'P 1'
_cell_length_a   4.63068900
_cell_length_b   7.34784654
_cell_length_c   7.95688104
_cell_angle_alpha   90.14095393
_cell_angle_beta   90.00000000
_cell_angle_gamma   90.00000000
_symmetry_Int_Tables_number   1
_chemical_formula_structural   Ca3Er(SbPt)4
_chemical_formula_sum   'Ca3 Er1 Sb4 Pt4'
_cell_volume   270.73676975
_cell_formula_units_Z   1
loop_
 _symmetry_equiv_pos_site_id
 _symmetry_equiv_pos_as_xyz
  1  'x, y, z'
loop_
 _atom_site_type_symbol
 _atom_site_label
 _atom_site_symmetry_multiplicity
 _atom_site_fract_x
 _atom_site_fract_y
 _atom_site_fract_z
 _atom_site_occupancy
  Ca  Ca0  1  0.250000  0.006751  0.302302  1
  Ca  Ca1  1  0.750000  0.492878  0.801489  1
  Ca  Ca2  1  0.250000  0.507292  0.198612  1
  Er  Er3  1  0.750000  0.992202  0.698906  1
  Sb  Sb4  1  0.750000  0.310757  0.408962  1
  Sb  Sb5  1  0.250000  0.186976  0.909037  1
  Sb  Sb6  1  0.250000  0.685676  0.590603  1
  Sb  Sb7  1  0.750000  0.811627  0.090072  1
  Pt  Pt8  1  0.250000  0.807707  0.911064  1
  Pt  Pt9  1  0.250000  0.294643  0.586037  1
  Pt  Pt10  1  0.750000  0.707028  0.421879  1
  Pt  Pt11  1  0.750000  0.196463  0.081037  1
