# generated using pymatgen
data_Sr2PPt8
_symmetry_space_group_name_H-M   'P 1'
_cell_length_a   9.34655184
_cell_length_b   9.34655038
_cell_length_c   4.29296900
_cell_angle_alpha   90.00000000
_cell_angle_beta   90.00000000
_cell_angle_gamma   145.85317022
_symmetry_Int_Tables_number   1
_chemical_formula_structural   Sr2PPt8
_chemical_formula_sum   'Sr2 P1 Pt8'
_cell_volume   210.50753305
_cell_formula_units_Z   1
loop_
 _symmetry_equiv_pos_site_id
 _symmetry_equiv_pos_as_xyz
  1  'x, y, z'
loop_
 _atom_site_type_symbol
 _atom_site_label
 _atom_site_symmetry_multiplicity
 _atom_site_fract_x
 _atom_site_fract_y
 _atom_site_fract_z
 _atom_site_occupancy
  Sr  Sr0  1  0.615495  0.372484  0.500000  1
  Sr  Sr1  1  0.372484  0.615495  0.500000  1
  P  P2  1  0.219651  0.219651  0.000000  1
  Pt  Pt3  1  0.110992  0.891854  0.000000  1
  Pt  Pt4  1  0.891854  0.110992  0.000000  1
  Pt  Pt5  1  0.491300  0.988096  0.000000  1
  Pt  Pt6  1  0.988096  0.491300  0.000000  1
  Pt  Pt7  1  0.194169  0.791452  0.500000  1
  Pt  Pt8  1  0.791452  0.194169  0.500000  1
  Pt  Pt9  1  0.009605  0.009605  0.500000  1
  Pt  Pt10  1  0.628501  0.628501  0.000000  1
