# generated using pymatgen
data_LiSm4FeC8
_symmetry_space_group_name_H-M   'P 1'
_cell_length_a   6.80989615
_cell_length_b   6.80989603
_cell_length_c   6.80989472
_cell_angle_alpha   133.89447416
_cell_angle_beta   112.18677162
_cell_angle_gamma   85.93090599
_symmetry_Int_Tables_number   1
_chemical_formula_structural   LiSm4FeC8
_chemical_formula_sum   'Li1 Sm4 Fe1 C8'
_cell_volume   201.92134600
_cell_formula_units_Z   1
loop_
 _symmetry_equiv_pos_site_id
 _symmetry_equiv_pos_as_xyz
  1  'x, y, z'
loop_
 _atom_site_type_symbol
 _atom_site_label
 _atom_site_symmetry_multiplicity
 _atom_site_fract_x
 _atom_site_fract_y
 _atom_site_fract_z
 _atom_site_occupancy
  Li  Li0  1  0.000000  0.250000  0.250000  1
  Sm  Sm1  1  0.195440  0.356830  0.840350  1
  Sm  Sm2  1  0.804560  0.644911  0.161390  1
  Sm  Sm3  1  0.516479  0.855089  0.659650  1
  Sm  Sm4  1  0.483521  0.143170  0.338610  1
  Fe  Fe5  1  0.000000  0.750000  0.750000  1
  C  C6  1  0.791845  0.130493  0.669970  1
  C  C7  1  0.208155  0.878123  0.338647  1
  C  C8  1  0.460522  0.621877  0.830030  1
  C  C9  1  0.539478  0.369507  0.161353  1
  C  C10  1  0.909491  0.022788  0.764754  1
  C  C11  1  0.090509  0.855263  0.113297  1
  C  C12  1  0.258034  0.644737  0.735246  1
  C  C13  1  0.741966  0.477212  0.386703  1
