# generated using pymatgen
data_Y12Er4CdIn3Ni4
_symmetry_space_group_name_H-M   'P 1'
_cell_length_a   9.58391207
_cell_length_b   9.59903479
_cell_length_c   9.59987853
_cell_angle_alpha   60.06228535
_cell_angle_beta   60.01740800
_cell_angle_gamma   60.00889018
_symmetry_Int_Tables_number   1
_chemical_formula_structural   Y12Er4CdIn3Ni4
_chemical_formula_sum   'Y12 Er4 Cd1 In3 Ni4'
_cell_volume   624.90140927
_cell_formula_units_Z   1
loop_
 _symmetry_equiv_pos_site_id
 _symmetry_equiv_pos_as_xyz
  1  'x, y, z'
loop_
 _atom_site_type_symbol
 _atom_site_label
 _atom_site_symmetry_multiplicity
 _atom_site_fract_x
 _atom_site_fract_y
 _atom_site_fract_z
 _atom_site_occupancy
  Y  Y0  1  0.060641  0.440104  0.440177  1
  Y  Y1  1  0.439841  0.061353  0.061337  1
  Y  Y2  1  0.439191  0.061703  0.438921  1
  Y  Y3  1  0.060535  0.441055  0.059885  1
  Y  Y4  1  0.439199  0.438852  0.061769  1
  Y  Y5  1  0.060451  0.059816  0.441141  1
  Y  Y6  1  0.189082  0.813597  0.813664  1
  Y  Y7  1  0.813201  0.187688  0.187577  1
  Y  Y8  1  0.813497  0.187218  0.812393  1
  Y  Y9  1  0.190074  0.811606  0.187517  1
  Y  Y10  1  0.813523  0.812385  0.187182  1
  Y  Y11  1  0.190157  0.187661  0.811478  1
  Er  Er12  1  0.595036  0.595955  0.595964  1
  Er  Er13  1  0.598097  0.597883  0.206307  1
  Er  Er14  1  0.597994  0.206347  0.597796  1
  Er  Er15  1  0.205373  0.597519  0.597539  1
  Cd  Cd16  1  0.505019  0.830878  0.830921  1
  In  In17  1  0.831386  0.833208  0.833260  1
  In  In18  1  0.829596  0.832475  0.504203  1
  In  In19  1  0.829579  0.504239  0.832547  1
  Ni  Ni20  1  0.393512  0.393740  0.393821  1
  Ni  Ni21  1  0.392050  0.391757  0.820974  1
  Ni  Ni22  1  0.392017  0.821016  0.391715  1
  Ni  Ni23  1  0.820952  0.391946  0.391914  1
