# generated using pymatgen
data_TbSmLu6(WO6)4
_symmetry_space_group_name_H-M   'P 1'
_cell_length_a   5.34566400
_cell_length_b   7.64088526
_cell_length_c   11.36700101
_cell_angle_alpha   75.27145792
_cell_angle_beta   90.00000000
_cell_angle_gamma   90.00000000
_symmetry_Int_Tables_number   1
_chemical_formula_structural   TbSmLu6(WO6)4
_chemical_formula_sum   'Tb1 Sm1 Lu6 W4 O24'
_cell_volume   449.03596740
_cell_formula_units_Z   1
loop_
 _symmetry_equiv_pos_site_id
 _symmetry_equiv_pos_as_xyz
  1  'x, y, z'
loop_
 _atom_site_type_symbol
 _atom_site_label
 _atom_site_symmetry_multiplicity
 _atom_site_fract_x
 _atom_site_fract_y
 _atom_site_fract_z
 _atom_site_occupancy
  Tb  Tb0  1  0.314756  0.500000  0.750000  1
  Sm  Sm1  1  0.685728  0.500000  0.250000  1
  Lu  Lu2  1  0.257208  0.000000  0.750000  1
  Lu  Lu3  1  0.184382  0.796955  0.077960  1
  Lu  Lu4  1  0.184382  0.203045  0.422040  1
  Lu  Lu5  1  0.742960  0.000000  0.250000  1
  Lu  Lu6  1  0.815969  0.203844  0.921505  1
  Lu  Lu7  1  0.815969  0.796156  0.578495  1
  W  W8  1  0.744491  0.726856  0.884283  1
  W  W9  1  0.255385  0.727299  0.385202  1
  W  W10  1  0.744491  0.273144  0.615717  1
  W  W11  1  0.255385  0.272701  0.114798  1
  O  O12  1  0.542067  0.154282  0.069281  1
  O  O13  1  0.041519  0.056445  0.104037  1
  O  O14  1  0.019264  0.717190  0.768527  1
  O  O15  1  0.458673  0.154186  0.569386  1
  O  O16  1  0.350246  0.489049  0.387194  1
  O  O17  1  0.958163  0.056167  0.604681  1
  O  O18  1  0.541153  0.796632  0.724472  1
  O  O19  1  0.457880  0.797880  0.224570  1
  O  O20  1  0.145437  0.638782  0.549302  1
  O  O21  1  0.041519  0.943555  0.395963  1
  O  O22  1  0.458673  0.845814  0.930614  1
  O  O23  1  0.457880  0.202120  0.275430  1
  O  O24  1  0.855897  0.360846  0.452263  1
  O  O25  1  0.645925  0.489179  0.885961  1
  O  O26  1  0.350246  0.510951  0.112806  1
  O  O27  1  0.958163  0.943833  0.895319  1
  O  O28  1  0.542067  0.845718  0.430719  1
  O  O29  1  0.983224  0.280229  0.231721  1
  O  O30  1  0.541153  0.203368  0.775528  1
  O  O31  1  0.855897  0.639154  0.047737  1
  O  O32  1  0.019264  0.282810  0.731473  1
  O  O33  1  0.145437  0.361218  0.950698  1
  O  O34  1  0.983224  0.719771  0.268279  1
  O  O35  1  0.645925  0.510821  0.614039  1
