# generated using pymatgen
data_ScNi20(SnB3)2
_symmetry_space_group_name_H-M   'P 1'
_cell_length_a   7.53666988
_cell_length_b   7.53722727
_cell_length_c   7.53685200
_cell_angle_alpha   60.00164701
_cell_angle_beta   59.99920063
_cell_angle_gamma   60.00228729
_symmetry_Int_Tables_number   1
_chemical_formula_structural   ScNi20(SnB3)2
_chemical_formula_sum   'Sc1 Ni20 Sn2 B6'
_cell_volume   302.74458337
_cell_formula_units_Z   1
loop_
 _symmetry_equiv_pos_site_id
 _symmetry_equiv_pos_as_xyz
  1  'x, y, z'
loop_
 _atom_site_type_symbol
 _atom_site_label
 _atom_site_symmetry_multiplicity
 _atom_site_fract_x
 _atom_site_fract_y
 _atom_site_fract_z
 _atom_site_occupancy
  Sc  Sc0  1  0.000000  0.000000  0.000000  1
  Ni  Ni1  1  0.614386  0.614393  0.156861  1
  Ni  Ni2  1  0.614381  0.156839  0.614390  1
  Ni  Ni3  1  0.156850  0.614376  0.614387  1
  Ni  Ni4  1  0.614386  0.614393  0.614361  1
  Ni  Ni5  1  0.385614  0.385607  0.843139  1
  Ni  Ni6  1  0.385619  0.843161  0.385610  1
  Ni  Ni7  1  0.843150  0.385624  0.385613  1
  Ni  Ni8  1  0.385614  0.385607  0.385639  1
  Ni  Ni9  1  0.000000  0.000000  0.340359  1
  Ni  Ni10  1  0.659612  0.999990  0.340387  1
  Ni  Ni11  1  0.999987  0.659625  0.340382  1
  Ni  Ni12  1  0.659621  0.340371  0.000004  1
  Ni  Ni13  1  0.000013  0.340375  0.999993  1
  Ni  Ni14  1  0.000013  0.340375  0.659618  1
  Ni  Ni15  1  0.340379  0.659629  0.999996  1
  Ni  Ni16  1  0.340388  0.000010  0.659613  1
  Ni  Ni17  1  0.340388  0.000010  0.999990  1
  Ni  Ni18  1  0.000000  0.000000  0.659641  1
  Ni  Ni19  1  0.999987  0.659625  0.000007  1
  Ni  Ni20  1  0.659612  0.999990  0.000010  1
  Sn  Sn21  1  0.749984  0.750001  0.750008  1
  Sn  Sn22  1  0.250016  0.249999  0.249992  1
  B  B23  1  0.729078  0.729078  0.270922  1
  B  B24  1  0.270926  0.729076  0.270908  1
  B  B25  1  0.729074  0.270924  0.270909  1
  B  B26  1  0.270922  0.270922  0.729078  1
  B  B27  1  0.729074  0.270924  0.729092  1
  B  B28  1  0.270926  0.729076  0.729091  1
