# generated using pymatgen
data_Cs10Mn5InS14
_symmetry_space_group_name_H-M   'P 1'
_cell_length_a   10.94135861
_cell_length_b   10.94136567
_cell_length_c   9.26217200
_cell_angle_alpha   79.49275961
_cell_angle_beta   79.49277406
_cell_angle_gamma   74.23133810
_symmetry_Int_Tables_number   1
_chemical_formula_structural   Cs10Mn5InS14
_chemical_formula_sum   'Cs10 Mn5 In1 S14'
_cell_volume   1038.80053371
_cell_formula_units_Z   1
loop_
 _symmetry_equiv_pos_site_id
 _symmetry_equiv_pos_as_xyz
  1  'x, y, z'
loop_
 _atom_site_type_symbol
 _atom_site_label
 _atom_site_symmetry_multiplicity
 _atom_site_fract_x
 _atom_site_fract_y
 _atom_site_fract_z
 _atom_site_occupancy
  Cs  Cs0  1  0.030408  0.430193  0.731252  1
  Cs  Cs1  1  0.430193  0.030409  0.731252  1
  Cs  Cs2  1  0.960534  0.577270  0.268458  1
  Cs  Cs3  1  0.577270  0.960534  0.268458  1
  Cs  Cs4  1  0.300751  0.708575  0.999190  1
  Cs  Cs5  1  0.708575  0.300751  0.999190  1
  Cs  Cs6  1  0.841077  0.144722  0.500970  1
  Cs  Cs7  1  0.144722  0.841077  0.500970  1
  Cs  Cs8  1  0.427382  0.427382  0.688003  1
  Cs  Cs9  1  0.565050  0.565050  0.308279  1
  Mn  Mn10  1  0.202237  0.202237  0.180967  1
  Mn  Mn11  1  0.798058  0.798058  0.821062  1
  Mn  Mn12  1  0.076174  0.076174  0.064263  1
  Mn  Mn13  1  0.946742  0.946742  0.951850  1
  Mn  Mn14  1  0.325603  0.325604  0.313027  1
  In  In15  1  0.656599  0.656599  0.666858  1
  S  S16  1  0.006926  0.271591  0.121860  1
  S  S17  1  0.271591  0.006926  0.121859  1
  S  S18  1  0.004104  0.746417  0.891685  1
  S  S19  1  0.746417  0.004104  0.891685  1
  S  S20  1  0.199892  0.199892  0.418101  1
  S  S21  1  0.802985  0.802985  0.560754  1
  S  S22  1  0.071499  0.071499  0.830014  1
  S  S23  1  0.953061  0.953061  0.186754  1
  S  S24  1  0.328904  0.328904  0.072949  1
  S  S25  1  0.660561  0.660561  0.939785  1
  S  S26  1  0.257450  0.516041  0.383627  1
  S  S27  1  0.516041  0.257450  0.383627  1
  S  S28  1  0.750204  0.438989  0.601627  1
  S  S29  1  0.438989  0.750204  0.601627  1
