# generated using pymatgen
data_Lu2MgPa(ZnPt)4
_symmetry_space_group_name_H-M   'P 1'
_cell_length_a   4.03875600
_cell_length_b   6.90241584
_cell_length_c   8.09415787
_cell_angle_alpha   91.07186688
_cell_angle_beta   90.00000000
_cell_angle_gamma   90.00000000
_symmetry_Int_Tables_number   1
_chemical_formula_structural   Lu2MgPa(ZnPt)4
_chemical_formula_sum   'Lu2 Mg1 Pa1 Zn4 Pt4'
_cell_volume   225.60275887
_cell_formula_units_Z   1
loop_
 _symmetry_equiv_pos_site_id
 _symmetry_equiv_pos_as_xyz
  1  'x, y, z'
loop_
 _atom_site_type_symbol
 _atom_site_label
 _atom_site_symmetry_multiplicity
 _atom_site_fract_x
 _atom_site_fract_y
 _atom_site_fract_z
 _atom_site_occupancy
  Lu  Lu0  1  0.750000  0.952260  0.687512  1
  Lu  Lu1  1  0.250000  0.050100  0.323496  1
  Mg  Mg2  1  0.750000  0.451210  0.811012  1
  Pa  Pa3  1  0.250000  0.543151  0.174531  1
  Zn  Zn4  1  0.250000  0.623742  0.564742  1
  Zn  Zn5  1  0.750000  0.366375  0.447888  1
  Zn  Zn6  1  0.750000  0.877815  0.058109  1
  Zn  Zn7  1  0.250000  0.135797  0.935411  1
  Pt  Pt8  1  0.250000  0.743482  0.875888  1
  Pt  Pt9  1  0.750000  0.261245  0.127083  1
  Pt  Pt10  1  0.750000  0.750450  0.365528  1
  Pt  Pt11  1  0.250000  0.244375  0.628799  1
