# generated using pymatgen
data_CeHo2Tm2Ir3
_symmetry_space_group_name_H-M   'P 1'
_cell_length_a   10.91593000
_cell_length_b   10.87682900
_cell_length_c   6.27908100
_cell_angle_alpha   90.00000000
_cell_angle_beta   90.00000000
_cell_angle_gamma   90.00000000
_symmetry_Int_Tables_number   1
_chemical_formula_structural   CeHo2Tm2Ir3
_chemical_formula_sum   'Ce4 Ho8 Tm8 Ir12'
_cell_volume   745.51970751
_cell_formula_units_Z   4
loop_
 _symmetry_equiv_pos_site_id
 _symmetry_equiv_pos_as_xyz
  1  'x, y, z'
loop_
 _atom_site_type_symbol
 _atom_site_label
 _atom_site_symmetry_multiplicity
 _atom_site_fract_x
 _atom_site_fract_y
 _atom_site_fract_z
 _atom_site_occupancy
  Ce  Ce0  1  0.293148  0.092544  0.381106  1
  Ce  Ce1  1  0.293148  0.907456  0.881106  1
  Ce  Ce2  1  0.706852  0.092544  0.881106  1
  Ce  Ce3  1  0.706852  0.907456  0.381106  1
  Ho  Ho4  1  0.207957  0.413066  0.621923  1
  Ho  Ho5  1  0.207957  0.586934  0.121923  1
  Ho  Ho6  1  0.792043  0.413066  0.121923  1
  Ho  Ho7  1  0.792043  0.586934  0.621923  1
  Ho  Ho8  1  0.912973  0.708786  0.117398  1
  Ho  Ho9  1  0.912973  0.291214  0.617398  1
  Ho  Ho10  1  0.087027  0.708786  0.617398  1
  Ho  Ho11  1  0.087027  0.291214  0.117398  1
  Tm  Tm12  1  0.588254  0.785991  0.879197  1
  Tm  Tm13  1  0.588254  0.214009  0.379197  1
  Tm  Tm14  1  0.411746  0.785991  0.379197  1
  Tm  Tm15  1  0.411746  0.214009  0.879197  1
  Tm  Tm16  1  0.000000  0.000000  0.496018  1
  Tm  Tm17  1  0.000000  0.000000  0.996018  1
  Tm  Tm18  1  0.500000  0.500000  0.010315  1
  Tm  Tm19  1  0.500000  0.500000  0.510315  1
  Ir  Ir20  1  0.844923  0.153036  0.243733  1
  Ir  Ir21  1  0.844923  0.846964  0.743733  1
  Ir  Ir22  1  0.155077  0.153036  0.743733  1
  Ir  Ir23  1  0.155077  0.846964  0.243733  1
  Ir  Ir24  1  0.651812  0.346800  0.755713  1
  Ir  Ir25  1  0.651812  0.653200  0.255713  1
  Ir  Ir26  1  0.348188  0.346800  0.255713  1
  Ir  Ir27  1  0.348188  0.653200  0.755713  1
  Ir  Ir28  1  0.500000  0.000000  0.120441  1
  Ir  Ir29  1  0.500000  0.000000  0.620441  1
  Ir  Ir30  1  0.000000  0.500000  0.875090  1
  Ir  Ir31  1  0.000000  0.500000  0.375090  1
