# generated using pymatgen
data_Lu8Hf5SnO24
_symmetry_space_group_name_H-M   'P 1'
_cell_length_a   6.27456807
_cell_length_b   6.34658997
_cell_length_c   12.60872964
_cell_angle_alpha   99.34139279
_cell_angle_beta   99.35931223
_cell_angle_gamma   99.36607912
_symmetry_Int_Tables_number   1
_chemical_formula_structural   Lu8Hf5SnO24
_chemical_formula_sum   'Lu8 Hf5 Sn1 O24'
_cell_volume   479.53895692
_cell_formula_units_Z   1
loop_
 _symmetry_equiv_pos_site_id
 _symmetry_equiv_pos_as_xyz
  1  'x, y, z'
loop_
 _atom_site_type_symbol
 _atom_site_label
 _atom_site_symmetry_multiplicity
 _atom_site_fract_x
 _atom_site_fract_y
 _atom_site_fract_z
 _atom_site_occupancy
  Lu  Lu0  1  0.299230  0.610589  0.818418  1
  Lu  Lu1  1  0.389568  0.864759  0.596203  1
  Lu  Lu2  1  0.858754  0.689470  0.947085  1
  Lu  Lu3  1  0.311007  0.608489  0.317512  1
  Lu  Lu4  1  0.141170  0.309685  0.052625  1
  Lu  Lu5  1  0.701589  0.391051  0.181629  1
  Lu  Lu6  1  0.688306  0.390424  0.682026  1
  Lu  Lu7  1  0.609382  0.136382  0.403086  1
  Hf  Hf8  1  0.392428  0.856268  0.094217  1
  Hf  Hf9  1  0.993069  0.993988  0.748105  1
  Hf  Hf10  1  0.854144  0.677868  0.446694  1
  Hf  Hf11  1  0.145642  0.325980  0.553101  1
  Hf  Hf12  1  0.608181  0.143638  0.906933  1
  Sn  Sn13  1  0.006178  0.004836  0.251994  1
  O  O14  1  0.318202  0.961067  0.797465  1
  O  O15  1  0.071621  0.918393  0.092881  1
  O  O16  1  0.321632  0.943995  0.284547  1
  O  O17  1  0.035432  0.888764  0.589922  1
  O  O18  1  0.570635  0.830790  0.962819  1
  O  O19  1  0.586177  0.819451  0.461431  1
  O  O20  1  0.186077  0.592379  0.968765  1
  O  O21  1  0.923779  0.680726  0.779057  1
  O  O22  1  0.427995  0.583579  0.158460  1
  O  O23  1  0.173438  0.574376  0.463524  1
  O  O24  1  0.924329  0.692761  0.289390  1
  O  O25  1  0.571510  0.416129  0.841587  1
  O  O26  1  0.409443  0.570292  0.657905  1
  O  O27  1  0.075715  0.318974  0.220588  1
  O  O28  1  0.815211  0.409740  0.031603  1
  O  O29  1  0.591908  0.431862  0.341890  1
  O  O30  1  0.079515  0.306308  0.709462  1
  O  O31  1  0.825680  0.425243  0.535585  1
  O  O32  1  0.430800  0.169660  0.038237  1
  O  O33  1  0.411372  0.180786  0.538030  1
  O  O34  1  0.927950  0.082990  0.906580  1
  O  O35  1  0.682638  0.041526  0.205745  1
  O  O36  1  0.961465  0.100532  0.412520  1
  O  O37  1  0.678826  0.056248  0.712381  1
