# generated using pymatgen
data_Y2(LuBi)3
_symmetry_space_group_name_H-M   'P 1'
_cell_length_a   8.17730600
_cell_length_b   9.39478500
_cell_length_c   11.97770100
_cell_angle_alpha   90.00000000
_cell_angle_beta   90.00000000
_cell_angle_gamma   90.00000000
_symmetry_Int_Tables_number   1
_chemical_formula_structural   Y2(LuBi)3
_chemical_formula_sum   'Y8 Lu12 Bi12'
_cell_volume   920.17528191
_cell_formula_units_Z   4
loop_
 _symmetry_equiv_pos_site_id
 _symmetry_equiv_pos_as_xyz
  1  'x, y, z'
loop_
 _atom_site_type_symbol
 _atom_site_label
 _atom_site_symmetry_multiplicity
 _atom_site_fract_x
 _atom_site_fract_y
 _atom_site_fract_z
 _atom_site_occupancy
  Y  Y0  1  0.186305  0.750000  0.718769  1
  Y  Y1  1  0.686305  0.750000  0.781231  1
  Y  Y2  1  0.813695  0.250000  0.281231  1
  Y  Y3  1  0.313695  0.250000  0.218769  1
  Y  Y4  1  0.353190  0.750000  0.216501  1
  Y  Y5  1  0.853190  0.750000  0.283499  1
  Y  Y6  1  0.646810  0.250000  0.783499  1
  Y  Y7  1  0.146810  0.250000  0.716501  1
  Lu  Lu8  1  0.023948  0.750000  0.989619  1
  Lu  Lu9  1  0.523948  0.750000  0.510381  1
  Lu  Lu10  1  0.976052  0.250000  0.010381  1
  Lu  Lu11  1  0.476052  0.250000  0.489619  1
  Lu  Lu12  1  0.307059  0.433682  0.940837  1
  Lu  Lu13  1  0.807059  0.066318  0.559163  1
  Lu  Lu14  1  0.692941  0.933682  0.059163  1
  Lu  Lu15  1  0.192941  0.566318  0.440837  1
  Lu  Lu16  1  0.692941  0.566318  0.059163  1
  Lu  Lu17  1  0.192941  0.933682  0.440837  1
  Lu  Lu18  1  0.307059  0.066318  0.940837  1
  Lu  Lu19  1  0.807059  0.433682  0.559163  1
  Bi  Bi20  1  0.433835  0.003861  0.671691  1
  Bi  Bi21  1  0.933835  0.496139  0.828309  1
  Bi  Bi22  1  0.566165  0.503861  0.328309  1
  Bi  Bi23  1  0.066165  0.996139  0.171691  1
  Bi  Bi24  1  0.566165  0.996139  0.328309  1
  Bi  Bi25  1  0.066165  0.503861  0.171691  1
  Bi  Bi26  1  0.433835  0.496139  0.671691  1
  Bi  Bi27  1  0.933835  0.003861  0.828309  1
  Bi  Bi28  1  0.404790  0.750000  0.957494  1
  Bi  Bi29  1  0.904790  0.750000  0.542506  1
  Bi  Bi30  1  0.595210  0.250000  0.042506  1
  Bi  Bi31  1  0.095210  0.250000  0.457494  1
