# generated using pymatgen
data_Tb3GaCoSn3Ir
_symmetry_space_group_name_H-M   'P 1'
_cell_length_a   7.43475100
_cell_length_b   7.43475314
_cell_length_c   4.02962500
_cell_angle_alpha   90.00000000
_cell_angle_beta   90.00000000
_cell_angle_gamma   119.99998602
_symmetry_Int_Tables_number   1
_chemical_formula_structural   Tb3GaCoSn3Ir
_chemical_formula_sum   'Tb3 Ga1 Co1 Sn3 Ir1'
_cell_volume   192.89825826
_cell_formula_units_Z   1
loop_
 _symmetry_equiv_pos_site_id
 _symmetry_equiv_pos_as_xyz
  1  'x, y, z'
loop_
 _atom_site_type_symbol
 _atom_site_label
 _atom_site_symmetry_multiplicity
 _atom_site_fract_x
 _atom_site_fract_y
 _atom_site_fract_z
 _atom_site_occupancy
  Tb  Tb0  1  0.604746  0.012958  0.000000  1
  Tb  Tb1  1  0.987042  0.591789  0.000000  1
  Tb  Tb2  1  0.408211  0.395254  0.000000  1
  Ga  Ga3  1  0.333333  0.666667  0.500000  1
  Co  Co4  1  0.000000  0.000000  0.000000  1
  Sn  Sn5  1  0.249213  0.004513  0.500000  1
  Sn  Sn6  1  0.995487  0.244699  0.500000  1
  Sn  Sn7  1  0.755301  0.750787  0.500000  1
  Ir  Ir8  1  0.666667  0.333333  0.500000  1
