# generated using pymatgen
data_Dy7Sn19(Bi2Os3)2
_symmetry_space_group_name_H-M   'P 1'
_cell_length_a   9.91716900
_cell_length_b   9.91716800
_cell_length_c   10.15063700
_cell_angle_alpha   90.00000000
_cell_angle_beta   90.00000000
_cell_angle_gamma   119.99999333
_symmetry_Int_Tables_number   1
_chemical_formula_structural   Dy7Sn19(Bi2Os3)2
_chemical_formula_sum   'Dy7 Sn19 Bi4 Os6'
_cell_volume   864.56836936
_cell_formula_units_Z   1
loop_
 _symmetry_equiv_pos_site_id
 _symmetry_equiv_pos_as_xyz
  1  'x, y, z'
loop_
 _atom_site_type_symbol
 _atom_site_label
 _atom_site_symmetry_multiplicity
 _atom_site_fract_x
 _atom_site_fract_y
 _atom_site_fract_z
 _atom_site_occupancy
  Dy  Dy0  1  0.000000  0.000000  0.001306  1
  Dy  Dy1  1  0.514161  0.485839  0.695817  1
  Dy  Dy2  1  0.514161  0.028321  0.695817  1
  Dy  Dy3  1  0.971679  0.485839  0.695817  1
  Dy  Dy4  1  0.032103  0.516052  0.306120  1
  Dy  Dy5  1  0.483948  0.967897  0.306120  1
  Dy  Dy6  1  0.483948  0.516052  0.306120  1
  Sn  Sn7  1  0.347898  0.348834  0.999663  1
  Sn  Sn8  1  0.000935  0.652102  0.999663  1
  Sn  Sn9  1  0.651166  0.999065  0.999663  1
  Sn  Sn10  1  0.651166  0.652102  0.999663  1
  Sn  Sn11  1  0.333333  0.666667  0.821353  1
  Sn  Sn12  1  0.443316  0.221658  0.461529  1
  Sn  Sn13  1  0.222522  0.777478  0.539219  1
  Sn  Sn14  1  0.222522  0.445043  0.539219  1
  Sn  Sn15  1  0.554957  0.777478  0.539219  1
  Sn  Sn16  1  0.118145  0.881855  0.276848  1
  Sn  Sn17  1  0.778342  0.556684  0.461529  1
  Sn  Sn18  1  0.778342  0.221658  0.461529  1
  Sn  Sn19  1  0.347898  0.999065  0.999663  1
  Sn  Sn20  1  0.118145  0.236291  0.276848  1
  Sn  Sn21  1  0.763709  0.881855  0.276848  1
  Sn  Sn22  1  0.234802  0.117401  0.724388  1
  Sn  Sn23  1  0.882599  0.765198  0.724388  1
  Sn  Sn24  1  0.882599  0.117401  0.724388  1
  Sn  Sn25  1  0.000935  0.348834  0.999663  1
  Bi  Bi26  1  0.666667  0.333333  0.175029  1
  Bi  Bi27  1  0.666667  0.333333  0.866700  1
  Bi  Bi28  1  0.333333  0.666667  0.128593  1
  Bi  Bi29  1  0.000000  0.000000  0.499654  1
  Os  Os30  1  0.169759  0.830241  0.799518  1
  Os  Os31  1  0.169759  0.339517  0.799518  1
  Os  Os32  1  0.660483  0.830241  0.799518  1
  Os  Os33  1  0.335881  0.167941  0.199690  1
  Os  Os34  1  0.832059  0.664119  0.199690  1
  Os  Os35  1  0.832059  0.167941  0.199690  1
