# generated using pymatgen
data_Y5Al2GaC4
_symmetry_space_group_name_H-M   'P 1'
_cell_length_a   10.87435100
_cell_length_b   10.87435100
_cell_length_c   3.51777100
_cell_angle_alpha   90.00000000
_cell_angle_beta   90.00000000
_cell_angle_gamma   90.00000000
_symmetry_Int_Tables_number   1
_chemical_formula_structural   Y5Al2GaC4
_chemical_formula_sum   'Y10 Al4 Ga2 C8'
_cell_volume   415.98173143
_cell_formula_units_Z   2
loop_
 _symmetry_equiv_pos_site_id
 _symmetry_equiv_pos_as_xyz
  1  'x, y, z'
loop_
 _atom_site_type_symbol
 _atom_site_label
 _atom_site_symmetry_multiplicity
 _atom_site_fract_x
 _atom_site_fract_y
 _atom_site_fract_z
 _atom_site_occupancy
  Y  Y0  1  0.550415  0.727968  0.500000  1
  Y  Y1  1  0.449585  0.272032  0.500000  1
  Y  Y2  1  0.050415  0.772032  0.500000  1
  Y  Y3  1  0.949585  0.227968  0.500000  1
  Y  Y4  1  0.272032  0.550415  0.500000  1
  Y  Y5  1  0.727968  0.449585  0.500000  1
  Y  Y6  1  0.227968  0.050415  0.500000  1
  Y  Y7  1  0.772032  0.949585  0.500000  1
  Y  Y8  1  0.500000  0.000000  0.000000  1
  Y  Y9  1  0.000000  0.500000  0.000000  1
  Al  Al10  1  0.703868  0.203868  0.000000  1
  Al  Al11  1  0.296132  0.796132  0.000000  1
  Al  Al12  1  0.203868  0.296132  0.000000  1
  Al  Al13  1  0.796132  0.703868  0.000000  1
  Ga  Ga14  1  0.500000  0.500000  0.000000  1
  Ga  Ga15  1  0.000000  0.000000  0.000000  1
  C  C16  1  0.633086  0.133086  0.500000  1
  C  C17  1  0.366914  0.866914  0.500000  1
  C  C18  1  0.133086  0.366914  0.500000  1
  C  C19  1  0.866914  0.633086  0.500000  1
  C  C20  1  0.162501  0.662501  0.000000  1
  C  C21  1  0.837499  0.337499  0.000000  1
  C  C22  1  0.662501  0.837499  0.000000  1
  C  C23  1  0.337499  0.162501  0.000000  1
