# generated using pymatgen
data_Ho8TmLuIr4
_symmetry_space_group_name_H-M   'P 1'
_cell_length_a   6.45059314
_cell_length_b   7.17504260
_cell_length_c   8.45401027
_cell_angle_alpha   96.41124332
_cell_angle_beta   112.42729700
_cell_angle_gamma   90.00000535
_symmetry_Int_Tables_number   1
_chemical_formula_structural   Ho8TmLuIr4
_chemical_formula_sum   'Ho8 Tm1 Lu1 Ir4'
_cell_volume   359.03597264
_cell_formula_units_Z   1
loop_
 _symmetry_equiv_pos_site_id
 _symmetry_equiv_pos_as_xyz
  1  'x, y, z'
loop_
 _atom_site_type_symbol
 _atom_site_label
 _atom_site_symmetry_multiplicity
 _atom_site_fract_x
 _atom_site_fract_y
 _atom_site_fract_z
 _atom_site_occupancy
  Ho  Ho0  1  0.970320  0.918734  0.181685  1
  Ho  Ho1  1  0.788635  0.581266  0.818315  1
  Ho  Ho2  1  0.029786  0.081007  0.818254  1
  Ho  Ho3  1  0.211532  0.418993  0.181746  1
  Ho  Ho4  1  0.653763  0.817351  0.441112  1
  Ho  Ho5  1  0.212650  0.682649  0.558888  1
  Ho  Ho6  1  0.346018  0.182574  0.558682  1
  Ho  Ho7  1  0.787336  0.317426  0.441318  1
  Tm  Tm8  1  0.571614  0.250000  0.000000  1
  Lu  Lu9  1  0.428629  0.750000  0.000000  1
  Ir  Ir10  1  0.823430  0.573070  0.217259  1
  Ir  Ir11  1  0.606171  0.926930  0.782741  1
  Ir  Ir12  1  0.176414  0.427490  0.782711  1
  Ir  Ir13  1  0.393702  0.072510  0.217289  1
