# generated using pymatgen
data_Ho6As(P3Rh5)4
_symmetry_space_group_name_H-M   'P 1'
_cell_length_a   13.37852300
_cell_length_b   13.37852244
_cell_length_c   3.91079200
_cell_angle_alpha   90.00000000
_cell_angle_beta   90.00000000
_cell_angle_gamma   119.99999397
_symmetry_Int_Tables_number   1
_chemical_formula_structural   Ho6As(P3Rh5)4
_chemical_formula_sum   'Ho6 As1 P12 Rh20'
_cell_volume   606.19408887
_cell_formula_units_Z   1
loop_
 _symmetry_equiv_pos_site_id
 _symmetry_equiv_pos_as_xyz
  1  'x, y, z'
loop_
 _atom_site_type_symbol
 _atom_site_label
 _atom_site_symmetry_multiplicity
 _atom_site_fract_x
 _atom_site_fract_y
 _atom_site_fract_z
 _atom_site_occupancy
  Ho  Ho0  1  0.529393  0.717280  0.248574  1
  Ho  Ho1  1  0.282720  0.812113  0.248574  1
  Ho  Ho2  1  0.187887  0.470607  0.248574  1
  Ho  Ho3  1  0.470607  0.282720  0.751426  1
  Ho  Ho4  1  0.717280  0.187887  0.751426  1
  Ho  Ho5  1  0.812113  0.529393  0.751426  1
  As  As6  1  0.000000  0.000000  0.000000  1
  P  P7  1  0.526618  0.139513  0.250545  1
  P  P8  1  0.860487  0.387107  0.250545  1
  P  P9  1  0.612893  0.473382  0.250545  1
  P  P10  1  0.944695  0.714045  0.253388  1
  P  P11  1  0.285955  0.230650  0.253388  1
  P  P12  1  0.769350  0.055305  0.253388  1
  P  P13  1  0.387107  0.526618  0.749455  1
  P  P14  1  0.473382  0.860487  0.749455  1
  P  P15  1  0.139513  0.612893  0.749455  1
  P  P16  1  0.714045  0.769350  0.746612  1
  P  P17  1  0.230650  0.944695  0.746612  1
  P  P18  1  0.055305  0.285955  0.746612  1
  Rh  Rh19  1  0.333333  0.666667  0.752428  1
  Rh  Rh20  1  0.920278  0.251457  0.250901  1
  Rh  Rh21  1  0.748543  0.668820  0.250901  1
  Rh  Rh22  1  0.331180  0.079722  0.250901  1
  Rh  Rh23  1  0.438951  0.022511  0.750922  1
  Rh  Rh24  1  0.977489  0.416441  0.750922  1
  Rh  Rh25  1  0.583559  0.561049  0.750922  1
  Rh  Rh26  1  0.666667  0.333333  0.247572  1
  Rh  Rh27  1  0.096983  0.194309  0.254516  1
  Rh  Rh28  1  0.805691  0.902674  0.254516  1
  Rh  Rh29  1  0.097326  0.903017  0.254516  1
  Rh  Rh30  1  0.022511  0.583559  0.249078  1
  Rh  Rh31  1  0.416441  0.438951  0.249078  1
  Rh  Rh32  1  0.561049  0.977489  0.249078  1
  Rh  Rh33  1  0.668820  0.920278  0.749099  1
  Rh  Rh34  1  0.079722  0.748543  0.749099  1
  Rh  Rh35  1  0.251457  0.331180  0.749099  1
  Rh  Rh36  1  0.903017  0.805691  0.745484  1
  Rh  Rh37  1  0.194309  0.097326  0.745484  1
  Rh  Rh38  1  0.902674  0.096983  0.745484  1
