# generated using pymatgen
data_Nd2DyTm3Ta2O14
_symmetry_space_group_name_H-M   'P 1'
_cell_length_a   6.45939393
_cell_length_b   6.46299388
_cell_length_c   7.56561500
_cell_angle_alpha   90.00000000
_cell_angle_beta   90.00000000
_cell_angle_gamma   109.24793240
_symmetry_Int_Tables_number   1
_chemical_formula_structural   Nd2DyTm3Ta2O14
_chemical_formula_sum   'Nd2 Dy1 Tm3 Ta2 O14'
_cell_volume   298.18663358
_cell_formula_units_Z   1
loop_
 _symmetry_equiv_pos_site_id
 _symmetry_equiv_pos_as_xyz
  1  'x, y, z'
loop_
 _atom_site_type_symbol
 _atom_site_label
 _atom_site_symmetry_multiplicity
 _atom_site_fract_x
 _atom_site_fract_y
 _atom_site_fract_z
 _atom_site_occupancy
  Nd  Nd0  1  0.500535  0.500339  0.500823  1
  Nd  Nd1  1  0.500535  0.500339  0.999177  1
  Dy  Dy2  1  0.001513  0.533370  0.250000  1
  Tm  Tm3  1  0.998628  0.466087  0.750000  1
  Tm  Tm4  1  0.531997  0.001333  0.750000  1
  Tm  Tm5  1  0.467523  0.998264  0.250000  1
  Ta  Ta6  1  0.999828  0.999895  0.500914  1
  Ta  Ta7  1  0.999828  0.999895  0.999086  1
  O  O8  1  0.930498  0.065947  0.750000  1
  O  O9  1  0.066652  0.934405  0.250000  1
  O  O10  1  0.359178  0.645248  0.250000  1
  O  O11  1  0.645123  0.353518  0.750000  1
  O  O12  1  0.361921  0.638886  0.750000  1
  O  O13  1  0.634565  0.358882  0.250000  1
  O  O14  1  0.320927  0.066389  0.965682  1
  O  O15  1  0.678959  0.933082  0.465169  1
  O  O16  1  0.320927  0.066389  0.534318  1
  O  O17  1  0.678959  0.933082  0.034831  1
  O  O18  1  0.071735  0.323086  0.470522  1
  O  O19  1  0.929216  0.679238  0.963282  1
  O  O20  1  0.929216  0.679238  0.536718  1
  O  O21  1  0.071735  0.323086  0.029478  1
