# generated using pymatgen
data_Sm15Y(C2Cl3)4
_symmetry_space_group_name_H-M   'P 1'
_cell_length_a   3.73989900
_cell_length_b   10.82088689
_cell_length_c   20.22060613
_cell_angle_alpha   90.10893473
_cell_angle_beta   90.00000000
_cell_angle_gamma   90.00000000
_symmetry_Int_Tables_number   1
_chemical_formula_structural   Sm15Y(C2Cl3)4
_chemical_formula_sum   'Sm15 Y1 C8 Cl12'
_cell_volume   818.30671717
_cell_formula_units_Z   1
loop_
 _symmetry_equiv_pos_site_id
 _symmetry_equiv_pos_as_xyz
  1  'x, y, z'
loop_
 _atom_site_type_symbol
 _atom_site_label
 _atom_site_symmetry_multiplicity
 _atom_site_fract_x
 _atom_site_fract_y
 _atom_site_fract_z
 _atom_site_occupancy
  Sm  Sm0  1  0.250000  0.140010  0.572568  1
  Sm  Sm1  1  0.250000  0.638638  0.927427  1
  Sm  Sm2  1  0.750000  0.861131  0.427748  1
  Sm  Sm3  1  0.750000  0.361208  0.072117  1
  Sm  Sm4  1  0.250000  0.637583  0.754814  1
  Sm  Sm5  1  0.250000  0.137369  0.744181  1
  Sm  Sm6  1  0.750000  0.363178  0.244552  1
  Sm  Sm7  1  0.750000  0.862393  0.255440  1
  Sm  Sm8  1  0.250000  0.101599  0.333375  1
  Sm  Sm9  1  0.250000  0.602054  0.166577  1
  Sm  Sm10  1  0.750000  0.897587  0.666336  1
  Sm  Sm11  1  0.750000  0.398885  0.831889  1
  Sm  Sm12  1  0.250000  0.123497  0.163943  1
  Sm  Sm13  1  0.250000  0.623298  0.336038  1
  Sm  Sm14  1  0.750000  0.876915  0.835920  1
  Y  Y15  1  0.750000  0.374014  0.665188  1
  C  C16  1  0.250000  0.863785  0.348244  1
  C  C17  1  0.250000  0.363173  0.151658  1
  C  C18  1  0.750000  0.139095  0.651805  1
  C  C19  1  0.750000  0.635421  0.847897  1
  C  C20  1  0.250000  0.387589  0.748574  1
  C  C21  1  0.250000  0.888251  0.749125  1
  C  C22  1  0.750000  0.611721  0.249465  1
  C  C23  1  0.750000  0.112059  0.250478  1
  Cl  Cl24  1  0.250000  0.378564  0.951734  1
  Cl  Cl25  1  0.250000  0.879079  0.547871  1
  Cl  Cl26  1  0.750000  0.621366  0.047535  1
  Cl  Cl27  1  0.750000  0.121817  0.452618  1
  Cl  Cl28  1  0.250000  0.886681  0.944999  1
  Cl  Cl29  1  0.250000  0.389024  0.560048  1
  Cl  Cl30  1  0.750000  0.113443  0.054780  1
  Cl  Cl31  1  0.750000  0.613309  0.445225  1
  Cl  Cl32  1  0.250000  0.361343  0.354765  1
  Cl  Cl33  1  0.250000  0.861404  0.145328  1
  Cl  Cl34  1  0.750000  0.634076  0.645381  1
  Cl  Cl35  1  0.750000  0.139441  0.854357  1
