# generated using pymatgen
data_Sm5Sc3(As3Rh4)4
_symmetry_space_group_name_H-M   'P 1'
_cell_length_a   13.39547500
_cell_length_b   13.39547469
_cell_length_c   4.04769900
_cell_angle_alpha   90.00000000
_cell_angle_beta   90.00000000
_cell_angle_gamma   120.00000323
_symmetry_Int_Tables_number   1
_chemical_formula_structural   Sm5Sc3(As3Rh4)4
_chemical_formula_sum   'Sm5 Sc3 As12 Rh16'
_cell_volume   629.00638416
_cell_formula_units_Z   1
loop_
 _symmetry_equiv_pos_site_id
 _symmetry_equiv_pos_as_xyz
  1  'x, y, z'
loop_
 _atom_site_type_symbol
 _atom_site_label
 _atom_site_symmetry_multiplicity
 _atom_site_fract_x
 _atom_site_fract_y
 _atom_site_fract_z
 _atom_site_occupancy
  Sm  Sm0  1  0.190284  0.190284  0.500000  1
  Sm  Sm1  1  0.809716  0.000000  0.500000  1
  Sm  Sm2  1  0.000000  0.809716  0.500000  1
  Sm  Sm3  1  0.333333  0.666667  0.000000  1
  Sm  Sm4  1  0.666667  0.333333  0.000000  1
  Sc  Sc5  1  0.560578  0.560578  0.000000  1
  Sc  Sc6  1  0.439422  0.000000  0.000000  1
  Sc  Sc7  1  0.000000  0.439422  0.000000  1
  As  As8  1  0.822464  0.822464  0.000000  1
  As  As9  1  0.177536  0.000000  0.000000  1
  As  As10  1  0.000000  0.177536  0.000000  1
  As  As11  1  0.170348  0.485778  0.500000  1
  As  As12  1  0.514222  0.684570  0.500000  1
  As  As13  1  0.315430  0.829652  0.500000  1
  As  As14  1  0.684570  0.514222  0.500000  1
  As  As15  1  0.829652  0.315430  0.500000  1
  As  As16  1  0.485778  0.170348  0.500000  1
  As  As17  1  0.357817  0.357817  0.000000  1
  As  As18  1  0.642183  0.000000  0.000000  1
  As  As19  1  0.000000  0.642183  0.000000  1
  Rh  Rh20  1  0.718049  0.718049  0.500000  1
  Rh  Rh21  1  0.281951  0.000000  0.500000  1
  Rh  Rh22  1  0.000000  0.281951  0.500000  1
  Rh  Rh23  1  0.176448  0.377222  0.000000  1
  Rh  Rh24  1  0.622778  0.799226  0.000000  1
  Rh  Rh25  1  0.200774  0.823552  0.000000  1
  Rh  Rh26  1  0.799226  0.622778  0.000000  1
  Rh  Rh27  1  0.823552  0.200774  0.000000  1
  Rh  Rh28  1  0.377222  0.176448  0.000000  1
  Rh  Rh29  1  0.354026  0.480209  0.500000  1
  Rh  Rh30  1  0.519791  0.873818  0.500000  1
  Rh  Rh31  1  0.126182  0.645974  0.500000  1
  Rh  Rh32  1  0.873818  0.519791  0.500000  1
  Rh  Rh33  1  0.645974  0.126182  0.500000  1
  Rh  Rh34  1  0.480209  0.354026  0.500000  1
  Rh  Rh35  1  0.000000  0.000000  0.000000  1
