# generated using pymatgen
data_Tb4ZnIn2Au3
_symmetry_space_group_name_H-M   'P 1'
_cell_length_a   7.94721315
_cell_length_b   7.94721315
_cell_length_c   3.78242800
_cell_angle_alpha   90.00000000
_cell_angle_beta   90.00000000
_cell_angle_gamma   90.32595832
_symmetry_Int_Tables_number   1
_chemical_formula_structural   Tb4ZnIn2Au3
_chemical_formula_sum   'Tb4 Zn1 In2 Au3'
_cell_volume   238.88746642
_cell_formula_units_Z   1
loop_
 _symmetry_equiv_pos_site_id
 _symmetry_equiv_pos_as_xyz
  1  'x, y, z'
loop_
 _atom_site_type_symbol
 _atom_site_label
 _atom_site_symmetry_multiplicity
 _atom_site_fract_x
 _atom_site_fract_y
 _atom_site_fract_z
 _atom_site_occupancy
  Tb  Tb0  1  0.670700  0.170700  0.500000  1
  Tb  Tb1  1  0.330275  0.830275  0.500000  1
  Tb  Tb2  1  0.169566  0.328307  0.500000  1
  Tb  Tb3  1  0.828307  0.669566  0.500000  1
  Zn  Zn4  1  0.125857  0.625857  0.000000  1
  In  In5  1  0.497704  0.500636  0.000000  1
  In  In6  1  0.000636  0.997704  0.000000  1
  Au  Au7  1  0.877519  0.377519  0.000000  1
  Au  Au8  1  0.628828  0.870608  0.000000  1
  Au  Au9  1  0.370608  0.128828  0.000000  1
