# generated using pymatgen
data_Nd3Dy5(CdCo)2
_symmetry_space_group_name_H-M   'P 1'
_cell_length_a   9.66000635
_cell_length_b   9.66000542
_cell_length_c   9.66000600
_cell_angle_alpha   59.99999803
_cell_angle_beta   60.00000120
_cell_angle_gamma   59.99999565
_symmetry_Int_Tables_number   1
_chemical_formula_structural   Nd3Dy5(CdCo)2
_chemical_formula_sum   'Nd6 Dy10 Cd4 Co4'
_cell_volume   637.40749177
_cell_formula_units_Z   2
loop_
 _symmetry_equiv_pos_site_id
 _symmetry_equiv_pos_as_xyz
  1  'x, y, z'
loop_
 _atom_site_type_symbol
 _atom_site_label
 _atom_site_symmetry_multiplicity
 _atom_site_fract_x
 _atom_site_fract_y
 _atom_site_fract_z
 _atom_site_occupancy
  Nd  Nd0  1  0.940975  0.559025  0.559025  1
  Nd  Nd1  1  0.559025  0.940975  0.940975  1
  Nd  Nd2  1  0.559025  0.940975  0.559025  1
  Nd  Nd3  1  0.940975  0.559025  0.940975  1
  Nd  Nd4  1  0.559025  0.559025  0.940975  1
  Nd  Nd5  1  0.940975  0.940975  0.559025  1
  Dy  Dy6  1  0.344955  0.344955  0.344955  1
  Dy  Dy7  1  0.344955  0.344955  0.965136  1
  Dy  Dy8  1  0.344955  0.965136  0.344955  1
  Dy  Dy9  1  0.965136  0.344955  0.344955  1
  Dy  Dy10  1  0.814101  0.185899  0.185899  1
  Dy  Dy11  1  0.185899  0.814101  0.814101  1
  Dy  Dy12  1  0.185899  0.814101  0.185899  1
  Dy  Dy13  1  0.814101  0.185899  0.814101  1
  Dy  Dy14  1  0.185899  0.185899  0.814101  1
  Dy  Dy15  1  0.814101  0.814101  0.185899  1
  Cd  Cd16  1  0.579113  0.579113  0.579113  1
  Cd  Cd17  1  0.579113  0.579113  0.262660  1
  Cd  Cd18  1  0.579113  0.262660  0.579113  1
  Cd  Cd19  1  0.262660  0.579113  0.579113  1
  Co  Co20  1  0.140800  0.140800  0.140800  1
  Co  Co21  1  0.140800  0.140800  0.577601  1
  Co  Co22  1  0.140800  0.577601  0.140800  1
  Co  Co23  1  0.577601  0.140800  0.140800  1
