# generated using pymatgen
data_Dy6Er2In3Ru
_symmetry_space_group_name_H-M   'P 1'
_cell_length_a   10.39278400
_cell_length_b   10.39278353
_cell_length_c   7.01832900
_cell_angle_alpha   90.00000000
_cell_angle_beta   90.00000000
_cell_angle_gamma   119.99999512
_symmetry_Int_Tables_number   1
_chemical_formula_structural   Dy6Er2In3Ru
_chemical_formula_sum   'Dy12 Er4 In6 Ru2'
_cell_volume   656.49006613
_cell_formula_units_Z   2
loop_
 _symmetry_equiv_pos_site_id
 _symmetry_equiv_pos_as_xyz
  1  'x, y, z'
loop_
 _atom_site_type_symbol
 _atom_site_label
 _atom_site_symmetry_multiplicity
 _atom_site_fract_x
 _atom_site_fract_y
 _atom_site_fract_z
 _atom_site_occupancy
  Dy  Dy0  1  0.532849  0.065698  0.794315  1
  Dy  Dy1  1  0.934302  0.467151  0.794315  1
  Dy  Dy2  1  0.532849  0.467151  0.794315  1
  Dy  Dy3  1  0.467151  0.934302  0.294315  1
  Dy  Dy4  1  0.065698  0.532849  0.294315  1
  Dy  Dy5  1  0.467151  0.532849  0.294315  1
  Dy  Dy6  1  0.823118  0.646234  0.499075  1
  Dy  Dy7  1  0.353766  0.176882  0.499075  1
  Dy  Dy8  1  0.823118  0.176882  0.499075  1
  Dy  Dy9  1  0.176882  0.353766  0.999075  1
  Dy  Dy10  1  0.646234  0.823118  0.999075  1
  Dy  Dy11  1  0.176882  0.823118  0.999075  1
  Er  Er12  1  0.666667  0.333333  0.170991  1
  Er  Er13  1  0.333333  0.666667  0.670991  1
  Er  Er14  1  0.000000  0.000000  0.778982  1
  Er  Er15  1  0.000000  0.000000  0.278982  1
  In  In16  1  0.837117  0.674236  0.039796  1
  In  In17  1  0.325764  0.162883  0.039796  1
  In  In18  1  0.837117  0.162883  0.039796  1
  In  In19  1  0.162883  0.325764  0.539796  1
  In  In20  1  0.674236  0.837117  0.539796  1
  In  In21  1  0.162883  0.837117  0.539796  1
  Ru  Ru22  1  0.666667  0.333333  0.568421  1
  Ru  Ru23  1  0.333333  0.666667  0.068421  1
