# generated using pymatgen
data_Ho2Si7Pd12
_symmetry_space_group_name_H-M   'P 1'
_cell_length_a   9.98094600
_cell_length_b   9.98094668
_cell_length_c   3.85715600
_cell_angle_alpha   90.00000000
_cell_angle_beta   90.00000000
_cell_angle_gamma   120.00000437
_symmetry_Int_Tables_number   1
_chemical_formula_structural   Ho2Si7Pd12
_chemical_formula_sum   'Ho2 Si7 Pd12'
_cell_volume   332.76777132
_cell_formula_units_Z   1
loop_
 _symmetry_equiv_pos_site_id
 _symmetry_equiv_pos_as_xyz
  1  'x, y, z'
loop_
 _atom_site_type_symbol
 _atom_site_label
 _atom_site_symmetry_multiplicity
 _atom_site_fract_x
 _atom_site_fract_y
 _atom_site_fract_z
 _atom_site_occupancy
  Ho  Ho0  1  0.666667  0.333333  0.247053  1
  Ho  Ho1  1  0.000000  0.000000  0.750822  1
  Si  Si2  1  0.333333  0.666667  0.467665  1
  Si  Si3  1  0.741284  0.785355  0.250246  1
  Si  Si4  1  0.044071  0.258716  0.250246  1
  Si  Si5  1  0.214645  0.955929  0.250246  1
  Si  Si6  1  0.925123  0.548476  0.748216  1
  Si  Si7  1  0.623352  0.074877  0.748216  1
  Si  Si8  1  0.451524  0.376648  0.748216  1
  Pd  Pd9  1  0.777421  0.046057  0.248458  1
  Pd  Pd10  1  0.268635  0.222579  0.248458  1
  Pd  Pd11  1  0.953943  0.731365  0.248458  1
  Pd  Pd12  1  0.889832  0.286325  0.749868  1
  Pd  Pd13  1  0.396492  0.110168  0.749868  1
  Pd  Pd14  1  0.713675  0.603508  0.749868  1
  Pd  Pd15  1  0.482208  0.554284  0.248269  1
  Pd  Pd16  1  0.072076  0.517792  0.248269  1
  Pd  Pd17  1  0.445716  0.927924  0.248269  1
  Pd  Pd18  1  0.187863  0.775437  0.750268  1
  Pd  Pd19  1  0.587574  0.812137  0.750268  1
  Pd  Pd20  1  0.224563  0.412426  0.750268  1
