# generated using pymatgen
data_Ho3Er9Ir4
_symmetry_space_group_name_H-M   'P 1'
_cell_length_a   6.35734726
_cell_length_b   7.20812731
_cell_length_c   9.08697200
_cell_angle_alpha   90.00000000
_cell_angle_beta   90.00000000
_cell_angle_gamma   90.03339309
_symmetry_Int_Tables_number   1
_chemical_formula_structural   Ho3Er9Ir4
_chemical_formula_sum   'Ho3 Er9 Ir4'
_cell_volume   416.40649970
_cell_formula_units_Z   1
loop_
 _symmetry_equiv_pos_site_id
 _symmetry_equiv_pos_as_xyz
  1  'x, y, z'
loop_
 _atom_site_type_symbol
 _atom_site_label
 _atom_site_symmetry_multiplicity
 _atom_site_fract_x
 _atom_site_fract_y
 _atom_site_fract_z
 _atom_site_occupancy
  Ho  Ho0  1  0.871744  0.533668  0.250000  1
  Ho  Ho1  1  0.628477  0.033703  0.250000  1
  Ho  Ho2  1  0.128013  0.466550  0.750000  1
  Er  Er3  1  0.328398  0.677617  0.061974  1
  Er  Er4  1  0.171893  0.177148  0.438202  1
  Er  Er5  1  0.671760  0.322446  0.562077  1
  Er  Er6  1  0.827716  0.822798  0.937792  1
  Er  Er7  1  0.671760  0.322446  0.937923  1
  Er  Er8  1  0.827716  0.822798  0.562208  1
  Er  Er9  1  0.328398  0.677617  0.438026  1
  Er  Er10  1  0.171893  0.177148  0.061798  1
  Er  Er11  1  0.371545  0.965923  0.750000  1
  Ir  Ir12  1  0.044254  0.883564  0.250000  1
  Ir  Ir13  1  0.455801  0.383460  0.250000  1
  Ir  Ir14  1  0.956872  0.116180  0.750000  1
  Ir  Ir15  1  0.543759  0.616936  0.750000  1
