# generated using pymatgen
data_PuZr(NbC2)2
_symmetry_space_group_name_H-M   'P 1'
_cell_length_a   11.12452225
_cell_length_b   11.12452258
_cell_length_c   11.12452264
_cell_angle_alpha   16.87492670
_cell_angle_beta   16.87492067
_cell_angle_gamma   16.87492728
_symmetry_Int_Tables_number   1
_chemical_formula_structural   PuZr(NbC2)2
_chemical_formula_sum   'Pu1 Zr1 Nb2 C4'
_cell_volume   101.19216180
_cell_formula_units_Z   1
loop_
 _symmetry_equiv_pos_site_id
 _symmetry_equiv_pos_as_xyz
  1  'x, y, z'
loop_
 _atom_site_type_symbol
 _atom_site_label
 _atom_site_symmetry_multiplicity
 _atom_site_fract_x
 _atom_site_fract_y
 _atom_site_fract_z
 _atom_site_occupancy
  Pu  Pu0  1  0.500000  0.500000  0.500000  1
  Zr  Zr1  1  0.000000  0.000000  0.000000  1
  Nb  Nb2  1  0.252632  0.252632  0.252632  1
  Nb  Nb3  1  0.747368  0.747368  0.747368  1
  C  C4  1  0.375544  0.375544  0.375544  1
  C  C5  1  0.119771  0.119771  0.119771  1
  C  C6  1  0.624456  0.624456  0.624456  1
  C  C7  1  0.880229  0.880229  0.880229  1
