# generated using pymatgen
data_Pr17Lu3(SnPb)8
_symmetry_space_group_name_H-M   'P 1'
_cell_length_a   8.34311810
_cell_length_b   8.46896400
_cell_length_c   16.14606300
_cell_angle_alpha   90.00000000
_cell_angle_beta   90.00000000
_cell_angle_gamma   90.01014852
_symmetry_Int_Tables_number   1
_chemical_formula_structural   Pr17Lu3(SnPb)8
_chemical_formula_sum   'Pr17 Lu3 Sn8 Pb8'
_cell_volume   1140.84150747
_cell_formula_units_Z   1
loop_
 _symmetry_equiv_pos_site_id
 _symmetry_equiv_pos_as_xyz
  1  'x, y, z'
loop_
 _atom_site_type_symbol
 _atom_site_label
 _atom_site_symmetry_multiplicity
 _atom_site_fract_x
 _atom_site_fract_y
 _atom_site_fract_z
 _atom_site_occupancy
  Pr  Pr0  1  0.623917  0.159838  0.621971  1
  Pr  Pr1  1  0.124004  0.340193  0.878944  1
  Pr  Pr2  1  0.374763  0.839040  0.120313  1
  Pr  Pr3  1  0.877151  0.659393  0.379722  1
  Pr  Pr4  1  0.374763  0.839040  0.379687  1
  Pr  Pr5  1  0.877151  0.659393  0.120278  1
  Pr  Pr6  1  0.623917  0.159838  0.878029  1
  Pr  Pr7  1  0.124004  0.340193  0.621056  1
  Pr  Pr8  1  0.469766  0.679235  0.602114  1
  Pr  Pr9  1  0.969625  0.820855  0.897095  1
  Pr  Pr10  1  0.529541  0.322115  0.101850  1
  Pr  Pr11  1  0.030815  0.180266  0.398457  1
  Pr  Pr12  1  0.529541  0.322115  0.398150  1
  Pr  Pr13  1  0.030815  0.180266  0.101543  1
  Pr  Pr14  1  0.469766  0.679235  0.897886  1
  Pr  Pr15  1  0.969625  0.820855  0.602905  1
  Pr  Pr16  1  0.707099  0.997994  0.250000  1
  Lu  Lu17  1  0.790848  0.497459  0.750000  1
  Lu  Lu18  1  0.290567  0.002674  0.750000  1
  Lu  Lu19  1  0.209344  0.503549  0.250000  1
  Sn  Sn20  1  0.427597  0.379489  0.750000  1
  Sn  Sn21  1  0.927966  0.121197  0.750000  1
  Sn  Sn22  1  0.571455  0.617361  0.250000  1
  Sn  Sn23  1  0.077928  0.876766  0.250000  1
  Sn  Sn24  1  0.663034  0.850142  0.750000  1
  Sn  Sn25  1  0.163606  0.648441  0.750000  1
  Sn  Sn26  1  0.333267  0.150327  0.250000  1
  Sn  Sn27  1  0.837718  0.357298  0.250000  1
  Pb  Pb28  1  0.717390  0.967366  0.457452  1
  Pb  Pb29  1  0.217582  0.530749  0.045082  1
  Pb  Pb30  1  0.282783  0.030915  0.954148  1
  Pb  Pb31  1  0.782448  0.468689  0.545814  1
  Pb  Pb32  1  0.282783  0.030915  0.545852  1
  Pb  Pb33  1  0.782448  0.468689  0.954186  1
  Pb  Pb34  1  0.717390  0.967366  0.042548  1
  Pb  Pb35  1  0.217582  0.530749  0.454918  1
