# generated using pymatgen
data_Nd16Hg4Ir3Au
_symmetry_space_group_name_H-M   'P 1'
_cell_length_a   9.96164364
_cell_length_b   9.96164442
_cell_length_c   9.96164377
_cell_angle_alpha   60.35476187
_cell_angle_beta   60.35475991
_cell_angle_gamma   60.35475970
_symmetry_Int_Tables_number   1
_chemical_formula_structural   Nd16Hg4Ir3Au
_chemical_formula_sum   'Nd16 Hg4 Ir3 Au1'
_cell_volume   704.61097055
_cell_formula_units_Z   1
loop_
 _symmetry_equiv_pos_site_id
 _symmetry_equiv_pos_as_xyz
  1  'x, y, z'
loop_
 _atom_site_type_symbol
 _atom_site_label
 _atom_site_symmetry_multiplicity
 _atom_site_fract_x
 _atom_site_fract_y
 _atom_site_fract_z
 _atom_site_occupancy
  Nd  Nd0  1  0.596930  0.596930  0.596930  1
  Nd  Nd1  1  0.608058  0.608058  0.189511  1
  Nd  Nd2  1  0.608058  0.189511  0.608058  1
  Nd  Nd3  1  0.189511  0.608058  0.608058  1
  Nd  Nd4  1  0.049891  0.441556  0.441556  1
  Nd  Nd5  1  0.439229  0.060004  0.060004  1
  Nd  Nd6  1  0.441556  0.049891  0.441556  1
  Nd  Nd7  1  0.060004  0.439229  0.060004  1
  Nd  Nd8  1  0.441556  0.441556  0.049891  1
  Nd  Nd9  1  0.060004  0.060004  0.439229  1
  Nd  Nd10  1  0.190585  0.812656  0.812656  1
  Nd  Nd11  1  0.812759  0.189840  0.189840  1
  Nd  Nd12  1  0.812656  0.190585  0.812656  1
  Nd  Nd13  1  0.189840  0.812759  0.189840  1
  Nd  Nd14  1  0.812656  0.812656  0.190585  1
  Nd  Nd15  1  0.189840  0.189840  0.812759  1
  Hg  Hg16  1  0.835019  0.835019  0.835019  1
  Hg  Hg17  1  0.833912  0.833912  0.496795  1
  Hg  Hg18  1  0.833912  0.496795  0.833912  1
  Hg  Hg19  1  0.496795  0.833912  0.833912  1
  Ir  Ir20  1  0.390481  0.390481  0.821958  1
  Ir  Ir21  1  0.390481  0.821958  0.390481  1
  Ir  Ir22  1  0.821958  0.390481  0.390481  1
  Au  Au23  1  0.394308  0.394308  0.394308  1
