# generated using pymatgen
data_Tm3ZnIn4Ir
_symmetry_space_group_name_H-M   'P 1'
_cell_length_a   7.92016900
_cell_length_b   7.92016927
_cell_length_c   3.80151200
_cell_angle_alpha   90.00000000
_cell_angle_beta   90.00000000
_cell_angle_gamma   120.00001141
_symmetry_Int_Tables_number   1
_chemical_formula_structural   Tm3ZnIn4Ir
_chemical_formula_sum   'Tm3 Zn1 In4 Ir1'
_cell_volume   206.51702468
_cell_formula_units_Z   1
loop_
 _symmetry_equiv_pos_site_id
 _symmetry_equiv_pos_as_xyz
  1  'x, y, z'
loop_
 _atom_site_type_symbol
 _atom_site_label
 _atom_site_symmetry_multiplicity
 _atom_site_fract_x
 _atom_site_fract_y
 _atom_site_fract_z
 _atom_site_occupancy
  Tm  Tm0  1  0.291429  0.249934  0.500000  1
  Tm  Tm1  1  0.750066  0.041494  0.500000  1
  Tm  Tm2  1  0.958506  0.708571  0.500000  1
  Zn  Zn3  1  0.333333  0.666667  0.500000  1
  In  In4  1  0.067970  0.403081  0.000000  1
  In  In5  1  0.596919  0.664889  0.000000  1
  In  In6  1  0.335111  0.932030  0.000000  1
  In  In7  1  0.666667  0.333333  0.000000  1
  Ir  Ir8  1  0.000000  0.000000  0.000000  1
