# generated using pymatgen
data_V3Te4AsO20
_symmetry_space_group_name_H-M   'P 1'
_cell_length_a   5.20110653
_cell_length_b   9.85517786
_cell_length_c   9.33551717
_cell_angle_alpha   90.79262807
_cell_angle_beta   89.96547309
_cell_angle_gamma   87.27076581
_symmetry_Int_Tables_number   1
_chemical_formula_structural   V3Te4AsO20
_chemical_formula_sum   'V3 Te4 As1 O20'
_cell_volume   477.92945483
_cell_formula_units_Z   1
loop_
 _symmetry_equiv_pos_site_id
 _symmetry_equiv_pos_as_xyz
  1  'x, y, z'
loop_
 _atom_site_type_symbol
 _atom_site_label
 _atom_site_symmetry_multiplicity
 _atom_site_fract_x
 _atom_site_fract_y
 _atom_site_fract_z
 _atom_site_occupancy
  V  V0  1  0.898147  0.047922  0.720420  1
  V  V1  1  0.411683  0.488770  0.282077  1
  V  V2  1  0.085461  0.513040  0.781241  1
  Te  Te3  1  0.897546  0.659179  0.103316  1
  Te  Te4  1  0.384434  0.845636  0.896777  1
  Te  Te5  1  0.115368  0.149290  0.389951  1
  Te  Te6  1  0.602612  0.340534  0.599703  1
  As  As7  1  0.604550  0.951815  0.222804  1
  O  O8  1  0.046093  0.518869  0.972993  1
  O  O9  1  0.514300  0.973257  0.041823  1
  O  O10  1  0.987176  0.028875  0.535123  1
  O  O11  1  0.453457  0.481280  0.472735  1
  O  O12  1  0.176267  0.663027  0.733594  1
  O  O13  1  0.732767  0.785388  0.250030  1
  O  O14  1  0.761990  0.217821  0.742678  1
  O  O15  1  0.323074  0.339804  0.228150  1
  O  O16  1  0.878880  0.306345  0.464517  1
  O  O17  1  0.403711  0.194814  0.528329  1
  O  O18  1  0.093446  0.805719  0.033673  1
  O  O19  1  0.620650  0.691161  0.969132  1
  O  O20  1  0.170355  0.618516  0.242691  1
  O  O21  1  0.691303  0.926219  0.760176  1
  O  O22  1  0.815208  0.075982  0.246711  1
  O  O23  1  0.326374  0.384619  0.738608  1
  O  O24  1  0.708796  0.516305  0.191487  1
  O  O25  1  0.162338  0.027382  0.828811  1
  O  O26  1  0.343887  0.961463  0.333191  1
  O  O27  1  0.790127  0.486969  0.689263  1
