# generated using pymatgen
data_Er6Sn6Pd5Pt
_symmetry_space_group_name_H-M   'P 1'
_cell_length_a   7.66346400
_cell_length_b   7.66346406
_cell_length_c   7.65666300
_cell_angle_alpha   90.00000000
_cell_angle_beta   90.00000000
_cell_angle_gamma   120.00000089
_symmetry_Int_Tables_number   1
_chemical_formula_structural   Er6Sn6Pd5Pt
_chemical_formula_sum   'Er6 Sn6 Pd5 Pt1'
_cell_volume   389.42193199
_cell_formula_units_Z   1
loop_
 _symmetry_equiv_pos_site_id
 _symmetry_equiv_pos_as_xyz
  1  'x, y, z'
loop_
 _atom_site_type_symbol
 _atom_site_label
 _atom_site_symmetry_multiplicity
 _atom_site_fract_x
 _atom_site_fract_y
 _atom_site_fract_z
 _atom_site_occupancy
  Er  Er0  1  0.403274  0.004218  0.249155  1
  Er  Er1  1  0.600944  0.596726  0.249155  1
  Er  Er2  1  0.995782  0.399056  0.249155  1
  Er  Er3  1  0.396257  0.989681  0.750927  1
  Er  Er4  1  0.593424  0.603743  0.750927  1
  Er  Er5  1  0.010319  0.406576  0.750927  1
  Sn  Sn6  1  0.737345  0.003474  0.000317  1
  Sn  Sn7  1  0.264933  0.262892  0.500402  1
  Sn  Sn8  1  0.997958  0.735067  0.500402  1
  Sn  Sn9  1  0.996526  0.733871  0.000317  1
  Sn  Sn10  1  0.266129  0.262655  0.000317  1
  Sn  Sn11  1  0.737108  0.002042  0.500402  1
  Pd  Pd12  1  0.333333  0.666667  0.484141  1
  Pd  Pd13  1  0.666667  0.333333  0.985028  1
  Pd  Pd14  1  0.666667  0.333333  0.515409  1
  Pd  Pd15  1  0.000000  0.000000  0.249254  1
  Pd  Pd16  1  0.000000  0.000000  0.751258  1
  Pt  Pt17  1  0.333333  0.666667  0.012511  1
