# generated using pymatgen
data_Li8Pr3Sm5Au8
_symmetry_space_group_name_H-M   'P 1'
_cell_length_a   9.91323440
_cell_length_b   8.22289234
_cell_length_c   7.42299300
_cell_angle_alpha   90.00000000
_cell_angle_beta   90.12450118
_cell_angle_gamma   114.50314000
_symmetry_Int_Tables_number   1
_chemical_formula_structural   Li8Pr3Sm5Au8
_chemical_formula_sum   'Li8 Pr3 Sm5 Au8'
_cell_volume   550.59194461
_cell_formula_units_Z   1
loop_
 _symmetry_equiv_pos_site_id
 _symmetry_equiv_pos_as_xyz
  1  'x, y, z'
loop_
 _atom_site_type_symbol
 _atom_site_label
 _atom_site_symmetry_multiplicity
 _atom_site_fract_x
 _atom_site_fract_y
 _atom_site_fract_z
 _atom_site_occupancy
  Li  Li0  1  0.802080  0.149663  0.622143  1
  Li  Li1  1  0.802080  0.652415  0.622143  1
  Li  Li2  1  0.305687  0.152842  0.876750  1
  Li  Li3  1  0.198522  0.850460  0.122729  1
  Li  Li4  1  0.198522  0.348065  0.122729  1
  Li  Li5  1  0.694125  0.847062  0.378437  1
  Li  Li6  1  0.694498  0.347248  0.385507  1
  Li  Li7  1  0.306820  0.653411  0.882582  1
  Pr  Pr8  1  0.931116  0.465559  0.945699  1
  Pr  Pr9  1  0.070035  0.035017  0.446059  1
  Pr  Pr10  1  0.931425  0.965713  0.947124  1
  Sm  Sm11  1  0.432772  0.468463  0.558029  1
  Sm  Sm12  1  0.432772  0.964308  0.558029  1
  Sm  Sm13  1  0.070319  0.535160  0.445457  1
  Sm  Sm14  1  0.566574  0.532524  0.058981  1
  Sm  Sm15  1  0.566574  0.034050  0.058981  1
  Au  Au16  1  0.869291  0.187389  0.249138  1
  Au  Au17  1  0.869291  0.681901  0.249138  1
  Au  Au18  1  0.377550  0.188775  0.260211  1
  Au  Au19  1  0.131025  0.812221  0.743910  1
  Au  Au20  1  0.131025  0.318805  0.743910  1
  Au  Au21  1  0.623041  0.811521  0.761227  1
  Au  Au22  1  0.621680  0.310840  0.759931  1
  Au  Au23  1  0.373175  0.686588  0.259162  1
