# generated using pymatgen
data_YbHo6Co3Sn23Ru3
_symmetry_space_group_name_H-M   'P 1'
_cell_length_a   9.77116800
_cell_length_b   9.77116688
_cell_length_c   10.03622400
_cell_angle_alpha   90.00000000
_cell_angle_beta   90.00000000
_cell_angle_gamma   119.99999701
_symmetry_Int_Tables_number   1
_chemical_formula_structural   YbHo6Co3Sn23Ru3
_chemical_formula_sum   'Yb1 Ho6 Co3 Sn23 Ru3'
_cell_volume   829.83911493
_cell_formula_units_Z   1
loop_
 _symmetry_equiv_pos_site_id
 _symmetry_equiv_pos_as_xyz
  1  'x, y, z'
loop_
 _atom_site_type_symbol
 _atom_site_label
 _atom_site_symmetry_multiplicity
 _atom_site_fract_x
 _atom_site_fract_y
 _atom_site_fract_z
 _atom_site_occupancy
  Yb  Yb0  1  0.000000  0.000000  0.990479  1
  Ho  Ho1  1  0.516660  0.483340  0.695885  1
  Ho  Ho2  1  0.516660  0.033318  0.695885  1
  Ho  Ho3  1  0.966682  0.483340  0.695885  1
  Ho  Ho4  1  0.035994  0.517998  0.304882  1
  Ho  Ho5  1  0.482002  0.964006  0.304882  1
  Ho  Ho6  1  0.482002  0.517998  0.304882  1
  Co  Co7  1  0.341251  0.170625  0.201869  1
  Co  Co8  1  0.829375  0.658749  0.201869  1
  Co  Co9  1  0.829375  0.170625  0.201869  1
  Sn  Sn10  1  0.666667  0.333333  0.186072  1
  Sn  Sn11  1  0.666667  0.333333  0.877820  1
  Sn  Sn12  1  0.333333  0.666667  0.124637  1
  Sn  Sn13  1  0.349059  0.345451  0.003921  1
  Sn  Sn14  1  0.996393  0.650941  0.003921  1
  Sn  Sn15  1  0.654549  0.003607  0.003921  1
  Sn  Sn16  1  0.654549  0.650941  0.003921  1
  Sn  Sn17  1  0.333333  0.666667  0.820126  1
  Sn  Sn18  1  0.435544  0.217772  0.455938  1
  Sn  Sn19  1  0.220008  0.779992  0.539588  1
  Sn  Sn20  1  0.220008  0.440015  0.539588  1
  Sn  Sn21  1  0.559985  0.779992  0.539588  1
  Sn  Sn22  1  0.116211  0.883789  0.269743  1
  Sn  Sn23  1  0.782228  0.564456  0.455938  1
  Sn  Sn24  1  0.782228  0.217772  0.455938  1
  Sn  Sn25  1  0.349059  0.003607  0.003921  1
  Sn  Sn26  1  0.116211  0.232423  0.269743  1
  Sn  Sn27  1  0.767577  0.883789  0.269743  1
  Sn  Sn28  1  0.234855  0.117428  0.725829  1
  Sn  Sn29  1  0.882572  0.765145  0.725829  1
  Sn  Sn30  1  0.882572  0.117428  0.725829  1
  Sn  Sn31  1  0.000000  0.000000  0.496242  1
  Sn  Sn32  1  0.996393  0.345451  0.003921  1
  Ru  Ru33  1  0.170055  0.829945  0.799964  1
  Ru  Ru34  1  0.170055  0.340111  0.799964  1
  Ru  Ru35  1  0.659889  0.829945  0.799964  1
