# generated using pymatgen
data_UCI
_symmetry_space_group_name_H-M   'P 1'
_cell_length_a   4.08338194
_cell_length_b   4.08338091
_cell_length_c   11.19137921
_cell_angle_alpha   93.43033635
_cell_angle_beta   93.43033769
_cell_angle_gamma   55.41642785
_symmetry_Int_Tables_number   1
_chemical_formula_structural   UCI
_chemical_formula_sum   'U2 C2 I2'
_cell_volume   153.28054288
_cell_formula_units_Z   2
loop_
 _symmetry_equiv_pos_site_id
 _symmetry_equiv_pos_as_xyz
  1  'x, y, z'
loop_
 _atom_site_type_symbol
 _atom_site_label
 _atom_site_symmetry_multiplicity
 _atom_site_fract_x
 _atom_site_fract_y
 _atom_site_fract_z
 _atom_site_occupancy
  U  U0  1  0.862067  0.862067  0.387868  1
  U  U1  1  0.137919  0.137919  0.612101  1
  C  C2  1  0.581551  0.581551  0.467709  1
  C  C3  1  0.418456  0.418456  0.532284  1
  I  I4  1  0.174855  0.174855  0.190081  1
  I  I5  1  0.825148  0.825148  0.809957  1
