# generated using pymatgen
data_Li3Ce4Si6Pd
_symmetry_space_group_name_H-M   'P 1'
_cell_length_a   9.38318818
_cell_length_b   9.38318875
_cell_length_c   6.75604265
_cell_angle_alpha   90.31942219
_cell_angle_beta   89.68057722
_cell_angle_gamma   153.11946366
_symmetry_Int_Tables_number   1
_chemical_formula_structural   Li3Ce4Si6Pd
_chemical_formula_sum   'Li3 Ce4 Si6 Pd1'
_cell_volume   268.93734823
_cell_formula_units_Z   1
loop_
 _symmetry_equiv_pos_site_id
 _symmetry_equiv_pos_as_xyz
  1  'x, y, z'
loop_
 _atom_site_type_symbol
 _atom_site_label
 _atom_site_symmetry_multiplicity
 _atom_site_fract_x
 _atom_site_fract_y
 _atom_site_fract_z
 _atom_site_occupancy
  Li  Li0  1  0.189906  0.810094  0.440126  1
  Li  Li1  1  0.189362  0.810638  0.061168  1
  Li  Li2  1  0.812950  0.187050  0.937863  1
  Ce  Ce3  1  0.550308  0.449692  0.251308  1
  Ce  Ce4  1  0.447008  0.552992  0.748618  1
  Ce  Ce5  1  0.342825  0.657175  0.251054  1
  Ce  Ce6  1  0.657319  0.342681  0.747027  1
  Si  Si7  1  0.941821  0.058179  0.076492  1
  Si  Si8  1  0.058885  0.941115  0.926044  1
  Si  Si9  1  0.057657  0.942343  0.573628  1
  Si  Si10  1  0.938729  0.061271  0.429886  1
  Si  Si11  1  0.721601  0.278399  0.254736  1
  Si  Si12  1  0.280605  0.719395  0.742370  1
  Pd  Pd13  1  0.811023  0.188977  0.559679  1
