# generated using pymatgen
data_Sc10In8HgRh3
_symmetry_space_group_name_H-M   'P 1'
_cell_length_a   17.72164504
_cell_length_b   7.79130779
_cell_length_c   3.38882500
_cell_angle_alpha   90.00000000
_cell_angle_beta   90.00000000
_cell_angle_gamma   89.74027335
_symmetry_Int_Tables_number   1
_chemical_formula_structural   Sc10In8HgRh3
_chemical_formula_sum   'Sc10 In8 Hg1 Rh3'
_cell_volume   467.90649600
_cell_formula_units_Z   1
loop_
 _symmetry_equiv_pos_site_id
 _symmetry_equiv_pos_as_xyz
  1  'x, y, z'
loop_
 _atom_site_type_symbol
 _atom_site_label
 _atom_site_symmetry_multiplicity
 _atom_site_fract_x
 _atom_site_fract_y
 _atom_site_fract_z
 _atom_site_occupancy
  Sc  Sc0  1  0.998369  0.000945  0.000000  1
  Sc  Sc1  1  0.427923  0.133868  0.000000  1
  Sc  Sc2  1  0.721924  0.245642  0.000000  1
  Sc  Sc3  1  0.214084  0.276070  0.000000  1
  Sc  Sc4  1  0.912748  0.375535  0.000000  1
  Sc  Sc5  1  0.501037  0.498950  0.000000  1
  Sc  Sc6  1  0.081131  0.623485  0.000000  1
  Sc  Sc7  1  0.778709  0.743933  0.000000  1
  Sc  Sc8  1  0.276995  0.724614  0.000000  1
  Sc  Sc9  1  0.587468  0.877466  0.000000  1
  In  In10  1  0.850432  0.069425  0.500001  1
  In  In11  1  0.570858  0.206232  0.500001  1
  In  In12  1  0.064099  0.297072  0.500001  1
  In  In13  1  0.352973  0.430981  0.500001  1
  In  In14  1  0.649091  0.570161  0.500001  1
  In  In15  1  0.932995  0.703060  0.500001  1
  In  In16  1  0.437581  0.796657  0.500001  1
  In  In17  1  0.144783  0.923028  0.500001  1
  Hg  Hg18  1  0.302846  0.036695  0.500001  1
  Rh  Rh19  1  0.805699  0.464422  0.500001  1
  Rh  Rh20  1  0.193006  0.538294  0.500001  1
  Rh  Rh21  1  0.695249  0.963468  0.500001  1
