# generated using pymatgen
data_Y3Mg3ZnSn2
_symmetry_space_group_name_H-M   'P 1'
_cell_length_a   7.50006700
_cell_length_b   7.50006764
_cell_length_c   4.52099500
_cell_angle_alpha   90.00000000
_cell_angle_beta   90.00000000
_cell_angle_gamma   120.00000160
_symmetry_Int_Tables_number   1
_chemical_formula_structural   Y3Mg3ZnSn2
_chemical_formula_sum   'Y3 Mg3 Zn1 Sn2'
_cell_volume   220.23937935
_cell_formula_units_Z   1
loop_
 _symmetry_equiv_pos_site_id
 _symmetry_equiv_pos_as_xyz
  1  'x, y, z'
loop_
 _atom_site_type_symbol
 _atom_site_label
 _atom_site_symmetry_multiplicity
 _atom_site_fract_x
 _atom_site_fract_y
 _atom_site_fract_z
 _atom_site_occupancy
  Y  Y0  1  0.000000  0.591451  0.000000  1
  Y  Y1  1  0.408549  0.408549  0.000000  1
  Y  Y2  1  0.591451  0.000000  0.000000  1
  Mg  Mg3  1  0.764449  0.764449  0.500000  1
  Mg  Mg4  1  0.235551  0.000000  0.500000  1
  Mg  Mg5  1  0.000000  0.235551  0.500000  1
  Zn  Zn6  1  0.000000  0.000000  0.000000  1
  Sn  Sn7  1  0.666667  0.333333  0.500000  1
  Sn  Sn8  1  0.333333  0.666667  0.500000  1
