# generated using pymatgen
data_Ba3Cr4(P3Rh)2
_symmetry_space_group_name_H-M   'P 1'
_cell_length_a   8.91861275
_cell_length_b   8.91729207
_cell_length_c   8.91729401
_cell_angle_alpha   153.98126333
_cell_angle_beta   90.34166784
_cell_angle_gamma   95.47268489
_symmetry_Int_Tables_number   1
_chemical_formula_structural   Ba3Cr4(P3Rh)2
_chemical_formula_sum   'Ba3 Cr4 P6 Rh2'
_cell_volume   302.77869835
_cell_formula_units_Z   1
loop_
 _symmetry_equiv_pos_site_id
 _symmetry_equiv_pos_as_xyz
  1  'x, y, z'
loop_
 _atom_site_type_symbol
 _atom_site_label
 _atom_site_symmetry_multiplicity
 _atom_site_fract_x
 _atom_site_fract_y
 _atom_site_fract_z
 _atom_site_occupancy
  Ba  Ba0  1  0.330034  0.330036  0.999998  1
  Ba  Ba1  1  0.666664  0.666638  0.000027  1
  Ba  Ba2  1  0.003249  0.003250  0.999999  1
  Cr  Cr3  1  0.583212  0.831883  0.751328  1
  Cr  Cr4  1  0.253160  0.501468  0.751692  1
  Cr  Cr5  1  0.749990  0.501522  0.248467  1
  Cr  Cr6  1  0.080471  0.831901  0.248569  1
  P  P7  1  0.320819  0.666672  0.654149  1
  P  P8  1  0.684397  0.337437  0.346960  1
  P  P9  1  0.990552  0.337502  0.653050  1
  P  P10  1  0.342857  0.995840  0.347017  1
  P  P11  1  0.012486  0.666696  0.345790  1
  P  P12  1  0.648824  0.995811  0.653012  1
  Rh  Rh13  1  0.417431  0.166666  0.250766  1
  Rh  Rh14  1  0.915852  0.166677  0.749174  1
