# generated using pymatgen
data_MgSc4Ti(B2Ir5)2
_symmetry_space_group_name_H-M   'P 1'
_cell_length_a   9.49647800
_cell_length_b   9.49647800
_cell_length_c   3.06941900
_cell_angle_alpha   90.00000000
_cell_angle_beta   90.00000000
_cell_angle_gamma   90.00000000
_symmetry_Int_Tables_number   1
_chemical_formula_structural   MgSc4Ti(B2Ir5)2
_chemical_formula_sum   'Mg1 Sc4 Ti1 B4 Ir10'
_cell_volume   276.80970344
_cell_formula_units_Z   1
loop_
 _symmetry_equiv_pos_site_id
 _symmetry_equiv_pos_as_xyz
  1  'x, y, z'
loop_
 _atom_site_type_symbol
 _atom_site_label
 _atom_site_symmetry_multiplicity
 _atom_site_fract_x
 _atom_site_fract_y
 _atom_site_fract_z
 _atom_site_occupancy
  Mg  Mg0  1  0.000000  0.000000  0.000000  1
  Sc  Sc1  1  0.678472  0.174457  0.000000  1
  Sc  Sc2  1  0.174457  0.321528  0.000000  1
  Sc  Sc3  1  0.825543  0.678472  0.000000  1
  Sc  Sc4  1  0.321528  0.825543  0.000000  1
  Ti  Ti5  1  0.500000  0.500000  0.000000  1
  B  B6  1  0.372517  0.119352  0.000000  1
  B  B7  1  0.880648  0.372517  0.000000  1
  B  B8  1  0.119352  0.627483  0.000000  1
  B  B9  1  0.627483  0.880648  0.000000  1
  Ir  Ir10  1  0.500000  0.000000  0.500000  1
  Ir  Ir11  1  0.219947  0.072323  0.500000  1
  Ir  Ir12  1  0.927677  0.219947  0.500000  1
  Ir  Ir13  1  0.431641  0.283051  0.500000  1
  Ir  Ir14  1  0.716949  0.431641  0.500000  1
  Ir  Ir15  1  0.000000  0.500000  0.500000  1
  Ir  Ir16  1  0.283051  0.568359  0.500000  1
  Ir  Ir17  1  0.568359  0.716949  0.500000  1
  Ir  Ir18  1  0.072323  0.780053  0.500000  1
  Ir  Ir19  1  0.780053  0.927677  0.500000  1
