# generated using pymatgen
data_Tm4Th(FeB3)2
_symmetry_space_group_name_H-M   'P 1'
_cell_length_a   5.39008400
_cell_length_b   5.39008588
_cell_length_c   8.04566623
_cell_angle_alpha   70.42940440
_cell_angle_beta   70.42940113
_cell_angle_gamma   60.00000970
_symmetry_Int_Tables_number   1
_chemical_formula_structural   Tm4Th(FeB3)2
_chemical_formula_sum   'Tm4 Th1 Fe2 B6'
_cell_volume   186.67849656
_cell_formula_units_Z   1
loop_
 _symmetry_equiv_pos_site_id
 _symmetry_equiv_pos_as_xyz
  1  'x, y, z'
loop_
 _atom_site_type_symbol
 _atom_site_label
 _atom_site_symmetry_multiplicity
 _atom_site_fract_x
 _atom_site_fract_y
 _atom_site_fract_z
 _atom_site_occupancy
  Tm  Tm0  1  0.748673  0.748673  0.753981  1
  Tm  Tm1  1  0.251327  0.251327  0.246019  1
  Tm  Tm2  1  0.584247  0.584247  0.247257  1
  Tm  Tm3  1  0.415753  0.415753  0.752743  1
  Th  Th4  1  0.000000  0.000000  0.000000  1
  Fe  Fe5  1  0.887861  0.887861  0.336418  1
  Fe  Fe6  1  0.112139  0.112139  0.663582  1
  B  B7  1  0.500000  0.167936  0.500000  1
  B  B8  1  0.832064  0.500000  0.500000  1
  B  B9  1  0.167936  0.832065  0.500000  1
  B  B10  1  0.167936  0.500000  0.500000  1
  B  B11  1  0.832064  0.167936  0.500000  1
  B  B12  1  0.500000  0.832064  0.500000  1
