# generated using pymatgen
data_Mg11Ga5Pd8
_symmetry_space_group_name_H-M   'P 1'
_cell_length_a   8.44384247
_cell_length_b   8.36755558
_cell_length_c   8.44384247
_cell_angle_alpha   119.70158848
_cell_angle_beta   90.43439851
_cell_angle_gamma   119.70158848
_symmetry_Int_Tables_number   1
_chemical_formula_structural   Mg11Ga5Pd8
_chemical_formula_sum   'Mg11 Ga5 Pd8'
_cell_volume   424.04931163
_cell_formula_units_Z   1
loop_
 _symmetry_equiv_pos_site_id
 _symmetry_equiv_pos_as_xyz
  1  'x, y, z'
loop_
 _atom_site_type_symbol
 _atom_site_label
 _atom_site_symmetry_multiplicity
 _atom_site_fract_x
 _atom_site_fract_y
 _atom_site_fract_z
 _atom_site_occupancy
  Mg  Mg0  1  0.429506  0.859596  0.178804  1
  Mg  Mg1  1  0.429506  0.248715  0.178804  1
  Mg  Mg2  1  0.176868  0.745452  0.427801  1
  Mg  Mg3  1  0.570417  0.750001  0.429585  1
  Mg  Mg4  1  0.176868  0.359216  0.427801  1
  Mg  Mg5  1  0.821197  0.251287  0.570495  1
  Mg  Mg6  1  0.821197  0.640405  0.570495  1
  Mg  Mg7  1  0.429193  0.250001  0.570809  1
  Mg  Mg8  1  0.572200  0.140783  0.823133  1
  Mg  Mg9  1  0.179774  0.750001  0.820228  1
  Mg  Mg10  1  0.572200  0.754550  0.823133  1
  Ga  Ga11  1  0.001054  0.000693  0.998946  1
  Ga  Ga12  1  0.001054  0.499307  0.998946  1
  Ga  Ga13  1  0.500475  0.502243  0.004012  1
  Ga  Ga14  1  0.819206  0.250001  0.180796  1
  Ga  Ga15  1  0.995988  0.997757  0.499525  1
  Pd  Pd16  1  0.216018  0.430755  0.145490  1
  Pd  Pd17  1  0.145494  0.930965  0.216434  1
  Pd  Pd18  1  0.785881  0.935958  0.214119  1
  Pd  Pd19  1  0.785882  0.564044  0.214119  1
  Pd  Pd20  1  0.215977  0.068806  0.784023  1
  Pd  Pd21  1  0.854510  0.069245  0.783982  1
  Pd  Pd22  1  0.215977  0.431194  0.784024  1
  Pd  Pd23  1  0.783567  0.569037  0.854506  1
