# generated using pymatgen
data_Lu3AlSiIr2
_symmetry_space_group_name_H-M   'P 1'
_cell_length_a   5.54106100
_cell_length_b   5.54105968
_cell_length_c   12.97060300
_cell_angle_alpha   90.00000000
_cell_angle_beta   90.00000000
_cell_angle_gamma   135.44254873
_symmetry_Int_Tables_number   1
_chemical_formula_structural   Lu3AlSiIr2
_chemical_formula_sum   'Lu6 Al2 Si2 Ir4'
_cell_volume   279.41545408
_cell_formula_units_Z   2
loop_
 _symmetry_equiv_pos_site_id
 _symmetry_equiv_pos_as_xyz
  1  'x, y, z'
loop_
 _atom_site_type_symbol
 _atom_site_label
 _atom_site_symmetry_multiplicity
 _atom_site_fract_x
 _atom_site_fract_y
 _atom_site_fract_z
 _atom_site_occupancy
  Lu  Lu0  1  0.014305  0.985695  0.250000  1
  Lu  Lu1  1  0.985695  0.014305  0.750000  1
  Lu  Lu2  1  0.711227  0.288773  0.604502  1
  Lu  Lu3  1  0.288773  0.711227  0.395498  1
  Lu  Lu4  1  0.288773  0.711227  0.104502  1
  Lu  Lu5  1  0.711227  0.288773  0.895498  1
  Al  Al6  1  0.000000  0.000000  0.000000  1
  Al  Al7  1  0.000000  0.000000  0.500000  1
  Si  Si8  1  0.717774  0.282226  0.250000  1
  Si  Si9  1  0.282226  0.717774  0.750000  1
  Ir  Ir10  1  0.417918  0.582082  0.591697  1
  Ir  Ir11  1  0.582082  0.417918  0.408303  1
  Ir  Ir12  1  0.582082  0.417918  0.091697  1
  Ir  Ir13  1  0.417918  0.582082  0.908303  1
