# generated using pymatgen
data_Ho4Ga18Ir5Ru
_symmetry_space_group_name_H-M   'P 1'
_cell_length_a   7.56764768
_cell_length_b   7.56764748
_cell_length_c   9.53447703
_cell_angle_alpha   89.97396446
_cell_angle_beta   89.97395967
_cell_angle_gamma   119.76627577
_symmetry_Int_Tables_number   1
_chemical_formula_structural   Ho4Ga18Ir5Ru
_chemical_formula_sum   'Ho4 Ga18 Ir5 Ru1'
_cell_volume   473.98778673
_cell_formula_units_Z   1
loop_
 _symmetry_equiv_pos_site_id
 _symmetry_equiv_pos_as_xyz
  1  'x, y, z'
loop_
 _atom_site_type_symbol
 _atom_site_label
 _atom_site_symmetry_multiplicity
 _atom_site_fract_x
 _atom_site_fract_y
 _atom_site_fract_z
 _atom_site_occupancy
  Ho  Ho0  1  0.997628  0.669332  0.249282  1
  Ho  Ho1  1  0.001420  0.330663  0.751257  1
  Ho  Ho2  1  0.669337  0.998580  0.248743  1
  Ho  Ho3  1  0.330668  0.002372  0.750718  1
  Ga  Ga4  1  0.128667  0.129072  0.249186  1
  Ga  Ga5  1  0.870928  0.871333  0.750814  1
  Ga  Ga6  1  0.000419  0.335051  0.079758  1
  Ga  Ga7  1  0.999019  0.665414  0.919890  1
  Ga  Ga8  1  0.997004  0.662398  0.578921  1
  Ga  Ga9  1  0.337602  0.002996  0.421079  1
  Ga  Ga10  1  0.998265  0.334770  0.420918  1
  Ga  Ga11  1  0.665230  0.001735  0.579082  1
  Ga  Ga12  1  0.664949  0.999581  0.920242  1
  Ga  Ga13  1  0.334586  0.000981  0.080110  1
  Ga  Ga14  1  0.335407  0.332719  0.563317  1
  Ga  Ga15  1  0.667281  0.664593  0.436683  1
  Ga  Ga16  1  0.666883  0.667035  0.064490  1
  Ga  Ga17  1  0.332965  0.333117  0.935510  1
  Ga  Ga18  1  0.338027  0.546675  0.249521  1
  Ga  Ga19  1  0.661771  0.451170  0.748858  1
  Ga  Ga20  1  0.548830  0.338229  0.251142  1
  Ga  Ga21  1  0.453325  0.661973  0.750479  1
  Ir  Ir22  1  0.671842  0.328158  0.000000  1
  Ir  Ir23  1  0.327676  0.672324  0.000000  1
  Ir  Ir24  1  0.328349  0.671651  0.500000  1
  Ir  Ir25  1  0.999807  0.000193  0.000000  1
  Ir  Ir26  1  0.000213  0.999787  0.500000  1
  Ru  Ru27  1  0.671902  0.328098  0.500000  1
