# generated using pymatgen
data_KBeAlAs2
_symmetry_space_group_name_H-M   'P 1'
_cell_length_a   7.76695931
_cell_length_b   7.76695872
_cell_length_c   7.76696114
_cell_angle_alpha   150.60964417
_cell_angle_beta   150.60963673
_cell_angle_gamma   42.04724807
_symmetry_Int_Tables_number   1
_chemical_formula_structural   KBeAlAs2
_chemical_formula_sum   'K1 Be1 Al1 As2'
_cell_volume   112.57885253
_cell_formula_units_Z   1
loop_
 _symmetry_equiv_pos_site_id
 _symmetry_equiv_pos_as_xyz
  1  'x, y, z'
loop_
 _atom_site_type_symbol
 _atom_site_label
 _atom_site_symmetry_multiplicity
 _atom_site_fract_x
 _atom_site_fract_y
 _atom_site_fract_z
 _atom_site_occupancy
  K  K0  1  0.000000  0.000000  0.000000  1
  Be  Be1  1  0.250000  0.750000  0.500000  1
  Al  Al2  1  0.750000  0.250000  0.500000  1
  As  As3  1  0.649290  0.649290  0.000000  1
  As  As4  1  0.350710  0.350710  0.000000  1
