# generated using pymatgen
data_PuOF8
_symmetry_space_group_name_H-M   'P 1'
_cell_length_a   6.05053600
_cell_length_b   8.16266600
_cell_length_c   7.71587800
_cell_angle_alpha   90.00000000
_cell_angle_beta   90.00000000
_cell_angle_gamma   90.00000000
_symmetry_Int_Tables_number   1
_chemical_formula_structural   PuOF8
_chemical_formula_sum   'Pu2 O2 F16'
_cell_volume   381.07567524
_cell_formula_units_Z   2
loop_
 _symmetry_equiv_pos_site_id
 _symmetry_equiv_pos_as_xyz
  1  'x, y, z'
loop_
 _atom_site_type_symbol
 _atom_site_label
 _atom_site_symmetry_multiplicity
 _atom_site_fract_x
 _atom_site_fract_y
 _atom_site_fract_z
 _atom_site_occupancy
  Pu  Pu0  1  0.998459  0.000000  0.500000  1
  Pu  Pu1  1  0.001541  0.500000  0.000000  1
  O  O2  1  0.645823  0.000000  0.000000  1
  O  O3  1  0.354177  0.500000  0.500000  1
  F  F4  1  0.497672  0.500000  0.646143  1
  F  F5  1  0.502328  0.000000  0.146143  1
  F  F6  1  0.502328  0.000000  0.853857  1
  F  F7  1  0.497672  0.500000  0.353857  1
  F  F8  1  0.765294  0.175728  0.500000  1
  F  F9  1  0.236671  0.171640  0.500000  1
  F  F10  1  0.999840  0.500000  0.740485  1
  F  F11  1  0.765294  0.824272  0.500000  1
  F  F12  1  0.000160  0.000000  0.240485  1
  F  F13  1  0.763329  0.328360  0.000000  1
  F  F14  1  0.000160  0.000000  0.759515  1
  F  F15  1  0.236671  0.828360  0.500000  1
  F  F16  1  0.999840  0.500000  0.259515  1
  F  F17  1  0.763329  0.671640  0.000000  1
  F  F18  1  0.234706  0.324272  0.000000  1
  F  F19  1  0.234706  0.675728  0.000000  1
