# generated using pymatgen
data_Dy2Tm7ScCd3Ru
_symmetry_space_group_name_H-M   'P 1'
_cell_length_a   9.45783764
_cell_length_b   9.45807028
_cell_length_c   9.63452600
_cell_angle_alpha   90.00000000
_cell_angle_beta   90.00000000
_cell_angle_gamma   120.00082411
_symmetry_Int_Tables_number   1
_chemical_formula_structural   Dy2Tm7ScCd3Ru
_chemical_formula_sum   'Dy4 Tm14 Sc2 Cd6 Ru2'
_cell_volume   746.36586650
_cell_formula_units_Z   2
loop_
 _symmetry_equiv_pos_site_id
 _symmetry_equiv_pos_as_xyz
  1  'x, y, z'
loop_
 _atom_site_type_symbol
 _atom_site_label
 _atom_site_symmetry_multiplicity
 _atom_site_fract_x
 _atom_site_fract_y
 _atom_site_fract_z
 _atom_site_occupancy
  Dy  Dy0  1  0.916950  0.458475  0.250000  1
  Dy  Dy1  1  0.460058  0.540256  0.750000  1
  Dy  Dy2  1  0.460058  0.919802  0.750000  1
  Dy  Dy3  1  0.080463  0.540231  0.750000  1
  Tm  Tm4  1  0.209764  0.791772  0.440512  1
  Tm  Tm5  1  0.209764  0.417991  0.440512  1
  Tm  Tm6  1  0.582318  0.791159  0.440836  1
  Tm  Tm7  1  0.790062  0.208449  0.558339  1
  Tm  Tm8  1  0.790062  0.581613  0.558339  1
  Tm  Tm9  1  0.418810  0.209406  0.557362  1
  Tm  Tm10  1  0.790062  0.208449  0.941661  1
  Tm  Tm11  1  0.790062  0.581613  0.941661  1
  Tm  Tm12  1  0.418810  0.209406  0.942638  1
  Tm  Tm13  1  0.209764  0.791772  0.059488  1
  Tm  Tm14  1  0.209764  0.417991  0.059488  1
  Tm  Tm15  1  0.582318  0.791159  0.059164  1
  Tm  Tm16  1  0.539368  0.459254  0.250000  1
  Tm  Tm17  1  0.539368  0.080114  0.250000  1
  Sc  Sc18  1  0.000330  0.000165  0.499951  1
  Sc  Sc19  1  0.000330  0.000165  0.000049  1
  Cd  Cd20  1  0.888509  0.109943  0.250000  1
  Cd  Cd21  1  0.888509  0.778567  0.250000  1
  Cd  Cd22  1  0.222879  0.111440  0.250000  1
  Cd  Cd23  1  0.110628  0.890037  0.750000  1
  Cd  Cd24  1  0.110628  0.220591  0.750000  1
  Cd  Cd25  1  0.779016  0.889507  0.750000  1
  Ru  Ru26  1  0.333705  0.666853  0.250000  1
  Ru  Ru27  1  0.667637  0.333818  0.750000  1
