# generated using pymatgen
data_Sr2Ca2MnVN6
_symmetry_space_group_name_H-M   'P 1'
_cell_length_a   6.04887429
_cell_length_b   6.04887457
_cell_length_c   11.97350748
_cell_angle_alpha   90.37406053
_cell_angle_beta   89.62594085
_cell_angle_gamma   124.80109681
_symmetry_Int_Tables_number   1
_chemical_formula_structural   Sr2Ca2MnVN6
_chemical_formula_sum   'Sr4 Ca4 Mn2 V2 N12'
_cell_volume   359.72866330
_cell_formula_units_Z   2
loop_
 _symmetry_equiv_pos_site_id
 _symmetry_equiv_pos_as_xyz
  1  'x, y, z'
loop_
 _atom_site_type_symbol
 _atom_site_label
 _atom_site_symmetry_multiplicity
 _atom_site_fract_x
 _atom_site_fract_y
 _atom_site_fract_z
 _atom_site_occupancy
  Sr  Sr0  1  0.453660  0.546340  0.353235  1
  Sr  Sr1  1  0.546340  0.453660  0.646765  1
  Sr  Sr2  1  0.049622  0.950378  0.854362  1
  Sr  Sr3  1  0.950378  0.049622  0.145638  1
  Ca  Ca4  1  0.141611  0.858389  0.422532  1
  Ca  Ca5  1  0.858389  0.141611  0.577468  1
  Ca  Ca6  1  0.357978  0.642022  0.923003  1
  Ca  Ca7  1  0.642022  0.357978  0.076997  1
  Mn  Mn8  1  0.241713  0.758287  0.657887  1
  Mn  Mn9  1  0.758287  0.241713  0.342113  1
  V  V10  1  0.257498  0.742502  0.163044  1
  V  V11  1  0.742502  0.257498  0.836956  1
  N  N12  1  0.164075  0.835925  0.040641  1
  N  N13  1  0.835925  0.164075  0.959359  1
  N  N14  1  0.335239  0.664761  0.539360  1
  N  N15  1  0.664761  0.335239  0.460640  1
  N  N16  1  0.420028  0.579972  0.128019  1
  N  N17  1  0.579972  0.420028  0.871981  1
  N  N18  1  0.080940  0.919060  0.627476  1
  N  N19  1  0.919060  0.080940  0.372524  1
  N  N20  1  0.958606  0.529192  0.252303  1
  N  N21  1  0.529192  0.958606  0.747697  1
  N  N22  1  0.041394  0.470808  0.747697  1
  N  N23  1  0.470808  0.041394  0.252303  1
