# generated using pymatgen
data_Sm2DyY3(SiRh2)6
_symmetry_space_group_name_H-M   'P 1'
_cell_length_a   5.60242100
_cell_length_b   5.60241946
_cell_length_c   15.01807900
_cell_angle_alpha   90.00000000
_cell_angle_beta   90.00000000
_cell_angle_gamma   119.99999136
_symmetry_Int_Tables_number   1
_chemical_formula_structural   Sm2DyY3(SiRh2)6
_chemical_formula_sum   'Sm2 Dy1 Y3 Si6 Rh12'
_cell_volume   408.22201058
_cell_formula_units_Z   1
loop_
 _symmetry_equiv_pos_site_id
 _symmetry_equiv_pos_as_xyz
  1  'x, y, z'
loop_
 _atom_site_type_symbol
 _atom_site_label
 _atom_site_symmetry_multiplicity
 _atom_site_fract_x
 _atom_site_fract_y
 _atom_site_fract_z
 _atom_site_occupancy
  Sm  Sm0  1  0.666667  0.333333  0.750091  1
  Sm  Sm1  1  0.333333  0.666667  0.250000  1
  Dy  Dy2  1  0.666667  0.333333  0.963332  1
  Y  Y3  1  0.666667  0.333333  0.536720  1
  Y  Y4  1  0.333333  0.666667  0.036696  1
  Y  Y5  1  0.333333  0.666667  0.463298  1
  Si  Si6  1  0.666667  0.333333  0.250023  1
  Si  Si7  1  0.000000  0.000000  0.500015  1
  Si  Si8  1  0.000000  0.000000  0.250009  1
  Si  Si9  1  0.000000  0.000000  0.749965  1
  Si  Si10  1  0.333333  0.666667  0.749979  1
  Si  Si11  1  0.000000  0.000000  0.999995  1
  Rh  Rh12  1  0.166555  0.333110  0.869245  1
  Rh  Rh13  1  0.166565  0.333131  0.630811  1
  Rh  Rh14  1  0.666890  0.833445  0.869245  1
  Rh  Rh15  1  0.333068  0.166534  0.369187  1
  Rh  Rh16  1  0.833466  0.666932  0.369187  1
  Rh  Rh17  1  0.833466  0.166534  0.369187  1
  Rh  Rh18  1  0.833396  0.166604  0.130715  1
  Rh  Rh19  1  0.333209  0.166604  0.130715  1
  Rh  Rh20  1  0.666869  0.833435  0.630811  1
  Rh  Rh21  1  0.166565  0.833435  0.630811  1
  Rh  Rh22  1  0.833396  0.666791  0.130715  1
  Rh  Rh23  1  0.166555  0.833445  0.869245  1
