# generated using pymatgen
data_Sn14GeIr3O14
_symmetry_space_group_name_H-M   'P 1'
_cell_length_a   7.26244734
_cell_length_b   7.30124825
_cell_length_c   13.12427105
_cell_angle_alpha   74.38912437
_cell_angle_beta   73.93785141
_cell_angle_gamma   60.17564489
_symmetry_Int_Tables_number   1
_chemical_formula_structural   Sn14GeIr3O14
_chemical_formula_sum   'Sn14 Ge1 Ir3 O14'
_cell_volume   572.91135382
_cell_formula_units_Z   1
loop_
 _symmetry_equiv_pos_site_id
 _symmetry_equiv_pos_as_xyz
  1  'x, y, z'
loop_
 _atom_site_type_symbol
 _atom_site_label
 _atom_site_symmetry_multiplicity
 _atom_site_fract_x
 _atom_site_fract_y
 _atom_site_fract_z
 _atom_site_occupancy
  Sn  Sn0  1  0.490482  0.601920  0.417116  1
  Sn  Sn1  1  0.494511  0.075384  0.425913  1
  Sn  Sn2  1  0.004194  0.075384  0.425913  1
  Sn  Sn3  1  0.098033  0.147409  0.656525  1
  Sn  Sn4  1  0.428587  0.992771  0.150054  1
  Sn  Sn5  1  0.155321  0.773800  0.915558  1
  Sn  Sn6  1  0.423413  0.510782  0.157767  1
  Sn  Sn7  1  0.908038  0.510782  0.157767  1
  Sn  Sn8  1  0.674930  0.758089  0.892050  1
  Sn  Sn9  1  0.676988  0.263757  0.915946  1
  Sn  Sn10  1  0.143309  0.263757  0.915946  1
  Sn  Sn11  1  0.577139  0.673040  0.650915  1
  Sn  Sn12  1  0.098906  0.673040  0.650915  1
  Sn  Sn13  1  0.021277  0.578135  0.379312  1
  Ge  Ge14  1  0.903343  0.021745  0.171569  1
  Ir  Ir15  1  0.705455  0.289913  0.299178  1
  Ir  Ir16  1  0.884108  0.462086  0.769698  1
  Ir  Ir17  1  0.291568  0.386019  0.030844  1
  O  O18  1  0.124266  0.712027  0.464818  1
  O  O19  1  0.698889  0.712027  0.464818  1
  O  O20  1  0.930377  0.119790  0.019457  1
  O  O21  1  0.123338  0.273926  0.479399  1
  O  O22  1  0.629190  0.680437  0.061181  1
  O  O23  1  0.429897  0.554288  0.585919  1
  O  O24  1  0.343272  0.940412  0.373044  1
  O  O25  1  0.431814  0.003784  0.594707  1
  O  O26  1  0.969693  0.003784  0.594707  1
  O  O27  1  0.353037  0.949870  0.881578  1
  O  O28  1  0.815514  0.949870  0.881578  1
  O  O29  1  0.785124  0.843877  0.177501  1
  O  O30  1  0.193497  0.843877  0.177501  1
  O  O31  1  0.232859  0.792704  0.741576  1
