# generated using pymatgen
data_Lu4Pa2FeCo17P12
_symmetry_space_group_name_H-M   'P 1'
_cell_length_a   3.68866400
_cell_length_b   10.49120100
_cell_length_c   12.09156200
_cell_angle_alpha   90.00000000
_cell_angle_beta   90.00000000
_cell_angle_gamma   90.00000000
_symmetry_Int_Tables_number   1
_chemical_formula_structural   Lu4Pa2FeCo17P12
_chemical_formula_sum   'Lu4 Pa2 Fe1 Co17 P12'
_cell_volume   467.92549882
_cell_formula_units_Z   1
loop_
 _symmetry_equiv_pos_site_id
 _symmetry_equiv_pos_as_xyz
  1  'x, y, z'
loop_
 _atom_site_type_symbol
 _atom_site_label
 _atom_site_symmetry_multiplicity
 _atom_site_fract_x
 _atom_site_fract_y
 _atom_site_fract_z
 _atom_site_occupancy
  Lu  Lu0  1  0.500000  0.816249  0.204727  1
  Lu  Lu1  1  0.500000  0.183751  0.204727  1
  Lu  Lu2  1  0.000000  0.683477  0.795732  1
  Lu  Lu3  1  0.000000  0.316523  0.795732  1
  Pa  Pa4  1  0.000000  0.500000  0.529316  1
  Pa  Pa5  1  0.500000  0.000000  0.469985  1
  Fe  Fe6  1  0.500000  0.500000  0.156683  1
  Co  Co7  1  0.000000  0.000000  0.841704  1
  Co  Co8  1  0.500000  0.500000  0.698215  1
  Co  Co9  1  0.000000  0.000000  0.301728  1
  Co  Co10  1  0.000000  0.500000  0.985288  1
  Co  Co11  1  0.500000  0.000000  0.014666  1
  Co  Co12  1  0.500000  0.333346  0.993596  1
  Co  Co13  1  0.500000  0.666654  0.993596  1
  Co  Co14  1  0.000000  0.166316  0.006439  1
  Co  Co15  1  0.000000  0.833684  0.006439  1
  Co  Co16  1  0.500000  0.300644  0.432030  1
  Co  Co17  1  0.500000  0.699356  0.432030  1
  Co  Co18  1  0.000000  0.199081  0.568476  1
  Co  Co19  1  0.000000  0.800919  0.568476  1
  Co  Co20  1  0.500000  0.879124  0.711081  1
  Co  Co21  1  0.500000  0.120876  0.711081  1
  Co  Co22  1  0.000000  0.621436  0.289277  1
  Co  Co23  1  0.000000  0.378564  0.289277  1
  P  P24  1  0.500000  0.500000  0.878898  1
  P  P25  1  0.000000  0.000000  0.120939  1
  P  P26  1  0.500000  0.500000  0.342840  1
  P  P27  1  0.000000  0.000000  0.656449  1
  P  P28  1  0.500000  0.307391  0.618868  1
  P  P29  1  0.500000  0.692609  0.618868  1
  P  P30  1  0.000000  0.192803  0.381146  1
  P  P31  1  0.000000  0.807197  0.381146  1
  P  P32  1  0.500000  0.846122  0.893361  1
  P  P33  1  0.500000  0.153878  0.893361  1
  P  P34  1  0.000000  0.653604  0.106912  1
  P  P35  1  0.000000  0.346396  0.106912  1
