# generated using pymatgen
data_Tm5Pa(Al3Os)8
_symmetry_space_group_name_H-M   'P 1'
_cell_length_a   8.77563900
_cell_length_b   8.81411500
_cell_length_c   9.54594100
_cell_angle_alpha   90.00000000
_cell_angle_beta   90.00000000
_cell_angle_gamma   119.85570651
_symmetry_Int_Tables_number   1
_chemical_formula_structural   Tm5Pa(Al3Os)8
_chemical_formula_sum   'Tm5 Pa1 Al24 Os8'
_cell_volume   640.37809491
_cell_formula_units_Z   1
loop_
 _symmetry_equiv_pos_site_id
 _symmetry_equiv_pos_as_xyz
  1  'x, y, z'
loop_
 _atom_site_type_symbol
 _atom_site_label
 _atom_site_symmetry_multiplicity
 _atom_site_fract_x
 _atom_site_fract_y
 _atom_site_fract_z
 _atom_site_occupancy
  Tm  Tm0  1  0.806949  0.613897  0.750000  1
  Tm  Tm1  1  0.608772  0.802412  0.250000  1
  Tm  Tm2  1  0.390320  0.193044  0.750000  1
  Tm  Tm3  1  0.193640  0.802412  0.250000  1
  Tm  Tm4  1  0.802723  0.193044  0.750000  1
  Pa  Pa5  1  0.196592  0.393183  0.250000  1
  Al  Al6  1  0.336481  0.672963  0.020056  1
  Al  Al7  1  0.667874  0.335746  0.977849  1
  Al  Al8  1  0.667874  0.335746  0.522151  1
  Al  Al9  1  0.336481  0.672963  0.479944  1
  Al  Al10  1  0.163027  0.326055  0.578724  1
  Al  Al11  1  0.836581  0.673163  0.424745  1
  Al  Al12  1  0.672599  0.835356  0.575314  1
  Al  Al13  1  0.836581  0.673163  0.075255  1
  Al  Al14  1  0.326804  0.162295  0.423794  1
  Al  Al15  1  0.163027  0.326055  0.921276  1
  Al  Al16  1  0.162757  0.835356  0.575314  1
  Al  Al17  1  0.326804  0.162295  0.076206  1
  Al  Al18  1  0.835491  0.162295  0.423794  1
  Al  Al19  1  0.672599  0.835356  0.924686  1
  Al  Al20  1  0.835491  0.162295  0.076206  1
  Al  Al21  1  0.162757  0.835356  0.924686  1
  Al  Al22  1  0.559909  0.119819  0.250000  1
  Al  Al23  1  0.437798  0.875597  0.750000  1
  Al  Al24  1  0.872526  0.437654  0.250000  1
  Al  Al25  1  0.120254  0.559649  0.750000  1
  Al  Al26  1  0.565128  0.437654  0.250000  1
  Al  Al27  1  0.439395  0.559649  0.750000  1
  Al  Al28  1  0.000345  0.000690  0.250000  1
  Al  Al29  1  0.000474  0.000947  0.750000  1
  Os  Os30  1  0.501858  0.003715  0.997588  1
  Os  Os31  1  0.003019  0.499807  0.004440  1
  Os  Os32  1  0.501858  0.003715  0.502412  1
  Os  Os33  1  0.496789  0.499807  0.004440  1
  Os  Os34  1  0.003019  0.499807  0.495560  1
  Os  Os35  1  0.496789  0.499807  0.495560  1
  Os  Os36  1  0.999308  0.998616  0.999280  1
  Os  Os37  1  0.999308  0.998616  0.500720  1
