# generated using pymatgen
data_Th3Ni3As4
_symmetry_space_group_name_H-M   'P 1'
_cell_length_a   7.98086741
_cell_length_b   7.98086741
_cell_length_c   7.98086700
_cell_angle_alpha   109.47121958
_cell_angle_beta   109.47121960
_cell_angle_gamma   109.47122166
_symmetry_Int_Tables_number   1
_chemical_formula_structural   Th3Ni3As4
_chemical_formula_sum   'Th6 Ni6 As8'
_cell_volume   391.31669772
_cell_formula_units_Z   2
loop_
 _symmetry_equiv_pos_site_id
 _symmetry_equiv_pos_as_xyz
  1  'x, y, z'
loop_
 _atom_site_type_symbol
 _atom_site_label
 _atom_site_symmetry_multiplicity
 _atom_site_fract_x
 _atom_site_fract_y
 _atom_site_fract_z
 _atom_site_occupancy
  Th  Th0  1  0.875000  0.250000  0.125000  1
  Th  Th1  1  0.625000  0.750000  0.375000  1
  Th  Th2  1  0.250000  0.125000  0.875000  1
  Th  Th3  1  0.750000  0.375000  0.625000  1
  Th  Th4  1  0.125000  0.875000  0.250000  1
  Th  Th5  1  0.375000  0.625000  0.750000  1
  Ni  Ni6  1  0.375000  0.250000  0.625000  1
  Ni  Ni7  1  0.125000  0.750000  0.875000  1
  Ni  Ni8  1  0.250000  0.625000  0.375000  1
  Ni  Ni9  1  0.750000  0.875000  0.125000  1
  Ni  Ni10  1  0.625000  0.375000  0.250000  1
  Ni  Ni11  1  0.875000  0.125000  0.750000  1
  As  As12  1  0.659218  0.500000  0.000000  1
  As  As13  1  0.500000  0.000000  0.659218  1
  As  As14  1  0.000000  0.659218  0.500000  1
  As  As15  1  0.840782  0.840782  0.840782  1
  As  As16  1  0.500000  0.000000  0.159218  1
  As  As17  1  0.159218  0.500000  0.000000  1
  As  As18  1  0.000000  0.159218  0.500000  1
  As  As19  1  0.340782  0.340782  0.340782  1
