# generated using pymatgen
data_Ce8HfSi16Mo11
_symmetry_space_group_name_H-M   'P 1'
_cell_length_a   6.92920408
_cell_length_b   7.02543598
_cell_length_c   13.08758400
_cell_angle_alpha   90.00000000
_cell_angle_beta   90.00000000
_cell_angle_gamma   90.11860697
_symmetry_Int_Tables_number   1
_chemical_formula_structural   Ce8HfSi16Mo11
_chemical_formula_sum   'Ce8 Hf1 Si16 Mo11'
_cell_volume   637.11111872
_cell_formula_units_Z   1
loop_
 _symmetry_equiv_pos_site_id
 _symmetry_equiv_pos_as_xyz
  1  'x, y, z'
loop_
 _atom_site_type_symbol
 _atom_site_label
 _atom_site_symmetry_multiplicity
 _atom_site_fract_x
 _atom_site_fract_y
 _atom_site_fract_z
 _atom_site_occupancy
  Ce  Ce0  1  0.004135  0.161872  0.093991  1
  Ce  Ce1  1  0.505041  0.339194  0.406249  1
  Ce  Ce2  1  0.496389  0.663237  0.907641  1
  Ce  Ce3  1  0.997063  0.835861  0.591767  1
  Ce  Ce4  1  0.997063  0.835861  0.908233  1
  Ce  Ce5  1  0.496389  0.663237  0.592359  1
  Ce  Ce6  1  0.505041  0.339194  0.093751  1
  Ce  Ce7  1  0.004135  0.161872  0.406009  1
  Hf  Hf8  1  0.332813  0.002739  0.750000  1
  Si  Si9  1  0.808356  0.376824  0.250000  1
  Si  Si10  1  0.309275  0.124650  0.250000  1
  Si  Si11  1  0.701920  0.873025  0.750000  1
  Si  Si12  1  0.191985  0.617009  0.750000  1
  Si  Si13  1  0.037837  0.860393  0.250000  1
  Si  Si14  1  0.540745  0.641370  0.250000  1
  Si  Si15  1  0.464194  0.371271  0.750000  1
  Si  Si16  1  0.953297  0.139655  0.750000  1
  Si  Si17  1  0.842767  0.454228  0.953741  1
  Si  Si18  1  0.343595  0.044215  0.541482  1
  Si  Si19  1  0.654816  0.955077  0.048533  1
  Si  Si20  1  0.155705  0.544388  0.451879  1
  Si  Si21  1  0.155705  0.544388  0.048121  1
  Si  Si22  1  0.654816  0.955077  0.451467  1
  Si  Si23  1  0.343595  0.044215  0.958518  1
  Si  Si24  1  0.842767  0.454228  0.546259  1
  Mo  Mo25  1  0.668895  0.002546  0.250000  1
  Mo  Mo26  1  0.168574  0.498373  0.250000  1
  Mo  Mo27  1  0.832197  0.498684  0.750000  1
  Mo  Mo28  1  0.833349  0.664084  0.125762  1
  Mo  Mo29  1  0.330734  0.835116  0.372115  1
  Mo  Mo30  1  0.665677  0.167359  0.875825  1
  Mo  Mo31  1  0.165686  0.332102  0.624428  1
  Mo  Mo32  1  0.165686  0.332102  0.875572  1
  Mo  Mo33  1  0.665677  0.167359  0.624175  1
  Mo  Mo34  1  0.330734  0.835116  0.127885  1
  Mo  Mo35  1  0.833349  0.664084  0.374238  1
