# generated using pymatgen
data_Zr8In4Cu2PtAu5
_symmetry_space_group_name_H-M   'P 1'
_cell_length_a   7.54343884
_cell_length_b   7.54343957
_cell_length_c   7.09455473
_cell_angle_alpha   90.02752013
_cell_angle_beta   90.02752606
_cell_angle_gamma   90.78333820
_symmetry_Int_Tables_number   1
_chemical_formula_structural   Zr8In4Cu2PtAu5
_chemical_formula_sum   'Zr8 In4 Cu2 Pt1 Au5'
_cell_volume   403.66699380
_cell_formula_units_Z   1
loop_
 _symmetry_equiv_pos_site_id
 _symmetry_equiv_pos_as_xyz
  1  'x, y, z'
loop_
 _atom_site_type_symbol
 _atom_site_label
 _atom_site_symmetry_multiplicity
 _atom_site_fract_x
 _atom_site_fract_y
 _atom_site_fract_z
 _atom_site_occupancy
  Zr  Zr0  1  0.150616  0.150616  0.004604  1
  Zr  Zr1  1  0.843370  0.843370  0.998995  1
  Zr  Zr2  1  0.645773  0.358860  0.494684  1
  Zr  Zr3  1  0.358860  0.645773  0.494684  1
  Zr  Zr4  1  0.690962  0.313455  0.004340  1
  Zr  Zr5  1  0.313455  0.690962  0.004340  1
  Zr  Zr6  1  0.795938  0.795938  0.499669  1
  Zr  Zr7  1  0.201736  0.201736  0.494553  1
  In  In8  1  0.502683  0.995937  0.246951  1
  In  In9  1  0.502472  0.992296  0.750749  1
  In  In10  1  0.995937  0.502683  0.246951  1
  In  In11  1  0.992296  0.502472  0.750749  1
  Cu  Cu12  1  0.626898  0.626898  0.798790  1
  Cu  Cu13  1  0.627898  0.627898  0.199176  1
  Pt  Pt14  1  0.377412  0.377412  0.210098  1
  Au  Au15  1  0.869488  0.129899  0.707783  1
  Au  Au16  1  0.869502  0.128359  0.294949  1
  Au  Au17  1  0.376445  0.376445  0.795203  1
  Au  Au18  1  0.128359  0.869502  0.294949  1
  Au  Au19  1  0.129899  0.869488  0.707783  1
