# generated using pymatgen
data_CeEr3CdIr
_symmetry_space_group_name_H-M   'P 1'
_cell_length_a   9.60560616
_cell_length_b   9.60560574
_cell_length_c   9.60560600
_cell_angle_alpha   59.99999911
_cell_angle_beta   60.00000055
_cell_angle_gamma   59.99999694
_symmetry_Int_Tables_number   1
_chemical_formula_structural   CeEr3CdIr
_chemical_formula_sum   'Ce4 Er12 Cd4 Ir4'
_cell_volume   626.69942070
_cell_formula_units_Z   4
loop_
 _symmetry_equiv_pos_site_id
 _symmetry_equiv_pos_as_xyz
  1  'x, y, z'
loop_
 _atom_site_type_symbol
 _atom_site_label
 _atom_site_symmetry_multiplicity
 _atom_site_fract_x
 _atom_site_fract_y
 _atom_site_fract_z
 _atom_site_occupancy
  Ce  Ce0  1  0.599741  0.599741  0.599741  1
  Ce  Ce1  1  0.599741  0.599741  0.200777  1
  Ce  Ce2  1  0.599741  0.200777  0.599741  1
  Ce  Ce3  1  0.200777  0.599741  0.599741  1
  Er  Er4  1  0.060985  0.439015  0.439015  1
  Er  Er5  1  0.439015  0.060985  0.060985  1
  Er  Er6  1  0.439015  0.060985  0.439015  1
  Er  Er7  1  0.060985  0.439015  0.060985  1
  Er  Er8  1  0.439015  0.439015  0.060985  1
  Er  Er9  1  0.060985  0.060985  0.439015  1
  Er  Er10  1  0.187125  0.812875  0.812875  1
  Er  Er11  1  0.812875  0.187125  0.187125  1
  Er  Er12  1  0.812875  0.187125  0.812875  1
  Er  Er13  1  0.187125  0.812875  0.187125  1
  Er  Er14  1  0.812875  0.812875  0.187125  1
  Er  Er15  1  0.187125  0.187125  0.812875  1
  Cd  Cd16  1  0.831789  0.831789  0.831789  1
  Cd  Cd17  1  0.831789  0.831789  0.504632  1
  Cd  Cd18  1  0.831789  0.504632  0.831789  1
  Cd  Cd19  1  0.504632  0.831789  0.831789  1
  Ir  Ir20  1  0.392672  0.392672  0.392672  1
  Ir  Ir21  1  0.392672  0.392672  0.821983  1
  Ir  Ir22  1  0.392672  0.821983  0.392672  1
  Ir  Ir23  1  0.821983  0.392672  0.392672  1
