# generated using pymatgen
data_YHo7Ti11Si16Hg
_symmetry_space_group_name_H-M   'P 1'
_cell_length_a   7.07152792
_cell_length_b   7.07120468
_cell_length_c   12.90814405
_cell_angle_alpha   90.12269673
_cell_angle_beta   89.87329170
_cell_angle_gamma   89.59808223
_symmetry_Int_Tables_number   1
_chemical_formula_structural   YHo7Ti11Si16Hg
_chemical_formula_sum   'Y1 Ho7 Ti11 Si16 Hg1'
_cell_volume   645.44273121
_cell_formula_units_Z   1
loop_
 _symmetry_equiv_pos_site_id
 _symmetry_equiv_pos_as_xyz
  1  'x, y, z'
loop_
 _atom_site_type_symbol
 _atom_site_label
 _atom_site_symmetry_multiplicity
 _atom_site_fract_x
 _atom_site_fract_y
 _atom_site_fract_z
 _atom_site_occupancy
  Y  Y0  1  0.341080  0.002476  0.466928  1
  Ho  Ho1  1  0.498127  0.839485  0.716162  1
  Ho  Ho2  1  0.501408  0.157361  0.215043  1
  Ho  Ho3  1  0.839542  0.498071  0.283996  1
  Ho  Ho4  1  0.157275  0.501309  0.784908  1
  Ho  Ho5  1  0.657084  0.000236  0.968322  1
  Ho  Ho6  1  0.001966  0.341475  0.533122  1
  Ho  Ho7  1  0.000199  0.657072  0.031547  1
  Ti  Ti8  1  0.173471  0.826580  0.250513  1
  Ti  Ti9  1  0.826664  0.173572  0.749395  1
  Ti  Ti10  1  0.673181  0.672787  0.500011  1
  Ti  Ti11  1  0.147199  0.008268  0.876859  1
  Ti  Ti12  1  0.495454  0.650004  0.123826  1
  Ti  Ti13  1  0.507343  0.351558  0.624647  1
  Ti  Ti14  1  0.650035  0.495439  0.876174  1
  Ti  Ti15  1  0.351420  0.507290  0.375423  1
  Ti  Ti16  1  0.849604  0.991655  0.374685  1
  Ti  Ti17  1  0.008254  0.147240  0.123153  1
  Ti  Ti18  1  0.991538  0.849565  0.625383  1
  Si  Si19  1  0.201808  0.132077  0.683979  1
  Si  Si20  1  0.373852  0.724290  0.927256  1
  Si  Si21  1  0.631804  0.294772  0.432755  1
  Si  Si22  1  0.724294  0.373845  0.072718  1
  Si  Si23  1  0.294394  0.631069  0.567296  1
  Si  Si24  1  0.798160  0.867178  0.183209  1
  Si  Si25  1  0.131622  0.202233  0.315972  1
  Si  Si26  1  0.867210  0.798190  0.816844  1
  Si  Si27  1  0.286043  0.933079  0.067497  1
  Si  Si28  1  0.546919  0.791037  0.314711  1
  Si  Si29  1  0.458671  0.205016  0.805525  1
  Si  Si30  1  0.791393  0.546557  0.685073  1
  Si  Si31  1  0.204996  0.458648  0.194523  1
  Si  Si32  1  0.709839  0.047922  0.564228  1
  Si  Si33  1  0.933093  0.286011  0.932468  1
  Si  Si34  1  0.047539  0.709102  0.435839  1
  Hg  Hg35  1  0.327515  0.327529  0.000010  1
