# generated using pymatgen
data_Cs2MoP4O13
_symmetry_space_group_name_H-M   'P 1'
_cell_length_a   5.21970759
_cell_length_b   8.12170301
_cell_length_c   16.05204600
_cell_angle_alpha   84.22910926
_cell_angle_beta   83.93934690
_cell_angle_gamma   80.49840076
_symmetry_Int_Tables_number   1
_chemical_formula_structural   Cs2MoP4O13
_chemical_formula_sum   'Cs4 Mo2 P8 O26'
_cell_volume   665.00475094
_cell_formula_units_Z   2
loop_
 _symmetry_equiv_pos_site_id
 _symmetry_equiv_pos_as_xyz
  1  'x, y, z'
loop_
 _atom_site_type_symbol
 _atom_site_label
 _atom_site_symmetry_multiplicity
 _atom_site_fract_x
 _atom_site_fract_y
 _atom_site_fract_z
 _atom_site_occupancy
  Cs  Cs0  1  0.680587  0.738810  0.988361  1
  Cs  Cs1  1  0.319413  0.261190  0.011639  1
  Cs  Cs2  1  0.266796  0.300102  0.528732  1
  Cs  Cs3  1  0.733204  0.699898  0.471268  1
  Mo  Mo4  1  0.446809  0.057034  0.260227  1
  Mo  Mo5  1  0.553191  0.942966  0.739773  1
  P  P6  1  0.875768  0.225678  0.353147  1
  P  P7  1  0.124232  0.774322  0.646853  1
  P  P8  1  0.671713  0.410898  0.195510  1
  P  P9  1  0.328287  0.589102  0.804490  1
  P  P10  1  0.309261  0.669526  0.287605  1
  P  P11  1  0.690739  0.330474  0.712395  1
  P  P12  1  0.022247  0.894974  0.161129  1
  P  P13  1  0.977753  0.105026  0.838871  1
  O  O14  1  0.720198  0.085861  0.339081  1
  O  O15  1  0.279802  0.914139  0.660919  1
  O  O16  1  0.789786  0.311544  0.431432  1
  O  O17  1  0.210214  0.688456  0.568568  1
  O  O18  1  0.853760  0.362652  0.270839  1
  O  O19  1  0.146240  0.637348  0.729161  1
  O  O20  1  0.169484  0.147595  0.349258  1
  O  O21  1  0.830516  0.852405  0.650742  1
  O  O22  1  0.516302  0.594407  0.213314  1
  O  O23  1  0.483698  0.405593  0.786686  1
  O  O24  1  0.820748  0.425691  0.112055  1
  O  O25  1  0.179252  0.574309  0.887945  1
  O  O26  1  0.465474  0.293700  0.205109  1
  O  O27  1  0.534526  0.706300  0.794891  1
  O  O28  1  0.427935  0.817189  0.312544  1
  O  O29  1  0.572065  0.182811  0.687456  1
  O  O30  1  0.058299  0.745769  0.238947  1
  O  O31  1  0.941701  0.254231  0.761053  1
  O  O32  1  0.247453  0.545632  0.357563  1
  O  O33  1  0.752547  0.454368  0.642437  1
  O  O34  1  0.116269  0.825314  0.079104  1
  O  O35  1  0.883731  0.174686  0.920896  1
  O  O36  1  0.724847  0.961663  0.170191  1
  O  O37  1  0.275153  0.038337  0.829809  1
  O  O38  1  0.168611  0.033990  0.182452  1
  O  O39  1  0.831389  0.966010  0.817548  1
