# generated using pymatgen
data_HfMn2(Ga3Fe2)2
_symmetry_space_group_name_H-M   'P 1'
_cell_length_a   6.55135306
_cell_length_b   6.55135441
_cell_length_c   6.55135371
_cell_angle_alpha   135.24656003
_cell_angle_beta   100.14467699
_cell_angle_gamma   96.52995617
_symmetry_Int_Tables_number   1
_chemical_formula_structural   HfMn2(Ga3Fe2)2
_chemical_formula_sum   'Hf1 Mn2 Ga6 Fe4'
_cell_volume   182.94181326
_cell_formula_units_Z   1
loop_
 _symmetry_equiv_pos_site_id
 _symmetry_equiv_pos_as_xyz
  1  'x, y, z'
loop_
 _atom_site_type_symbol
 _atom_site_label
 _atom_site_symmetry_multiplicity
 _atom_site_fract_x
 _atom_site_fract_y
 _atom_site_fract_z
 _atom_site_occupancy
  Hf  Hf0  1  0.000000  0.000000  0.000000  1
  Mn  Mn1  1  0.759775  0.500000  0.259775  1
  Mn  Mn2  1  0.240225  0.500000  0.740225  1
  Ga  Ga3  1  0.328679  0.000000  0.328679  1
  Ga  Ga4  1  0.341498  0.341498  0.000000  1
  Ga  Ga5  1  0.658502  0.658502  0.000000  1
  Ga  Ga6  1  0.821976  0.321976  0.500000  1
  Ga  Ga7  1  0.178024  0.678024  0.500000  1
  Ga  Ga8  1  0.671321  0.000000  0.671321  1
  Fe  Fe9  1  0.000000  0.000000  0.500000  1
  Fe  Fe10  1  0.000000  0.500000  0.000000  1
  Fe  Fe11  1  0.500000  0.000000  0.000000  1
  Fe  Fe12  1  0.500000  0.500000  0.500000  1
