# generated using pymatgen
data_Ca3Er(ReB4)4
_symmetry_space_group_name_H-M   'P 1'
_cell_length_a   3.58040200
_cell_length_b   6.00489363
_cell_length_c   11.60557413
_cell_angle_alpha   89.91575868
_cell_angle_beta   90.00000000
_cell_angle_gamma   90.00000000
_symmetry_Int_Tables_number   1
_chemical_formula_structural   Ca3Er(ReB4)4
_chemical_formula_sum   'Ca3 Er1 Re4 B16'
_cell_volume   249.51879823
_cell_formula_units_Z   1
loop_
 _symmetry_equiv_pos_site_id
 _symmetry_equiv_pos_as_xyz
  1  'x, y, z'
loop_
 _atom_site_type_symbol
 _atom_site_label
 _atom_site_symmetry_multiplicity
 _atom_site_fract_x
 _atom_site_fract_y
 _atom_site_fract_z
 _atom_site_occupancy
  Ca  Ca0  1  0.500000  0.871868  0.150351  1
  Ca  Ca1  1  0.500000  0.127108  0.850644  1
  Ca  Ca2  1  0.500000  0.371763  0.348436  1
  Er  Er3  1  0.500000  0.628769  0.650566  1
  Re  Re4  1  0.500000  0.868031  0.417576  1
  Re  Re5  1  0.500000  0.130017  0.585357  1
  Re  Re6  1  0.500000  0.369208  0.082948  1
  Re  Re7  1  0.500000  0.629728  0.915089  1
  B  B8  1  0.000000  0.523202  0.192131  1
  B  B9  1  0.000000  0.477022  0.806735  1
  B  B10  1  0.000000  0.022778  0.308181  1
  B  B11  1  0.000000  0.975825  0.692570  1
  B  B12  1  0.000000  0.614438  0.046742  1
  B  B13  1  0.000000  0.386185  0.951843  1
  B  B14  1  0.000000  0.114381  0.452882  1
  B  B15  1  0.000000  0.886695  0.548104  1
  B  B16  1  0.000000  0.636021  0.469038  1
  B  B17  1  0.000000  0.364550  0.532276  1
  B  B18  1  0.000000  0.135214  0.031697  1
  B  B19  1  0.000000  0.865048  0.967526  1
  B  B20  1  0.000000  0.716030  0.315584  1
  B  B21  1  0.000000  0.285847  0.684659  1
  B  B22  1  0.000000  0.215053  0.184392  1
  B  B23  1  0.000000  0.785220  0.814671  1
