# generated using pymatgen
data_Ho12Co4BiRh
_symmetry_space_group_name_H-M   'P 1'
_cell_length_a   8.31336128
_cell_length_b   8.31338514
_cell_length_c   8.31336127
_cell_angle_alpha   110.97797684
_cell_angle_beta   110.64589924
_cell_angle_gamma   106.82189172
_symmetry_Int_Tables_number   1
_chemical_formula_structural   Ho12Co4BiRh
_chemical_formula_sum   'Ho12 Co4 Bi1 Rh1'
_cell_volume   441.58390003
_cell_formula_units_Z   1
loop_
 _symmetry_equiv_pos_site_id
 _symmetry_equiv_pos_as_xyz
  1  'x, y, z'
loop_
 _atom_site_type_symbol
 _atom_site_label
 _atom_site_symmetry_multiplicity
 _atom_site_fract_x
 _atom_site_fract_y
 _atom_site_fract_z
 _atom_site_occupancy
  Ho  Ho0  1  0.816457  0.711762  0.528212  1
  Ho  Ho1  1  0.183543  0.288238  0.471788  1
  Ho  Ho2  1  0.183551  0.711762  0.895305  1
  Ho  Ho3  1  0.816449  0.288238  0.104695  1
  Ho  Ho4  1  0.688368  0.379189  0.690822  1
  Ho  Ho5  1  0.311632  0.620811  0.309178  1
  Ho  Ho6  1  0.688365  0.997546  0.309182  1
  Ho  Ho7  1  0.311635  0.002454  0.690818  1
  Ho  Ho8  1  0.592136  0.789730  0.802401  1
  Ho  Ho9  1  0.407864  0.210270  0.197599  1
  Ho  Ho10  1  0.987329  0.789730  0.197594  1
  Ho  Ho11  1  0.012671  0.210270  0.802406  1
  Co  Co12  1  0.623295  0.000000  0.623295  1
  Co  Co13  1  0.376705  0.000000  0.376705  1
  Co  Co14  1  0.111120  0.611119  0.500000  1
  Co  Co15  1  0.888880  0.388881  0.500000  1
  Bi  Bi16  1  0.500000  0.500000  0.000000  1
  Rh  Rh17  1  0.000000  0.000000  0.000000  1
