# generated using pymatgen
data_Ho2Er5P12Pd17
_symmetry_space_group_name_H-M   'P 1'
_cell_length_a   12.30395196
_cell_length_b   12.30395013
_cell_length_c   13.57142700
_cell_angle_alpha   68.30160711
_cell_angle_beta   68.30160549
_cell_angle_gamma   18.72704337
_symmetry_Int_Tables_number   1
_chemical_formula_structural   Ho2Er5P12Pd17
_chemical_formula_sum   'Ho2 Er5 P12 Pd17'
_cell_volume   611.57059160
_cell_formula_units_Z   1
loop_
 _symmetry_equiv_pos_site_id
 _symmetry_equiv_pos_as_xyz
  1  'x, y, z'
loop_
 _atom_site_type_symbol
 _atom_site_label
 _atom_site_symmetry_multiplicity
 _atom_site_fract_x
 _atom_site_fract_y
 _atom_site_fract_z
 _atom_site_occupancy
  Ho  Ho0  1  0.500003  0.500003  0.500051  1
  Ho  Ho1  1  0.581354  0.581354  0.739523  1
  Er  Er2  1  0.365035  0.365035  0.000969  1
  Er  Er3  1  0.634943  0.634943  0.999115  1
  Er  Er4  1  0.234274  0.234274  0.312251  1
  Er  Er5  1  0.765778  0.765778  0.687736  1
  Er  Er6  1  0.418650  0.418650  0.260529  1
  P  P7  1  0.062138  0.062138  0.923420  1
  P  P8  1  0.937876  0.937876  0.076599  1
  P  P9  1  0.887161  0.887161  0.829811  1
  P  P10  1  0.112805  0.112805  0.170166  1
  P  P11  1  0.188852  0.188852  0.622410  1
  P  P12  1  0.811141  0.811141  0.377599  1
  P  P13  1  0.364626  0.364626  0.581450  1
  P  P14  1  0.635379  0.635379  0.418524  1
  P  P15  1  0.012754  0.012754  0.667670  1
  P  P16  1  0.987266  0.987266  0.332397  1
  P  P17  1  0.230972  0.230972  0.881866  1
  P  P18  1  0.769081  0.769081  0.118234  1
  Pd  Pd19  1  0.839516  0.839516  0.194179  1
  Pd  Pd20  1  0.160688  0.160688  0.805968  1
  Pd  Pd21  1  0.026561  0.026561  0.123822  1
  Pd  Pd22  1  0.973282  0.973282  0.876305  1
  Pd  Pd23  1  0.888232  0.888232  0.455250  1
  Pd  Pd24  1  0.111853  0.111853  0.544268  1
  Pd  Pd25  1  0.499994  0.499994  0.000105  1
  Pd  Pd26  1  0.545332  0.545332  0.255101  1
  Pd  Pd27  1  0.454515  0.454515  0.744809  1
  Pd  Pd28  1  0.295522  0.295522  0.492261  1
  Pd  Pd29  1  0.704480  0.704480  0.507714  1
  Pd  Pd30  1  0.668093  0.668093  0.226380  1
  Pd  Pd31  1  0.331864  0.331864  0.773623  1
  Pd  Pd32  1  0.909964  0.909964  0.640015  1
  Pd  Pd33  1  0.090050  0.090050  0.359887  1
  Pd  Pd34  1  0.215410  0.215410  0.067674  1
  Pd  Pd35  1  0.784562  0.784562  0.932322  1
