# generated using pymatgen
data_La11Pr8SmSi16
_symmetry_space_group_name_H-M   'P 1'
_cell_length_a   7.99280229
_cell_length_b   7.99280281
_cell_length_c   15.40918716
_cell_angle_alpha   89.99081391
_cell_angle_beta   90.00918552
_cell_angle_gamma   89.95120130
_symmetry_Int_Tables_number   1
_chemical_formula_structural   La11Pr8SmSi16
_chemical_formula_sum   'La11 Pr8 Sm1 Si16'
_cell_volume   984.41388329
_cell_formula_units_Z   1
loop_
 _symmetry_equiv_pos_site_id
 _symmetry_equiv_pos_as_xyz
  1  'x, y, z'
loop_
 _atom_site_type_symbol
 _atom_site_label
 _atom_site_symmetry_multiplicity
 _atom_site_fract_x
 _atom_site_fract_y
 _atom_site_fract_z
 _atom_site_occupancy
  La  La0  1  0.308312  0.308312  0.000000  1
  La  La1  1  0.193022  0.809954  0.250387  1
  La  La2  1  0.809954  0.193022  0.749613  1
  La  La3  1  0.377433  0.013186  0.448317  1
  La  La4  1  0.488215  0.877245  0.697782  1
  La  La5  1  0.511941  0.121721  0.198092  1
  La  La6  1  0.877245  0.488215  0.302218  1
  La  La7  1  0.121721  0.511941  0.801908  1
  La  La8  1  0.622098  0.988160  0.948060  1
  La  La9  1  0.013186  0.377433  0.551683  1
  La  La10  1  0.988160  0.622098  0.051940  1
  Pr  Pr11  1  0.126420  0.983007  0.876065  1
  Pr  Pr12  1  0.517289  0.626647  0.126852  1
  Pr  Pr13  1  0.482786  0.372889  0.626067  1
  Pr  Pr14  1  0.626647  0.517289  0.873148  1
  Pr  Pr15  1  0.372889  0.482786  0.373933  1
  Pr  Pr16  1  0.872931  0.017304  0.376803  1
  Pr  Pr17  1  0.983007  0.126420  0.123935  1
  Pr  Pr18  1  0.017304  0.872931  0.623197  1
  Sm  Sm19  1  0.689282  0.689282  0.500000  1
  Si  Si20  1  0.197855  0.167938  0.701381  1
  Si  Si21  1  0.332535  0.697438  0.951153  1
  Si  Si22  1  0.669137  0.305246  0.452994  1
  Si  Si23  1  0.697438  0.332535  0.048847  1
  Si  Si24  1  0.305246  0.669137  0.547006  1
  Si  Si25  1  0.802941  0.831828  0.202596  1
  Si  Si26  1  0.167938  0.197855  0.298619  1
  Si  Si27  1  0.831828  0.802941  0.797404  1
  Si  Si28  1  0.287717  0.919118  0.058856  1
  Si  Si29  1  0.582689  0.786084  0.311902  1
  Si  Si30  1  0.420221  0.211951  0.808626  1
  Si  Si31  1  0.786084  0.582689  0.688098  1
  Si  Si32  1  0.211951  0.420221  0.191374  1
  Si  Si33  1  0.711164  0.076292  0.558534  1
  Si  Si34  1  0.919118  0.287717  0.941144  1
  Si  Si35  1  0.076292  0.711164  0.441466  1
