# generated using pymatgen
data_Th3Al12Fe3Co
_symmetry_space_group_name_H-M   'P 1'
_cell_length_a   8.83885919
_cell_length_b   8.83885873
_cell_length_c   9.38771000
_cell_angle_alpha   90.00000000
_cell_angle_beta   90.00000000
_cell_angle_gamma   119.79465368
_symmetry_Int_Tables_number   1
_chemical_formula_structural   Th3Al12Fe3Co
_chemical_formula_sum   'Th6 Al24 Fe6 Co2'
_cell_volume   636.46955680
_cell_formula_units_Z   2
loop_
 _symmetry_equiv_pos_site_id
 _symmetry_equiv_pos_as_xyz
  1  'x, y, z'
loop_
 _atom_site_type_symbol
 _atom_site_label
 _atom_site_symmetry_multiplicity
 _atom_site_fract_x
 _atom_site_fract_y
 _atom_site_fract_z
 _atom_site_occupancy
  Th  Th0  1  0.804354  0.195646  0.750000  1
  Th  Th1  1  0.195646  0.804354  0.250000  1
  Th  Th2  1  0.390560  0.192307  0.750000  1
  Th  Th3  1  0.609440  0.807693  0.250000  1
  Th  Th4  1  0.807693  0.609440  0.750000  1
  Th  Th5  1  0.192307  0.390560  0.250000  1
  Al  Al6  1  0.667005  0.332995  0.995974  1
  Al  Al7  1  0.332995  0.667005  0.004026  1
  Al  Al8  1  0.332995  0.667005  0.495974  1
  Al  Al9  1  0.667005  0.332995  0.504026  1
  Al  Al10  1  0.839016  0.160984  0.423481  1
  Al  Al11  1  0.160984  0.839016  0.576519  1
  Al  Al12  1  0.321064  0.160059  0.423482  1
  Al  Al13  1  0.160984  0.839016  0.923481  1
  Al  Al14  1  0.678936  0.839941  0.576518  1
  Al  Al15  1  0.839016  0.160984  0.076519  1
  Al  Al16  1  0.839941  0.678936  0.423482  1
  Al  Al17  1  0.678936  0.839941  0.923482  1
  Al  Al18  1  0.160059  0.321064  0.576518  1
  Al  Al19  1  0.321064  0.160059  0.076518  1
  Al  Al20  1  0.160059  0.321064  0.923482  1
  Al  Al21  1  0.839941  0.678936  0.076518  1
  Al  Al22  1  0.438522  0.561478  0.750000  1
  Al  Al23  1  0.561478  0.438522  0.250000  1
  Al  Al24  1  0.124763  0.561726  0.750000  1
  Al  Al25  1  0.875237  0.438274  0.250000  1
  Al  Al26  1  0.438274  0.875237  0.750000  1
  Al  Al27  1  0.561726  0.124763  0.250000  1
  Al  Al28  1  0.000360  0.999640  0.750000  1
  Al  Al29  1  0.999640  0.000360  0.250000  1
  Fe  Fe30  1  0.000000  0.500000  0.000000  1
  Fe  Fe31  1  0.500000  0.000000  0.000000  1
  Fe  Fe32  1  0.000000  0.500000  0.500000  1
  Fe  Fe33  1  0.500000  0.000000  0.500000  1
  Fe  Fe34  1  0.000000  0.000000  0.000000  1
  Fe  Fe35  1  0.000000  0.000000  0.500000  1
  Co  Co36  1  0.500000  0.500000  0.000000  1
  Co  Co37  1  0.500000  0.500000  0.500000  1
