# generated using pymatgen
data_Dy20Tc3IrPt8
_symmetry_space_group_name_H-M   'P 1'
_cell_length_a   10.97738800
_cell_length_b   10.97738800
_cell_length_c   6.45453200
_cell_angle_alpha   90.00000000
_cell_angle_beta   90.00000000
_cell_angle_gamma   90.00000000
_symmetry_Int_Tables_number   1
_chemical_formula_structural   Dy20Tc3IrPt8
_chemical_formula_sum   'Dy20 Tc3 Ir1 Pt8'
_cell_volume   777.79077491
_cell_formula_units_Z   1
loop_
 _symmetry_equiv_pos_site_id
 _symmetry_equiv_pos_as_xyz
  1  'x, y, z'
loop_
 _atom_site_type_symbol
 _atom_site_label
 _atom_site_symmetry_multiplicity
 _atom_site_fract_x
 _atom_site_fract_y
 _atom_site_fract_z
 _atom_site_occupancy
  Dy  Dy0  1  0.297581  0.085691  0.371829  1
  Dy  Dy1  1  0.297671  0.914880  0.872015  1
  Dy  Dy2  1  0.702329  0.085120  0.872015  1
  Dy  Dy3  1  0.702419  0.914309  0.371829  1
  Dy  Dy4  1  0.585120  0.797671  0.872015  1
  Dy  Dy5  1  0.585691  0.202419  0.371829  1
  Dy  Dy6  1  0.414309  0.797581  0.371829  1
  Dy  Dy7  1  0.414880  0.202329  0.872015  1
  Dy  Dy8  1  0.204721  0.413041  0.629932  1
  Dy  Dy9  1  0.203169  0.586549  0.125478  1
  Dy  Dy10  1  0.796831  0.413451  0.125478  1
  Dy  Dy11  1  0.795279  0.586959  0.629932  1
  Dy  Dy12  1  0.913451  0.703169  0.125478  1
  Dy  Dy13  1  0.913041  0.295279  0.629932  1
  Dy  Dy14  1  0.086959  0.704721  0.629932  1
  Dy  Dy15  1  0.086549  0.296831  0.125478  1
  Dy  Dy16  1  0.000000  0.000000  0.499193  1
  Dy  Dy17  1  0.000000  0.000000  0.998174  1
  Dy  Dy18  1  0.500000  0.500000  0.998174  1
  Dy  Dy19  1  0.500000  0.500000  0.499193  1
  Tc  Tc20  1  0.500000  0.000000  0.128601  1
  Tc  Tc21  1  0.500000  0.000000  0.628938  1
  Tc  Tc22  1  0.000000  0.500000  0.871474  1
  Ir  Ir23  1  0.000000  0.500000  0.380098  1
  Pt  Pt24  1  0.848805  0.153042  0.249654  1
  Pt  Pt25  1  0.848300  0.846842  0.750130  1
  Pt  Pt26  1  0.151700  0.153158  0.750130  1
  Pt  Pt27  1  0.151195  0.846958  0.249654  1
  Pt  Pt28  1  0.653158  0.348300  0.750130  1
  Pt  Pt29  1  0.653042  0.651195  0.249654  1
  Pt  Pt30  1  0.346958  0.348805  0.249654  1
  Pt  Pt31  1  0.346842  0.651700  0.750130  1
