# generated using pymatgen
data_Sc4CrFe9(Co5P6)2
_symmetry_space_group_name_H-M   'P 1'
_cell_length_a   3.60004200
_cell_length_b   10.11001649
_cell_length_c   11.61357890
_cell_angle_alpha   90.12023115
_cell_angle_beta   90.00000000
_cell_angle_gamma   90.00000000
_symmetry_Int_Tables_number   1
_chemical_formula_structural   Sc4CrFe9(Co5P6)2
_chemical_formula_sum   'Sc4 Cr1 Fe9 Co10 P12'
_cell_volume   422.69250771
_cell_formula_units_Z   1
loop_
 _symmetry_equiv_pos_site_id
 _symmetry_equiv_pos_as_xyz
  1  'x, y, z'
loop_
 _atom_site_type_symbol
 _atom_site_label
 _atom_site_symmetry_multiplicity
 _atom_site_fract_x
 _atom_site_fract_y
 _atom_site_fract_z
 _atom_site_occupancy
  Sc  Sc0  1  0.250000  0.580019  0.706347  1
  Sc  Sc1  1  0.250000  0.921273  0.204007  1
  Sc  Sc2  1  0.750000  0.421282  0.294595  1
  Sc  Sc3  1  0.750000  0.078447  0.794925  1
  Cr  Cr4  1  0.250000  0.704670  0.991163  1
  Fe  Fe5  1  0.250000  0.095057  0.985993  1
  Fe  Fe6  1  0.750000  0.906210  0.013189  1
  Fe  Fe7  1  0.250000  0.460653  0.932518  1
  Fe  Fe8  1  0.250000  0.037329  0.429523  1
  Fe  Fe9  1  0.750000  0.535208  0.068355  1
  Fe  Fe10  1  0.750000  0.963545  0.568296  1
  Fe  Fe11  1  0.250000  0.787298  0.491773  1
  Fe  Fe12  1  0.750000  0.291924  0.009536  1
  Fe  Fe13  1  0.750000  0.213039  0.508483  1
  Co  Co14  1  0.250000  0.224642  0.173135  1
  Co  Co15  1  0.250000  0.276335  0.675002  1
  Co  Co16  1  0.750000  0.775426  0.825151  1
  Co  Co17  1  0.750000  0.723181  0.326845  1
  Co  Co18  1  0.250000  0.879195  0.701686  1
  Co  Co19  1  0.250000  0.619948  0.203598  1
  Co  Co20  1  0.750000  0.122791  0.296446  1
  Co  Co21  1  0.750000  0.379279  0.798367  1
  Co  Co22  1  0.250000  0.407465  0.486011  1
  Co  Co23  1  0.750000  0.592279  0.515932  1
  P  P24  1  0.250000  0.423513  0.115785  1
  P  P25  1  0.250000  0.076505  0.613819  1
  P  P26  1  0.750000  0.575721  0.884474  1
  P  P27  1  0.750000  0.924252  0.384450  1
  P  P28  1  0.250000  0.261558  0.866626  1
  P  P29  1  0.250000  0.236553  0.365194  1
  P  P30  1  0.750000  0.737034  0.135346  1
  P  P31  1  0.750000  0.764852  0.634453  1
  P  P32  1  0.250000  0.599995  0.392565  1
  P  P33  1  0.250000  0.904553  0.891568  1
  P  P34  1  0.750000  0.399356  0.609381  1
  P  P35  1  0.750000  0.099617  0.105461  1
