# generated using pymatgen
data_Tb10GaBi3Pt2
_symmetry_space_group_name_H-M   'P 1'
_cell_length_a   8.05204477
_cell_length_b   9.01668716
_cell_length_c   12.37665371
_cell_angle_alpha   90.22831902
_cell_angle_beta   89.96078474
_cell_angle_gamma   90.17491142
_symmetry_Int_Tables_number   1
_chemical_formula_structural   Tb10GaBi3Pt2
_chemical_formula_sum   'Tb20 Ga2 Bi6 Pt4'
_cell_volume   898.56780214
_cell_formula_units_Z   2
loop_
 _symmetry_equiv_pos_site_id
 _symmetry_equiv_pos_as_xyz
  1  'x, y, z'
loop_
 _atom_site_type_symbol
 _atom_site_label
 _atom_site_symmetry_multiplicity
 _atom_site_fract_x
 _atom_site_fract_y
 _atom_site_fract_z
 _atom_site_occupancy
  Tb  Tb0  1  0.827147  0.739952  0.791578  1
  Tb  Tb1  1  0.172853  0.260048  0.208422  1
  Tb  Tb2  1  0.343797  0.260654  0.716769  1
  Tb  Tb3  1  0.656203  0.739346  0.283231  1
  Tb  Tb4  1  0.380977  0.739503  0.704499  1
  Tb  Tb5  1  0.619023  0.260497  0.295501  1
  Tb  Tb6  1  0.857859  0.260406  0.801804  1
  Tb  Tb7  1  0.142141  0.739594  0.198196  1
  Tb  Tb8  1  0.952241  0.751892  0.499132  1
  Tb  Tb9  1  0.047759  0.248108  0.500868  1
  Tb  Tb10  1  0.460033  0.271054  0.999974  1
  Tb  Tb11  1  0.539967  0.728946  0.000026  1
  Tb  Tb12  1  0.680873  0.044128  0.566433  1
  Tb  Tb13  1  0.319127  0.955872  0.433567  1
  Tb  Tb14  1  0.182649  0.960377  0.934323  1
  Tb  Tb15  1  0.325289  0.541619  0.423775  1
  Tb  Tb16  1  0.817351  0.039623  0.065677  1
  Tb  Tb17  1  0.674711  0.458381  0.576225  1
  Tb  Tb18  1  0.813482  0.458936  0.064272  1
  Tb  Tb19  1  0.186518  0.541064  0.935728  1
  Ga  Ga20  1  0.566880  0.493574  0.827488  1
  Ga  Ga21  1  0.433120  0.506426  0.172512  1
  Bi  Bi22  1  0.069825  0.510624  0.671743  1
  Bi  Bi23  1  0.430232  0.991162  0.168915  1
  Bi  Bi24  1  0.930175  0.489376  0.328257  1
  Bi  Bi25  1  0.569768  0.008838  0.831085  1
  Bi  Bi26  1  0.928488  0.009243  0.323930  1
  Bi  Bi27  1  0.071512  0.990757  0.676070  1
  Pt  Pt28  1  0.573392  0.750094  0.510857  1
  Pt  Pt29  1  0.426608  0.249906  0.489143  1
  Pt  Pt30  1  0.067782  0.250458  0.987783  1
  Pt  Pt31  1  0.932218  0.749542  0.012217  1
