# generated using pymatgen
data_Dy8Y2Bi5Sb
_symmetry_space_group_name_H-M   'P 1'
_cell_length_a   8.22738400
_cell_length_b   9.50762600
_cell_length_c   12.04662100
_cell_angle_alpha   90.00000000
_cell_angle_beta   90.00000000
_cell_angle_gamma   90.00000000
_symmetry_Int_Tables_number   1
_chemical_formula_structural   Dy8Y2Bi5Sb
_chemical_formula_sum   'Dy16 Y4 Bi10 Sb2'
_cell_volume   942.32150972
_cell_formula_units_Z   2
loop_
 _symmetry_equiv_pos_site_id
 _symmetry_equiv_pos_as_xyz
  1  'x, y, z'
loop_
 _atom_site_type_symbol
 _atom_site_label
 _atom_site_symmetry_multiplicity
 _atom_site_fract_x
 _atom_site_fract_y
 _atom_site_fract_z
 _atom_site_occupancy
  Dy  Dy0  1  0.029452  0.750000  0.987944  1
  Dy  Dy1  1  0.529452  0.750000  0.512056  1
  Dy  Dy2  1  0.974382  0.250000  0.011669  1
  Dy  Dy3  1  0.474382  0.250000  0.488331  1
  Dy  Dy4  1  0.183891  0.750000  0.718238  1
  Dy  Dy5  1  0.683891  0.750000  0.781762  1
  Dy  Dy6  1  0.813703  0.250000  0.280697  1
  Dy  Dy7  1  0.313703  0.250000  0.219303  1
  Dy  Dy8  1  0.307511  0.440604  0.940715  1
  Dy  Dy9  1  0.807511  0.059396  0.559285  1
  Dy  Dy10  1  0.691137  0.934726  0.058403  1
  Dy  Dy11  1  0.191137  0.565274  0.441597  1
  Dy  Dy12  1  0.691137  0.565274  0.058403  1
  Dy  Dy13  1  0.191137  0.934726  0.441597  1
  Dy  Dy14  1  0.307511  0.059396  0.940715  1
  Dy  Dy15  1  0.807511  0.440604  0.559285  1
  Y  Y16  1  0.354546  0.750000  0.212585  1
  Y  Y17  1  0.854546  0.750000  0.287415  1
  Y  Y18  1  0.646341  0.250000  0.784577  1
  Y  Y19  1  0.146341  0.250000  0.715423  1
  Bi  Bi20  1  0.433186  0.003719  0.673888  1
  Bi  Bi21  1  0.933186  0.496281  0.826112  1
  Bi  Bi22  1  0.566546  0.503774  0.326062  1
  Bi  Bi23  1  0.066546  0.996226  0.173938  1
  Bi  Bi24  1  0.566546  0.996226  0.326062  1
  Bi  Bi25  1  0.066546  0.503774  0.173938  1
  Bi  Bi26  1  0.433186  0.496281  0.673888  1
  Bi  Bi27  1  0.933186  0.003719  0.826112  1
  Bi  Bi28  1  0.591043  0.250000  0.042382  1
  Bi  Bi29  1  0.091043  0.250000  0.457618  1
  Sb  Sb30  1  0.409880  0.750000  0.958896  1
  Sb  Sb31  1  0.909880  0.750000  0.541104  1
