# generated using pymatgen
data_YLu2(AlNi2)3
_symmetry_space_group_name_H-M   'P 1'
_cell_length_a   5.16757800
_cell_length_b   5.16757679
_cell_length_c   15.77069600
_cell_angle_alpha   90.00000000
_cell_angle_beta   90.00000000
_cell_angle_gamma   119.99999497
_symmetry_Int_Tables_number   1
_chemical_formula_structural   YLu2(AlNi2)3
_chemical_formula_sum   'Y2 Lu4 Al6 Ni12'
_cell_volume   364.71656865
_cell_formula_units_Z   2
loop_
 _symmetry_equiv_pos_site_id
 _symmetry_equiv_pos_as_xyz
  1  'x, y, z'
loop_
 _atom_site_type_symbol
 _atom_site_label
 _atom_site_symmetry_multiplicity
 _atom_site_fract_x
 _atom_site_fract_y
 _atom_site_fract_z
 _atom_site_occupancy
  Y  Y0  1  0.333333  0.666667  0.750000  1
  Y  Y1  1  0.666667  0.333333  0.250000  1
  Lu  Lu2  1  0.333333  0.666667  0.541702  1
  Lu  Lu3  1  0.666667  0.333333  0.458298  1
  Lu  Lu4  1  0.666667  0.333333  0.041702  1
  Lu  Lu5  1  0.333333  0.666667  0.958298  1
  Al  Al6  1  0.000000  0.000000  0.250000  1
  Al  Al7  1  0.000000  0.000000  0.750000  1
  Al  Al8  1  0.333333  0.666667  0.250000  1
  Al  Al9  1  0.666667  0.333333  0.750000  1
  Al  Al10  1  0.000000  0.000000  0.000000  1
  Al  Al11  1  0.000000  0.000000  0.500000  1
  Ni  Ni12  1  0.168213  0.336424  0.124339  1
  Ni  Ni13  1  0.831787  0.663576  0.875661  1
  Ni  Ni14  1  0.663576  0.831787  0.124339  1
  Ni  Ni15  1  0.831787  0.663576  0.624339  1
  Ni  Ni16  1  0.336424  0.168213  0.875661  1
  Ni  Ni17  1  0.168213  0.336424  0.375661  1
  Ni  Ni18  1  0.168213  0.831787  0.124339  1
  Ni  Ni19  1  0.336424  0.168213  0.624339  1
  Ni  Ni20  1  0.831787  0.168213  0.875661  1
  Ni  Ni21  1  0.663576  0.831787  0.375661  1
  Ni  Ni22  1  0.831787  0.168213  0.624339  1
  Ni  Ni23  1  0.168213  0.831787  0.375661  1
