# generated using pymatgen
data_Y4Al18IrOs2Pt3
_symmetry_space_group_name_H-M   'P 1'
_cell_length_a   7.57980580
_cell_length_b   7.57980730
_cell_length_c   9.47894009
_cell_angle_alpha   89.99221745
_cell_angle_beta   89.99221859
_cell_angle_gamma   119.26739122
_symmetry_Int_Tables_number   1
_chemical_formula_structural   Y4Al18IrOs2Pt3
_chemical_formula_sum   'Y4 Al18 Ir1 Os2 Pt3'
_cell_volume   475.07874810
_cell_formula_units_Z   1
loop_
 _symmetry_equiv_pos_site_id
 _symmetry_equiv_pos_as_xyz
  1  'x, y, z'
loop_
 _atom_site_type_symbol
 _atom_site_label
 _atom_site_symmetry_multiplicity
 _atom_site_fract_x
 _atom_site_fract_y
 _atom_site_fract_z
 _atom_site_occupancy
  Y  Y0  1  0.993402  0.675330  0.250625  1
  Y  Y1  1  0.007101  0.325006  0.749572  1
  Y  Y2  1  0.674994  0.992899  0.250428  1
  Y  Y3  1  0.324670  0.006598  0.749375  1
  Al  Al4  1  0.128978  0.129792  0.250383  1
  Al  Al5  1  0.870208  0.871022  0.749617  1
  Al  Al6  1  0.999945  0.331851  0.076544  1
  Al  Al7  1  0.999430  0.668652  0.922843  1
  Al  Al8  1  0.996778  0.664623  0.575514  1
  Al  Al9  1  0.335377  0.003222  0.424486  1
  Al  Al10  1  0.996259  0.330866  0.424799  1
  Al  Al11  1  0.669134  0.003741  0.575201  1
  Al  Al12  1  0.668149  0.000055  0.923456  1
  Al  Al13  1  0.331348  0.000570  0.077157  1
  Al  Al14  1  0.331347  0.328133  0.548523  1
  Al  Al15  1  0.671867  0.668653  0.451477  1
  Al  Al16  1  0.671212  0.671336  0.051622  1
  Al  Al17  1  0.328664  0.328788  0.948378  1
  Al  Al18  1  0.343370  0.548244  0.250363  1
  Al  Al19  1  0.656481  0.449591  0.747353  1
  Al  Al20  1  0.550409  0.343519  0.252647  1
  Al  Al21  1  0.451756  0.656630  0.749637  1
  Ir  Ir22  1  0.671426  0.328574  0.500000  1
  Os  Os23  1  0.999753  0.000247  0.000000  1
  Os  Os24  1  0.000363  0.999637  0.500000  1
  Pt  Pt25  1  0.671393  0.328607  0.000000  1
  Pt  Pt26  1  0.328041  0.671959  0.000000  1
  Pt  Pt27  1  0.328145  0.671855  0.500000  1
