# generated using pymatgen
data_NdYAlGaI2
_symmetry_space_group_name_H-M   'P 1'
_cell_length_a   4.27826600
_cell_length_b   4.27826547
_cell_length_c   12.47842900
_cell_angle_alpha   90.00000000
_cell_angle_beta   90.00000000
_cell_angle_gamma   119.99998867
_symmetry_Int_Tables_number   1
_chemical_formula_structural   NdYAlGaI2
_chemical_formula_sum   'Nd1 Y1 Al1 Ga1 I2'
_cell_volume   197.79991732
_cell_formula_units_Z   1
loop_
 _symmetry_equiv_pos_site_id
 _symmetry_equiv_pos_as_xyz
  1  'x, y, z'
loop_
 _atom_site_type_symbol
 _atom_site_label
 _atom_site_symmetry_multiplicity
 _atom_site_fract_x
 _atom_site_fract_y
 _atom_site_fract_z
 _atom_site_occupancy
  Nd  Nd0  1  0.000000  0.000000  0.832328  1
  Y  Y1  1  0.000000  0.000000  0.165617  1
  Al  Al2  1  0.333333  0.666667  0.983277  1
  Ga  Ga3  1  0.666667  0.333333  0.027567  1
  I  I4  1  0.666667  0.333333  0.666328  1
  I  I5  1  0.333333  0.666667  0.324884  1
