# generated using pymatgen
data_Tb3Tm2InBi2
_symmetry_space_group_name_H-M   'P 1'
_cell_length_a   6.52327500
_cell_length_b   9.08144339
_cell_length_c   9.07430426
_cell_angle_alpha   120.02602488
_cell_angle_beta   89.99994481
_cell_angle_gamma   90.00011160
_symmetry_Int_Tables_number   1
_chemical_formula_structural   Tb3Tm2InBi2
_chemical_formula_sum   'Tb6 Tm4 In2 Bi4'
_cell_volume   465.42594051
_cell_formula_units_Z   2
loop_
 _symmetry_equiv_pos_site_id
 _symmetry_equiv_pos_as_xyz
  1  'x, y, z'
loop_
 _atom_site_type_symbol
 _atom_site_label
 _atom_site_symmetry_multiplicity
 _atom_site_fract_x
 _atom_site_fract_y
 _atom_site_fract_z
 _atom_site_occupancy
  Tb  Tb0  1  0.750002  0.239231  0.000000  1
  Tb  Tb1  1  0.749999  0.762762  0.760642  1
  Tb  Tb2  1  0.749999  0.002121  0.239358  1
  Tb  Tb3  1  0.249998  0.763937  0.000000  1
  Tb  Tb4  1  0.250001  0.235201  0.244355  1
  Tb  Tb5  1  0.250001  0.990846  0.755645  1
  Tm  Tm6  1  0.497113  0.331974  0.660391  1
  Tm  Tm7  1  0.497113  0.671582  0.339609  1
  Tm  Tm8  1  0.002889  0.671584  0.339611  1
  Tm  Tm9  1  0.002889  0.331972  0.660389  1
  In  In10  1  0.250000  0.603066  0.604976  1
  In  In11  1  0.250000  0.998089  0.395024  1
  Bi  Bi12  1  0.749999  0.605242  0.000000  1
  Bi  Bi13  1  0.749999  0.397507  0.394276  1
  Bi  Bi14  1  0.749999  0.003231  0.605724  1
  Bi  Bi15  1  0.249999  0.391657  0.000000  1
