# generated using pymatgen
data_MnAg(RhSe2)4
_symmetry_space_group_name_H-M   'P 1'
_cell_length_a   7.52258500
_cell_length_b   7.52258474
_cell_length_c   7.52258500
_cell_angle_alpha   60.00000324
_cell_angle_beta   60.00000439
_cell_angle_gamma   60.00000431
_symmetry_Int_Tables_number   1
_chemical_formula_structural   MnAg(RhSe2)4
_chemical_formula_sum   'Mn1 Ag1 Rh4 Se8'
_cell_volume   301.01375206
_cell_formula_units_Z   1
loop_
 _symmetry_equiv_pos_site_id
 _symmetry_equiv_pos_as_xyz
  1  'x, y, z'
loop_
 _atom_site_type_symbol
 _atom_site_label
 _atom_site_symmetry_multiplicity
 _atom_site_fract_x
 _atom_site_fract_y
 _atom_site_fract_z
 _atom_site_occupancy
  Mn  Mn0  1  0.500000  0.500000  0.500000  1
  Ag  Ag1  1  0.750000  0.750000  0.750000  1
  Rh  Rh2  1  0.628014  0.123995  0.123995  1
  Rh  Rh3  1  0.123995  0.628014  0.123995  1
  Rh  Rh4  1  0.123995  0.123995  0.628014  1
  Rh  Rh5  1  0.123995  0.123995  0.123995  1
  Se  Se6  1  0.326017  0.891327  0.891327  1
  Se  Se7  1  0.891327  0.326017  0.891327  1
  Se  Se8  1  0.891327  0.891327  0.326017  1
  Se  Se9  1  0.891327  0.891327  0.891327  1
  Se  Se10  1  0.910029  0.363323  0.363323  1
  Se  Se11  1  0.363323  0.910029  0.363323  1
  Se  Se12  1  0.363323  0.363323  0.910029  1
  Se  Se13  1  0.363323  0.363323  0.363323  1
