# generated using pymatgen
data_DyU3(Co5P3)4
_symmetry_space_group_name_H-M   'P 1'
_cell_length_a   3.66502000
_cell_length_b   10.32458817
_cell_length_c   11.72351692
_cell_angle_alpha   89.88508834
_cell_angle_beta   90.00000000
_cell_angle_gamma   90.00000000
_symmetry_Int_Tables_number   1
_chemical_formula_structural   DyU3(Co5P3)4
_chemical_formula_sum   'Dy1 U3 Co20 P12'
_cell_volume   443.61490280
_cell_formula_units_Z   1
loop_
 _symmetry_equiv_pos_site_id
 _symmetry_equiv_pos_as_xyz
  1  'x, y, z'
loop_
 _atom_site_type_symbol
 _atom_site_label
 _atom_site_symmetry_multiplicity
 _atom_site_fract_x
 _atom_site_fract_y
 _atom_site_fract_z
 _atom_site_occupancy
  Dy  Dy0  1  0.750000  0.083485  0.796582  1
  U  U1  1  0.250000  0.583541  0.703198  1
  U  U2  1  0.250000  0.915991  0.203678  1
  U  U3  1  0.750000  0.416462  0.296417  1
  Co  Co4  1  0.250000  0.717125  0.990756  1
  Co  Co5  1  0.250000  0.783808  0.490638  1
  Co  Co6  1  0.750000  0.284511  0.008640  1
  Co  Co7  1  0.750000  0.216832  0.507411  1
  Co  Co8  1  0.250000  0.408615  0.485010  1
  Co  Co9  1  0.250000  0.092471  0.987733  1
  Co  Co10  1  0.750000  0.591185  0.516133  1
  Co  Co11  1  0.750000  0.907744  0.015317  1
  Co  Co12  1  0.250000  0.219501  0.176794  1
  Co  Co13  1  0.250000  0.279641  0.676523  1
  Co  Co14  1  0.750000  0.780809  0.824516  1
  Co  Co15  1  0.750000  0.718218  0.323440  1
  Co  Co16  1  0.250000  0.882634  0.698574  1
  Co  Co17  1  0.250000  0.616699  0.199127  1
  Co  Co18  1  0.750000  0.116397  0.299562  1
  Co  Co19  1  0.750000  0.384719  0.801147  1
  Co  Co20  1  0.250000  0.468831  0.930380  1
  Co  Co21  1  0.250000  0.031061  0.430059  1
  Co  Co22  1  0.750000  0.531218  0.069536  1
  Co  Co23  1  0.750000  0.968175  0.567645  1
  P  P24  1  0.250000  0.417092  0.112198  1
  P  P25  1  0.250000  0.081835  0.612159  1
  P  P26  1  0.750000  0.583369  0.888001  1
  P  P27  1  0.750000  0.916581  0.387879  1
  P  P28  1  0.250000  0.270922  0.870212  1
  P  P29  1  0.250000  0.228229  0.369668  1
  P  P30  1  0.750000  0.728247  0.130095  1
  P  P31  1  0.750000  0.773038  0.631449  1
  P  P32  1  0.250000  0.603814  0.391621  1
  P  P33  1  0.250000  0.898855  0.890906  1
  P  P34  1  0.750000  0.394575  0.609488  1
  P  P35  1  0.750000  0.103770  0.107511  1
