# generated using pymatgen
data_Tb11Nd5MgAg2HgPt4
_symmetry_space_group_name_H-M   'P 1'
_cell_length_a   9.73171902
_cell_length_b   9.75367566
_cell_length_c   9.75367700
_cell_angle_alpha   60.25326681
_cell_angle_beta   60.09196275
_cell_angle_gamma   60.09197035
_symmetry_Int_Tables_number   1
_chemical_formula_structural   Tb11Nd5MgAg2HgPt4
_chemical_formula_sum   'Tb11 Nd5 Mg1 Ag2 Hg1 Pt4'
_cell_volume   656.81073099
_cell_formula_units_Z   1
loop_
 _symmetry_equiv_pos_site_id
 _symmetry_equiv_pos_as_xyz
  1  'x, y, z'
loop_
 _atom_site_type_symbol
 _atom_site_label
 _atom_site_symmetry_multiplicity
 _atom_site_fract_x
 _atom_site_fract_y
 _atom_site_fract_z
 _atom_site_occupancy
  Tb  Tb0  1  0.350148  0.349529  0.349529  1
  Tb  Tb1  1  0.352999  0.353693  0.944763  1
  Tb  Tb2  1  0.352999  0.944763  0.353693  1
  Tb  Tb3  1  0.931839  0.357032  0.357032  1
  Tb  Tb4  1  0.811017  0.189649  0.189649  1
  Tb  Tb5  1  0.185463  0.812819  0.812819  1
  Tb  Tb6  1  0.184701  0.813115  0.189901  1
  Tb  Tb7  1  0.810346  0.188095  0.809789  1
  Tb  Tb8  1  0.184701  0.189901  0.813115  1
  Tb  Tb9  1  0.810346  0.809789  0.188095  1
  Tb  Tb10  1  0.938332  0.560702  0.560702  1
  Nd  Nd11  1  0.560060  0.938145  0.938145  1
  Nd  Nd12  1  0.563457  0.938513  0.563616  1
  Nd  Nd13  1  0.937434  0.562219  0.934478  1
  Nd  Nd14  1  0.563457  0.563616  0.938513  1
  Nd  Nd15  1  0.937434  0.934478  0.562219  1
  Mg  Mg16  1  0.287909  0.569061  0.569061  1
  Ag  Ag17  1  0.579961  0.583481  0.252150  1
  Ag  Ag18  1  0.579961  0.252150  0.583481  1
  Hg  Hg19  1  0.585213  0.583798  0.583798  1
  Pt  Pt20  1  0.141846  0.146173  0.146173  1
  Pt  Pt21  1  0.140047  0.146647  0.569600  1
  Pt  Pt22  1  0.140047  0.569600  0.146647  1
  Pt  Pt23  1  0.570283  0.143033  0.143033  1
