# generated using pymatgen
data_Nb4SnPbO12
_symmetry_space_group_name_H-M   'P 1'
_cell_length_a   4.97563622
_cell_length_b   5.70481257
_cell_length_c   9.02194292
_cell_angle_alpha   91.54553243
_cell_angle_beta   106.00682735
_cell_angle_gamma   90.00000623
_symmetry_Int_Tables_number   1
_chemical_formula_structural   Nb4SnPbO12
_chemical_formula_sum   'Nb4 Sn1 Pb1 O12'
_cell_volume   246.06273030
_cell_formula_units_Z   1
loop_
 _symmetry_equiv_pos_site_id
 _symmetry_equiv_pos_as_xyz
  1  'x, y, z'
loop_
 _atom_site_type_symbol
 _atom_site_label
 _atom_site_symmetry_multiplicity
 _atom_site_fract_x
 _atom_site_fract_y
 _atom_site_fract_z
 _atom_site_occupancy
  Nb  Nb0  1  0.929132  0.178583  0.340523  1
  Nb  Nb1  1  0.411541  0.679508  0.340815  1
  Nb  Nb2  1  0.588609  0.321417  0.659477  1
  Nb  Nb3  1  0.070726  0.820491  0.659185  1
  Sn  Sn4  1  0.778413  0.749999  0.000000  1
  Pb  Pb5  1  0.261521  0.249999  0.000000  1
  O  O6  1  0.983251  0.089653  0.147426  1
  O  O7  1  0.154036  0.599284  0.146802  1
  O  O8  1  0.678061  0.426705  0.282400  1
  O  O9  1  0.597863  0.930531  0.285392  1
  O  O10  1  0.278005  0.352465  0.438176  1
  O  O11  1  0.158805  0.852399  0.439784  1
  O  O12  1  0.839827  0.147535  0.561824  1
  O  O13  1  0.719021  0.647602  0.560216  1
  O  O14  1  0.395660  0.073295  0.717600  1
  O  O15  1  0.312471  0.569470  0.714608  1
  O  O16  1  0.835824  0.410348  0.852573  1
  O  O17  1  0.007233  0.900715  0.853199  1
