# generated using pymatgen
data_YErCr3Co9As7
_symmetry_space_group_name_H-M   'P 1'
_cell_length_a   3.73927200
_cell_length_b   9.41252905
_cell_length_c   9.41253100
_cell_angle_alpha   119.99999724
_cell_angle_beta   90.00000000
_cell_angle_gamma   90.00000000
_symmetry_Int_Tables_number   1
_chemical_formula_structural   YErCr3Co9As7
_chemical_formula_sum   'Y1 Er1 Cr3 Co9 As7'
_cell_volume   286.89993544
_cell_formula_units_Z   1
loop_
 _symmetry_equiv_pos_site_id
 _symmetry_equiv_pos_as_xyz
  1  'x, y, z'
loop_
 _atom_site_type_symbol
 _atom_site_label
 _atom_site_symmetry_multiplicity
 _atom_site_fract_x
 _atom_site_fract_y
 _atom_site_fract_z
 _atom_site_occupancy
  Y  Y0  1  0.500000  0.333333  0.666667  1
  Er  Er1  1  0.000000  0.666667  0.333333  1
  Cr  Cr2  1  0.500000  0.775993  0.894378  1
  Cr  Cr3  1  0.500000  0.118385  0.224007  1
  Cr  Cr4  1  0.500000  0.105622  0.881615  1
  Co  Co5  1  0.000000  0.569592  0.940537  1
  Co  Co6  1  0.000000  0.370944  0.430408  1
  Co  Co7  1  0.000000  0.059463  0.629056  1
  Co  Co8  1  0.000000  0.877896  0.158242  1
  Co  Co9  1  0.000000  0.280346  0.122104  1
  Co  Co10  1  0.000000  0.841758  0.719654  1
  Co  Co11  1  0.500000  0.947456  0.382428  1
  Co  Co12  1  0.500000  0.434970  0.052544  1
  Co  Co13  1  0.500000  0.617572  0.565030  1
  As  As14  1  0.000000  0.000000  0.000000  1
  As  As15  1  0.500000  0.708090  0.118770  1
  As  As16  1  0.500000  0.410680  0.291910  1
  As  As17  1  0.500000  0.881230  0.589320  1
  As  As18  1  0.000000  0.587082  0.701201  1
  As  As19  1  0.000000  0.114118  0.412918  1
  As  As20  1  0.000000  0.298799  0.885882  1
