# generated using pymatgen
data_Li3(SmCd7)2
_symmetry_space_group_name_H-M   'P 1'
_cell_length_a   9.87503800
_cell_length_b   9.87503870
_cell_length_c   9.82024200
_cell_angle_alpha   90.00000000
_cell_angle_beta   90.00000000
_cell_angle_gamma   120.00000436
_symmetry_Int_Tables_number   1
_chemical_formula_structural   Li3(SmCd7)2
_chemical_formula_sum   'Li6 Sm4 Cd28'
_cell_volume   829.33574564
_cell_formula_units_Z   2
loop_
 _symmetry_equiv_pos_site_id
 _symmetry_equiv_pos_as_xyz
  1  'x, y, z'
loop_
 _atom_site_type_symbol
 _atom_site_label
 _atom_site_symmetry_multiplicity
 _atom_site_fract_x
 _atom_site_fract_y
 _atom_site_fract_z
 _atom_site_occupancy
  Li  Li0  1  0.500000  0.500000  0.500000  1
  Li  Li1  1  0.500000  0.000000  0.500000  1
  Li  Li2  1  0.000000  0.500000  0.500000  1
  Li  Li3  1  0.500000  0.500000  0.000000  1
  Li  Li4  1  0.500000  0.000000  0.000000  1
  Li  Li5  1  0.000000  0.500000  0.000000  1
  Sm  Sm6  1  0.000000  0.000000  0.250000  1
  Sm  Sm7  1  0.000000  0.000000  0.750000  1
  Sm  Sm8  1  0.333333  0.666667  0.750000  1
  Sm  Sm9  1  0.666667  0.333333  0.250000  1
  Cd  Cd10  1  0.333333  0.666667  0.409445  1
  Cd  Cd11  1  0.666667  0.333333  0.590555  1
  Cd  Cd12  1  0.666667  0.333333  0.909445  1
  Cd  Cd13  1  0.333333  0.666667  0.090555  1
  Cd  Cd14  1  0.337092  0.367989  0.250000  1
  Cd  Cd15  1  0.632011  0.969103  0.250000  1
  Cd  Cd16  1  0.030897  0.662908  0.250000  1
  Cd  Cd17  1  0.632011  0.662908  0.250000  1
  Cd  Cd18  1  0.030897  0.367989  0.250000  1
  Cd  Cd19  1  0.337092  0.969103  0.250000  1
  Cd  Cd20  1  0.662908  0.632011  0.750000  1
  Cd  Cd21  1  0.367989  0.030897  0.750000  1
  Cd  Cd22  1  0.969103  0.337092  0.750000  1
  Cd  Cd23  1  0.367989  0.337092  0.750000  1
  Cd  Cd24  1  0.969103  0.632011  0.750000  1
  Cd  Cd25  1  0.662908  0.030897  0.750000  1
  Cd  Cd26  1  0.165636  0.834364  0.522684  1
  Cd  Cd27  1  0.165636  0.331274  0.522684  1
  Cd  Cd28  1  0.668726  0.834364  0.522684  1
  Cd  Cd29  1  0.834364  0.165636  0.477316  1
  Cd  Cd30  1  0.834364  0.668726  0.477316  1
  Cd  Cd31  1  0.331274  0.165636  0.477316  1
  Cd  Cd32  1  0.834364  0.165636  0.022684  1
  Cd  Cd33  1  0.834364  0.668726  0.022684  1
  Cd  Cd34  1  0.331274  0.165636  0.022684  1
  Cd  Cd35  1  0.165636  0.834364  0.977316  1
  Cd  Cd36  1  0.165636  0.331274  0.977316  1
  Cd  Cd37  1  0.668726  0.834364  0.977316  1
