# generated using pymatgen
data_Ac6Al3Se14
_symmetry_space_group_name_H-M   'P 1'
_cell_length_a   11.05086400
_cell_length_b   11.05086454
_cell_length_c   6.30838600
_cell_angle_alpha   90.00000000
_cell_angle_beta   90.00000000
_cell_angle_gamma   120.00000438
_symmetry_Int_Tables_number   1
_chemical_formula_structural   Ac6Al3Se14
_chemical_formula_sum   'Ac6 Al3 Se14'
_cell_volume   667.17745330
_cell_formula_units_Z   1
loop_
 _symmetry_equiv_pos_site_id
 _symmetry_equiv_pos_as_xyz
  1  'x, y, z'
loop_
 _atom_site_type_symbol
 _atom_site_label
 _atom_site_symmetry_multiplicity
 _atom_site_fract_x
 _atom_site_fract_y
 _atom_site_fract_z
 _atom_site_occupancy
  Ac  Ac0  1  0.297559  0.096187  0.750379  1
  Ac  Ac1  1  0.798628  0.702441  0.750379  1
  Ac  Ac2  1  0.903813  0.201372  0.750379  1
  Ac  Ac3  1  0.034295  0.567890  0.250943  1
  Ac  Ac4  1  0.533595  0.965705  0.250943  1
  Ac  Ac5  1  0.432110  0.466405  0.250943  1
  Al  Al6  1  0.000000  0.000000  0.169201  1
  Al  Al7  1  0.333333  0.666667  0.664337  1
  Al  Al8  1  0.666667  0.333333  0.512780  1
  Se  Se9  1  0.151116  0.230380  0.026236  1
  Se  Se10  1  0.079264  0.848884  0.026236  1
  Se  Se11  1  0.769620  0.920736  0.026236  1
  Se  Se12  1  0.185153  0.435821  0.522965  1
  Se  Se13  1  0.250669  0.814847  0.522965  1
  Se  Se14  1  0.564179  0.749331  0.522965  1
  Se  Se15  1  0.000000  0.000000  0.544109  1
  Se  Se16  1  0.333333  0.666667  0.040085  1
  Se  Se17  1  0.436274  0.187040  0.284205  1
  Se  Se18  1  0.750766  0.563726  0.284205  1
  Se  Se19  1  0.812960  0.249234  0.284205  1
  Se  Se20  1  0.897813  0.483123  0.740791  1
  Se  Se21  1  0.585312  0.102187  0.740791  1
  Se  Se22  1  0.516877  0.414688  0.740791  1
