# generated using pymatgen
data_LaPrNd4(OsI3)2
_symmetry_space_group_name_H-M   'P 1'
_cell_length_a   4.37669800
_cell_length_b   9.45178070
_cell_length_c   12.37031846
_cell_angle_alpha   87.21452897
_cell_angle_beta   90.00000000
_cell_angle_gamma   90.00000000
_symmetry_Int_Tables_number   1
_chemical_formula_structural   LaPrNd4(OsI3)2
_chemical_formula_sum   'La1 Pr1 Nd4 Os2 I6'
_cell_volume   511.12564526
_cell_formula_units_Z   1
loop_
 _symmetry_equiv_pos_site_id
 _symmetry_equiv_pos_as_xyz
  1  'x, y, z'
loop_
 _atom_site_type_symbol
 _atom_site_label
 _atom_site_symmetry_multiplicity
 _atom_site_fract_x
 _atom_site_fract_y
 _atom_site_fract_z
 _atom_site_occupancy
  La  La0  1  0.750000  0.116732  0.670210  1
  Pr  Pr1  1  0.750000  0.099044  0.108311  1
  Nd  Nd2  1  0.750000  0.690177  0.118798  1
  Nd  Nd3  1  0.250000  0.881529  0.332657  1
  Nd  Nd4  1  0.250000  0.311749  0.881584  1
  Nd  Nd5  1  0.250000  0.899397  0.893154  1
  Os  Os6  1  0.250000  0.889106  0.120445  1
  Os  Os7  1  0.750000  0.111701  0.875079  1
  I  I8  1  0.250000  0.395331  0.134897  1
  I  I9  1  0.750000  0.130294  0.380113  1
  I  I10  1  0.750000  0.604514  0.865277  1
  I  I11  1  0.250000  0.369304  0.623030  1
  I  I12  1  0.750000  0.636457  0.377936  1
  I  I13  1  0.250000  0.864667  0.618510  1
