# generated using pymatgen
data_AcTaH5
_symmetry_space_group_name_H-M   'P 1'
_cell_length_a   4.80065700
_cell_length_b   5.17387100
_cell_length_c   12.73414800
_cell_angle_alpha   90.00000000
_cell_angle_beta   90.00000000
_cell_angle_gamma   90.00000000
_symmetry_Int_Tables_number   1
_chemical_formula_structural   AcTaH5
_chemical_formula_sum   'Ac4 Ta4 H20'
_cell_volume   316.29051376
_cell_formula_units_Z   4
loop_
 _symmetry_equiv_pos_site_id
 _symmetry_equiv_pos_as_xyz
  1  'x, y, z'
loop_
 _atom_site_type_symbol
 _atom_site_label
 _atom_site_symmetry_multiplicity
 _atom_site_fract_x
 _atom_site_fract_y
 _atom_site_fract_z
 _atom_site_occupancy
  Ac  Ac0  1  0.750006  0.743493  0.850710  1
  Ac  Ac1  1  0.250006  0.756507  0.149290  1
  Ac  Ac2  1  0.749994  0.256507  0.350710  1
  Ac  Ac3  1  0.249994  0.243493  0.649290  1
  Ta  Ta4  1  0.250091  0.235901  0.932295  1
  Ta  Ta5  1  0.750091  0.264099  0.067705  1
  Ta  Ta6  1  0.249909  0.764099  0.432295  1
  Ta  Ta7  1  0.749909  0.735901  0.567705  1
  H  H8  1  0.509215  0.009189  0.005163  1
  H  H9  1  0.009215  0.490811  0.994837  1
  H  H10  1  0.990785  0.990811  0.505163  1
  H  H11  1  0.490785  0.509189  0.494837  1
  H  H12  1  0.250062  0.963459  0.833481  1
  H  H13  1  0.750062  0.536541  0.166519  1
  H  H14  1  0.249938  0.036541  0.333481  1
  H  H15  1  0.749938  0.463459  0.666519  1
  H  H16  1  0.525137  0.153332  0.180484  1
  H  H17  1  0.025137  0.346668  0.819516  1
  H  H18  1  0.974863  0.846668  0.680484  1
  H  H19  1  0.474863  0.653332  0.319516  1
  H  H20  1  0.475204  0.346430  0.819508  1
  H  H21  1  0.975204  0.153570  0.180492  1
  H  H22  1  0.024796  0.653570  0.319508  1
  H  H23  1  0.524796  0.846430  0.680492  1
  H  H24  1  0.990972  0.009192  0.005176  1
  H  H25  1  0.490972  0.490808  0.994824  1
  H  H26  1  0.509028  0.990808  0.505176  1
  H  H27  1  0.009028  0.509192  0.494824  1
