# generated using pymatgen
data_Ce3(Ag2Pt)2
_symmetry_space_group_name_H-M   'P 1'
_cell_length_a   7.75863200
_cell_length_b   7.75863201
_cell_length_c   3.90241800
_cell_angle_alpha   90.00000000
_cell_angle_beta   90.00000000
_cell_angle_gamma   119.99999143
_symmetry_Int_Tables_number   1
_chemical_formula_structural   Ce3(Ag2Pt)2
_chemical_formula_sum   'Ce3 Ag4 Pt2'
_cell_volume   203.43925773
_cell_formula_units_Z   1
loop_
 _symmetry_equiv_pos_site_id
 _symmetry_equiv_pos_as_xyz
  1  'x, y, z'
loop_
 _atom_site_type_symbol
 _atom_site_label
 _atom_site_symmetry_multiplicity
 _atom_site_fract_x
 _atom_site_fract_y
 _atom_site_fract_z
 _atom_site_occupancy
  Ce  Ce0  1  0.413646  0.413646  0.000000  1
  Ce  Ce1  1  0.586354  0.000000  0.000000  1
  Ce  Ce2  1  0.000000  0.586354  0.000000  1
  Ag  Ag3  1  0.742503  0.742503  0.500000  1
  Ag  Ag4  1  0.257497  0.000000  0.500000  1
  Ag  Ag5  1  0.000000  0.257497  0.500000  1
  Ag  Ag6  1  0.000000  0.000000  0.000000  1
  Pt  Pt7  1  0.666667  0.333333  0.500000  1
  Pt  Pt8  1  0.333333  0.666667  0.500000  1
