# generated using pymatgen
data_Sm6Mg3Nb(ReN4)6
_symmetry_space_group_name_H-M   'P 1'
_cell_length_a   11.24385504
_cell_length_b   11.22819691
_cell_length_c   11.22819629
_cell_angle_alpha   109.45980422
_cell_angle_beta   109.46905336
_cell_angle_gamma   109.42836894
_symmetry_Int_Tables_number   1
_chemical_formula_structural   Sm6Mg3Nb(ReN4)6
_chemical_formula_sum   'Sm12 Mg6 Nb2 Re12 N48'
_cell_volume   1091.98187890
_cell_formula_units_Z   2
loop_
 _symmetry_equiv_pos_site_id
 _symmetry_equiv_pos_as_xyz
  1  'x, y, z'
loop_
 _atom_site_type_symbol
 _atom_site_label
 _atom_site_symmetry_multiplicity
 _atom_site_fract_x
 _atom_site_fract_y
 _atom_site_fract_z
 _atom_site_occupancy
  Sm  Sm0  1  0.376768  0.750989  0.122264  1
  Sm  Sm1  1  0.250000  0.375117  0.125117  1
  Sm  Sm2  1  0.373378  0.125238  0.246563  1
  Sm  Sm3  1  0.873378  0.626815  0.248140  1
  Sm  Sm4  1  0.750000  0.122165  0.372165  1
  Sm  Sm5  1  0.123232  0.245496  0.374221  1
  Sm  Sm6  1  0.876768  0.754504  0.625779  1
  Sm  Sm7  1  0.250000  0.877835  0.627835  1
  Sm  Sm8  1  0.126622  0.373185  0.751860  1
  Sm  Sm9  1  0.626622  0.874762  0.753437  1
  Sm  Sm10  1  0.623232  0.249011  0.877736  1
  Sm  Sm11  1  0.750000  0.624883  0.874883  1
  Mg  Mg12  1  0.000000  0.000000  0.000000  1
  Mg  Mg13  1  0.500001  0.000000  0.000000  1
  Mg  Mg14  1  0.000000  0.500001  0.000000  1
  Mg  Mg15  1  0.500000  0.500000  0.000000  1
  Mg  Mg16  1  0.000000  0.000000  0.500001  1
  Mg  Mg17  1  0.500001  0.500001  0.500001  1
  Nb  Nb18  1  0.500000  0.000000  0.500000  1
  Nb  Nb19  1  0.000000  0.500000  0.500000  1
  Re  Re20  1  0.874735  0.250831  0.125074  1
  Re  Re21  1  0.750000  0.875810  0.125810  1
  Re  Re22  1  0.625816  0.374680  0.251656  1
  Re  Re23  1  0.125815  0.874159  0.251136  1
  Re  Re24  1  0.250000  0.624022  0.374022  1
  Re  Re25  1  0.625265  0.750340  0.376095  1
  Re  Re26  1  0.374735  0.249660  0.623905  1
  Re  Re27  1  0.750000  0.375978  0.625978  1
  Re  Re28  1  0.874184  0.125841  0.748864  1
  Re  Re29  1  0.374184  0.625320  0.748344  1
  Re  Re30  1  0.250000  0.124189  0.874190  1
  Re  Re31  1  0.125265  0.749169  0.874925  1
  N  N32  1  0.214593  0.121728  0.021835  1
  N  N33  1  0.305829  0.899348  0.020373  1
  N  N34  1  0.879006  0.397708  0.089137  1
  N  N35  1  0.714592  0.692758  0.092865  1
  N  N36  1  0.620606  0.408104  0.102987  1
  N  N37  1  0.980452  0.692888  0.101740  1
  N  N38  1  0.018858  0.212527  0.121803  1
  N  N39  1  0.600799  0.908891  0.123736  1
  N  N40  1  0.210577  0.590622  0.193065  1
  N  N41  1  0.481143  0.602946  0.193669  1
  N  N42  1  0.590780  0.191999  0.211946  1
  N  N43  1  0.120606  0.017619  0.212502  1
  N  N44  1  0.480453  0.378712  0.287564  1
  N  N45  1  0.316893  0.913760  0.297308  1
  N  N46  1  0.899200  0.022937  0.308092  1
  N  N47  1  0.913225  0.298157  0.316472  1
  N  N48  1  0.289423  0.482489  0.380046  1
  N  N49  1  0.586775  0.903247  0.384931  1
  N  N50  1  0.816894  0.519587  0.403134  1
  N  N51  1  0.090780  0.878834  0.398782  1
  N  N52  1  0.099525  0.615569  0.412595  1
  N  N53  1  0.805829  0.785456  0.406480  1
  N  N54  1  0.599526  0.186930  0.483958  1
  N  N55  1  0.379006  0.289868  0.481298  1
  N  N56  1  0.620993  0.710132  0.518702  1
  N  N57  1  0.400475  0.813071  0.516043  1
  N  N58  1  0.194171  0.214544  0.593519  1
  N  N59  1  0.900475  0.384431  0.587404  1
  N  N60  1  0.909219  0.121165  0.601218  1
  N  N61  1  0.183107  0.480414  0.596867  1
  N  N62  1  0.413224  0.096753  0.615069  1
  N  N63  1  0.710577  0.517511  0.619953  1
  N  N64  1  0.086775  0.701843  0.683527  1
  N  N65  1  0.100799  0.977062  0.691907  1
  N  N66  1  0.683106  0.086240  0.702692  1
  N  N67  1  0.519547  0.621287  0.712436  1
  N  N68  1  0.409219  0.808001  0.788054  1
  N  N69  1  0.879395  0.982382  0.787500  1
  N  N70  1  0.518858  0.397055  0.806332  1
  N  N71  1  0.789423  0.409377  0.806935  1
  N  N72  1  0.399201  0.091108  0.876263  1
  N  N73  1  0.981143  0.787475  0.878198  1
  N  N74  1  0.019547  0.307111  0.898259  1
  N  N75  1  0.379394  0.591895  0.897013  1
  N  N76  1  0.285408  0.307241  0.907135  1
  N  N77  1  0.120993  0.602292  0.910862  1
  N  N78  1  0.694170  0.100651  0.979626  1
  N  N79  1  0.785409  0.878273  0.978166  1
