# generated using pymatgen
data_LuCoP3Rh4
_symmetry_space_group_name_H-M   'P 1'
_cell_length_a   3.81803100
_cell_length_b   10.75108900
_cell_length_c   12.37212300
_cell_angle_alpha   90.00000000
_cell_angle_beta   90.00000000
_cell_angle_gamma   90.00000000
_symmetry_Int_Tables_number   1
_chemical_formula_structural   LuCoP3Rh4
_chemical_formula_sum   'Lu4 Co4 P12 Rh16'
_cell_volume   507.85079462
_cell_formula_units_Z   4
loop_
 _symmetry_equiv_pos_site_id
 _symmetry_equiv_pos_as_xyz
  1  'x, y, z'
loop_
 _atom_site_type_symbol
 _atom_site_label
 _atom_site_symmetry_multiplicity
 _atom_site_fract_x
 _atom_site_fract_y
 _atom_site_fract_z
 _atom_site_occupancy
  Lu  Lu0  1  0.250000  0.585069  0.707612  1
  Lu  Lu1  1  0.250000  0.914931  0.207612  1
  Lu  Lu2  1  0.750000  0.414931  0.292388  1
  Lu  Lu3  1  0.750000  0.085069  0.792388  1
  Co  Co4  1  0.250000  0.464361  0.933439  1
  Co  Co5  1  0.250000  0.035639  0.433439  1
  Co  Co6  1  0.750000  0.535639  0.066561  1
  Co  Co7  1  0.750000  0.964361  0.566561  1
  P  P8  1  0.250000  0.423830  0.106526  1
  P  P9  1  0.250000  0.076170  0.606526  1
  P  P10  1  0.750000  0.576170  0.893474  1
  P  P11  1  0.750000  0.923830  0.393474  1
  P  P12  1  0.250000  0.270998  0.872246  1
  P  P13  1  0.250000  0.229002  0.372246  1
  P  P14  1  0.750000  0.729002  0.127754  1
  P  P15  1  0.750000  0.770998  0.627754  1
  P  P16  1  0.250000  0.598573  0.387558  1
  P  P17  1  0.250000  0.901427  0.887558  1
  P  P18  1  0.750000  0.401427  0.612442  1
  P  P19  1  0.750000  0.098573  0.112442  1
  Rh  Rh20  1  0.250000  0.716158  0.987831  1
  Rh  Rh21  1  0.250000  0.783842  0.487831  1
  Rh  Rh22  1  0.750000  0.283842  0.012169  1
  Rh  Rh23  1  0.750000  0.216158  0.512169  1
  Rh  Rh24  1  0.250000  0.408308  0.478422  1
  Rh  Rh25  1  0.250000  0.091692  0.978422  1
  Rh  Rh26  1  0.750000  0.591692  0.521578  1
  Rh  Rh27  1  0.750000  0.908308  0.021578  1
  Rh  Rh28  1  0.250000  0.228602  0.178736  1
  Rh  Rh29  1  0.250000  0.271398  0.678736  1
  Rh  Rh30  1  0.750000  0.771398  0.821264  1
  Rh  Rh31  1  0.750000  0.728602  0.321264  1
  Rh  Rh32  1  0.250000  0.887913  0.699369  1
  Rh  Rh33  1  0.250000  0.612087  0.199369  1
  Rh  Rh34  1  0.750000  0.112087  0.300631  1
  Rh  Rh35  1  0.750000  0.387913  0.800631  1
