# generated using pymatgen
data_PrNd4(IrO6)2
_symmetry_space_group_name_H-M   'P 1'
_cell_length_a   7.10284426
_cell_length_b   7.10284407
_cell_length_c   7.53830511
_cell_angle_alpha   74.66200458
_cell_angle_beta   74.66200748
_cell_angle_gamma   51.65346332
_symmetry_Int_Tables_number   1
_chemical_formula_structural   PrNd4(IrO6)2
_chemical_formula_sum   'Pr1 Nd4 Ir2 O12'
_cell_volume   285.09770513
_cell_formula_units_Z   1
loop_
 _symmetry_equiv_pos_site_id
 _symmetry_equiv_pos_as_xyz
  1  'x, y, z'
loop_
 _atom_site_type_symbol
 _atom_site_label
 _atom_site_symmetry_multiplicity
 _atom_site_fract_x
 _atom_site_fract_y
 _atom_site_fract_z
 _atom_site_occupancy
  Pr  Pr0  1  0.000000  0.000000  0.500000  1
  Nd  Nd1  1  0.303347  0.303347  0.358365  1
  Nd  Nd2  1  0.696653  0.696653  0.641635  1
  Nd  Nd3  1  0.695391  0.695391  0.164076  1
  Nd  Nd4  1  0.304609  0.304609  0.835924  1
  Ir  Ir5  1  0.752894  0.247106  0.000000  1
  Ir  Ir6  1  0.247106  0.752894  0.000000  1
  O  O7  1  0.095350  0.597491  0.576384  1
  O  O8  1  0.999702  0.999702  0.167040  1
  O  O9  1  0.402509  0.904650  0.423616  1
  O  O10  1  0.500649  0.500649  0.174282  1
  O  O11  1  0.103156  0.571286  0.081370  1
  O  O12  1  0.904650  0.402509  0.423616  1
  O  O13  1  0.000298  0.000298  0.832960  1
  O  O14  1  0.597491  0.095349  0.576384  1
  O  O15  1  0.499351  0.499351  0.825718  1
  O  O16  1  0.571286  0.103156  0.081370  1
  O  O17  1  0.428714  0.896844  0.918630  1
  O  O18  1  0.896844  0.428714  0.918630  1
