# generated using pymatgen
data_Ce4Y15HoIr12
_symmetry_space_group_name_H-M   'P 1'
_cell_length_a   11.05341675
_cell_length_b   10.98705769
_cell_length_c   6.31383400
_cell_angle_alpha   90.00000000
_cell_angle_beta   90.00000000
_cell_angle_gamma   89.95859095
_symmetry_Int_Tables_number   1
_chemical_formula_structural   Ce4Y15HoIr12
_chemical_formula_sum   'Ce4 Y15 Ho1 Ir12'
_cell_volume   766.78038659
_cell_formula_units_Z   1
loop_
 _symmetry_equiv_pos_site_id
 _symmetry_equiv_pos_as_xyz
  1  'x, y, z'
loop_
 _atom_site_type_symbol
 _atom_site_label
 _atom_site_symmetry_multiplicity
 _atom_site_fract_x
 _atom_site_fract_y
 _atom_site_fract_z
 _atom_site_occupancy
  Ce  Ce0  1  0.294294  0.092440  0.384983  1
  Ce  Ce1  1  0.294359  0.907034  0.885318  1
  Ce  Ce2  1  0.705641  0.092966  0.885318  1
  Ce  Ce3  1  0.705706  0.907560  0.384983  1
  Y  Y4  1  0.589120  0.786112  0.881479  1
  Y  Y5  1  0.588509  0.214109  0.381352  1
  Y  Y6  1  0.411491  0.785891  0.381352  1
  Y  Y7  1  0.410880  0.213888  0.881479  1
  Y  Y8  1  0.207113  0.413295  0.621114  1
  Y  Y9  1  0.207134  0.587327  0.121064  1
  Y  Y10  1  0.792866  0.412673  0.121064  1
  Y  Y11  1  0.792887  0.586705  0.621114  1
  Y  Y12  1  0.911665  0.709057  0.115499  1
  Y  Y13  1  0.912312  0.290861  0.615403  1
  Y  Y14  1  0.087688  0.709139  0.615403  1
  Y  Y15  1  0.088335  0.290943  0.115499  1
  Y  Y16  1  0.000000  0.000000  0.488249  1
  Y  Y17  1  0.000000  0.000000  0.988731  1
  Y  Y18  1  0.500000  0.500000  0.014141  1
  Ho  Ho19  1  0.500000  0.500000  0.514064  1
  Ir  Ir20  1  0.843512  0.152937  0.237974  1
  Ir  Ir21  1  0.843282  0.847668  0.738256  1
  Ir  Ir22  1  0.156718  0.152332  0.738256  1
  Ir  Ir23  1  0.156488  0.847063  0.237974  1
  Ir  Ir24  1  0.653081  0.345941  0.757794  1
  Ir  Ir25  1  0.652451  0.655279  0.261404  1
  Ir  Ir26  1  0.347549  0.344721  0.261404  1
  Ir  Ir27  1  0.346919  0.654059  0.757794  1
  Ir  Ir28  1  0.500000  0.000000  0.124792  1
  Ir  Ir29  1  0.500000  0.000000  0.624635  1
  Ir  Ir30  1  0.000000  0.500000  0.871301  1
  Ir  Ir31  1  0.000000  0.500000  0.370812  1
