# generated using pymatgen
data_Tm12Fe3Pd2
_symmetry_space_group_name_H-M   'P 1'
_cell_length_a   8.04020294
_cell_length_b   8.04020168
_cell_length_c   8.04020240
_cell_angle_alpha   108.63660856
_cell_angle_beta   108.63624689
_cell_angle_gamma   111.15401533
_symmetry_Int_Tables_number   1
_chemical_formula_structural   Tm12Fe3Pd2
_chemical_formula_sum   'Tm12 Fe3 Pd2'
_cell_volume   399.85000552
_cell_formula_units_Z   1
loop_
 _symmetry_equiv_pos_site_id
 _symmetry_equiv_pos_as_xyz
  1  'x, y, z'
loop_
 _atom_site_type_symbol
 _atom_site_label
 _atom_site_symmetry_multiplicity
 _atom_site_fract_x
 _atom_site_fract_y
 _atom_site_fract_z
 _atom_site_occupancy
  Tm  Tm0  1  0.186197  0.434013  0.247818  1
  Tm  Tm1  1  0.813803  0.565987  0.752182  1
  Tm  Tm2  1  0.186197  0.938380  0.752184  1
  Tm  Tm3  1  0.938379  0.186199  0.752179  1
  Tm  Tm4  1  0.813803  0.061620  0.247816  1
  Tm  Tm5  1  0.061621  0.813801  0.247821  1
  Tm  Tm6  1  0.434021  0.186199  0.247821  1
  Tm  Tm7  1  0.565979  0.813801  0.752179  1
  Tm  Tm8  1  0.310648  0.310646  0.621295  1
  Tm  Tm9  1  0.689352  0.689354  0.378705  1
  Tm  Tm10  1  0.689352  0.310647  0.999998  1
  Tm  Tm11  1  0.310648  0.689353  0.000002  1
  Fe  Fe12  1  0.378212  0.378212  0.000000  1
  Fe  Fe13  1  0.621788  0.621788  0.000000  1
  Fe  Fe14  1  0.000000  0.000000  0.000000  1
  Pd  Pd15  1  0.000000  0.500000  0.500000  1
  Pd  Pd16  1  0.500000  0.000000  0.500000  1
