# generated using pymatgen
data_Er12Th8Sn9Sb7
_symmetry_space_group_name_H-M   'P 1'
_cell_length_a   8.13784703
_cell_length_b   8.11393517
_cell_length_c   15.35338231
_cell_angle_alpha   90.02202811
_cell_angle_beta   89.99327702
_cell_angle_gamma   89.99235020
_symmetry_Int_Tables_number   1
_chemical_formula_structural   Er12Th8Sn9Sb7
_chemical_formula_sum   'Er12 Th8 Sn9 Sb7'
_cell_volume   1013.78317839
_cell_formula_units_Z   1
loop_
 _symmetry_equiv_pos_site_id
 _symmetry_equiv_pos_as_xyz
  1  'x, y, z'
loop_
 _atom_site_type_symbol
 _atom_site_label
 _atom_site_symmetry_multiplicity
 _atom_site_fract_x
 _atom_site_fract_y
 _atom_site_fract_z
 _atom_site_occupancy
  Er  Er0  1  0.362486  0.838168  0.876691  1
  Er  Er1  1  0.863007  0.661473  0.623193  1
  Er  Er2  1  0.637017  0.161334  0.376863  1
  Er  Er3  1  0.136376  0.338465  0.123577  1
  Er  Er4  1  0.637773  0.162188  0.123219  1
  Er  Er5  1  0.136829  0.338250  0.376847  1
  Er  Er6  1  0.362972  0.838540  0.623223  1
  Er  Er7  1  0.862884  0.661615  0.876660  1
  Er  Er8  1  0.190822  0.495479  0.749860  1
  Er  Er9  1  0.690686  0.004356  0.749986  1
  Er  Er10  1  0.809178  0.504096  0.249353  1
  Er  Er11  1  0.309119  0.995834  0.249889  1
  Th  Th12  1  0.519899  0.321034  0.904923  1
  Th  Th13  1  0.019791  0.179226  0.594896  1
  Th  Th14  1  0.480153  0.679281  0.404981  1
  Th  Th15  1  0.980610  0.820825  0.095394  1
  Th  Th16  1  0.481609  0.678871  0.095045  1
  Th  Th17  1  0.980513  0.820790  0.405191  1
  Th  Th18  1  0.519716  0.320576  0.595087  1
  Th  Th19  1  0.019046  0.179618  0.904904  1
  Sn  Sn20  1  0.797666  0.460396  0.042655  1
  Sn  Sn21  1  0.557857  0.621218  0.749738  1
  Sn  Sn22  1  0.057990  0.879000  0.749861  1
  Sn  Sn23  1  0.441699  0.379144  0.250426  1
  Sn  Sn24  1  0.942072  0.120838  0.250520  1
  Sn  Sn25  1  0.324568  0.142369  0.750010  1
  Sn  Sn26  1  0.824704  0.357467  0.749922  1
  Sn  Sn27  1  0.675606  0.857482  0.250183  1
  Sn  Sn28  1  0.175616  0.642353  0.250059  1
  Sb  Sb29  1  0.296991  0.039705  0.043170  1
  Sb  Sb30  1  0.797119  0.460477  0.456716  1
  Sb  Sb31  1  0.702818  0.960664  0.543510  1
  Sb  Sb32  1  0.201884  0.539510  0.956940  1
  Sb  Sb33  1  0.702805  0.960747  0.956533  1
  Sb  Sb34  1  0.203023  0.539331  0.543363  1
  Sb  Sb35  1  0.297098  0.039280  0.456610  1
