# generated using pymatgen
data_Ba4Sn3PPt4
_symmetry_space_group_name_H-M   'P 1'
_cell_length_a   7.06292942
_cell_length_b   7.06292942
_cell_length_c   7.06292942
_cell_angle_alpha   91.57337213
_cell_angle_beta   91.57337213
_cell_angle_gamma   91.57337213
_symmetry_Int_Tables_number   1
_chemical_formula_structural   Ba4Sn3PPt4
_chemical_formula_sum   'Ba4 Sn3 P1 Pt4'
_cell_volume   351.92807666
_cell_formula_units_Z   1
loop_
 _symmetry_equiv_pos_site_id
 _symmetry_equiv_pos_as_xyz
  1  'x, y, z'
loop_
 _atom_site_type_symbol
 _atom_site_label
 _atom_site_symmetry_multiplicity
 _atom_site_fract_x
 _atom_site_fract_y
 _atom_site_fract_z
 _atom_site_occupancy
  Ba  Ba0  1  0.603323  0.389050  0.875195  1
  Ba  Ba1  1  0.389050  0.875195  0.603323  1
  Ba  Ba2  1  0.118739  0.118739  0.118739  1
  Ba  Ba3  1  0.875195  0.603323  0.389050  1
  Sn  Sn4  1  0.585167  0.912220  0.092127  1
  Sn  Sn5  1  0.092127  0.585167  0.912220  1
  Sn  Sn6  1  0.912220  0.092127  0.585167  1
  P  P7  1  0.416867  0.416867  0.416867  1
  Pt  Pt8  1  0.190877  0.348719  0.633276  1
  Pt  Pt9  1  0.633276  0.190877  0.348719  1
  Pt  Pt10  1  0.834441  0.834441  0.834441  1
  Pt  Pt11  1  0.348719  0.633276  0.190877  1
