# generated using pymatgen
data_InAg10Bi(PbO6)2
_symmetry_space_group_name_H-M   'P 1'
_cell_length_a   8.86472403
_cell_length_b   8.86472450
_cell_length_c   6.02867813
_cell_angle_alpha   70.03375557
_cell_angle_beta   70.03375458
_cell_angle_gamma   72.28102922
_symmetry_Int_Tables_number   1
_chemical_formula_structural   InAg10Bi(PbO6)2
_chemical_formula_sum   'In1 Ag10 Bi1 Pb2 O12'
_cell_volume   408.95312435
_cell_formula_units_Z   1
loop_
 _symmetry_equiv_pos_site_id
 _symmetry_equiv_pos_as_xyz
  1  'x, y, z'
loop_
 _atom_site_type_symbol
 _atom_site_label
 _atom_site_symmetry_multiplicity
 _atom_site_fract_x
 _atom_site_fract_y
 _atom_site_fract_z
 _atom_site_occupancy
  In  In0  1  0.417869  0.582131  0.000000  1
  Ag  Ag1  1  0.254287  0.250336  0.999388  1
  Ag  Ag2  1  0.746695  0.748712  0.498041  1
  Ag  Ag3  1  0.251288  0.253305  0.501959  1
  Ag  Ag4  1  0.749664  0.745713  0.000612  1
  Ag  Ag5  1  0.497340  0.998962  0.752922  1
  Ag  Ag6  1  0.001038  0.502660  0.247078  1
  Ag  Ag7  1  0.115942  0.613239  0.633701  1
  Ag  Ag8  1  0.613458  0.116653  0.137204  1
  Ag  Ag9  1  0.386761  0.884058  0.366299  1
  Ag  Ag10  1  0.883347  0.386542  0.862796  1
  Bi  Bi11  1  0.915265  0.084735  0.500000  1
  Pb  Pb12  1  0.576374  0.423626  0.500000  1
  Pb  Pb13  1  0.090375  0.909625  0.000000  1
  O  O14  1  0.652445  0.534680  0.719228  1
  O  O15  1  0.162617  0.031993  0.207863  1
  O  O16  1  0.530555  0.657267  0.212490  1
  O  O17  1  0.039596  0.154554  0.723270  1
  O  O18  1  0.348572  0.839437  0.782905  1
  O  O19  1  0.839365  0.354922  0.281251  1
  O  O20  1  0.342733  0.469445  0.787510  1
  O  O21  1  0.845446  0.960404  0.276730  1
  O  O22  1  0.465320  0.347555  0.280772  1
  O  O23  1  0.968007  0.837383  0.792137  1
  O  O24  1  0.645078  0.160635  0.718749  1
  O  O25  1  0.160563  0.651428  0.217095  1
