# generated using pymatgen
data_Zr6Ga6Ru7Rh5
_symmetry_space_group_name_H-M   'P 1'
_cell_length_a   4.47682400
_cell_length_b   6.36455807
_cell_length_c   13.36426015
_cell_angle_alpha   89.98298478
_cell_angle_beta   89.99989314
_cell_angle_gamma   90.00007439
_symmetry_Int_Tables_number   1
_chemical_formula_structural   Zr6Ga6Ru7Rh5
_chemical_formula_sum   'Zr6 Ga6 Ru7 Rh5'
_cell_volume   380.78793202
_cell_formula_units_Z   1
loop_
 _symmetry_equiv_pos_site_id
 _symmetry_equiv_pos_as_xyz
  1  'x, y, z'
loop_
 _atom_site_type_symbol
 _atom_site_label
 _atom_site_symmetry_multiplicity
 _atom_site_fract_x
 _atom_site_fract_y
 _atom_site_fract_z
 _atom_site_occupancy
  Zr  Zr0  1  0.000003  0.999764  0.002656  1
  Zr  Zr1  1  0.500035  0.500186  0.166957  1
  Zr  Zr2  1  0.000053  0.000996  0.331416  1
  Zr  Zr3  1  0.500002  0.497626  0.497222  1
  Zr  Zr4  1  0.999939  0.001155  0.665769  1
  Zr  Zr5  1  0.499969  0.500253  0.836106  1
  Ga  Ga6  1  0.000001  0.499987  0.003337  1
  Ga  Ga7  1  0.500035  0.000434  0.166855  1
  Ga  Ga8  1  0.000046  0.497787  0.331211  1
  Ga  Ga9  1  0.500002  0.003239  0.496970  1
  Ga  Ga10  1  0.999957  0.498122  0.665341  1
  Ga  Ga11  1  0.499966  0.000202  0.836267  1
  Ru  Ru12  1  0.500006  0.250124  0.997467  1
  Ru  Ru13  1  0.500002  0.749955  0.997571  1
  Ru  Ru14  1  0.000043  0.249595  0.166113  1
  Ru  Ru15  1  0.000040  0.750533  0.166514  1
  Ru  Ru16  1  0.500045  0.249951  0.335005  1
  Ru  Ru17  1  0.500043  0.749885  0.334707  1
  Ru  Ru18  1  0.999995  0.250441  0.502720  1
  Rh  Rh19  1  0.000005  0.749489  0.502006  1
  Rh  Rh20  1  0.499944  0.248559  0.667474  1
  Rh  Rh21  1  0.499938  0.751964  0.667390  1
  Rh  Rh22  1  0.999966  0.251373  0.831571  1
  Rh  Rh23  1  0.999962  0.748388  0.831353  1
