# generated using pymatgen
data_Hf18Re8OsPd
_symmetry_space_group_name_H-M   'P 1'
_cell_length_a   8.65305500
_cell_length_b   8.65305436
_cell_length_c   8.55501000
_cell_angle_alpha   90.00000000
_cell_angle_beta   90.00000000
_cell_angle_gamma   119.99999862
_symmetry_Int_Tables_number   1
_chemical_formula_structural   Hf18Re8OsPd
_chemical_formula_sum   'Hf18 Re8 Os1 Pd1'
_cell_volume   554.74073225
_cell_formula_units_Z   1
loop_
 _symmetry_equiv_pos_site_id
 _symmetry_equiv_pos_as_xyz
  1  'x, y, z'
loop_
 _atom_site_type_symbol
 _atom_site_label
 _atom_site_symmetry_multiplicity
 _atom_site_fract_x
 _atom_site_fract_y
 _atom_site_fract_z
 _atom_site_occupancy
  Hf  Hf0  1  0.196833  0.803167  0.446407  1
  Hf  Hf1  1  0.196833  0.393666  0.446407  1
  Hf  Hf2  1  0.606334  0.803167  0.446407  1
  Hf  Hf3  1  0.805703  0.194297  0.551603  1
  Hf  Hf4  1  0.805703  0.611406  0.551603  1
  Hf  Hf5  1  0.388594  0.194297  0.551603  1
  Hf  Hf6  1  0.805703  0.194297  0.948397  1
  Hf  Hf7  1  0.805703  0.611406  0.948397  1
  Hf  Hf8  1  0.388594  0.194297  0.948397  1
  Hf  Hf9  1  0.196833  0.803167  0.053593  1
  Hf  Hf10  1  0.196833  0.393666  0.053593  1
  Hf  Hf11  1  0.606334  0.803167  0.053593  1
  Hf  Hf12  1  0.541029  0.458971  0.250000  1
  Hf  Hf13  1  0.541029  0.082058  0.250000  1
  Hf  Hf14  1  0.917942  0.458971  0.250000  1
  Hf  Hf15  1  0.458178  0.541822  0.750000  1
  Hf  Hf16  1  0.458178  0.916356  0.750000  1
  Hf  Hf17  1  0.083644  0.541822  0.750000  1
  Re  Re18  1  0.889909  0.110091  0.250000  1
  Re  Re19  1  0.889909  0.779818  0.250000  1
  Re  Re20  1  0.220182  0.110091  0.250000  1
  Re  Re21  1  0.110194  0.889806  0.750000  1
  Re  Re22  1  0.110194  0.220390  0.750000  1
  Re  Re23  1  0.779610  0.889806  0.750000  1
  Re  Re24  1  0.000000  0.000000  0.499747  1
  Re  Re25  1  0.000000  0.000000  0.000253  1
  Os  Os26  1  0.333333  0.666667  0.250000  1
  Pd  Pd27  1  0.666667  0.333333  0.750000  1
