# generated using pymatgen
data_LaTbZn5Sn
_symmetry_space_group_name_H-M   'P 1'
_cell_length_a   8.53976660
_cell_length_b   8.53976710
_cell_length_c   9.10092800
_cell_angle_alpha   90.00000000
_cell_angle_beta   90.00000000
_cell_angle_gamma   149.62781197
_symmetry_Int_Tables_number   1
_chemical_formula_structural   LaTbZn5Sn
_chemical_formula_sum   'La2 Tb2 Zn10 Sn2'
_cell_volume   335.58124656
_cell_formula_units_Z   2
loop_
 _symmetry_equiv_pos_site_id
 _symmetry_equiv_pos_as_xyz
  1  'x, y, z'
loop_
 _atom_site_type_symbol
 _atom_site_label
 _atom_site_symmetry_multiplicity
 _atom_site_fract_x
 _atom_site_fract_y
 _atom_site_fract_z
 _atom_site_occupancy
  La  La0  1  0.000000  0.000000  0.500000  1
  La  La1  1  0.000000  0.000000  0.000000  1
  Tb  Tb2  1  0.206059  0.793941  0.250000  1
  Tb  Tb3  1  0.793941  0.206059  0.750000  1
  Zn  Zn4  1  0.812396  0.187604  0.389592  1
  Zn  Zn5  1  0.187604  0.812396  0.610408  1
  Zn  Zn6  1  0.812396  0.187604  0.110408  1
  Zn  Zn7  1  0.187604  0.812396  0.889592  1
  Zn  Zn8  1  0.659301  0.340699  0.483834  1
  Zn  Zn9  1  0.340699  0.659301  0.516166  1
  Zn  Zn10  1  0.659301  0.340699  0.016166  1
  Zn  Zn11  1  0.340699  0.659301  0.983834  1
  Zn  Zn12  1  0.394892  0.605108  0.250000  1
  Zn  Zn13  1  0.605108  0.394892  0.750000  1
  Sn  Sn14  1  0.559561  0.440439  0.250000  1
  Sn  Sn15  1  0.440439  0.559561  0.750000  1
