# generated using pymatgen
data_Y4AlOs7
_symmetry_space_group_name_H-M   'P 1'
_cell_length_a   5.37754700
_cell_length_b   5.37754611
_cell_length_c   8.72259900
_cell_angle_alpha   90.00000000
_cell_angle_beta   90.00000000
_cell_angle_gamma   120.00001160
_symmetry_Int_Tables_number   1
_chemical_formula_structural   Y4AlOs7
_chemical_formula_sum   'Y4 Al1 Os7'
_cell_volume   218.44637706
_cell_formula_units_Z   1
loop_
 _symmetry_equiv_pos_site_id
 _symmetry_equiv_pos_as_xyz
  1  'x, y, z'
loop_
 _atom_site_type_symbol
 _atom_site_label
 _atom_site_symmetry_multiplicity
 _atom_site_fract_x
 _atom_site_fract_y
 _atom_site_fract_z
 _atom_site_occupancy
  Y  Y0  1  0.333333  0.666667  0.436035  1
  Y  Y1  1  0.666667  0.333333  0.563965  1
  Y  Y2  1  0.666667  0.333333  0.928854  1
  Y  Y3  1  0.333333  0.666667  0.071146  1
  Al  Al4  1  0.000000  0.000000  0.000000  1
  Os  Os5  1  0.171307  0.342612  0.750717  1
  Os  Os6  1  0.171307  0.828693  0.750717  1
  Os  Os7  1  0.342612  0.171307  0.249283  1
  Os  Os8  1  0.828693  0.657388  0.249283  1
  Os  Os9  1  0.657388  0.828693  0.750717  1
  Os  Os10  1  0.828693  0.171307  0.249283  1
  Os  Os11  1  0.000000  0.000000  0.500000  1
