# generated using pymatgen
data_Zr8Nb12GaSi15
_symmetry_space_group_name_H-M   'P 1'
_cell_length_a   6.90213434
_cell_length_b   6.91508676
_cell_length_c   12.81260347
_cell_angle_alpha   89.96664333
_cell_angle_beta   89.94230629
_cell_angle_gamma   89.98156801
_symmetry_Int_Tables_number   1
_chemical_formula_structural   Zr8Nb12GaSi15
_chemical_formula_sum   'Zr8 Nb12 Ga1 Si15'
_cell_volume   611.53048358
_cell_formula_units_Z   1
loop_
 _symmetry_equiv_pos_site_id
 _symmetry_equiv_pos_as_xyz
  1  'x, y, z'
loop_
 _atom_site_type_symbol
 _atom_site_label
 _atom_site_symmetry_multiplicity
 _atom_site_fract_x
 _atom_site_fract_y
 _atom_site_fract_z
 _atom_site_occupancy
  Zr  Zr0  1  0.000520  0.343305  0.218946  1
  Zr  Zr1  1  0.998895  0.660249  0.718691  1
  Zr  Zr2  1  0.159883  0.501646  0.468643  1
  Zr  Zr3  1  0.500734  0.837530  0.029124  1
  Zr  Zr4  1  0.840486  0.497770  0.968057  1
  Zr  Zr5  1  0.502096  0.159903  0.532097  1
  Zr  Zr6  1  0.340363  0.001569  0.781200  1
  Zr  Zr7  1  0.662768  0.998091  0.282661  1
  Nb  Nb8  1  0.167305  0.171006  0.998267  1
  Nb  Nb9  1  0.830619  0.830757  0.500172  1
  Nb  Nb10  1  0.329855  0.664938  0.251001  1
  Nb  Nb11  1  0.668922  0.330392  0.749972  1
  Nb  Nb12  1  0.152211  0.994415  0.378920  1
  Nb  Nb13  1  0.846539  0.004583  0.875933  1
  Nb  Nb14  1  0.505092  0.653250  0.626498  1
  Nb  Nb15  1  0.347001  0.495207  0.873415  1
  Nb  Nb16  1  0.497603  0.351813  0.125224  1
  Nb  Nb17  1  0.652828  0.504476  0.374394  1
  Nb  Nb18  1  0.995199  0.153341  0.624064  1
  Nb  Nb19  1  0.000399  0.844124  0.122189  1
  Ga  Ga20  1  0.300653  0.041105  0.185454  1
  Si  Si21  1  0.701641  0.955409  0.687027  1
  Si  Si22  1  0.455163  0.798562  0.436896  1
  Si  Si23  1  0.201447  0.544750  0.063053  1
  Si  Si24  1  0.543857  0.201133  0.937526  1
  Si  Si25  1  0.798659  0.455544  0.563241  1
  Si  Si26  1  0.044391  0.298383  0.812488  1
  Si  Si27  1  0.955312  0.703223  0.312939  1
  Si  Si28  1  0.366059  0.290943  0.322898  1
  Si  Si29  1  0.634178  0.708293  0.822734  1
  Si  Si30  1  0.208949  0.866321  0.573256  1
  Si  Si31  1  0.134379  0.791978  0.927151  1
  Si  Si32  1  0.791209  0.134354  0.073709  1
  Si  Si33  1  0.866482  0.209415  0.427344  1
  Si  Si34  1  0.291369  0.366355  0.676915  1
  Si  Si35  1  0.706933  0.635866  0.177896  1
