# generated using pymatgen
data_Hf5Zr5Zn2(Sn2Sb)2
_symmetry_space_group_name_H-M   'P 1'
_cell_length_a   8.67190755
_cell_length_b   8.66872726
_cell_length_c   5.84927700
_cell_angle_alpha   90.00000000
_cell_angle_beta   90.00000000
_cell_angle_gamma   119.97885047
_symmetry_Int_Tables_number   1
_chemical_formula_structural   Hf5Zr5Zn2(Sn2Sb)2
_chemical_formula_sum   'Hf5 Zr5 Zn2 Sn4 Sb2'
_cell_volume   380.88626719
_cell_formula_units_Z   1
loop_
 _symmetry_equiv_pos_site_id
 _symmetry_equiv_pos_as_xyz
  1  'x, y, z'
loop_
 _atom_site_type_symbol
 _atom_site_label
 _atom_site_symmetry_multiplicity
 _atom_site_fract_x
 _atom_site_fract_y
 _atom_site_fract_z
 _atom_site_occupancy
  Hf  Hf0  1  0.269364  0.000103  0.250000  1
  Hf  Hf1  1  0.334361  0.667459  0.499730  1
  Hf  Hf2  1  0.666099  0.332950  0.000299  1
  Hf  Hf3  1  0.666099  0.332950  0.499701  1
  Hf  Hf4  1  0.334361  0.667459  0.000270  1
  Zr  Zr5  1  0.730628  0.731486  0.250000  1
  Zr  Zr6  1  0.730681  0.999174  0.750000  1
  Zr  Zr7  1  0.999247  0.267905  0.250000  1
  Zr  Zr8  1  0.999544  0.731904  0.750000  1
  Zr  Zr9  1  0.269105  0.268700  0.750000  1
  Zn  Zn10  1  0.002166  0.000844  0.000534  1
  Zn  Zn11  1  0.002166  0.000844  0.499466  1
  Sn  Sn12  1  0.383950  0.999634  0.750000  1
  Sn  Sn13  1  0.383786  0.383663  0.250000  1
  Sn  Sn14  1  0.000884  0.615222  0.250000  1
  Sn  Sn15  1  0.000416  0.385759  0.750000  1
  Sb  Sb16  1  0.613946  0.613274  0.750000  1
  Sb  Sb17  1  0.613201  0.000673  0.250000  1
