# generated using pymatgen
data_Dy3YAl16(SiIr3)2
_symmetry_space_group_name_H-M   'P 1'
_cell_length_a   7.54320010
_cell_length_b   7.54345225
_cell_length_c   9.35631600
_cell_angle_alpha   90.00000000
_cell_angle_beta   90.00000000
_cell_angle_gamma   119.67717890
_symmetry_Int_Tables_number   1
_chemical_formula_structural   Dy3YAl16(SiIr3)2
_chemical_formula_sum   'Dy3 Y1 Al16 Si2 Ir6'
_cell_volume   462.55657460
_cell_formula_units_Z   1
loop_
 _symmetry_equiv_pos_site_id
 _symmetry_equiv_pos_as_xyz
  1  'x, y, z'
loop_
 _atom_site_type_symbol
 _atom_site_label
 _atom_site_symmetry_multiplicity
 _atom_site_fract_x
 _atom_site_fract_y
 _atom_site_fract_z
 _atom_site_occupancy
  Dy  Dy0  1  0.005059  0.325592  0.250000  1
  Dy  Dy1  1  0.674334  0.994857  0.750000  1
  Dy  Dy2  1  0.325609  0.005047  0.250000  1
  Y  Y3  1  0.994828  0.674249  0.750000  1
  Al  Al4  1  0.001184  0.336106  0.576345  1
  Al  Al5  1  0.998831  0.663850  0.423547  1
  Al  Al6  1  0.998831  0.663850  0.076453  1
  Al  Al7  1  0.336208  0.001240  0.923657  1
  Al  Al8  1  0.001184  0.336106  0.923655  1
  Al  Al9  1  0.663849  0.998827  0.076405  1
  Al  Al10  1  0.663849  0.998827  0.423595  1
  Al  Al11  1  0.336208  0.001240  0.576343  1
  Al  Al12  1  0.335551  0.335553  0.057005  1
  Al  Al13  1  0.664409  0.664456  0.943025  1
  Al  Al14  1  0.664409  0.664456  0.556975  1
  Al  Al15  1  0.335551  0.335553  0.442995  1
  Al  Al16  1  0.335652  0.548309  0.750000  1
  Al  Al17  1  0.664438  0.451699  0.250000  1
  Al  Al18  1  0.548220  0.335490  0.750000  1
  Al  Al19  1  0.451682  0.664432  0.250000  1
  Si  Si20  1  0.128307  0.128413  0.750000  1
  Si  Si21  1  0.871708  0.871694  0.250000  1
  Ir  Ir22  1  0.671728  0.328232  0.499977  1
  Ir  Ir23  1  0.328301  0.671762  0.499975  1
  Ir  Ir24  1  0.328301  0.671762  0.000025  1
  Ir  Ir25  1  0.671728  0.328232  0.000023  1
  Ir  Ir26  1  0.000020  0.000084  0.499960  1
  Ir  Ir27  1  0.000020  0.000084  0.000040  1
