# generated using pymatgen
data_Ac2SiGeAu2
_symmetry_space_group_name_H-M   'P 1'
_cell_length_a   6.28551146
_cell_length_b   6.29664832
_cell_length_c   6.29664700
_cell_angle_alpha   137.84396301
_cell_angle_beta   92.60300592
_cell_angle_gamma   102.34062056
_symmetry_Int_Tables_number   1
_chemical_formula_structural   Ac2SiGeAu2
_chemical_formula_sum   'Ac2 Si1 Ge1 Au2'
_cell_volume   155.29264367
_cell_formula_units_Z   1
loop_
 _symmetry_equiv_pos_site_id
 _symmetry_equiv_pos_as_xyz
  1  'x, y, z'
loop_
 _atom_site_type_symbol
 _atom_site_label
 _atom_site_symmetry_multiplicity
 _atom_site_fract_x
 _atom_site_fract_y
 _atom_site_fract_z
 _atom_site_occupancy
  Ac  Ac0  1  0.170440  0.667728  0.502713  1
  Ac  Ac1  1  0.668258  0.669564  0.998694  1
  Si  Si2  1  0.080008  0.334559  0.745450  1
  Ge  Ge3  1  0.574956  0.331340  0.243615  1
  Au  Au4  1  0.766576  0.012051  0.754526  1
  Au  Au5  1  0.245430  0.990428  0.255002  1
