# generated using pymatgen
data_K4Ge2PbS6
_symmetry_space_group_name_H-M   'P 1'
_cell_length_a   7.21944595
_cell_length_b   7.21944557
_cell_length_c   8.45484676
_cell_angle_alpha   81.77645406
_cell_angle_beta   81.77645013
_cell_angle_gamma   119.68460565
_symmetry_Int_Tables_number   1
_chemical_formula_structural   K4Ge2PbS6
_chemical_formula_sum   'K4 Ge2 Pb1 S6'
_cell_volume   366.99361089
_cell_formula_units_Z   1
loop_
 _symmetry_equiv_pos_site_id
 _symmetry_equiv_pos_as_xyz
  1  'x, y, z'
loop_
 _atom_site_type_symbol
 _atom_site_label
 _atom_site_symmetry_multiplicity
 _atom_site_fract_x
 _atom_site_fract_y
 _atom_site_fract_z
 _atom_site_occupancy
  K  K0  1  0.818805  0.181195  0.000000  1
  K  K1  1  0.179421  0.820579  0.000000  1
  K  K2  1  0.503829  0.496171  0.000000  1
  K  K3  1  0.665023  0.334977  0.500000  1
  Ge  Ge4  1  0.048579  0.049055  0.349393  1
  Ge  Ge5  1  0.950945  0.951421  0.650607  1
  Pb  Pb6  1  0.334380  0.665620  0.500000  1
  S  S7  1  0.095374  0.385120  0.268285  1
  S  S8  1  0.366265  0.057464  0.268851  1
  S  S9  1  0.942536  0.633735  0.731149  1
  S  S10  1  0.614880  0.904626  0.731715  1
  S  S11  1  0.772220  0.792258  0.263395  1
  S  S12  1  0.207742  0.227780  0.736605  1
