# generated using pymatgen
data_BeGa6Fe5Rh12
_symmetry_space_group_name_H-M   'P 1'
_cell_length_a   4.26647516
_cell_length_b   5.97566300
_cell_length_c   12.78623248
_cell_angle_alpha   90.00000000
_cell_angle_beta   89.96869807
_cell_angle_gamma   90.00000000
_symmetry_Int_Tables_number   1
_chemical_formula_structural   BeGa6Fe5Rh12
_chemical_formula_sum   'Be1 Ga6 Fe5 Rh12'
_cell_volume   325.98517530
_cell_formula_units_Z   1
loop_
 _symmetry_equiv_pos_site_id
 _symmetry_equiv_pos_as_xyz
  1  'x, y, z'
loop_
 _atom_site_type_symbol
 _atom_site_label
 _atom_site_symmetry_multiplicity
 _atom_site_fract_x
 _atom_site_fract_y
 _atom_site_fract_z
 _atom_site_occupancy
  Be  Be0  1  0.500332  0.000000  0.833325  1
  Ga  Ga1  1  0.000000  0.000000  0.000320  1
  Ga  Ga2  1  0.499649  0.500000  0.162856  1
  Ga  Ga3  1  0.999634  0.000000  0.333315  1
  Ga  Ga4  1  0.500048  0.500000  0.503805  1
  Ga  Ga5  1  0.000352  0.000000  0.666404  1
  Ga  Ga6  1  0.500310  0.500000  0.833315  1
  Fe  Fe7  1  0.000013  0.500000  0.997011  1
  Fe  Fe8  1  0.499608  0.000000  0.165313  1
  Fe  Fe9  1  0.999598  0.500000  0.333381  1
  Fe  Fe10  1  0.500044  0.000000  0.501352  1
  Fe  Fe11  1  0.000391  0.500000  0.669612  1
  Rh  Rh12  1  0.499999  0.245104  0.995111  1
  Rh  Rh13  1  0.499999  0.754896  0.995111  1
  Rh  Rh14  1  0.999628  0.251150  0.166115  1
  Rh  Rh15  1  0.999628  0.748849  0.166115  1
  Rh  Rh16  1  0.499651  0.250321  0.333347  1
  Rh  Rh17  1  0.499651  0.749678  0.333347  1
  Rh  Rh18  1  0.000070  0.251047  0.500580  1
  Rh  Rh19  1  0.000070  0.748954  0.500580  1
  Rh  Rh20  1  0.500372  0.245125  0.671510  1
  Rh  Rh21  1  0.500372  0.754874  0.671510  1
  Rh  Rh22  1  0.000285  0.242078  0.833333  1
  Rh  Rh23  1  0.000285  0.757921  0.833333  1
