# generated using pymatgen
data_Hf3ScSi4MoW3
_symmetry_space_group_name_H-M   'P 1'
_cell_length_a   3.50994800
_cell_length_b   6.96655619
_cell_length_c   8.21698140
_cell_angle_alpha   90.21483897
_cell_angle_beta   90.00000000
_cell_angle_gamma   90.00000000
_symmetry_Int_Tables_number   1
_chemical_formula_structural   Hf3ScSi4MoW3
_chemical_formula_sum   'Hf3 Sc1 Si4 Mo1 W3'
_cell_volume   200.92227074
_cell_formula_units_Z   1
loop_
 _symmetry_equiv_pos_site_id
 _symmetry_equiv_pos_as_xyz
  1  'x, y, z'
loop_
 _atom_site_type_symbol
 _atom_site_label
 _atom_site_symmetry_multiplicity
 _atom_site_fract_x
 _atom_site_fract_y
 _atom_site_fract_z
 _atom_site_occupancy
  Hf  Hf0  1  0.250000  0.042285  0.332298  1
  Hf  Hf1  1  0.250000  0.543228  0.166535  1
  Hf  Hf2  1  0.750000  0.457627  0.835072  1
  Sc  Sc3  1  0.750000  0.958268  0.665532  1
  Si  Si4  1  0.250000  0.257153  0.639955  1
  Si  Si5  1  0.750000  0.742677  0.361772  1
  Si  Si6  1  0.250000  0.759121  0.859667  1
  Si  Si7  1  0.750000  0.242730  0.137925  1
  Mo  Mo8  1  0.250000  0.133755  0.939111  1
  W  W9  1  0.750000  0.366830  0.438400  1
  W  W10  1  0.250000  0.630761  0.560781  1
  W  W11  1  0.750000  0.865565  0.062952  1
