# generated using pymatgen
data_NpGeBr6
_symmetry_space_group_name_H-M   'P 1'
_cell_length_a   7.98271160
_cell_length_b   7.98271176
_cell_length_c   7.98271235
_cell_angle_alpha   53.55289263
_cell_angle_beta   53.55288909
_cell_angle_gamma   53.55288895
_symmetry_Int_Tables_number   1
_chemical_formula_structural   NpGeBr6
_chemical_formula_sum   'Np1 Ge1 Br6'
_cell_volume   305.44353059
_cell_formula_units_Z   1
loop_
 _symmetry_equiv_pos_site_id
 _symmetry_equiv_pos_as_xyz
  1  'x, y, z'
loop_
 _atom_site_type_symbol
 _atom_site_label
 _atom_site_symmetry_multiplicity
 _atom_site_fract_x
 _atom_site_fract_y
 _atom_site_fract_z
 _atom_site_occupancy
  Np  Np0  1  0.833308  0.833308  0.833308  1
  Ge  Ge1  1  0.167008  0.167008  0.167008  1
  Br  Br2  1  0.933290  0.217134  0.581151  1
  Br  Br3  1  0.581151  0.933290  0.217134  1
  Br  Br4  1  0.217134  0.581151  0.933290  1
  Br  Br5  1  0.779948  0.426559  0.061602  1
  Br  Br6  1  0.426559  0.061602  0.779948  1
  Br  Br7  1  0.061602  0.779948  0.426559  1
