# generated using pymatgen
data_Tb3Tm9Tc4
_symmetry_space_group_name_H-M   'P 1'
_cell_length_a   6.18871735
_cell_length_b   7.44154408
_cell_length_c   9.00931100
_cell_angle_alpha   90.00000000
_cell_angle_beta   90.00000000
_cell_angle_gamma   90.17042272
_symmetry_Int_Tables_number   1
_chemical_formula_structural   Tb3Tm9Tc4
_chemical_formula_sum   'Tb3 Tm9 Tc4'
_cell_volume   414.90948627
_cell_formula_units_Z   1
loop_
 _symmetry_equiv_pos_site_id
 _symmetry_equiv_pos_as_xyz
  1  'x, y, z'
loop_
 _atom_site_type_symbol
 _atom_site_label
 _atom_site_symmetry_multiplicity
 _atom_site_fract_x
 _atom_site_fract_y
 _atom_site_fract_z
 _atom_site_occupancy
  Tb  Tb0  1  0.625176  0.040570  0.250000  1
  Tb  Tb1  1  0.125765  0.457235  0.750000  1
  Tb  Tb2  1  0.376863  0.961071  0.750000  1
  Tm  Tm3  1  0.345510  0.674908  0.063789  1
  Tm  Tm4  1  0.150598  0.176767  0.436378  1
  Tm  Tm5  1  0.653529  0.326648  0.562383  1
  Tm  Tm6  1  0.848452  0.821322  0.937358  1
  Tm  Tm7  1  0.653529  0.326648  0.937617  1
  Tm  Tm8  1  0.848452  0.821322  0.562642  1
  Tm  Tm9  1  0.345510  0.674908  0.436211  1
  Tm  Tm10  1  0.150598  0.176767  0.063622  1
  Tm  Tm11  1  0.874023  0.541385  0.250000  1
  Tc  Tc12  1  0.046873  0.883090  0.250000  1
  Tc  Tc13  1  0.457630  0.383766  0.250000  1
  Tc  Tc14  1  0.953163  0.115700  0.750000  1
  Tc  Tc15  1  0.544330  0.617889  0.750000  1
