# generated using pymatgen
data_Na4Tl3FeBr16
_symmetry_space_group_name_H-M   'P 1'
_cell_length_a   7.73367995
_cell_length_b   8.32967176
_cell_length_c   15.25242600
_cell_angle_alpha   86.83745493
_cell_angle_beta   90.31374117
_cell_angle_gamma   89.92851519
_symmetry_Int_Tables_number   1
_chemical_formula_structural   Na4Tl3FeBr16
_chemical_formula_sum   'Na4 Tl3 Fe1 Br16'
_cell_volume   981.03399928
_cell_formula_units_Z   1
loop_
 _symmetry_equiv_pos_site_id
 _symmetry_equiv_pos_as_xyz
  1  'x, y, z'
loop_
 _atom_site_type_symbol
 _atom_site_label
 _atom_site_symmetry_multiplicity
 _atom_site_fract_x
 _atom_site_fract_y
 _atom_site_fract_z
 _atom_site_occupancy
  Na  Na0  1  0.999107  0.849415  0.373537  1
  Na  Na1  1  0.495943  0.149080  0.128473  1
  Na  Na2  1  0.010372  0.150866  0.628917  1
  Na  Na3  1  0.503012  0.849365  0.870634  1
  Tl  Tl4  1  0.692781  0.300583  0.896983  1
  Tl  Tl5  1  0.806709  0.301262  0.397993  1
  Tl  Tl6  1  0.306922  0.698764  0.102858  1
  Fe  Fe7  1  0.186074  0.711144  0.600556  1
  Br  Br8  1  0.309602  0.688696  0.461617  1
  Br  Br9  1  0.815503  0.311235  0.056264  1
  Br  Br10  1  0.685015  0.308117  0.556943  1
  Br  Br11  1  0.183912  0.688103  0.943484  1
  Br  Br12  1  0.122179  0.181285  0.430188  1
  Br  Br13  1  0.621896  0.816816  0.070737  1
  Br  Br14  1  0.896791  0.803182  0.574820  1
  Br  Br15  1  0.377659  0.182050  0.927692  1
  Br  Br16  1  0.322977  0.917904  0.678417  1
  Br  Br17  1  0.831069  0.060185  0.813372  1
  Br  Br18  1  0.669662  0.059741  0.314647  1
  Br  Br19  1  0.169726  0.939157  0.186646  1
  Br  Br20  1  0.195255  0.464558  0.682778  1
  Br  Br21  1  0.701320  0.567743  0.800884  1
  Br  Br22  1  0.797980  0.569420  0.302565  1
  Br  Br23  1  0.298538  0.431329  0.198996  1
