# generated using pymatgen
data_CaYLu6(B6Ru)4
_symmetry_space_group_name_H-M   'P 1'
_cell_length_a   3.61100000
_cell_length_b   9.06388474
_cell_length_c   11.44867704
_cell_angle_alpha   89.92407131
_cell_angle_beta   90.00000000
_cell_angle_gamma   90.00000000
_symmetry_Int_Tables_number   1
_chemical_formula_structural   CaYLu6(B6Ru)4
_chemical_formula_sum   'Ca1 Y1 Lu6 B24 Ru4'
_cell_volume   374.71129590
_cell_formula_units_Z   1
loop_
 _symmetry_equiv_pos_site_id
 _symmetry_equiv_pos_as_xyz
  1  'x, y, z'
loop_
 _atom_site_type_symbol
 _atom_site_label
 _atom_site_symmetry_multiplicity
 _atom_site_fract_x
 _atom_site_fract_y
 _atom_site_fract_z
 _atom_site_occupancy
  Ca  Ca0  1  0.000000  0.678078  0.585871  1
  Y  Y1  1  0.000000  0.322915  0.415003  1
  Lu  Lu2  1  0.000000  0.820739  0.084699  1
  Lu  Lu3  1  0.000000  0.178520  0.914218  1
  Lu  Lu4  1  0.000000  0.942506  0.371265  1
  Lu  Lu5  1  0.000000  0.055848  0.629417  1
  Lu  Lu6  1  0.000000  0.443808  0.127314  1
  Lu  Lu7  1  0.000000  0.557017  0.871545  1
  B  B8  1  0.500000  0.554843  0.431819  1
  B  B9  1  0.500000  0.445106  0.568152  1
  B  B10  1  0.500000  0.054041  0.066002  1
  B  B11  1  0.500000  0.946527  0.934421  1
  B  B12  1  0.500000  0.750096  0.417640  1
  B  B13  1  0.500000  0.249749  0.582126  1
  B  B14  1  0.500000  0.249295  0.079412  1
  B  B15  1  0.500000  0.751154  0.920438  1
  B  B16  1  0.500000  0.791901  0.263463  1
  B  B17  1  0.500000  0.207389  0.736406  1
  B  B18  1  0.500000  0.291023  0.233236  1
  B  B19  1  0.500000  0.709487  0.766949  1
  B  B20  1  0.500000  0.631212  0.182872  1
  B  B21  1  0.500000  0.368546  0.816479  1
  B  B22  1  0.500000  0.129815  0.314732  1
  B  B23  1  0.500000  0.870359  0.685943  1
  B  B24  1  0.500000  0.981783  0.211557  1
  B  B25  1  0.500000  0.018153  0.789031  1
  B  B26  1  0.500000  0.483206  0.285983  1
  B  B27  1  0.500000  0.516633  0.713935  1
  B  B28  1  0.500000  0.605252  0.028588  1
  B  B29  1  0.500000  0.394617  0.971156  1
  B  B30  1  0.500000  0.101515  0.472086  1
  B  B31  1  0.500000  0.899583  0.527600  1
  Ru  Ru32  1  0.000000  0.639241  0.317419  1
  Ru  Ru33  1  0.000000  0.359040  0.681849  1
  Ru  Ru34  1  0.000000  0.137401  0.178142  1
  Ru  Ru35  1  0.000000  0.863600  0.823231  1
