# generated using pymatgen
data_Er20Cd6PdRh
_symmetry_space_group_name_H-M   'P 1'
_cell_length_a   9.57373200
_cell_length_b   9.57373190
_cell_length_c   9.71198900
_cell_angle_alpha   90.00000000
_cell_angle_beta   90.00000000
_cell_angle_gamma   120.00000036
_symmetry_Int_Tables_number   1
_chemical_formula_structural   Er20Cd6PdRh
_chemical_formula_sum   'Er20 Cd6 Pd1 Rh1'
_cell_volume   770.90584622
_cell_formula_units_Z   1
loop_
 _symmetry_equiv_pos_site_id
 _symmetry_equiv_pos_as_xyz
  1  'x, y, z'
loop_
 _atom_site_type_symbol
 _atom_site_label
 _atom_site_symmetry_multiplicity
 _atom_site_fract_x
 _atom_site_fract_y
 _atom_site_fract_z
 _atom_site_occupancy
  Er  Er0  1  0.208997  0.791003  0.939886  1
  Er  Er1  1  0.208997  0.417993  0.939886  1
  Er  Er2  1  0.582007  0.791003  0.939886  1
  Er  Er3  1  0.792454  0.207546  0.057877  1
  Er  Er4  1  0.792454  0.584906  0.057877  1
  Er  Er5  1  0.415094  0.207546  0.057877  1
  Er  Er6  1  0.792454  0.207546  0.442123  1
  Er  Er7  1  0.792454  0.584906  0.442123  1
  Er  Er8  1  0.415094  0.207546  0.442123  1
  Er  Er9  1  0.208997  0.791003  0.560114  1
  Er  Er10  1  0.208997  0.417993  0.560114  1
  Er  Er11  1  0.582007  0.791003  0.560114  1
  Er  Er12  1  0.542282  0.457718  0.750000  1
  Er  Er13  1  0.542282  0.084565  0.750000  1
  Er  Er14  1  0.915435  0.457718  0.750000  1
  Er  Er15  1  0.456852  0.543148  0.250000  1
  Er  Er16  1  0.456852  0.913703  0.250000  1
  Er  Er17  1  0.086297  0.543148  0.250000  1
  Er  Er18  1  0.000000  0.000000  0.000169  1
  Er  Er19  1  0.000000  0.000000  0.499831  1
  Cd  Cd20  1  0.884570  0.115430  0.750000  1
  Cd  Cd21  1  0.884570  0.769141  0.750000  1
  Cd  Cd22  1  0.230859  0.115430  0.750000  1
  Cd  Cd23  1  0.115515  0.884485  0.250000  1
  Cd  Cd24  1  0.115515  0.231030  0.250000  1
  Cd  Cd25  1  0.768970  0.884485  0.250000  1
  Pd  Pd26  1  0.666667  0.333333  0.250000  1
  Rh  Rh27  1  0.333333  0.666667  0.750000  1
