# generated using pymatgen
data_Ac6Mg2Cd21Ge
_symmetry_space_group_name_H-M   'P 1'
_cell_length_a   10.33211733
_cell_length_b   10.33211768
_cell_length_c   10.36323100
_cell_angle_alpha   59.90033302
_cell_angle_beta   59.90033189
_cell_angle_gamma   60.12847078
_symmetry_Int_Tables_number   1
_chemical_formula_structural   Ac6Mg2Cd21Ge
_chemical_formula_sum   'Ac6 Mg2 Cd21 Ge1'
_cell_volume   781.84662788
_cell_formula_units_Z   1
loop_
 _symmetry_equiv_pos_site_id
 _symmetry_equiv_pos_as_xyz
  1  'x, y, z'
loop_
 _atom_site_type_symbol
 _atom_site_label
 _atom_site_symmetry_multiplicity
 _atom_site_fract_x
 _atom_site_fract_y
 _atom_site_fract_z
 _atom_site_occupancy
  Ac  Ac0  1  0.787462  0.787462  0.212538  1
  Ac  Ac1  1  0.212645  0.787355  0.210643  1
  Ac  Ac2  1  0.787355  0.212645  0.210643  1
  Ac  Ac3  1  0.212538  0.212538  0.787462  1
  Ac  Ac4  1  0.787355  0.212645  0.789357  1
  Ac  Ac5  1  0.212645  0.787355  0.789357  1
  Mg  Mg6  1  0.000000  0.000000  0.500000  1
  Mg  Mg7  1  0.500000  0.500000  0.500000  1
  Cd  Cd8  1  0.829948  0.829948  0.512875  1
  Cd  Cd9  1  0.829465  0.513443  0.828546  1
  Cd  Cd10  1  0.513443  0.829465  0.828546  1
  Cd  Cd11  1  0.829948  0.829948  0.827228  1
  Cd  Cd12  1  0.170052  0.170052  0.487125  1
  Cd  Cd13  1  0.170535  0.486557  0.171454  1
  Cd  Cd14  1  0.486557  0.170535  0.171454  1
  Cd  Cd15  1  0.170052  0.170052  0.172772  1
  Cd  Cd16  1  0.622202  0.622202  0.135049  1
  Cd  Cd17  1  0.625349  0.134003  0.620325  1
  Cd  Cd18  1  0.134003  0.625349  0.620325  1
  Cd  Cd19  1  0.622202  0.622202  0.620547  1
  Cd  Cd20  1  0.377798  0.377798  0.864951  1
  Cd  Cd21  1  0.374651  0.865997  0.379675  1
  Cd  Cd22  1  0.865997  0.374651  0.379675  1
  Cd  Cd23  1  0.377798  0.377798  0.379453  1
  Cd  Cd24  1  0.500000  0.000000  0.500000  1
  Cd  Cd25  1  0.000000  0.500000  0.500000  1
  Cd  Cd26  1  0.500000  0.500000  0.000000  1
  Cd  Cd27  1  0.000000  0.500000  0.000000  1
  Cd  Cd28  1  0.500000  0.000000  0.000000  1
  Ge  Ge29  1  0.000000  0.000000  0.000000  1
