# generated using pymatgen
data_Y2Al16TcPt8
_symmetry_space_group_name_H-M   'P 1'
_cell_length_a   11.15456873
_cell_length_b   11.15456873
_cell_length_c   11.15456900
_cell_angle_alpha   158.48023746
_cell_angle_beta   116.95067955
_cell_angle_gamma   67.44845544
_symmetry_Int_Tables_number   1
_chemical_formula_structural   Y2Al16TcPt8
_chemical_formula_sum   'Y2 Al16 Tc1 Pt8'
_cell_volume   450.72775741
_cell_formula_units_Z   1
loop_
 _symmetry_equiv_pos_site_id
 _symmetry_equiv_pos_as_xyz
  1  'x, y, z'
loop_
 _atom_site_type_symbol
 _atom_site_label
 _atom_site_symmetry_multiplicity
 _atom_site_fract_x
 _atom_site_fract_y
 _atom_site_fract_z
 _atom_site_occupancy
  Y  Y0  1  0.231509  0.231347  0.000162  1
  Y  Y1  1  0.768815  0.768653  0.000162  1
  Al  Al2  1  0.273985  0.391307  0.882677  1
  Al  Al3  1  0.088403  0.923558  0.164845  1
  Al  Al4  1  0.505800  0.200597  0.305204  1
  Al  Al5  1  0.241288  0.076442  0.164845  1
  Al  Al6  1  0.907315  0.415585  0.491730  1
  Al  Al7  1  0.725432  0.599793  0.125639  1
  Al  Al8  1  0.900808  0.209349  0.691459  1
  Al  Al9  1  0.482110  0.790651  0.691459  1
  Al  Al10  1  0.388763  0.000000  0.388763  1
  Al  Al11  1  0.628644  0.000000  0.628644  1
  Al  Al12  1  0.491369  0.608693  0.882677  1
  Al  Al13  1  0.104605  0.799403  0.305204  1
  Al  Al14  1  0.908965  0.087372  0.821594  1
  Al  Al15  1  0.734221  0.912628  0.821594  1
  Al  Al16  1  0.525846  0.400207  0.125639  1
  Al  Al17  1  0.076145  0.584415  0.491730  1
  Tc  Tc18  1  0.786040  0.500000  0.286040  1
  Pt  Pt19  1  0.023368  0.343386  0.679980  1
  Pt  Pt20  1  0.628862  0.125945  0.502917  1
  Pt  Pt21  1  0.252323  0.500000  0.752323  1
  Pt  Pt22  1  0.376972  0.874055  0.502917  1
  Pt  Pt23  1  0.984137  0.000000  0.984137  1
  Pt  Pt24  1  0.648096  0.334255  0.313841  1
  Pt  Pt25  1  0.336593  0.656614  0.679980  1
  Pt  Pt26  1  0.979586  0.665745  0.313841  1
