# generated using pymatgen
data_Pr3Sm2(Sn5Rh2)2
_symmetry_space_group_name_H-M   'P 1'
_cell_length_a   14.23924600
_cell_length_b   14.23924600
_cell_length_c   4.62535600
_cell_angle_alpha   90.00000000
_cell_angle_beta   90.00000000
_cell_angle_gamma   90.00000000
_symmetry_Int_Tables_number   1
_chemical_formula_structural   Pr3Sm2(Sn5Rh2)2
_chemical_formula_sum   'Pr6 Sm4 Sn20 Rh8'
_cell_volume   937.81926693
_cell_formula_units_Z   2
loop_
 _symmetry_equiv_pos_site_id
 _symmetry_equiv_pos_as_xyz
  1  'x, y, z'
loop_
 _atom_site_type_symbol
 _atom_site_label
 _atom_site_symmetry_multiplicity
 _atom_site_fract_x
 _atom_site_fract_y
 _atom_site_fract_z
 _atom_site_occupancy
  Pr  Pr0  1  0.500000  0.500000  0.000000  1
  Pr  Pr1  1  0.000000  0.000000  0.000000  1
  Pr  Pr2  1  0.888190  0.388190  0.500000  1
  Pr  Pr3  1  0.111810  0.611810  0.500000  1
  Pr  Pr4  1  0.388190  0.111810  0.500000  1
  Pr  Pr5  1  0.611810  0.888190  0.500000  1
  Sm  Sm6  1  0.677700  0.177700  0.500000  1
  Sm  Sm7  1  0.322300  0.822300  0.500000  1
  Sm  Sm8  1  0.177700  0.322300  0.500000  1
  Sm  Sm9  1  0.822300  0.677700  0.500000  1
  Sn  Sn10  1  0.569934  0.069934  0.000000  1
  Sn  Sn11  1  0.430066  0.930066  0.000000  1
  Sn  Sn12  1  0.069934  0.430066  0.000000  1
  Sn  Sn13  1  0.930066  0.569934  0.000000  1
  Sn  Sn14  1  0.654159  0.697811  0.000000  1
  Sn  Sn15  1  0.345841  0.302189  0.000000  1
  Sn  Sn16  1  0.154159  0.802189  0.000000  1
  Sn  Sn17  1  0.845841  0.197811  0.000000  1
  Sn  Sn18  1  0.302189  0.654159  0.000000  1
  Sn  Sn19  1  0.697811  0.345841  0.000000  1
  Sn  Sn20  1  0.197811  0.154159  0.000000  1
  Sn  Sn21  1  0.802189  0.845841  0.000000  1
  Sn  Sn22  1  0.664156  0.505113  0.500000  1
  Sn  Sn23  1  0.335844  0.494887  0.500000  1
  Sn  Sn24  1  0.164156  0.994887  0.500000  1
  Sn  Sn25  1  0.835844  0.005113  0.500000  1
  Sn  Sn26  1  0.494887  0.664156  0.500000  1
  Sn  Sn27  1  0.505113  0.335844  0.500000  1
  Sn  Sn28  1  0.005113  0.164156  0.500000  1
  Sn  Sn29  1  0.994887  0.835844  0.500000  1
  Rh  Rh30  1  0.746510  0.528495  0.000000  1
  Rh  Rh31  1  0.253490  0.471505  0.000000  1
  Rh  Rh32  1  0.246510  0.971505  0.000000  1
  Rh  Rh33  1  0.753490  0.028495  0.000000  1
  Rh  Rh34  1  0.471505  0.746510  0.000000  1
  Rh  Rh35  1  0.528495  0.253490  0.000000  1
  Rh  Rh36  1  0.028495  0.246510  0.000000  1
  Rh  Rh37  1  0.971505  0.753490  0.000000  1
