# generated using pymatgen
data_TbNd2Er5(CdPt)2
_symmetry_space_group_name_H-M   'P 1'
_cell_length_a   9.70315464
_cell_length_b   9.70315412
_cell_length_c   9.72373300
_cell_angle_alpha   59.92982162
_cell_angle_beta   59.92982340
_cell_angle_gamma   60.14034865
_symmetry_Int_Tables_number   1
_chemical_formula_structural   TbNd2Er5(CdPt)2
_chemical_formula_sum   'Tb2 Nd4 Er10 Cd4 Pt4'
_cell_volume   647.35122605
_cell_formula_units_Z   2
loop_
 _symmetry_equiv_pos_site_id
 _symmetry_equiv_pos_as_xyz
  1  'x, y, z'
loop_
 _atom_site_type_symbol
 _atom_site_label
 _atom_site_symmetry_multiplicity
 _atom_site_fract_x
 _atom_site_fract_y
 _atom_site_fract_z
 _atom_site_occupancy
  Tb  Tb0  1  0.558256  0.558256  0.941744  1
  Tb  Tb1  1  0.941744  0.941744  0.558256  1
  Nd  Nd2  1  0.936247  0.563753  0.563753  1
  Nd  Nd3  1  0.563753  0.936247  0.936247  1
  Nd  Nd4  1  0.563753  0.936247  0.563753  1
  Nd  Nd5  1  0.936247  0.563753  0.936247  1
  Er  Er6  1  0.350793  0.350793  0.351238  1
  Er  Er7  1  0.350793  0.350793  0.947177  1
  Er  Er8  1  0.351238  0.947177  0.350793  1
  Er  Er9  1  0.947177  0.351238  0.350793  1
  Er  Er10  1  0.811590  0.188410  0.188410  1
  Er  Er11  1  0.188410  0.811590  0.811590  1
  Er  Er12  1  0.188410  0.811590  0.188410  1
  Er  Er13  1  0.811590  0.188410  0.811590  1
  Er  Er14  1  0.188122  0.188122  0.811878  1
  Er  Er15  1  0.811878  0.811878  0.188122  1
  Cd  Cd16  1  0.579026  0.579026  0.582829  1
  Cd  Cd17  1  0.579026  0.579026  0.259118  1
  Cd  Cd18  1  0.582829  0.259118  0.579026  1
  Cd  Cd19  1  0.259118  0.582829  0.579026  1
  Pt  Pt20  1  0.141966  0.141966  0.144895  1
  Pt  Pt21  1  0.141966  0.141966  0.571173  1
  Pt  Pt22  1  0.144895  0.571173  0.141966  1
  Pt  Pt23  1  0.571173  0.144895  0.141966  1
