# generated using pymatgen
data_Tm8B24Os3Ru
_symmetry_space_group_name_H-M   'P 1'
_cell_length_a   3.61852800
_cell_length_b   9.07805406
_cell_length_c   11.44909634
_cell_angle_alpha   89.94459337
_cell_angle_beta   90.00000000
_cell_angle_gamma   90.00000000
_symmetry_Int_Tables_number   1
_chemical_formula_structural   Tm8B24Os3Ru
_chemical_formula_sum   'Tm8 B24 Os3 Ru1'
_cell_volume   376.09339722
_cell_formula_units_Z   1
loop_
 _symmetry_equiv_pos_site_id
 _symmetry_equiv_pos_as_xyz
  1  'x, y, z'
loop_
 _atom_site_type_symbol
 _atom_site_label
 _atom_site_symmetry_multiplicity
 _atom_site_fract_x
 _atom_site_fract_y
 _atom_site_fract_z
 _atom_site_occupancy
  Tm  Tm0  1  0.000000  0.321496  0.414018  1
  Tm  Tm1  1  0.000000  0.677882  0.585540  1
  Tm  Tm2  1  0.000000  0.821877  0.086084  1
  Tm  Tm3  1  0.000000  0.178388  0.914095  1
  Tm  Tm4  1  0.000000  0.943968  0.373324  1
  Tm  Tm5  1  0.000000  0.055824  0.627531  1
  Tm  Tm6  1  0.000000  0.444052  0.126636  1
  Tm  Tm7  1  0.000000  0.556781  0.872819  1
  B  B8  1  0.500000  0.553551  0.433533  1
  B  B9  1  0.500000  0.446249  0.566484  1
  B  B10  1  0.500000  0.053581  0.066295  1
  B  B11  1  0.500000  0.946195  0.933502  1
  B  B12  1  0.500000  0.748561  0.420337  1
  B  B13  1  0.500000  0.251211  0.579832  1
  B  B14  1  0.500000  0.248573  0.079577  1
  B  B15  1  0.500000  0.751548  0.920390  1
  B  B16  1  0.500000  0.791783  0.266019  1
  B  B17  1  0.500000  0.208261  0.734171  1
  B  B18  1  0.500000  0.291726  0.233934  1
  B  B19  1  0.500000  0.708545  0.765946  1
  B  B20  1  0.500000  0.631610  0.184645  1
  B  B21  1  0.500000  0.368600  0.815273  1
  B  B22  1  0.500000  0.131533  0.315350  1
  B  B23  1  0.500000  0.868257  0.684605  1
  B  B24  1  0.500000  0.982323  0.212978  1
  B  B25  1  0.500000  0.017357  0.787106  1
  B  B26  1  0.500000  0.482329  0.286934  1
  B  B27  1  0.500000  0.517753  0.712977  1
  B  B28  1  0.500000  0.606987  0.029424  1
  B  B29  1  0.500000  0.393545  0.970327  1
  B  B30  1  0.500000  0.106417  0.470673  1
  B  B31  1  0.500000  0.893145  0.529732  1
  Os  Os32  1  0.000000  0.637245  0.321329  1
  Os  Os33  1  0.000000  0.362748  0.678534  1
  Os  Os34  1  0.000000  0.137343  0.178808  1
  Ru  Ru35  1  0.000000  0.862757  0.821237  1
