# generated using pymatgen
data_K6TmVF12
_symmetry_space_group_name_H-M   'P 1'
_cell_length_a   6.51877928
_cell_length_b   6.27728657
_cell_length_c   10.94248588
_cell_angle_alpha   55.37048334
_cell_angle_beta   89.44603022
_cell_angle_gamma   89.76682996
_symmetry_Int_Tables_number   1
_chemical_formula_structural   K6TmVF12
_chemical_formula_sum   'K6 Tm1 V1 F12'
_cell_volume   368.42631218
_cell_formula_units_Z   1
loop_
 _symmetry_equiv_pos_site_id
 _symmetry_equiv_pos_as_xyz
  1  'x, y, z'
loop_
 _atom_site_type_symbol
 _atom_site_label
 _atom_site_symmetry_multiplicity
 _atom_site_fract_x
 _atom_site_fract_y
 _atom_site_fract_z
 _atom_site_occupancy
  K  K0  1  0.500000  0.500000  0.000000  1
  K  K1  1  0.000000  0.500000  0.500000  1
  K  K2  1  0.054202  0.741820  0.742807  1
  K  K3  1  0.945798  0.258180  0.257193  1
  K  K4  1  0.548114  0.278791  0.735217  1
  K  K5  1  0.451886  0.721209  0.264783  1
  Tm  Tm6  1  0.000000  0.000000  0.000000  1
  V  V7  1  0.500000  0.000000  0.500000  1
  F  F8  1  0.749566  0.779529  0.558259  1
  F  F9  1  0.250434  0.220471  0.441741  1
  F  F10  1  0.273609  0.234189  0.929324  1
  F  F11  1  0.726391  0.765811  0.070676  1
  F  F12  1  0.454332  0.889046  0.708406  1
  F  F13  1  0.545668  0.110954  0.291594  1
  F  F14  1  0.948647  0.116073  0.775931  1
  F  F15  1  0.051353  0.883927  0.224069  1
  F  F16  1  0.327252  0.700846  0.541602  1
  F  F17  1  0.672748  0.299154  0.458398  1
  F  F18  1  0.827898  0.331506  0.949558  1
  F  F19  1  0.172102  0.668494  0.050442  1
