# generated using pymatgen
data_LuTh(Si7Ir3)2
_symmetry_space_group_name_H-M   'P 1'
_cell_length_a   8.06110183
_cell_length_b   8.06110222
_cell_length_c   8.06110102
_cell_angle_alpha   56.74119718
_cell_angle_beta   56.74119149
_cell_angle_gamma   56.74119442
_symmetry_Int_Tables_number   1
_chemical_formula_structural   LuTh(Si7Ir3)2
_chemical_formula_sum   'Lu1 Th1 Si14 Ir6'
_cell_volume   342.53048117
_cell_formula_units_Z   1
loop_
 _symmetry_equiv_pos_site_id
 _symmetry_equiv_pos_as_xyz
  1  'x, y, z'
loop_
 _atom_site_type_symbol
 _atom_site_label
 _atom_site_symmetry_multiplicity
 _atom_site_fract_x
 _atom_site_fract_y
 _atom_site_fract_z
 _atom_site_occupancy
  Lu  Lu0  1  0.500000  0.500000  0.500000  1
  Th  Th1  1  0.000000  0.000000  0.000000  1
  Si  Si2  1  0.065719  0.849916  0.671832  1
  Si  Si3  1  0.671832  0.065719  0.849916  1
  Si  Si4  1  0.849916  0.671832  0.065719  1
  Si  Si5  1  0.172618  0.352990  0.564296  1
  Si  Si6  1  0.564296  0.172618  0.352990  1
  Si  Si7  1  0.352990  0.564296  0.172618  1
  Si  Si8  1  0.934281  0.150084  0.328168  1
  Si  Si9  1  0.328168  0.934281  0.150084  1
  Si  Si10  1  0.150084  0.328168  0.934281  1
  Si  Si11  1  0.827382  0.647010  0.435704  1
  Si  Si12  1  0.435704  0.827382  0.647010  1
  Si  Si13  1  0.647010  0.435704  0.827382  1
  Si  Si14  1  0.750011  0.750011  0.750011  1
  Si  Si15  1  0.249989  0.249989  0.249989  1
  Ir  Ir16  1  0.071897  0.747811  0.432098  1
  Ir  Ir17  1  0.432098  0.071897  0.747811  1
  Ir  Ir18  1  0.747811  0.432098  0.071897  1
  Ir  Ir19  1  0.928103  0.252189  0.567902  1
  Ir  Ir20  1  0.567902  0.928103  0.252189  1
  Ir  Ir21  1  0.252189  0.567902  0.928103  1
