# generated using pymatgen
data_Y4Rh2Pb5
_symmetry_space_group_name_H-M   'P 1'
_cell_length_a   8.02613536
_cell_length_b   3.70188500
_cell_length_c   9.81722081
_cell_angle_alpha   90.00000000
_cell_angle_beta   93.87485672
_cell_angle_gamma   90.00000000
_symmetry_Int_Tables_number   1
_chemical_formula_structural   Y4Rh2Pb5
_chemical_formula_sum   'Y4 Rh2 Pb5'
_cell_volume   291.02080755
_cell_formula_units_Z   1
loop_
 _symmetry_equiv_pos_site_id
 _symmetry_equiv_pos_as_xyz
  1  'x, y, z'
loop_
 _atom_site_type_symbol
 _atom_site_label
 _atom_site_symmetry_multiplicity
 _atom_site_fract_x
 _atom_site_fract_y
 _atom_site_fract_z
 _atom_site_occupancy
  Y  Y0  1  0.303954  0.500000  0.159209  1
  Y  Y1  1  0.702608  0.500000  0.432354  1
  Y  Y2  1  0.297393  0.500000  0.567647  1
  Y  Y3  1  0.696045  0.500000  0.840791  1
  Rh  Rh4  1  0.419206  0.000000  0.363589  1
  Rh  Rh5  1  0.580794  0.000000  0.636411  1
  Pb  Pb6  1  0.000000  0.000000  0.000000  1
  Pb  Pb7  1  0.643957  0.000000  0.136836  1
  Pb  Pb8  1  0.042771  0.000000  0.336353  1
  Pb  Pb9  1  0.957230  0.000000  0.663647  1
  Pb  Pb10  1  0.356043  0.000000  0.863164  1
