# generated using pymatgen
data_Ta3NbGa2(B2Ru5)2
_symmetry_space_group_name_H-M   'P 1'
_cell_length_a   9.32812019
_cell_length_b   9.32812019
_cell_length_c   2.99703100
_cell_angle_alpha   90.00000000
_cell_angle_beta   90.00000000
_cell_angle_gamma   90.09476286
_symmetry_Int_Tables_number   1
_chemical_formula_structural   Ta3NbGa2(B2Ru5)2
_chemical_formula_sum   'Ta3 Nb1 Ga2 B4 Ru10'
_cell_volume   260.78277808
_cell_formula_units_Z   1
loop_
 _symmetry_equiv_pos_site_id
 _symmetry_equiv_pos_as_xyz
  1  'x, y, z'
loop_
 _atom_site_type_symbol
 _atom_site_label
 _atom_site_symmetry_multiplicity
 _atom_site_fract_x
 _atom_site_fract_y
 _atom_site_fract_z
 _atom_site_occupancy
  Ta  Ta0  1  0.176557  0.323443  0.000000  1
  Ta  Ta1  1  0.323686  0.823595  0.000000  1
  Ta  Ta2  1  0.676405  0.176314  0.000000  1
  Nb  Nb3  1  0.823550  0.676450  0.000000  1
  Ga  Ga4  1  0.500310  0.500161  0.000000  1
  Ga  Ga5  1  0.999839  0.999690  0.000000  1
  B  B6  1  0.624876  0.875124  0.000000  1
  B  B7  1  0.375314  0.124686  0.000000  1
  B  B8  1  0.124846  0.624928  0.000000  1
  B  B9  1  0.875072  0.375154  0.000000  1
  Ru  Ru10  1  0.567453  0.715232  0.500000  1
  Ru  Ru11  1  0.430925  0.285341  0.500000  1
  Ru  Ru12  1  0.069751  0.785302  0.500000  1
  Ru  Ru13  1  0.931375  0.214761  0.500000  1
  Ru  Ru14  1  0.285239  0.568625  0.500000  1
  Ru  Ru15  1  0.714698  0.430249  0.500000  1
  Ru  Ru16  1  0.214659  0.069075  0.500000  1
  Ru  Ru17  1  0.784768  0.932547  0.500000  1
  Ru  Ru18  1  0.499799  0.000201  0.500000  1
  Ru  Ru19  1  0.000877  0.499123  0.500000  1
