# generated using pymatgen
data_Ho3Lu(Ga3Ir)6
_symmetry_space_group_name_H-M   'P 1'
_cell_length_a   7.58665904
_cell_length_b   7.58479713
_cell_length_c   9.47135000
_cell_angle_alpha   90.00000000
_cell_angle_beta   90.00000000
_cell_angle_gamma   120.01557489
_symmetry_Int_Tables_number   1
_chemical_formula_structural   Ho3Lu(Ga3Ir)6
_chemical_formula_sum   'Ho3 Lu1 Ga18 Ir6'
_cell_volume   471.92053130
_cell_formula_units_Z   1
loop_
 _symmetry_equiv_pos_site_id
 _symmetry_equiv_pos_as_xyz
  1  'x, y, z'
loop_
 _atom_site_type_symbol
 _atom_site_label
 _atom_site_symmetry_multiplicity
 _atom_site_fract_x
 _atom_site_fract_y
 _atom_site_fract_z
 _atom_site_occupancy
  Ho  Ho0  1  0.002666  0.331902  0.250000  1
  Ho  Ho1  1  0.667866  0.997052  0.750000  1
  Ho  Ho2  1  0.331935  0.002751  0.250000  1
  Lu  Lu3  1  0.997138  0.667894  0.750000  1
  Ga  Ga4  1  0.126736  0.126431  0.750000  1
  Ga  Ga5  1  0.873011  0.872945  0.250000  1
  Ga  Ga6  1  0.998943  0.335011  0.581533  1
  Ga  Ga7  1  0.001274  0.666090  0.419383  1
  Ga  Ga8  1  0.001274  0.666090  0.080617  1
  Ga  Ga9  1  0.333067  0.998039  0.918461  1
  Ga  Ga10  1  0.998943  0.335011  0.918467  1
  Ga  Ga11  1  0.666084  0.001179  0.081219  1
  Ga  Ga12  1  0.666084  0.001179  0.418781  1
  Ga  Ga13  1  0.333067  0.998039  0.581539  1
  Ga  Ga14  1  0.332098  0.332128  0.064961  1
  Ga  Ga15  1  0.668622  0.667757  0.934204  1
  Ga  Ga16  1  0.668622  0.667757  0.565796  1
  Ga  Ga17  1  0.332098  0.332128  0.435039  1
  Ga  Ga18  1  0.339167  0.546934  0.750000  1
  Ga  Ga19  1  0.660464  0.453046  0.250000  1
  Ga  Ga20  1  0.547572  0.340049  0.750000  1
  Ga  Ga21  1  0.452790  0.660247  0.250000  1
  Ir  Ir22  1  0.671700  0.328771  0.500275  1
  Ir  Ir23  1  0.328680  0.671726  0.500283  1
  Ir  Ir24  1  0.328680  0.671726  0.999717  1
  Ir  Ir25  1  0.671700  0.328771  0.999725  1
  Ir  Ir26  1  0.999857  0.999670  0.500347  1
  Ir  Ir27  1  0.999857  0.999670  0.999653  1
