# generated using pymatgen
data_Y7Tm3(SnBi)3
_symmetry_space_group_name_H-M   'P 1'
_cell_length_a   9.03143923
_cell_length_b   9.03981990
_cell_length_c   6.47062045
_cell_angle_alpha   89.95735285
_cell_angle_beta   90.02556608
_cell_angle_gamma   119.93891665
_symmetry_Int_Tables_number   1
_chemical_formula_structural   Y7Tm3(SnBi)3
_chemical_formula_sum   'Y7 Tm3 Sn3 Bi3'
_cell_volume   457.78353033
_cell_formula_units_Z   1
loop_
 _symmetry_equiv_pos_site_id
 _symmetry_equiv_pos_as_xyz
  1  'x, y, z'
loop_
 _atom_site_type_symbol
 _atom_site_label
 _atom_site_symmetry_multiplicity
 _atom_site_fract_x
 _atom_site_fract_y
 _atom_site_fract_z
 _atom_site_occupancy
  Y  Y0  1  0.758341  0.752629  0.250071  1
  Y  Y1  1  0.005751  0.247016  0.249997  1
  Y  Y2  1  0.764188  0.006215  0.750098  1
  Y  Y3  1  0.237263  0.999766  0.250416  1
  Y  Y4  1  0.999935  0.754907  0.749680  1
  Y  Y5  1  0.239543  0.245101  0.749870  1
  Y  Y6  1  0.671643  0.337796  0.001143  1
  Tm  Tm7  1  0.324904  0.658352  0.498597  1
  Tm  Tm8  1  0.672323  0.338645  0.498517  1
  Tm  Tm9  1  0.324676  0.657968  0.001563  1
  Sn  Sn10  1  0.998336  0.393724  0.749005  1
  Sn  Sn11  1  0.392878  0.391084  0.250957  1
  Sn  Sn12  1  0.002371  0.608343  0.251021  1
  Bi  Bi13  1  0.607988  0.611723  0.749232  1
  Bi  Bi14  1  0.391609  0.999230  0.749061  1
  Bi  Bi15  1  0.608250  0.997502  0.250774  1
