# generated using pymatgen
data_SrAlZnGa2
_symmetry_space_group_name_H-M   'P 1'
_cell_length_a   6.38822799
_cell_length_b   6.38822800
_cell_length_c   6.38822846
_cell_angle_alpha   140.23586648
_cell_angle_beta   140.23586940
_cell_angle_gamma   57.49534408
_symmetry_Int_Tables_number   1
_chemical_formula_structural   SrAlZnGa2
_chemical_formula_sum   'Sr1 Al1 Zn1 Ga2'
_cell_volume   105.74277304
_cell_formula_units_Z   1
loop_
 _symmetry_equiv_pos_site_id
 _symmetry_equiv_pos_as_xyz
  1  'x, y, z'
loop_
 _atom_site_type_symbol
 _atom_site_label
 _atom_site_symmetry_multiplicity
 _atom_site_fract_x
 _atom_site_fract_y
 _atom_site_fract_z
 _atom_site_occupancy
  Sr  Sr0  1  0.000000  0.000000  0.000000  1
  Al  Al1  1  0.250000  0.750000  0.500000  1
  Zn  Zn2  1  0.750000  0.250000  0.500000  1
  Ga  Ga3  1  0.384512  0.384512  0.000000  1
  Ga  Ga4  1  0.615488  0.615488  0.000000  1
