# generated using pymatgen
data_Lu5Zr3Ir4
_symmetry_space_group_name_H-M   'P 1'
_cell_length_a   4.54098200
_cell_length_b   7.00039989
_cell_length_c   8.31614339
_cell_angle_alpha   89.29502832
_cell_angle_beta   90.00000000
_cell_angle_gamma   90.00000000
_symmetry_Int_Tables_number   1
_chemical_formula_structural   Lu5Zr3Ir4
_chemical_formula_sum   'Lu5 Zr3 Ir4'
_cell_volume   264.33929286
_cell_formula_units_Z   1
loop_
 _symmetry_equiv_pos_site_id
 _symmetry_equiv_pos_as_xyz
  1  'x, y, z'
loop_
 _atom_site_type_symbol
 _atom_site_label
 _atom_site_symmetry_multiplicity
 _atom_site_fract_x
 _atom_site_fract_y
 _atom_site_fract_z
 _atom_site_occupancy
  Lu  Lu0  1  0.750000  0.646781  0.420364  1
  Lu  Lu1  1  0.250000  0.991940  0.329920  1
  Lu  Lu2  1  0.250000  0.484308  0.168873  1
  Lu  Lu3  1  0.750000  0.012632  0.677990  1
  Lu  Lu4  1  0.750000  0.514541  0.823291  1
  Zr  Zr5  1  0.250000  0.858285  0.925905  1
  Zr  Zr6  1  0.250000  0.354277  0.573748  1
  Zr  Zr7  1  0.750000  0.146815  0.077259  1
  Ir  Ir8  1  0.250000  0.238202  0.906970  1
  Ir  Ir9  1  0.250000  0.740327  0.603889  1
  Ir  Ir10  1  0.750000  0.761755  0.083860  1
  Ir  Ir11  1  0.750000  0.250137  0.407932  1
