# generated using pymatgen
data_Eu2Al3Zn5
_symmetry_space_group_name_H-M   'P 1'
_cell_length_a   6.26136584
_cell_length_b   6.26136717
_cell_length_c   5.95774700
_cell_angle_alpha   89.79054042
_cell_angle_beta   90.20945962
_cell_angle_gamma   123.34621671
_symmetry_Int_Tables_number   1
_chemical_formula_structural   Eu2Al3Zn5
_chemical_formula_sum   'Eu2 Al3 Zn5'
_cell_volume   195.11579910
_cell_formula_units_Z   1
loop_
 _symmetry_equiv_pos_site_id
 _symmetry_equiv_pos_as_xyz
  1  'x, y, z'
loop_
 _atom_site_type_symbol
 _atom_site_label
 _atom_site_symmetry_multiplicity
 _atom_site_fract_x
 _atom_site_fract_y
 _atom_site_fract_z
 _atom_site_occupancy
  Eu  Eu0  1  0.749647  0.249890  0.248538  1
  Eu  Eu1  1  0.249890  0.749647  0.751463  1
  Al  Al2  1  0.249596  0.249596  0.000000  1
  Al  Al3  1  0.750389  0.750389  0.000000  1
  Al  Al4  1  0.245845  0.245845  0.500000  1
  Zn  Zn5  1  0.366788  0.638252  0.254688  1
  Zn  Zn6  1  0.136352  0.858579  0.251077  1
  Zn  Zn7  1  0.754667  0.754667  0.500000  1
  Zn  Zn8  1  0.858579  0.136352  0.748924  1
  Zn  Zn9  1  0.638252  0.366788  0.745313  1
