# generated using pymatgen
data_Tm3Fe4Co4P6W
_symmetry_space_group_name_H-M   'P 1'
_cell_length_a   3.71313800
_cell_length_b   10.54071200
_cell_length_c   12.14291300
_cell_angle_alpha   90.00000000
_cell_angle_beta   90.00000000
_cell_angle_gamma   90.00000000
_symmetry_Int_Tables_number   1
_chemical_formula_structural   Tm3Fe4Co4P6W
_chemical_formula_sum   'Tm6 Fe8 Co8 P12 W2'
_cell_volume   475.26290810
_cell_formula_units_Z   2
loop_
 _symmetry_equiv_pos_site_id
 _symmetry_equiv_pos_as_xyz
  1  'x, y, z'
loop_
 _atom_site_type_symbol
 _atom_site_label
 _atom_site_symmetry_multiplicity
 _atom_site_fract_x
 _atom_site_fract_y
 _atom_site_fract_z
 _atom_site_occupancy
  Tm  Tm0  1  0.000000  0.500000  0.526154  1
  Tm  Tm1  1  0.500000  0.000000  0.473846  1
  Tm  Tm2  1  0.500000  0.821015  0.205833  1
  Tm  Tm3  1  0.500000  0.178985  0.205833  1
  Tm  Tm4  1  0.000000  0.678985  0.794167  1
  Tm  Tm5  1  0.000000  0.321015  0.794167  1
  Fe  Fe6  1  0.500000  0.332001  0.994731  1
  Fe  Fe7  1  0.500000  0.667999  0.994731  1
  Fe  Fe8  1  0.000000  0.167999  0.005269  1
  Fe  Fe9  1  0.000000  0.832001  0.005269  1
  Fe  Fe10  1  0.500000  0.297571  0.430269  1
  Fe  Fe11  1  0.500000  0.702429  0.430269  1
  Fe  Fe12  1  0.000000  0.202429  0.569731  1
  Fe  Fe13  1  0.000000  0.797571  0.569731  1
  Co  Co14  1  0.500000  0.500000  0.700019  1
  Co  Co15  1  0.000000  0.000000  0.299981  1
  Co  Co16  1  0.000000  0.500000  0.986139  1
  Co  Co17  1  0.500000  0.000000  0.013861  1
  Co  Co18  1  0.500000  0.878898  0.708082  1
  Co  Co19  1  0.500000  0.121102  0.708082  1
  Co  Co20  1  0.000000  0.621102  0.291918  1
  Co  Co21  1  0.000000  0.378898  0.291918  1
  P  P22  1  0.500000  0.500000  0.882965  1
  P  P23  1  0.000000  0.000000  0.117035  1
  P  P24  1  0.500000  0.500000  0.352192  1
  P  P25  1  0.000000  0.000000  0.647808  1
  P  P26  1  0.500000  0.307858  0.614084  1
  P  P27  1  0.500000  0.692142  0.614084  1
  P  P28  1  0.000000  0.192142  0.385916  1
  P  P29  1  0.000000  0.807858  0.385916  1
  P  P30  1  0.500000  0.841765  0.893280  1
  P  P31  1  0.500000  0.158235  0.893280  1
  P  P32  1  0.000000  0.658235  0.106720  1
  P  P33  1  0.000000  0.341765  0.106720  1
  W  W34  1  0.500000  0.500000  0.153420  1
  W  W35  1  0.000000  0.000000  0.846580  1
