# generated using pymatgen
data_Sc16Re3Si16Mo
_symmetry_space_group_name_H-M   'P 1'
_cell_length_a   6.70415773
_cell_length_b   7.01284106
_cell_length_c   13.23637500
_cell_angle_alpha   90.00000000
_cell_angle_beta   90.00000000
_cell_angle_gamma   89.92243182
_symmetry_Int_Tables_number   1
_chemical_formula_structural   Sc16Re3Si16Mo
_chemical_formula_sum   'Sc16 Re3 Si16 Mo1'
_cell_volume   622.31015011
_cell_formula_units_Z   1
loop_
 _symmetry_equiv_pos_site_id
 _symmetry_equiv_pos_as_xyz
  1  'x, y, z'
loop_
 _atom_site_type_symbol
 _atom_site_label
 _atom_site_symmetry_multiplicity
 _atom_site_fract_x
 _atom_site_fract_y
 _atom_site_fract_z
 _atom_site_occupancy
  Sc  Sc0  1  0.988455  0.679431  0.593951  1
  Sc  Sc1  1  0.010696  0.320471  0.404730  1
  Sc  Sc2  1  0.511217  0.182212  0.405742  1
  Sc  Sc3  1  0.010696  0.320471  0.095270  1
  Sc  Sc4  1  0.486442  0.818584  0.594746  1
  Sc  Sc5  1  0.988455  0.679431  0.906049  1
  Sc  Sc6  1  0.486442  0.818584  0.905254  1
  Sc  Sc7  1  0.511217  0.182212  0.094258  1
  Sc  Sc8  1  0.321960  0.329909  0.626140  1
  Sc  Sc9  1  0.679869  0.668735  0.374368  1
  Sc  Sc10  1  0.181935  0.833569  0.372909  1
  Sc  Sc11  1  0.679869  0.668735  0.125632  1
  Sc  Sc12  1  0.818205  0.167036  0.625807  1
  Sc  Sc13  1  0.321960  0.329909  0.873860  1
  Sc  Sc14  1  0.818205  0.167036  0.874193  1
  Sc  Sc15  1  0.181935  0.833569  0.127091  1
  Re  Re16  1  0.857039  0.002877  0.250000  1
  Re  Re17  1  0.355433  0.500575  0.250000  1
  Re  Re18  1  0.644223  0.500092  0.750000  1
  Si  Si19  1  0.010428  0.403127  0.750000  1
  Si  Si20  1  0.990034  0.595772  0.250000  1
  Si  Si21  1  0.492965  0.908184  0.250000  1
  Si  Si22  1  0.510956  0.092603  0.750000  1
  Si  Si23  1  0.280300  0.644851  0.750000  1
  Si  Si24  1  0.719546  0.352445  0.250000  1
  Si  Si25  1  0.220994  0.151020  0.250000  1
  Si  Si26  1  0.779035  0.848590  0.750000  1
  Si  Si27  1  0.158457  0.027423  0.545307  1
  Si  Si28  1  0.842099  0.973684  0.452252  1
  Si  Si29  1  0.338014  0.529355  0.453827  1
  Si  Si30  1  0.842099  0.973684  0.047748  1
  Si  Si31  1  0.660240  0.471380  0.546879  1
  Si  Si32  1  0.158457  0.027423  0.954693  1
  Si  Si33  1  0.660240  0.471380  0.953121  1
  Si  Si34  1  0.338014  0.529355  0.046173  1
  Mo  Mo35  1  0.143872  0.996280  0.750000  1
