# generated using pymatgen
data_NaRuCl6
_symmetry_space_group_name_H-M   'P 1'
_cell_length_a   6.97215800
_cell_length_b   6.58004928
_cell_length_c   19.48729525
_cell_angle_alpha   89.14389279
_cell_angle_beta   90.00000000
_cell_angle_gamma   90.00000000
_symmetry_Int_Tables_number   1
_chemical_formula_structural   NaRuCl6
_chemical_formula_sum   'Na4 Ru4 Cl24'
_cell_volume   893.92163785
_cell_formula_units_Z   4
loop_
 _symmetry_equiv_pos_site_id
 _symmetry_equiv_pos_as_xyz
  1  'x, y, z'
loop_
 _atom_site_type_symbol
 _atom_site_label
 _atom_site_symmetry_multiplicity
 _atom_site_fract_x
 _atom_site_fract_y
 _atom_site_fract_z
 _atom_site_occupancy
  Na  Na0  1  0.810278  0.209240  0.747037  1
  Na  Na1  1  0.310278  0.790760  0.752963  1
  Na  Na2  1  0.189722  0.790760  0.252963  1
  Na  Na3  1  0.689722  0.209240  0.247037  1
  Ru  Ru4  1  0.717132  0.744879  0.618578  1
  Ru  Ru5  1  0.217132  0.255121  0.881422  1
  Ru  Ru6  1  0.282868  0.255121  0.381422  1
  Ru  Ru7  1  0.782868  0.744879  0.118578  1
  Cl  Cl8  1  0.817631  0.618928  0.234886  1
  Cl  Cl9  1  0.317631  0.381072  0.265114  1
  Cl  Cl10  1  0.182369  0.381072  0.765114  1
  Cl  Cl11  1  0.682369  0.618928  0.734886  1
  Cl  Cl12  1  0.606304  0.464222  0.094029  1
  Cl  Cl13  1  0.106304  0.535778  0.405971  1
  Cl  Cl14  1  0.393696  0.535778  0.905971  1
  Cl  Cl15  1  0.893696  0.464222  0.594029  1
  Cl  Cl16  1  0.502471  0.917073  0.155274  1
  Cl  Cl17  1  0.002471  0.082927  0.344726  1
  Cl  Cl18  1  0.497529  0.082927  0.844726  1
  Cl  Cl19  1  0.997529  0.917073  0.655274  1
  Cl  Cl20  1  0.747501  0.882673  0.012708  1
  Cl  Cl21  1  0.247501  0.117327  0.487293  1
  Cl  Cl22  1  0.252499  0.117327  0.987293  1
  Cl  Cl23  1  0.752499  0.882673  0.512707  1
  Cl  Cl24  1  0.960901  0.033077  0.154878  1
  Cl  Cl25  1  0.460901  0.966923  0.345122  1
  Cl  Cl26  1  0.039099  0.966923  0.845122  1
  Cl  Cl27  1  0.539099  0.033077  0.654878  1
  Cl  Cl28  1  0.065085  0.592305  0.091004  1
  Cl  Cl29  1  0.565085  0.407695  0.408996  1
  Cl  Cl30  1  0.934915  0.407695  0.908996  1
  Cl  Cl31  1  0.434915  0.592305  0.591004  1
