# generated using pymatgen
data_Tb16Zn3InIrRh3
_symmetry_space_group_name_H-M   'P 1'
_cell_length_a   9.58798399
_cell_length_b   9.60934170
_cell_length_c   9.55479457
_cell_angle_alpha   60.00486797
_cell_angle_beta   59.88502934
_cell_angle_gamma   60.07349722
_symmetry_Int_Tables_number   1
_chemical_formula_structural   Tb16Zn3InIrRh3
_chemical_formula_sum   'Tb16 Zn3 In1 Ir1 Rh3'
_cell_volume   622.30704053
_cell_formula_units_Z   1
loop_
 _symmetry_equiv_pos_site_id
 _symmetry_equiv_pos_as_xyz
  1  'x, y, z'
loop_
 _atom_site_type_symbol
 _atom_site_label
 _atom_site_symmetry_multiplicity
 _atom_site_fract_x
 _atom_site_fract_y
 _atom_site_fract_z
 _atom_site_occupancy
  Tb  Tb0  1  0.101382  0.693465  0.103773  1
  Tb  Tb1  1  0.941874  0.940868  0.558838  1
  Tb  Tb2  1  0.943219  0.557464  0.940890  1
  Tb  Tb3  1  0.314550  0.687612  0.311833  1
  Tb  Tb4  1  0.941433  0.558073  0.559061  1
  Tb  Tb5  1  0.312902  0.314057  0.681971  1
  Tb  Tb6  1  0.100173  0.101564  0.102776  1
  Tb  Tb7  1  0.558427  0.557464  0.940890  1
  Tb  Tb8  1  0.102208  0.104040  0.691546  1
  Tb  Tb9  1  0.691071  0.314057  0.681971  1
  Tb  Tb10  1  0.686005  0.687612  0.311833  1
  Tb  Tb11  1  0.687153  0.315057  0.310637  1
  Tb  Tb12  1  0.313359  0.692198  0.681085  1
  Tb  Tb13  1  0.558420  0.940868  0.558838  1
  Tb  Tb14  1  0.695489  0.101564  0.102776  1
  Tb  Tb15  1  0.557953  0.942826  0.941268  1
  Zn  Zn16  1  0.329502  0.329106  0.333287  1
  Zn  Zn17  1  0.008105  0.329106  0.333287  1
  Zn  Zn18  1  0.330235  0.006073  0.333458  1
  In  In19  1  0.328047  0.327072  0.016834  1
  Ir  Ir20  1  0.892049  0.322320  0.893582  1
  Rh  Rh21  1  0.892371  0.892507  0.893138  1
  Rh  Rh22  1  0.892092  0.892525  0.323291  1
  Rh  Rh23  1  0.321984  0.892507  0.893138  1
