# generated using pymatgen
data_Y15ErIn2(AgRh2)2
_symmetry_space_group_name_H-M   'P 1'
_cell_length_a   9.65662466
_cell_length_b   9.63260566
_cell_length_c   9.63540348
_cell_angle_alpha   60.00976485
_cell_angle_beta   59.80183034
_cell_angle_gamma   59.91205398
_symmetry_Int_Tables_number   1
_chemical_formula_structural   Y15ErIn2(AgRh2)2
_chemical_formula_sum   'Y15 Er1 In2 Ag2 Rh4'
_cell_volume   632.43029001
_cell_formula_units_Z   1
loop_
 _symmetry_equiv_pos_site_id
 _symmetry_equiv_pos_as_xyz
  1  'x, y, z'
loop_
 _atom_site_type_symbol
 _atom_site_label
 _atom_site_symmetry_multiplicity
 _atom_site_fract_x
 _atom_site_fract_y
 _atom_site_fract_z
 _atom_site_occupancy
  Y  Y0  1  0.188695  0.189273  0.812575  1
  Y  Y1  1  0.437424  0.060696  0.061526  1
  Y  Y2  1  0.435791  0.059936  0.435951  1
  Y  Y3  1  0.065890  0.436680  0.059437  1
  Y  Y4  1  0.650026  0.052232  0.646554  1
  Y  Y5  1  0.189765  0.811404  0.811977  1
  Y  Y6  1  0.066155  0.059195  0.436018  1
  Y  Y7  1  0.808676  0.191924  0.191897  1
  Y  Y8  1  0.812009  0.809831  0.190665  1
  Y  Y9  1  0.649314  0.646711  0.053328  1
  Y  Y10  1  0.651449  0.650512  0.649849  1
  Y  Y11  1  0.062194  0.436339  0.435232  1
  Y  Y12  1  0.052480  0.647881  0.646824  1
  Y  Y13  1  0.811354  0.191054  0.809673  1
  Y  Y14  1  0.435377  0.437007  0.059851  1
  Er  Er15  1  0.188516  0.812589  0.189042  1
  In  In16  1  0.743771  0.421420  0.421389  1
  In  In17  1  0.417316  0.420767  0.421414  1
  Ag  Ag18  1  0.416114  0.748242  0.418596  1
  Ag  Ag19  1  0.416291  0.418529  0.748384  1
  Rh  Rh20  1  0.856711  0.427563  0.857124  1
  Rh  Rh21  1  0.860461  0.856632  0.425123  1
  Rh  Rh22  1  0.426764  0.855726  0.860085  1
  Rh  Rh23  1  0.857455  0.857853  0.857485  1
