# generated using pymatgen
data_PtAuF12
_symmetry_space_group_name_H-M   'P 1'
_cell_length_a   5.06736500
_cell_length_b   8.77480500
_cell_length_c   9.54641500
_cell_angle_alpha   90.00000000
_cell_angle_beta   90.00000000
_cell_angle_gamma   90.00000000
_symmetry_Int_Tables_number   1
_chemical_formula_structural   PtAuF12
_chemical_formula_sum   'Pt2 Au2 F24'
_cell_volume   424.48267698
_cell_formula_units_Z   2
loop_
 _symmetry_equiv_pos_site_id
 _symmetry_equiv_pos_as_xyz
  1  'x, y, z'
loop_
 _atom_site_type_symbol
 _atom_site_label
 _atom_site_symmetry_multiplicity
 _atom_site_fract_x
 _atom_site_fract_y
 _atom_site_fract_z
 _atom_site_occupancy
  Pt  Pt0  1  0.092676  0.250000  0.125693  1
  Pt  Pt1  1  0.592676  0.750000  0.374307  1
  Au  Au2  1  0.907330  0.750000  0.873944  1
  Au  Au3  1  0.407330  0.250000  0.626056  1
  F  F4  1  0.213923  0.750000  0.994541  1
  F  F5  1  0.713923  0.250000  0.505459  1
  F  F6  1  0.792090  0.250000  0.008178  1
  F  F7  1  0.292090  0.750000  0.491822  1
  F  F8  1  0.600565  0.750000  0.753405  1
  F  F9  1  0.100565  0.250000  0.746595  1
  F  F10  1  0.393710  0.250000  0.243486  1
  F  F11  1  0.893710  0.750000  0.256514  1
  F  F12  1  0.746957  0.906162  0.989690  1
  F  F13  1  0.246957  0.093838  0.510310  1
  F  F14  1  0.249717  0.402818  0.013446  1
  F  F15  1  0.749717  0.597182  0.486554  1
  F  F16  1  0.249717  0.097182  0.013446  1
  F  F17  1  0.749717  0.902818  0.486554  1
  F  F18  1  0.746957  0.593838  0.989690  1
  F  F19  1  0.246957  0.406162  0.510310  1
  F  F20  1  0.067271  0.905099  0.758440  1
  F  F21  1  0.567271  0.094901  0.741560  1
  F  F22  1  0.935909  0.402276  0.239077  1
  F  F23  1  0.435909  0.597724  0.260923  1
  F  F24  1  0.935909  0.097724  0.239077  1
  F  F25  1  0.435909  0.902276  0.260923  1
  F  F26  1  0.067271  0.594901  0.758440  1
  F  F27  1  0.567271  0.405099  0.741560  1
