# generated using pymatgen
data_Sc3Al3NiAu2
_symmetry_space_group_name_H-M   'P 1'
_cell_length_a   6.98563500
_cell_length_b   6.98563529
_cell_length_c   7.54961900
_cell_angle_alpha   90.00000000
_cell_angle_beta   90.00000000
_cell_angle_gamma   119.99999387
_symmetry_Int_Tables_number   1
_chemical_formula_structural   Sc3Al3NiAu2
_chemical_formula_sum   'Sc6 Al6 Ni2 Au4'
_cell_volume   319.05642289
_cell_formula_units_Z   2
loop_
 _symmetry_equiv_pos_site_id
 _symmetry_equiv_pos_as_xyz
  1  'x, y, z'
loop_
 _atom_site_type_symbol
 _atom_site_label
 _atom_site_symmetry_multiplicity
 _atom_site_fract_x
 _atom_site_fract_y
 _atom_site_fract_z
 _atom_site_occupancy
  Sc  Sc0  1  0.593982  0.985941  0.750000  1
  Sc  Sc1  1  0.014059  0.608041  0.750000  1
  Sc  Sc2  1  0.391959  0.406018  0.750000  1
  Sc  Sc3  1  0.985941  0.593982  0.250000  1
  Sc  Sc4  1  0.608041  0.014059  0.250000  1
  Sc  Sc5  1  0.406018  0.391959  0.250000  1
  Al  Al6  1  0.764592  0.764592  0.000000  1
  Al  Al7  1  0.235408  0.000000  0.000000  1
  Al  Al8  1  0.000000  0.235408  0.000000  1
  Al  Al9  1  0.764592  0.764592  0.500000  1
  Al  Al10  1  0.235408  0.000000  0.500000  1
  Al  Al11  1  0.000000  0.235408  0.500000  1
  Ni  Ni12  1  0.000000  0.000000  0.750000  1
  Ni  Ni13  1  0.000000  0.000000  0.250000  1
  Au  Au14  1  0.666667  0.333333  0.982165  1
  Au  Au15  1  0.666667  0.333333  0.517835  1
  Au  Au16  1  0.333333  0.666667  0.482165  1
  Au  Au17  1  0.333333  0.666667  0.017835  1
