# generated using pymatgen
data_Tb5Pt9
_symmetry_space_group_name_H-M   'P 1'
_cell_length_a   9.81981200
_cell_length_b   9.81981200
_cell_length_c   5.79972300
_cell_angle_alpha   90.00000000
_cell_angle_beta   90.00000000
_cell_angle_gamma   90.00000000
_symmetry_Int_Tables_number   1
_chemical_formula_structural   Tb5Pt9
_chemical_formula_sum   'Tb10 Pt18'
_cell_volume   559.25979400
_cell_formula_units_Z   2
loop_
 _symmetry_equiv_pos_site_id
 _symmetry_equiv_pos_as_xyz
  1  'x, y, z'
loop_
 _atom_site_type_symbol
 _atom_site_label
 _atom_site_symmetry_multiplicity
 _atom_site_fract_x
 _atom_site_fract_y
 _atom_site_fract_z
 _atom_site_occupancy
  Tb  Tb0  1  0.452404  0.808700  0.000000  1
  Tb  Tb1  1  0.547596  0.191300  0.000000  1
  Tb  Tb2  1  0.191300  0.547596  0.000000  1
  Tb  Tb3  1  0.808700  0.452404  0.000000  1
  Tb  Tb4  1  0.500000  0.500000  0.500000  1
  Tb  Tb5  1  0.308700  0.047596  0.500000  1
  Tb  Tb6  1  0.691300  0.952404  0.500000  1
  Tb  Tb7  1  0.952404  0.691300  0.500000  1
  Tb  Tb8  1  0.047596  0.308700  0.500000  1
  Tb  Tb9  1  0.000000  0.000000  0.000000  1
  Pt  Pt10  1  0.192060  0.807940  0.250302  1
  Pt  Pt11  1  0.807940  0.192060  0.749698  1
  Pt  Pt12  1  0.807940  0.192060  0.250302  1
  Pt  Pt13  1  0.192060  0.807940  0.749698  1
  Pt  Pt14  1  0.439788  0.782182  0.500000  1
  Pt  Pt15  1  0.560212  0.217818  0.500000  1
  Pt  Pt16  1  0.217818  0.560212  0.500000  1
  Pt  Pt17  1  0.782182  0.439788  0.500000  1
  Pt  Pt18  1  0.307940  0.307940  0.249698  1
  Pt  Pt19  1  0.692060  0.692060  0.750302  1
  Pt  Pt20  1  0.692060  0.692060  0.249698  1
  Pt  Pt21  1  0.307940  0.307940  0.750302  1
  Pt  Pt22  1  0.282182  0.060212  0.000000  1
  Pt  Pt23  1  0.717818  0.939788  0.000000  1
  Pt  Pt24  1  0.939788  0.717818  0.000000  1
  Pt  Pt25  1  0.060212  0.282182  0.000000  1
  Pt  Pt26  1  0.000000  0.000000  0.500000  1
  Pt  Pt27  1  0.500000  0.500000  0.000000  1
