# generated using pymatgen
data_LiSm3In3AgRu
_symmetry_space_group_name_H-M   'P 1'
_cell_length_a   7.85710900
_cell_length_b   7.85710825
_cell_length_c   3.95953600
_cell_angle_alpha   90.00000000
_cell_angle_beta   90.00000000
_cell_angle_gamma   119.99999051
_symmetry_Int_Tables_number   1
_chemical_formula_structural   LiSm3In3AgRu
_chemical_formula_sum   'Li1 Sm3 In3 Ag1 Ru1'
_cell_volume   211.69006882
_cell_formula_units_Z   1
loop_
 _symmetry_equiv_pos_site_id
 _symmetry_equiv_pos_as_xyz
  1  'x, y, z'
loop_
 _atom_site_type_symbol
 _atom_site_label
 _atom_site_symmetry_multiplicity
 _atom_site_fract_x
 _atom_site_fract_y
 _atom_site_fract_z
 _atom_site_occupancy
  Li  Li0  1  0.000000  0.000000  0.500000  1
  Sm  Sm1  1  0.971277  0.401728  0.500000  1
  Sm  Sm2  1  0.598272  0.569549  0.500000  1
  Sm  Sm3  1  0.430451  0.028723  0.500000  1
  In  In4  1  0.253025  0.250815  0.000000  1
  In  In5  1  0.997790  0.746975  0.000000  1
  In  In6  1  0.749185  0.002210  0.000000  1
  Ag  Ag7  1  0.333333  0.666667  0.000000  1
  Ru  Ru8  1  0.666667  0.333333  0.000000  1
