# generated using pymatgen
data_LaYbPd2Pb
_symmetry_space_group_name_H-M   'P 1'
_cell_length_a   8.01587500
_cell_length_b   7.93988500
_cell_length_c   3.81623000
_cell_angle_alpha   90.00000000
_cell_angle_beta   90.00000000
_cell_angle_gamma   90.00000000
_symmetry_Int_Tables_number   1
_chemical_formula_structural   LaYbPd2Pb
_chemical_formula_sum   'La2 Yb2 Pd4 Pb2'
_cell_volume   242.88443795
_cell_formula_units_Z   2
loop_
 _symmetry_equiv_pos_site_id
 _symmetry_equiv_pos_as_xyz
  1  'x, y, z'
loop_
 _atom_site_type_symbol
 _atom_site_label
 _atom_site_symmetry_multiplicity
 _atom_site_fract_x
 _atom_site_fract_y
 _atom_site_fract_z
 _atom_site_occupancy
  La  La0  1  0.823812  0.673919  0.500000  1
  La  La1  1  0.323812  0.826081  0.500000  1
  Yb  Yb2  1  0.674515  0.176208  0.500000  1
  Yb  Yb3  1  0.174515  0.323792  0.500000  1
  Pd  Pd4  1  0.376050  0.127331  0.000000  1
  Pd  Pd5  1  0.125888  0.620549  0.000000  1
  Pd  Pd6  1  0.625888  0.879451  0.000000  1
  Pd  Pd7  1  0.876050  0.372669  0.000000  1
  Pb  Pb8  1  0.999735  0.008627  0.000000  1
  Pb  Pb9  1  0.499735  0.491373  0.000000  1
