# generated using pymatgen
data_ErTmGa(PRh2)6
_symmetry_space_group_name_H-M   'P 1'
_cell_length_a   9.65631700
_cell_length_b   9.65631553
_cell_length_c   3.87112500
_cell_angle_alpha   90.00000000
_cell_angle_beta   90.00000000
_cell_angle_gamma   119.99999475
_symmetry_Int_Tables_number   1
_chemical_formula_structural   ErTmGa(PRh2)6
_chemical_formula_sum   'Er1 Tm1 Ga1 P6 Rh12'
_cell_volume   312.60132364
_cell_formula_units_Z   1
loop_
 _symmetry_equiv_pos_site_id
 _symmetry_equiv_pos_as_xyz
  1  'x, y, z'
loop_
 _atom_site_type_symbol
 _atom_site_label
 _atom_site_symmetry_multiplicity
 _atom_site_fract_x
 _atom_site_fract_y
 _atom_site_fract_z
 _atom_site_occupancy
  Er  Er0  1  0.666667  0.333333  0.249199  1
  Tm  Tm1  1  0.333333  0.666667  0.750755  1
  Ga  Ga2  1  0.000000  0.000000  0.500047  1
  P  P3  1  0.403334  0.285456  0.749512  1
  P  P4  1  0.714544  0.117878  0.749512  1
  P  P5  1  0.882122  0.596666  0.749512  1
  P  P6  1  0.596489  0.714487  0.250498  1
  P  P7  1  0.285513  0.882002  0.250498  1
  P  P8  1  0.117998  0.403511  0.250498  1
  Rh  Rh9  1  0.452658  0.067391  0.750034  1
  Rh  Rh10  1  0.932609  0.385266  0.750034  1
  Rh  Rh11  1  0.614734  0.547342  0.750034  1
  Rh  Rh12  1  0.546929  0.932061  0.249998  1
  Rh  Rh13  1  0.067939  0.614869  0.249998  1
  Rh  Rh14  1  0.385131  0.453071  0.249998  1
  Rh  Rh15  1  0.157485  0.280408  0.752224  1
  Rh  Rh16  1  0.719592  0.877078  0.752224  1
  Rh  Rh17  1  0.122922  0.842515  0.752224  1
  Rh  Rh18  1  0.842540  0.719685  0.247734  1
  Rh  Rh19  1  0.280315  0.122855  0.247734  1
  Rh  Rh20  1  0.877145  0.157460  0.247734  1
