# generated using pymatgen
data_CaV(Sb4Os)3
_symmetry_space_group_name_H-M   'P 1'
_cell_length_a   8.21463978
_cell_length_b   8.17989431
_cell_length_c   8.21464018
_cell_angle_alpha   109.38555907
_cell_angle_beta   109.55674271
_cell_angle_gamma   109.38555877
_symmetry_Int_Tables_number   1
_chemical_formula_structural   CaV(Sb4Os)3
_chemical_formula_sum   'Ca1 V1 Sb12 Os3'
_cell_volume   425.36419052
_cell_formula_units_Z   1
loop_
 _symmetry_equiv_pos_site_id
 _symmetry_equiv_pos_as_xyz
  1  'x, y, z'
loop_
 _atom_site_type_symbol
 _atom_site_label
 _atom_site_symmetry_multiplicity
 _atom_site_fract_x
 _atom_site_fract_y
 _atom_site_fract_z
 _atom_site_occupancy
  Ca  Ca0  1  0.000000  0.000000  0.000000  1
  V  V1  1  0.000000  0.500000  0.000000  1
  Sb  Sb2  1  0.843167  0.662303  0.505377  1
  Sb  Sb3  1  0.156833  0.337697  0.494623  1
  Sb  Sb4  1  0.158641  0.663667  0.815910  1
  Sb  Sb5  1  0.841359  0.336333  0.184090  1
  Sb  Sb6  1  0.657269  0.505025  0.841359  1
  Sb  Sb7  1  0.342731  0.494975  0.158641  1
  Sb  Sb8  1  0.662210  0.819136  0.156833  1
  Sb  Sb9  1  0.337790  0.180864  0.843167  1
  Sb  Sb10  1  0.505377  0.843074  0.662210  1
  Sb  Sb11  1  0.494623  0.156926  0.337790  1
  Sb  Sb12  1  0.184090  0.847757  0.342731  1
  Sb  Sb13  1  0.815910  0.152243  0.657269  1
  Os  Os14  1  0.500000  0.500000  0.500000  1
  Os  Os15  1  0.500000  0.000000  0.000000  1
  Os  Os16  1  0.000000  0.000000  0.500000  1
