# generated using pymatgen
data_Er7Tm13(Bi2Ir)4
_symmetry_space_group_name_H-M   'P 1'
_cell_length_a   7.89532400
_cell_length_b   8.96834100
_cell_length_c   12.43975400
_cell_angle_alpha   90.00000000
_cell_angle_beta   89.99733824
_cell_angle_gamma   90.00000000
_symmetry_Int_Tables_number   1
_chemical_formula_structural   Er7Tm13(Bi2Ir)4
_chemical_formula_sum   'Er7 Tm13 Bi8 Ir4'
_cell_volume   880.83357751
_cell_formula_units_Z   1
loop_
 _symmetry_equiv_pos_site_id
 _symmetry_equiv_pos_as_xyz
  1  'x, y, z'
loop_
 _atom_site_type_symbol
 _atom_site_label
 _atom_site_symmetry_multiplicity
 _atom_site_fract_x
 _atom_site_fract_y
 _atom_site_fract_z
 _atom_site_occupancy
  Er  Er0  1  0.872533  0.250000  0.188991  1
  Er  Er1  1  0.627548  0.250000  0.689036  1
  Er  Er2  1  0.372505  0.750000  0.310937  1
  Er  Er3  1  0.555995  0.750000  0.998140  1
  Er  Er4  1  0.443824  0.250000  0.001846  1
  Er  Er5  1  0.056041  0.250000  0.501870  1
  Er  Er6  1  0.943931  0.750000  0.498188  1
  Tm  Tm7  1  0.661328  0.750000  0.706385  1
  Tm  Tm8  1  0.338816  0.250000  0.293625  1
  Tm  Tm9  1  0.161227  0.250000  0.793607  1
  Tm  Tm10  1  0.838776  0.750000  0.206344  1
  Tm  Tm11  1  0.127032  0.750000  0.811525  1
  Tm  Tm12  1  0.827547  0.459025  0.932251  1
  Tm  Tm13  1  0.172655  0.541296  0.067544  1
  Tm  Tm14  1  0.327353  0.541198  0.567720  1
  Tm  Tm15  1  0.172655  0.958704  0.067544  1
  Tm  Tm16  1  0.672603  0.458795  0.432323  1
  Tm  Tm17  1  0.827547  0.040975  0.932251  1
  Tm  Tm18  1  0.672603  0.041205  0.432323  1
  Tm  Tm19  1  0.327353  0.958802  0.567720  1
  Bi  Bi20  1  0.936976  0.007334  0.672935  1
  Bi  Bi21  1  0.063205  0.992513  0.327114  1
  Bi  Bi22  1  0.436523  0.992340  0.827143  1
  Bi  Bi23  1  0.063205  0.507487  0.327114  1
  Bi  Bi24  1  0.563244  0.007510  0.172853  1
  Bi  Bi25  1  0.936976  0.492666  0.672935  1
  Bi  Bi26  1  0.563244  0.492490  0.172853  1
  Bi  Bi27  1  0.436523  0.507660  0.827143  1
  Ir  Ir28  1  0.929829  0.750000  0.992369  1
  Ir  Ir29  1  0.070370  0.250000  0.007352  1
  Ir  Ir30  1  0.429659  0.250000  0.507404  1
  Ir  Ir31  1  0.570371  0.750000  0.492614  1
