# generated using pymatgen
data_Mn2Nb6Fe13Si7Ru
_symmetry_space_group_name_H-M   'P 1'
_cell_length_a   8.02045189
_cell_length_b   7.99217016
_cell_length_c   7.98838232
_cell_angle_alpha   59.98430232
_cell_angle_beta   60.12925537
_cell_angle_gamma   60.11656646
_symmetry_Int_Tables_number   1
_chemical_formula_structural   Mn2Nb6Fe13Si7Ru
_chemical_formula_sum   'Mn2 Nb6 Fe13 Si7 Ru1'
_cell_volume   362.71038610
_cell_formula_units_Z   1
loop_
 _symmetry_equiv_pos_site_id
 _symmetry_equiv_pos_as_xyz
  1  'x, y, z'
loop_
 _atom_site_type_symbol
 _atom_site_label
 _atom_site_symmetry_multiplicity
 _atom_site_fract_x
 _atom_site_fract_y
 _atom_site_fract_z
 _atom_site_occupancy
  Mn  Mn0  1  0.617174  0.622287  0.138253  1
  Mn  Mn1  1  0.382054  0.378310  0.861325  1
  Nb  Nb2  1  0.800158  0.199487  0.800869  1
  Nb  Nb3  1  0.798693  0.802238  0.201036  1
  Nb  Nb4  1  0.202063  0.797816  0.202304  1
  Nb  Nb5  1  0.203878  0.201147  0.795939  1
  Nb  Nb6  1  0.203878  0.799036  0.795939  1
  Nb  Nb7  1  0.798693  0.198034  0.201036  1
  Fe  Fe8  1  0.825862  0.520235  0.826692  1
  Fe  Fe9  1  0.825862  0.827212  0.826692  1
  Fe  Fe10  1  0.825600  0.827168  0.520065  1
  Fe  Fe11  1  0.383023  0.380670  0.376460  1
  Fe  Fe12  1  0.138205  0.619497  0.622804  1
  Fe  Fe13  1  0.613695  0.620698  0.624995  1
  Fe  Fe14  1  0.176276  0.171332  0.171387  1
  Fe  Fe15  1  0.176276  0.481004  0.171387  1
  Fe  Fe16  1  0.521002  0.826367  0.826264  1
  Fe  Fe17  1  0.613695  0.140613  0.624995  1
  Fe  Fe18  1  0.176837  0.170850  0.481462  1
  Fe  Fe19  1  0.383023  0.859847  0.376460  1
  Fe  Fe20  1  0.478551  0.173582  0.174283  1
  Si  Si21  1  0.501247  0.999698  0.999939  1
  Si  Si22  1  0.003944  0.500822  0.994413  1
  Si  Si23  1  0.501247  0.499114  0.999939  1
  Si  Si24  1  0.486690  0.504879  0.503552  1
  Si  Si25  1  0.004183  0.500620  0.500599  1
  Si  Si26  1  0.004183  0.994597  0.500599  1
  Si  Si27  1  0.501307  0.999734  0.499224  1
  Ru  Ru28  1  0.852701  0.383106  0.381087  1
