# generated using pymatgen
data_Tb4Y6(GaSb)3
_symmetry_space_group_name_H-M   'P 1'
_cell_length_a   8.81116800
_cell_length_b   8.80831309
_cell_length_c   6.49071900
_cell_angle_alpha   90.00000000
_cell_angle_beta   90.00000000
_cell_angle_gamma   120.01072975
_symmetry_Int_Tables_number   1
_chemical_formula_structural   Tb4Y6(GaSb)3
_chemical_formula_sum   'Tb4 Y6 Ga3 Sb3'
_cell_volume   436.21711214
_cell_formula_units_Z   1
loop_
 _symmetry_equiv_pos_site_id
 _symmetry_equiv_pos_as_xyz
  1  'x, y, z'
loop_
 _atom_site_type_symbol
 _atom_site_label
 _atom_site_symmetry_multiplicity
 _atom_site_fract_x
 _atom_site_fract_y
 _atom_site_fract_z
 _atom_site_occupancy
  Tb  Tb0  1  0.327241  0.666712  0.002717  1
  Tb  Tb1  1  0.660530  0.333288  0.497283  1
  Tb  Tb2  1  0.660530  0.333288  0.002717  1
  Tb  Tb3  1  0.327241  0.666712  0.497283  1
  Y  Y4  1  0.235835  0.000000  0.250000  1
  Y  Y5  1  0.242872  0.232392  0.750000  1
  Y  Y6  1  0.010481  0.767608  0.750000  1
  Y  Y7  1  0.011860  0.248760  0.250000  1
  Y  Y8  1  0.763099  0.751240  0.250000  1
  Y  Y9  1  0.754313  0.000000  0.750000  1
  Ga  Ga10  1  0.998891  0.603184  0.250000  1
  Ga  Ga11  1  0.395707  0.396816  0.250000  1
  Ga  Ga12  1  0.398150  0.000000  0.750000  1
  Sb  Sb13  1  0.610107  0.000000  0.250000  1
  Sb  Sb14  1  0.605512  0.607879  0.750000  1
  Sb  Sb15  1  0.997633  0.392121  0.750000  1
