# generated using pymatgen
data_Ho10(InTe)3
_symmetry_space_group_name_H-M   'P 1'
_cell_length_a   8.97845900
_cell_length_b   8.97845825
_cell_length_c   6.38889200
_cell_angle_alpha   90.00000000
_cell_angle_beta   90.00000000
_cell_angle_gamma   119.99999909
_symmetry_Int_Tables_number   1
_chemical_formula_structural   Ho10(InTe)3
_chemical_formula_sum   'Ho10 In3 Te3'
_cell_volume   446.02556658
_cell_formula_units_Z   1
loop_
 _symmetry_equiv_pos_site_id
 _symmetry_equiv_pos_as_xyz
  1  'x, y, z'
loop_
 _atom_site_type_symbol
 _atom_site_label
 _atom_site_symmetry_multiplicity
 _atom_site_fract_x
 _atom_site_fract_y
 _atom_site_fract_z
 _atom_site_occupancy
  Ho  Ho0  1  0.666667  0.333333  0.001937  1
  Ho  Ho1  1  0.333333  0.666667  0.001937  1
  Ho  Ho2  1  0.333333  0.666667  0.498063  1
  Ho  Ho3  1  0.666667  0.333333  0.498063  1
  Ho  Ho4  1  0.755474  0.755474  0.750000  1
  Ho  Ho5  1  0.244526  0.000000  0.750000  1
  Ho  Ho6  1  0.000000  0.244526  0.750000  1
  Ho  Ho7  1  0.236670  0.236670  0.250000  1
  Ho  Ho8  1  0.763330  0.000000  0.250000  1
  Ho  Ho9  1  0.000000  0.763330  0.250000  1
  In  In10  1  0.607742  0.607742  0.250000  1
  In  In11  1  0.392258  0.000000  0.250000  1
  In  In12  1  0.000000  0.392258  0.250000  1
  Te  Te13  1  0.386201  0.386201  0.750000  1
  Te  Te14  1  0.613799  0.000000  0.750000  1
  Te  Te15  1  0.000000  0.613799  0.750000  1
