# generated using pymatgen
data_Y16MgIn2AgRh4
_symmetry_space_group_name_H-M   'P 1'
_cell_length_a   9.70794080
_cell_length_b   9.66174830
_cell_length_c   9.72268800
_cell_angle_alpha   59.79057000
_cell_angle_beta   59.94933938
_cell_angle_gamma   59.85405526
_symmetry_Int_Tables_number   1
_chemical_formula_structural   Y16MgIn2AgRh4
_chemical_formula_sum   'Y16 Mg1 In2 Ag1 Rh4'
_cell_volume   642.86033372
_cell_formula_units_Z   1
loop_
 _symmetry_equiv_pos_site_id
 _symmetry_equiv_pos_as_xyz
  1  'x, y, z'
loop_
 _atom_site_type_symbol
 _atom_site_label
 _atom_site_symmetry_multiplicity
 _atom_site_fract_x
 _atom_site_fract_y
 _atom_site_fract_z
 _atom_site_occupancy
  Y  Y0  1  0.599339  0.599464  0.595828  1
  Y  Y1  1  0.599347  0.599456  0.205373  1
  Y  Y2  1  0.602478  0.202028  0.597746  1
  Y  Y3  1  0.194223  0.603691  0.601047  1
  Y  Y4  1  0.058880  0.439621  0.440699  1
  Y  Y5  1  0.438142  0.060758  0.062226  1
  Y  Y6  1  0.438140  0.060757  0.438879  1
  Y  Y7  1  0.058884  0.439622  0.060806  1
  Y  Y8  1  0.435404  0.437194  0.063702  1
  Y  Y9  1  0.057134  0.058264  0.442303  1
  Y  Y10  1  0.186611  0.813369  0.813947  1
  Y  Y11  1  0.813050  0.191921  0.181013  1
  Y  Y12  1  0.813044  0.191920  0.814017  1
  Y  Y13  1  0.186618  0.813364  0.186077  1
  Y  Y14  1  0.814491  0.815166  0.185170  1
  Y  Y15  1  0.185858  0.190232  0.811958  1
  Mg  Mg16  1  0.529629  0.818537  0.825901  1
  In  In17  1  0.832492  0.830616  0.835192  1
  In  In18  1  0.832518  0.830644  0.501647  1
  Ag  Ag19  1  0.831520  0.499446  0.834514  1
  Rh  Rh20  1  0.389263  0.393851  0.394114  1
  Rh  Rh21  1  0.389265  0.393841  0.822788  1
  Rh  Rh22  1  0.390062  0.823003  0.393471  1
  Rh  Rh23  1  0.823609  0.393240  0.391581  1
