# generated using pymatgen
data_BeV24PS6
_symmetry_space_group_name_H-M   'P 1'
_cell_length_a   9.36342300
_cell_length_b   9.24050906
_cell_length_c   4.67872273
_cell_angle_alpha   90.22428410
_cell_angle_beta   90.00000000
_cell_angle_gamma   90.00000000
_symmetry_Int_Tables_number   1
_chemical_formula_structural   BeV24PS6
_chemical_formula_sum   'Be1 V24 P1 S6'
_cell_volume   404.81306654
_cell_formula_units_Z   1
loop_
 _symmetry_equiv_pos_site_id
 _symmetry_equiv_pos_as_xyz
  1  'x, y, z'
loop_
 _atom_site_type_symbol
 _atom_site_label
 _atom_site_symmetry_multiplicity
 _atom_site_fract_x
 _atom_site_fract_y
 _atom_site_fract_z
 _atom_site_occupancy
  Be  Be0  1  0.202824  0.000000  0.250000  1
  V  V1  1  0.589258  0.089397  0.503331  1
  V  V2  1  0.913923  0.410456  0.997661  1
  V  V3  1  0.294802  0.801418  0.995663  1
  V  V4  1  0.203092  0.709134  0.491545  1
  V  V5  1  0.853701  0.000000  0.750000  1
  V  V6  1  0.152608  0.000000  0.750000  1
  V  V7  1  0.913923  0.589544  0.502339  1
  V  V8  1  0.589258  0.910603  0.996669  1
  V  V9  1  0.700658  0.791117  0.491343  1
  V  V10  1  0.799862  0.295246  0.502398  1
  V  V11  1  0.353822  0.500000  0.750000  1
  V  V12  1  0.091172  0.588976  0.998774  1
  V  V13  1  0.647240  0.500000  0.750000  1
  V  V14  1  0.409018  0.914347  0.495311  1
  V  V15  1  0.997482  0.147639  0.243107  1
  V  V16  1  0.091172  0.411024  0.501226  1
  V  V17  1  0.203092  0.290866  0.008455  1
  V  V18  1  0.409018  0.085653  0.004689  1
  V  V19  1  0.498171  0.351988  0.253775  1
  V  V20  1  0.997482  0.852361  0.256893  1
  V  V21  1  0.700658  0.208883  0.008657  1
  V  V22  1  0.799862  0.704754  0.997602  1
  V  V23  1  0.498171  0.648012  0.246225  1
  V  V24  1  0.294802  0.198582  0.504337  1
  P  P25  1  0.709240  0.500000  0.250000  1
  S  S26  1  0.789818  0.000000  0.250000  1
  S  S27  1  0.290708  0.500000  0.250000  1
  S  S28  1  0.497491  0.290370  0.752797  1
  S  S29  1  0.005091  0.206551  0.744466  1
  S  S30  1  0.497491  0.709630  0.747203  1
  S  S31  1  0.005091  0.793449  0.755534  1
