# generated using pymatgen
data_NpTaCrB6
_symmetry_space_group_name_H-M   'P 1'
_cell_length_a   3.37237300
_cell_length_b   8.95540000
_cell_length_c   11.29958700
_cell_angle_alpha   90.00000000
_cell_angle_beta   90.00000000
_cell_angle_gamma   90.00000000
_symmetry_Int_Tables_number   1
_chemical_formula_structural   NpTaCrB6
_chemical_formula_sum   'Np4 Ta4 Cr4 B24'
_cell_volume   341.25825256
_cell_formula_units_Z   4
loop_
 _symmetry_equiv_pos_site_id
 _symmetry_equiv_pos_as_xyz
  1  'x, y, z'
loop_
 _atom_site_type_symbol
 _atom_site_label
 _atom_site_symmetry_multiplicity
 _atom_site_fract_x
 _atom_site_fract_y
 _atom_site_fract_z
 _atom_site_occupancy
  Np  Np0  1  0.000000  0.822968  0.085720  1
  Np  Np1  1  0.000000  0.177032  0.914280  1
  Np  Np2  1  0.000000  0.322968  0.414280  1
  Np  Np3  1  0.000000  0.677032  0.585720  1
  Ta  Ta4  1  0.000000  0.444701  0.127600  1
  Ta  Ta5  1  0.000000  0.555299  0.872400  1
  Ta  Ta6  1  0.000000  0.944701  0.372400  1
  Ta  Ta7  1  0.000000  0.055299  0.627600  1
  Cr  Cr8  1  0.000000  0.142521  0.182518  1
  Cr  Cr9  1  0.000000  0.857479  0.817482  1
  Cr  Cr10  1  0.000000  0.642521  0.317482  1
  Cr  Cr11  1  0.000000  0.357479  0.682518  1
  B  B12  1  0.500000  0.053739  0.067004  1
  B  B13  1  0.500000  0.946261  0.932996  1
  B  B14  1  0.500000  0.553739  0.432996  1
  B  B15  1  0.500000  0.446261  0.567004  1
  B  B16  1  0.500000  0.253176  0.081166  1
  B  B17  1  0.500000  0.746824  0.918834  1
  B  B18  1  0.500000  0.753176  0.418834  1
  B  B19  1  0.500000  0.246824  0.581166  1
  B  B20  1  0.500000  0.296567  0.235989  1
  B  B21  1  0.500000  0.703433  0.764011  1
  B  B22  1  0.500000  0.796567  0.264011  1
  B  B23  1  0.500000  0.203433  0.735989  1
  B  B24  1  0.500000  0.130306  0.317918  1
  B  B25  1  0.500000  0.869694  0.682082  1
  B  B26  1  0.500000  0.630306  0.182082  1
  B  B27  1  0.500000  0.369694  0.817918  1
  B  B28  1  0.500000  0.481057  0.286378  1
  B  B29  1  0.500000  0.518943  0.713622  1
  B  B30  1  0.500000  0.981057  0.213622  1
  B  B31  1  0.500000  0.018943  0.786378  1
  B  B32  1  0.500000  0.100482  0.473212  1
  B  B33  1  0.500000  0.899518  0.526788  1
  B  B34  1  0.500000  0.600482  0.026788  1
  B  B35  1  0.500000  0.399518  0.973212  1
