# generated using pymatgen
data_Sm2Ir5Rh
_symmetry_space_group_name_H-M   'P 1'
_cell_length_a   5.35410300
_cell_length_b   5.35410257
_cell_length_c   17.58219200
_cell_angle_alpha   90.00000000
_cell_angle_beta   90.00000000
_cell_angle_gamma   119.99999650
_symmetry_Int_Tables_number   1
_chemical_formula_structural   Sm2Ir5Rh
_chemical_formula_sum   'Sm6 Ir15 Rh3'
_cell_volume   436.49278909
_cell_formula_units_Z   3
loop_
 _symmetry_equiv_pos_site_id
 _symmetry_equiv_pos_as_xyz
  1  'x, y, z'
loop_
 _atom_site_type_symbol
 _atom_site_label
 _atom_site_symmetry_multiplicity
 _atom_site_fract_x
 _atom_site_fract_y
 _atom_site_fract_z
 _atom_site_occupancy
  Sm  Sm0  1  0.333333  0.666667  0.958903  1
  Sm  Sm1  1  0.666667  0.333333  0.041231  1
  Sm  Sm2  1  0.666667  0.333333  0.458769  1
  Sm  Sm3  1  0.333333  0.666667  0.541097  1
  Sm  Sm4  1  0.333333  0.666667  0.750000  1
  Sm  Sm5  1  0.666667  0.333333  0.250000  1
  Ir  Ir6  1  0.166564  0.833436  0.372804  1
  Ir  Ir7  1  0.166564  0.333128  0.372804  1
  Ir  Ir8  1  0.666872  0.833436  0.372804  1
  Ir  Ir9  1  0.832906  0.167094  0.626717  1
  Ir  Ir10  1  0.832906  0.665811  0.626717  1
  Ir  Ir11  1  0.334189  0.167094  0.626717  1
  Ir  Ir12  1  0.832906  0.167094  0.873283  1
  Ir  Ir13  1  0.832906  0.665811  0.873283  1
  Ir  Ir14  1  0.334189  0.167094  0.873283  1
  Ir  Ir15  1  0.166564  0.833436  0.127196  1
  Ir  Ir16  1  0.166564  0.333128  0.127196  1
  Ir  Ir17  1  0.666872  0.833436  0.127196  1
  Ir  Ir18  1  0.333333  0.666667  0.250000  1
  Ir  Ir19  1  0.000000  0.000000  0.500355  1
  Ir  Ir20  1  0.000000  0.000000  0.999645  1
  Rh  Rh21  1  0.666667  0.333333  0.750000  1
  Rh  Rh22  1  0.000000  0.000000  0.250000  1
  Rh  Rh23  1  0.000000  0.000000  0.750000  1
