# generated using pymatgen
data_NdHo2Ga8Ag3
_symmetry_space_group_name_H-M   'P 1'
_cell_length_a   4.37836955
_cell_length_b   8.38398976
_cell_length_c   8.38399019
_cell_angle_alpha   69.35571311
_cell_angle_beta   74.86376089
_cell_angle_gamma   74.86376617
_symmetry_Int_Tables_number   1
_chemical_formula_structural   NdHo2Ga8Ag3
_chemical_formula_sum   'Nd1 Ho2 Ga8 Ag3'
_cell_volume   273.09578605
_cell_formula_units_Z   1
loop_
 _symmetry_equiv_pos_site_id
 _symmetry_equiv_pos_as_xyz
  1  'x, y, z'
loop_
 _atom_site_type_symbol
 _atom_site_label
 _atom_site_symmetry_multiplicity
 _atom_site_fract_x
 _atom_site_fract_y
 _atom_site_fract_z
 _atom_site_occupancy
  Nd  Nd0  1  0.500000  0.500000  0.500000  1
  Ho  Ho1  1  0.200970  0.799030  0.799030  1
  Ho  Ho2  1  0.799030  0.200970  0.200970  1
  Ga  Ga3  1  0.355721  0.360871  0.927686  1
  Ga  Ga4  1  0.644279  0.639129  0.072314  1
  Ga  Ga5  1  0.355721  0.927686  0.360871  1
  Ga  Ga6  1  0.644279  0.072314  0.639129  1
  Ga  Ga7  1  0.159929  0.472107  0.208033  1
  Ga  Ga8  1  0.840071  0.527893  0.791967  1
  Ga  Ga9  1  0.159929  0.208033  0.472107  1
  Ga  Ga10  1  0.840071  0.791967  0.527893  1
  Ag  Ag11  1  0.500000  0.000000  0.000000  1
  Ag  Ag12  1  0.000000  0.807981  0.192019  1
  Ag  Ag13  1  0.000000  0.192019  0.807981  1
