# generated using pymatgen
data_Ho2Er2Tc3B16W
_symmetry_space_group_name_H-M   'P 1'
_cell_length_a   3.58715900
_cell_length_b   5.97628613
_cell_length_c   11.55581402
_cell_angle_alpha   89.93815316
_cell_angle_beta   90.00000000
_cell_angle_gamma   90.00000000
_symmetry_Int_Tables_number   1
_chemical_formula_structural   Ho2Er2Tc3B16W
_chemical_formula_sum   'Ho2 Er2 Tc3 B16 W1'
_cell_volume   247.73210916
_cell_formula_units_Z   1
loop_
 _symmetry_equiv_pos_site_id
 _symmetry_equiv_pos_as_xyz
  1  'x, y, z'
loop_
 _atom_site_type_symbol
 _atom_site_label
 _atom_site_symmetry_multiplicity
 _atom_site_fract_x
 _atom_site_fract_y
 _atom_site_fract_z
 _atom_site_occupancy
  Ho  Ho0  1  0.000000  0.625879  0.347622  1
  Ho  Ho1  1  0.000000  0.372355  0.652316  1
  Er  Er2  1  0.000000  0.127098  0.147911  1
  Er  Er3  1  0.000000  0.872249  0.852843  1
  Tc  Tc4  1  0.000000  0.635824  0.088694  1
  Tc  Tc5  1  0.000000  0.365287  0.913071  1
  Tc  Tc6  1  0.000000  0.130019  0.414299  1
  B  B7  1  0.500000  0.787635  0.184808  1
  B  B8  1  0.500000  0.213405  0.815965  1
  B  B9  1  0.500000  0.287112  0.313961  1
  B  B10  1  0.500000  0.710000  0.687470  1
  B  B11  1  0.500000  0.864536  0.031221  1
  B  B12  1  0.500000  0.135895  0.969292  1
  B  B13  1  0.500000  0.364994  0.466716  1
  B  B14  1  0.500000  0.632386  0.530532  1
  B  B15  1  0.500000  0.886844  0.450296  1
  B  B16  1  0.500000  0.117356  0.546318  1
  B  B17  1  0.500000  0.386554  0.047269  1
  B  B18  1  0.500000  0.613727  0.953210  1
  B  B19  1  0.500000  0.978322  0.305802  1
  B  B20  1  0.500000  0.024936  0.694530  1
  B  B21  1  0.500000  0.475523  0.192087  1
  B  B22  1  0.500000  0.522794  0.808685  1
  W  W23  1  0.000000  0.869271  0.585083  1
