# generated using pymatgen
data_IrPdSF18
_symmetry_space_group_name_H-M   'P 1'
_cell_length_a   5.06445480
_cell_length_b   8.78958710
_cell_length_c   8.79396857
_cell_angle_alpha   61.11928762
_cell_angle_beta   85.74338485
_cell_angle_gamma   85.54227534
_symmetry_Int_Tables_number   1
_chemical_formula_structural   IrPdSF18
_chemical_formula_sum   'Ir1 Pd1 S1 F18'
_cell_volume   341.43321884
_cell_formula_units_Z   1
loop_
 _symmetry_equiv_pos_site_id
 _symmetry_equiv_pos_as_xyz
  1  'x, y, z'
loop_
 _atom_site_type_symbol
 _atom_site_label
 _atom_site_symmetry_multiplicity
 _atom_site_fract_x
 _atom_site_fract_y
 _atom_site_fract_z
 _atom_site_occupancy
  Ir  Ir0  1  0.408771  0.668079  0.668985  1
  Pd  Pd1  1  0.000786  0.000300  0.999897  1
  S  S2  1  0.589768  0.331737  0.331017  1
  F  F3  1  0.135436  0.895304  0.225891  1
  F  F4  1  0.867412  0.106069  0.773904  1
  F  F5  1  0.867229  0.785256  0.048546  1
  F  F6  1  0.135507  0.214854  0.952353  1
  F  F7  1  0.674097  0.058904  0.084440  1
  F  F8  1  0.327066  0.941209  0.914641  1
  F  F9  1  0.210664  0.582749  0.879499  1
  F  F10  1  0.760168  0.405857  0.151535  1
  F  F11  1  0.606864  0.754238  0.458407  1
  F  F12  1  0.419607  0.257479  0.510575  1
  F  F13  1  0.163391  0.586304  0.579727  1
  F  F14  1  0.799016  0.400335  0.408452  1
  F  F15  1  0.656552  0.748571  0.757746  1
  F  F16  1  0.380744  0.263316  0.253501  1
  F  F17  1  0.213619  0.880607  0.587279  1
  F  F18  1  0.756115  0.150011  0.400939  1
  F  F19  1  0.603487  0.455339  0.751439  1
  F  F20  1  0.423697  0.513479  0.261228  1
