# generated using pymatgen
data_Ho2Er2LuBiAu2
_symmetry_space_group_name_H-M   'P 1'
_cell_length_a   8.65431011
_cell_length_b   8.65430950
_cell_length_c   8.65431005
_cell_angle_alpha   124.28320827
_cell_angle_beta   124.28320497
_cell_angle_gamma   82.72869747
_symmetry_Int_Tables_number   1
_chemical_formula_structural   Ho2Er2LuBiAu2
_chemical_formula_sum   'Ho4 Er4 Lu2 Bi2 Au4'
_cell_volume   424.90338947
_cell_formula_units_Z   2
loop_
 _symmetry_equiv_pos_site_id
 _symmetry_equiv_pos_as_xyz
  1  'x, y, z'
loop_
 _atom_site_type_symbol
 _atom_site_label
 _atom_site_symmetry_multiplicity
 _atom_site_fract_x
 _atom_site_fract_y
 _atom_site_fract_z
 _atom_site_occupancy
  Ho  Ho0  1  0.514198  0.014198  0.809100  1
  Ho  Ho1  1  0.205097  0.705097  0.190900  1
  Ho  Ho2  1  0.014198  0.205097  0.500000  1
  Ho  Ho3  1  0.705097  0.514198  0.500000  1
  Er  Er4  1  0.485628  0.985628  0.191255  1
  Er  Er5  1  0.794374  0.294374  0.808745  1
  Er  Er6  1  0.985628  0.794374  0.500000  1
  Er  Er7  1  0.294374  0.485628  0.500000  1
  Lu  Lu8  1  0.500144  0.500144  0.000000  1
  Lu  Lu9  1  0.000144  0.000144  0.000000  1
  Bi  Bi10  1  0.249995  0.249995  0.000000  1
  Bi  Bi11  1  0.749995  0.749995  0.000000  1
  Au  Au12  1  0.139609  0.639609  0.778652  1
  Au  Au13  1  0.860956  0.360956  0.221348  1
  Au  Au14  1  0.639609  0.860956  0.500000  1
  Au  Au15  1  0.360956  0.139609  0.500000  1
