# generated using pymatgen
data_Ho4HfCu2Pd13
_symmetry_space_group_name_H-M   'P 1'
_cell_length_a   4.10594400
_cell_length_b   4.05182300
_cell_length_c   20.12709600
_cell_angle_alpha   90.00000000
_cell_angle_beta   90.00000000
_cell_angle_gamma   90.00000000
_symmetry_Int_Tables_number   1
_chemical_formula_structural   Ho4HfCu2Pd13
_chemical_formula_sum   'Ho4 Hf1 Cu2 Pd13'
_cell_volume   334.84560674
_cell_formula_units_Z   1
loop_
 _symmetry_equiv_pos_site_id
 _symmetry_equiv_pos_as_xyz
  1  'x, y, z'
loop_
 _atom_site_type_symbol
 _atom_site_label
 _atom_site_symmetry_multiplicity
 _atom_site_fract_x
 _atom_site_fract_y
 _atom_site_fract_z
 _atom_site_occupancy
  Ho  Ho0  1  0.000000  0.000000  0.199082  1
  Ho  Ho1  1  0.000000  0.000000  0.397681  1
  Ho  Ho2  1  0.000000  0.000000  0.602319  1
  Ho  Ho3  1  0.000000  0.000000  0.800918  1
  Hf  Hf4  1  0.000000  0.000000  0.000000  1
  Cu  Cu5  1  0.500000  0.500000  0.000000  1
  Cu  Cu6  1  0.500000  0.000000  0.500000  1
  Pd  Pd7  1  0.500000  0.500000  0.194037  1
  Pd  Pd8  1  0.500000  0.500000  0.401774  1
  Pd  Pd9  1  0.500000  0.500000  0.598226  1
  Pd  Pd10  1  0.500000  0.500000  0.805963  1
  Pd  Pd11  1  0.500000  0.000000  0.090470  1
  Pd  Pd12  1  0.500000  0.000000  0.298092  1
  Pd  Pd13  1  0.500000  0.000000  0.701908  1
  Pd  Pd14  1  0.500000  0.000000  0.909530  1
  Pd  Pd15  1  0.000000  0.500000  0.090676  1
  Pd  Pd16  1  0.000000  0.500000  0.298042  1
  Pd  Pd17  1  0.000000  0.500000  0.500000  1
  Pd  Pd18  1  0.000000  0.500000  0.701958  1
  Pd  Pd19  1  0.000000  0.500000  0.909324  1
