# generated using pymatgen
data_CaPr(OsO3)6
_symmetry_space_group_name_H-M   'P 1'
_cell_length_a   7.46491200
_cell_length_b   5.35624493
_cell_length_c   8.19061903
_cell_angle_alpha   85.88680835
_cell_angle_beta   90.00000000
_cell_angle_gamma   90.00000000
_symmetry_Int_Tables_number   1
_chemical_formula_structural   CaPr(OsO3)6
_chemical_formula_sum   'Ca1 Pr1 Os6 O18'
_cell_volume   326.64934312
_cell_formula_units_Z   1
loop_
 _symmetry_equiv_pos_site_id
 _symmetry_equiv_pos_as_xyz
  1  'x, y, z'
loop_
 _atom_site_type_symbol
 _atom_site_label
 _atom_site_symmetry_multiplicity
 _atom_site_fract_x
 _atom_site_fract_y
 _atom_site_fract_z
 _atom_site_occupancy
  Ca  Ca0  1  0.250000  0.970215  0.424813  1
  Pr  Pr1  1  0.750000  0.030299  0.567788  1
  Os  Os2  1  0.494449  0.536027  0.692992  1
  Os  Os3  1  0.005551  0.536027  0.692992  1
  Os  Os4  1  0.999286  0.464715  0.305972  1
  Os  Os5  1  0.999818  0.001616  0.001681  1
  Os  Os6  1  0.500714  0.464715  0.305972  1
  Os  Os7  1  0.500182  0.001616  0.001681  1
  O  O8  1  0.967217  0.695640  0.124868  1
  O  O9  1  0.031025  0.307893  0.878418  1
  O  O10  1  0.059068  0.157412  0.209896  1
  O  O11  1  0.750000  0.370671  0.322270  1
  O  O12  1  0.034999  0.269464  0.525155  1
  O  O13  1  0.440932  0.157412  0.209896  1
  O  O14  1  0.532783  0.695640  0.124868  1
  O  O15  1  0.531654  0.729420  0.473723  1
  O  O16  1  0.750000  0.067843  0.017078  1
  O  O17  1  0.942144  0.845893  0.790265  1
  O  O18  1  0.750000  0.438526  0.686386  1
  O  O19  1  0.557856  0.845893  0.790265  1
  O  O20  1  0.250000  0.566848  0.308576  1
  O  O21  1  0.468975  0.307893  0.878418  1
  O  O22  1  0.968346  0.729420  0.473723  1
  O  O23  1  0.465001  0.269464  0.525155  1
  O  O24  1  0.250000  0.606697  0.684352  1
  O  O25  1  0.250000  0.932742  0.982798  1
