# generated using pymatgen
data_V4Cr5Ga2Si
_symmetry_space_group_name_H-M   'P 1'
_cell_length_a   4.64980435
_cell_length_b   4.65016468
_cell_length_c   13.88121400
_cell_angle_alpha   90.03049506
_cell_angle_beta   90.02234013
_cell_angle_gamma   90.22235001
_symmetry_Int_Tables_number   1
_chemical_formula_structural   V4Cr5Ga2Si
_chemical_formula_sum   'V8 Cr10 Ga4 Si2'
_cell_volume   300.14222467
_cell_formula_units_Z   2
loop_
 _symmetry_equiv_pos_site_id
 _symmetry_equiv_pos_as_xyz
  1  'x, y, z'
loop_
 _atom_site_type_symbol
 _atom_site_label
 _atom_site_symmetry_multiplicity
 _atom_site_fract_x
 _atom_site_fract_y
 _atom_site_fract_z
 _atom_site_occupancy
  V  V0  1  0.500693  0.998691  0.414199  1
  V  V1  1  0.500278  0.999022  0.747240  1
  V  V2  1  0.244480  0.501124  0.000212  1
  V  V3  1  0.243149  0.500437  0.332926  1
  V  V4  1  0.242480  0.500137  0.665957  1
  V  V5  1  0.998360  0.244173  0.168767  1
  V  V6  1  0.998253  0.242255  0.500054  1
  V  V7  1  0.997701  0.243557  0.831456  1
  Cr  Cr8  1  0.500256  0.999717  0.251893  1
  Cr  Cr9  1  0.500496  0.998772  0.585710  1
  Cr  Cr10  1  0.500961  0.999291  0.920240  1
  Cr  Cr11  1  0.756916  0.500519  0.000468  1
  Cr  Cr12  1  0.759426  0.500293  0.333006  1
  Cr  Cr13  1  0.759766  0.499803  0.665840  1
  Cr  Cr14  1  0.998598  0.755116  0.169223  1
  Cr  Cr15  1  0.999571  0.759208  0.500090  1
  Cr  Cr16  1  0.999202  0.758049  0.831020  1
  Cr  Cr17  1  0.500648  0.999468  0.081580  1
  Ga  Ga18  1  0.500202  0.501236  0.166723  1
  Ga  Ga19  1  0.500486  0.500230  0.500110  1
  Ga  Ga20  1  0.500074  0.500957  0.833429  1
  Ga  Ga21  1  0.999127  0.999213  0.000279  1
  Si  Si22  1  0.999601  0.999652  0.333598  1
  Si  Si23  1  0.999276  0.999081  0.665981  1
