# generated using pymatgen
data_TmH2Cl
_symmetry_space_group_name_H-M   'P 1'
_cell_length_a   10.14030010
_cell_length_b   10.14030017
_cell_length_c   10.14029921
_cell_angle_alpha   20.69334014
_cell_angle_beta   20.69334048
_cell_angle_gamma   20.69334199
_symmetry_Int_Tables_number   1
_chemical_formula_structural   TmH2Cl
_chemical_formula_sum   'Tm2 H4 Cl2'
_cell_volume   113.97949171
_cell_formula_units_Z   2
loop_
 _symmetry_equiv_pos_site_id
 _symmetry_equiv_pos_as_xyz
  1  'x, y, z'
loop_
 _atom_site_type_symbol
 _atom_site_label
 _atom_site_symmetry_multiplicity
 _atom_site_fract_x
 _atom_site_fract_y
 _atom_site_fract_z
 _atom_site_occupancy
  Tm  Tm0  1  0.886533  0.886533  0.886533  1
  Tm  Tm1  1  0.113467  0.113467  0.113467  1
  H  H2  1  0.813608  0.813608  0.813608  1
  H  H3  1  0.186392  0.186392  0.186392  1
  H  H4  1  0.546162  0.546162  0.546162  1
  H  H5  1  0.453838  0.453838  0.453838  1
  Cl  Cl6  1  0.721183  0.721183  0.721183  1
  Cl  Cl7  1  0.278817  0.278817  0.278817  1
