# generated using pymatgen
data_LiNd3In3NiAg
_symmetry_space_group_name_H-M   'P 1'
_cell_length_a   7.86814200
_cell_length_b   7.86814213
_cell_length_c   3.98608200
_cell_angle_alpha   90.00000000
_cell_angle_beta   90.00000000
_cell_angle_gamma   119.99999946
_symmetry_Int_Tables_number   1
_chemical_formula_structural   LiNd3In3NiAg
_chemical_formula_sum   'Li1 Nd3 In3 Ni1 Ag1'
_cell_volume   213.70823038
_cell_formula_units_Z   1
loop_
 _symmetry_equiv_pos_site_id
 _symmetry_equiv_pos_as_xyz
  1  'x, y, z'
loop_
 _atom_site_type_symbol
 _atom_site_label
 _atom_site_symmetry_multiplicity
 _atom_site_fract_x
 _atom_site_fract_y
 _atom_site_fract_z
 _atom_site_occupancy
  Li  Li0  1  0.000000  0.000000  0.500000  1
  Nd  Nd1  1  0.406500  0.428596  0.500000  1
  Nd  Nd2  1  0.571404  0.977905  0.500000  1
  Nd  Nd3  1  0.022095  0.593500  0.500000  1
  In  In4  1  0.750666  0.750671  0.000000  1
  In  In5  1  0.249329  0.999995  0.000000  1
  In  In6  1  0.000005  0.249334  0.000000  1
  Ni  Ni7  1  0.333333  0.666667  0.000000  1
  Ag  Ag8  1  0.666667  0.333333  0.000000  1
