# generated using pymatgen
data_LuW(SeO3)4
_symmetry_space_group_name_H-M   'P 1'
_cell_length_a   8.62402300
_cell_length_b   8.83802401
_cell_length_c   8.42693072
_cell_angle_alpha   90.25322950
_cell_angle_beta   90.00000000
_cell_angle_gamma   90.00000000
_symmetry_Int_Tables_number   1
_chemical_formula_structural   LuW(SeO3)4
_chemical_formula_sum   'Lu2 W2 Se8 O24'
_cell_volume   642.28867588
_cell_formula_units_Z   2
loop_
 _symmetry_equiv_pos_site_id
 _symmetry_equiv_pos_as_xyz
  1  'x, y, z'
loop_
 _atom_site_type_symbol
 _atom_site_label
 _atom_site_symmetry_multiplicity
 _atom_site_fract_x
 _atom_site_fract_y
 _atom_site_fract_z
 _atom_site_occupancy
  Lu  Lu0  1  0.000000  0.500000  0.000000  1
  Lu  Lu1  1  0.500000  0.500000  0.500000  1
  W  W2  1  0.000000  0.000000  0.500000  1
  W  W3  1  0.500000  0.000000  0.000000  1
  Se  Se4  1  0.328173  0.688487  0.172623  1
  Se  Se5  1  0.828173  0.311513  0.327377  1
  Se  Se6  1  0.690162  0.831598  0.693497  1
  Se  Se7  1  0.190162  0.168402  0.806503  1
  Se  Se8  1  0.671827  0.311513  0.827377  1
  Se  Se9  1  0.171827  0.688487  0.672623  1
  Se  Se10  1  0.309838  0.168402  0.306503  1
  Se  Se11  1  0.809838  0.831598  0.193497  1
  O  O12  1  0.239619  0.563214  0.050760  1
  O  O13  1  0.739619  0.436786  0.449240  1
  O  O14  1  0.773521  0.951016  0.550419  1
  O  O15  1  0.273521  0.048984  0.949581  1
  O  O16  1  0.551718  0.962828  0.768104  1
  O  O17  1  0.471262  0.586446  0.257108  1
  O  O18  1  0.971262  0.413554  0.242892  1
  O  O19  1  0.051718  0.037172  0.731896  1
  O  O20  1  0.942044  0.212266  0.477664  1
  O  O21  1  0.574026  0.727446  0.576664  1
  O  O22  1  0.442044  0.787734  0.022336  1
  O  O23  1  0.074026  0.272554  0.923336  1
  O  O24  1  0.760381  0.436786  0.949240  1
  O  O25  1  0.260381  0.563214  0.550760  1
  O  O26  1  0.226479  0.048984  0.449581  1
  O  O27  1  0.726479  0.951016  0.050419  1
  O  O28  1  0.448282  0.037172  0.231896  1
  O  O29  1  0.528738  0.413554  0.742892  1
  O  O30  1  0.028738  0.586446  0.757108  1
  O  O31  1  0.948282  0.962828  0.268104  1
  O  O32  1  0.057956  0.787734  0.522336  1
  O  O33  1  0.425974  0.272554  0.423336  1
  O  O34  1  0.557956  0.212266  0.977664  1
  O  O35  1  0.925974  0.727446  0.076664  1
