# generated using pymatgen
data_NdDySi5(PRh6)2
_symmetry_space_group_name_H-M   'P 1'
_cell_length_a   9.72612967
_cell_length_b   9.68579189
_cell_length_c   3.86306833
_cell_angle_alpha   89.99090231
_cell_angle_beta   90.02200764
_cell_angle_gamma   119.66788529
_symmetry_Int_Tables_number   1
_chemical_formula_structural   NdDySi5(PRh6)2
_chemical_formula_sum   'Nd1 Dy1 Si5 P2 Rh12'
_cell_volume   316.21457634
_cell_formula_units_Z   1
loop_
 _symmetry_equiv_pos_site_id
 _symmetry_equiv_pos_as_xyz
  1  'x, y, z'
loop_
 _atom_site_type_symbol
 _atom_site_label
 _atom_site_symmetry_multiplicity
 _atom_site_fract_x
 _atom_site_fract_y
 _atom_site_fract_z
 _atom_site_occupancy
  Nd  Nd0  1  0.332458  0.665494  0.740274  1
  Dy  Dy1  1  0.666054  0.334877  0.241646  1
  Si  Si2  1  0.000109  0.997671  0.675261  1
  Si  Si3  1  0.399865  0.288802  0.741022  1
  Si  Si4  1  0.711679  0.113447  0.741975  1
  Si  Si5  1  0.886875  0.600081  0.741253  1
  Si  Si6  1  0.602280  0.709162  0.240947  1
  P  P7  1  0.291074  0.891336  0.239721  1
  P  P8  1  0.107961  0.397638  0.240299  1
  Rh  Rh9  1  0.445902  0.068764  0.741654  1
  Rh  Rh10  1  0.933003  0.379315  0.742035  1
  Rh  Rh11  1  0.621383  0.555750  0.741745  1
  Rh  Rh12  1  0.555741  0.942652  0.240969  1
  Rh  Rh13  1  0.059661  0.614538  0.240013  1
  Rh  Rh14  1  0.380235  0.439220  0.240060  1
  Rh  Rh15  1  0.147175  0.271696  0.739685  1
  Rh  Rh16  1  0.728644  0.878076  0.740064  1
  Rh  Rh17  1  0.126562  0.848291  0.739290  1
  Rh  Rh18  1  0.867383  0.753227  0.244014  1
  Rh  Rh19  1  0.248024  0.108193  0.243512  1
  Rh  Rh20  1  0.887932  0.141772  0.244562  1
