# generated using pymatgen
data_LaScCoNi7B2
_symmetry_space_group_name_H-M   'P 1'
_cell_length_a   4.99129514
_cell_length_b   4.96135141
_cell_length_c   6.98903600
_cell_angle_alpha   90.00000000
_cell_angle_beta   90.00000000
_cell_angle_gamma   119.80173869
_symmetry_Int_Tables_number   1
_chemical_formula_structural   LaScCoNi7B2
_chemical_formula_sum   'La1 Sc1 Co1 Ni7 B2'
_cell_volume   150.18457362
_cell_formula_units_Z   1
loop_
 _symmetry_equiv_pos_site_id
 _symmetry_equiv_pos_as_xyz
  1  'x, y, z'
loop_
 _atom_site_type_symbol
 _atom_site_label
 _atom_site_symmetry_multiplicity
 _atom_site_fract_x
 _atom_site_fract_y
 _atom_site_fract_z
 _atom_site_occupancy
  La  La0  1  0.000000  0.000000  0.002174  1
  Sc  Sc1  1  0.000000  0.000000  0.496861  1
  Co  Co2  1  0.000000  0.500000  0.302043  1
  Ni  Ni3  1  0.326277  0.663139  0.000608  1
  Ni  Ni4  1  0.673723  0.336861  0.000608  1
  Ni  Ni5  1  0.500000  0.000000  0.297443  1
  Ni  Ni6  1  0.500000  0.500000  0.297443  1
  Ni  Ni7  1  0.500000  0.000000  0.701786  1
  Ni  Ni8  1  0.500000  0.500000  0.701786  1
  Ni  Ni9  1  0.000000  0.500000  0.701430  1
  B  B10  1  0.671143  0.335571  0.498909  1
  B  B11  1  0.328857  0.664429  0.498909  1
