# generated using pymatgen
data_DyLu15(CoAg)4
_symmetry_space_group_name_H-M   'P 1'
_cell_length_a   9.21868919
_cell_length_b   9.21868913
_cell_length_c   9.21760500
_cell_angle_alpha   60.00389374
_cell_angle_beta   60.00389396
_cell_angle_gamma   60.02713213
_symmetry_Int_Tables_number   1
_chemical_formula_structural   DyLu15(CoAg)4
_chemical_formula_sum   'Dy1 Lu15 Co4 Ag4'
_cell_volume   554.05895798
_cell_formula_units_Z   1
loop_
 _symmetry_equiv_pos_site_id
 _symmetry_equiv_pos_as_xyz
  1  'x, y, z'
loop_
 _atom_site_type_symbol
 _atom_site_label
 _atom_site_symmetry_multiplicity
 _atom_site_fract_x
 _atom_site_fract_y
 _atom_site_fract_z
 _atom_site_occupancy
  Dy  Dy0  1  0.311592  0.311592  0.688408  1
  Lu  Lu1  1  0.152501  0.542425  0.152536  1
  Lu  Lu2  1  0.688842  0.311751  0.688139  1
  Lu  Lu3  1  0.688842  0.311751  0.311268  1
  Lu  Lu4  1  0.937028  0.562794  0.562375  1
  Lu  Lu5  1  0.542425  0.152501  0.152536  1
  Lu  Lu6  1  0.152387  0.152387  0.542144  1
  Lu  Lu7  1  0.937525  0.937525  0.562475  1
  Lu  Lu8  1  0.311751  0.688842  0.311268  1
  Lu  Lu9  1  0.562794  0.937028  0.937804  1
  Lu  Lu10  1  0.562794  0.937028  0.562375  1
  Lu  Lu11  1  0.688254  0.688254  0.311746  1
  Lu  Lu12  1  0.562445  0.562445  0.937555  1
  Lu  Lu13  1  0.937028  0.562794  0.937804  1
  Lu  Lu14  1  0.311751  0.688842  0.688139  1
  Lu  Lu15  1  0.152387  0.152387  0.153081  1
  Co  Co16  1  0.358737  0.358737  0.924022  1
  Co  Co17  1  0.358792  0.923700  0.358754  1
  Co  Co18  1  0.923700  0.358792  0.358754  1
  Co  Co19  1  0.358737  0.358737  0.358504  1
  Ag  Ag20  1  0.918114  0.244609  0.918639  1
  Ag  Ag21  1  0.918484  0.918484  0.918451  1
  Ag  Ag22  1  0.918484  0.918484  0.244582  1
  Ag  Ag23  1  0.244609  0.918114  0.918639  1
