# generated using pymatgen
data_ZrGaNi3Pd
_symmetry_space_group_name_H-M   'P 1'
_cell_length_a   4.84124660
_cell_length_b   4.84124627
_cell_length_c   4.84124749
_cell_angle_alpha   60.82911841
_cell_angle_beta   60.82911719
_cell_angle_gamma   60.82911907
_symmetry_Int_Tables_number   1
_chemical_formula_structural   ZrGaNi3Pd
_chemical_formula_sum   'Zr1 Ga1 Ni3 Pd1'
_cell_volume   81.73382197
_cell_formula_units_Z   1
loop_
 _symmetry_equiv_pos_site_id
 _symmetry_equiv_pos_as_xyz
  1  'x, y, z'
loop_
 _atom_site_type_symbol
 _atom_site_label
 _atom_site_symmetry_multiplicity
 _atom_site_fract_x
 _atom_site_fract_y
 _atom_site_fract_z
 _atom_site_occupancy
  Zr  Zr0  1  0.746092  0.746092  0.746092  1
  Ga  Ga1  1  0.127590  0.127590  0.127590  1
  Ni  Ni2  1  0.624425  0.126533  0.126533  1
  Ni  Ni3  1  0.126533  0.624425  0.126533  1
  Ni  Ni4  1  0.126533  0.126533  0.624425  1
  Pd  Pd5  1  0.498829  0.498829  0.498829  1
