# generated using pymatgen
data_Hf5ScAl6(ZnPt2)2
_symmetry_space_group_name_H-M   'P 1'
_cell_length_a   6.71779632
_cell_length_b   6.71364007
_cell_length_c   8.09615000
_cell_angle_alpha   90.00000000
_cell_angle_beta   90.00000000
_cell_angle_gamma   119.89050496
_symmetry_Int_Tables_number   1
_chemical_formula_structural   Hf5ScAl6(ZnPt2)2
_chemical_formula_sum   'Hf5 Sc1 Al6 Zn2 Pt4'
_cell_volume   316.57176952
_cell_formula_units_Z   1
loop_
 _symmetry_equiv_pos_site_id
 _symmetry_equiv_pos_as_xyz
  1  'x, y, z'
loop_
 _atom_site_type_symbol
 _atom_site_label
 _atom_site_symmetry_multiplicity
 _atom_site_fract_x
 _atom_site_fract_y
 _atom_site_fract_z
 _atom_site_occupancy
  Hf  Hf0  1  0.002304  0.583596  0.750000  1
  Hf  Hf1  1  0.415571  0.420721  0.750000  1
  Hf  Hf2  1  0.000487  0.582774  0.250000  1
  Hf  Hf3  1  0.580777  0.998039  0.250000  1
  Hf  Hf4  1  0.417869  0.419259  0.250000  1
  Sc  Sc5  1  0.581370  0.997985  0.750000  1
  Al  Al6  1  0.751911  0.755505  0.999591  1
  Al  Al7  1  0.244740  0.996547  0.000253  1
  Al  Al8  1  0.003675  0.247622  0.999302  1
  Al  Al9  1  0.751911  0.755505  0.500409  1
  Al  Al10  1  0.244740  0.996547  0.499747  1
  Al  Al11  1  0.003675  0.247622  0.500698  1
  Zn  Zn12  1  0.666861  0.333828  0.000015  1
  Zn  Zn13  1  0.666861  0.333828  0.499985  1
  Pt  Pt14  1  0.003253  0.000044  0.750000  1
  Pt  Pt15  1  0.999814  0.000559  0.250000  1
  Pt  Pt16  1  0.332091  0.665009  0.497599  1
  Pt  Pt17  1  0.332091  0.665009  0.002402  1
