# generated using pymatgen
data_Sc4Zn2CrOs5
_symmetry_space_group_name_H-M   'P 1'
_cell_length_a   5.27359711
_cell_length_b   5.12428008
_cell_length_c   8.60319000
_cell_angle_alpha   90.00000000
_cell_angle_beta   90.00000000
_cell_angle_gamma   121.86594688
_symmetry_Int_Tables_number   1
_chemical_formula_structural   Sc4Zn2CrOs5
_chemical_formula_sum   'Sc4 Zn2 Cr1 Os5'
_cell_volume   197.44815781
_cell_formula_units_Z   1
loop_
 _symmetry_equiv_pos_site_id
 _symmetry_equiv_pos_as_xyz
  1  'x, y, z'
loop_
 _atom_site_type_symbol
 _atom_site_label
 _atom_site_symmetry_multiplicity
 _atom_site_fract_x
 _atom_site_fract_y
 _atom_site_fract_z
 _atom_site_occupancy
  Sc  Sc0  1  0.324115  0.668188  0.445788  1
  Sc  Sc1  1  0.664121  0.340982  0.569536  1
  Sc  Sc2  1  0.664121  0.340982  0.930464  1
  Sc  Sc3  1  0.324115  0.668188  0.054212  1
  Zn  Zn4  1  0.353957  0.159705  0.250000  1
  Zn  Zn5  1  0.844249  0.647121  0.250000  1
  Cr  Cr6  1  0.166312  0.332722  0.750000  1
  Os  Os7  1  0.170926  0.821380  0.750000  1
  Os  Os8  1  0.654231  0.825924  0.750000  1
  Os  Os9  1  0.996266  0.021479  0.999900  1
  Os  Os10  1  0.841320  0.151852  0.250000  1
  Os  Os11  1  0.996266  0.021479  0.500100  1
