# generated using pymatgen
data_TbSc2Ga5Pt
_symmetry_space_group_name_H-M   'P 1'
_cell_length_a   6.80917400
_cell_length_b   6.80917327
_cell_length_c   4.16592400
_cell_angle_alpha   90.00000000
_cell_angle_beta   90.00000000
_cell_angle_gamma   120.73271822
_symmetry_Int_Tables_number   1
_chemical_formula_structural   TbSc2Ga5Pt
_chemical_formula_sum   'Tb1 Sc2 Ga5 Pt1'
_cell_volume   166.02621087
_cell_formula_units_Z   1
loop_
 _symmetry_equiv_pos_site_id
 _symmetry_equiv_pos_as_xyz
  1  'x, y, z'
loop_
 _atom_site_type_symbol
 _atom_site_label
 _atom_site_symmetry_multiplicity
 _atom_site_fract_x
 _atom_site_fract_y
 _atom_site_fract_z
 _atom_site_occupancy
  Tb  Tb0  1  0.419949  0.419949  0.000000  1
  Sc  Sc1  1  0.587233  0.003569  0.000000  1
  Sc  Sc2  1  0.003569  0.587233  0.000000  1
  Ga  Ga3  1  0.244930  0.998392  0.500000  1
  Ga  Ga4  1  0.998392  0.244930  0.500000  1
  Ga  Ga5  1  0.754562  0.754562  0.500000  1
  Ga  Ga6  1  0.330257  0.673552  0.500000  1
  Ga  Ga7  1  0.673552  0.330257  0.500000  1
  Pt  Pt8  1  0.987556  0.987556  0.000000  1
