# generated using pymatgen
data_KRb3Br16
_symmetry_space_group_name_H-M   'P 1'
_cell_length_a   8.18947546
_cell_length_b   9.71411510
_cell_length_c   10.53154512
_cell_angle_alpha   67.92104203
_cell_angle_beta   89.63565010
_cell_angle_gamma   90.25617634
_symmetry_Int_Tables_number   1
_chemical_formula_structural   KRb3Br16
_chemical_formula_sum   'K1 Rb3 Br16'
_cell_volume   776.34419721
_cell_formula_units_Z   1
loop_
 _symmetry_equiv_pos_site_id
 _symmetry_equiv_pos_as_xyz
  1  'x, y, z'
loop_
 _atom_site_type_symbol
 _atom_site_label
 _atom_site_symmetry_multiplicity
 _atom_site_fract_x
 _atom_site_fract_y
 _atom_site_fract_z
 _atom_site_occupancy
  K  K0  1  0.881387  0.737836  0.201731  1
  Rb  Rb1  1  0.623262  0.732885  0.700115  1
  Rb  Rb2  1  0.122357  0.268642  0.799072  1
  Rb  Rb3  1  0.377029  0.266260  0.299020  1
  Br  Br4  1  0.365157  0.545434  0.511709  1
  Br  Br5  1  0.863668  0.457112  0.985425  1
  Br  Br6  1  0.637132  0.458296  0.481671  1
  Br  Br7  1  0.135310  0.544481  0.017147  1
  Br  Br8  1  0.036213  0.664597  0.554697  1
  Br  Br9  1  0.537331  0.337888  0.939945  1
  Br  Br10  1  0.960681  0.340243  0.438936  1
  Br  Br11  1  0.463568  0.662459  0.060833  1
  Br  Br12  1  0.203505  0.869418  0.607747  1
  Br  Br13  1  0.703731  0.129039  0.894024  1
  Br  Br14  1  0.796852  0.131764  0.387251  1
  Br  Br15  1  0.293529  0.866398  0.111617  1
  Br  Br16  1  0.377266  0.056973  0.659808  1
  Br  Br17  1  0.875930  0.936204  0.851076  1
  Br  Br18  1  0.628048  0.940188  0.337829  1
  Br  Br19  1  0.118046  0.053879  0.160348  1
