# generated using pymatgen
data_Er12Ni5Sn
_symmetry_space_group_name_H-M   'P 1'
_cell_length_a   8.23297669
_cell_length_b   8.23297637
_cell_length_c   8.23297686
_cell_angle_alpha   106.98063686
_cell_angle_beta   109.84387448
_cell_angle_gamma   111.62272648
_symmetry_Int_Tables_number   1
_chemical_formula_structural   Er12Ni5Sn
_chemical_formula_sum   'Er12 Ni5 Sn1'
_cell_volume   428.87081365
_cell_formula_units_Z   1
loop_
 _symmetry_equiv_pos_site_id
 _symmetry_equiv_pos_as_xyz
  1  'x, y, z'
loop_
 _atom_site_type_symbol
 _atom_site_label
 _atom_site_symmetry_multiplicity
 _atom_site_fract_x
 _atom_site_fract_y
 _atom_site_fract_z
 _atom_site_occupancy
  Er  Er0  1  0.476187  0.294247  0.181940  1
  Er  Er1  1  0.112308  0.294247  0.818060  1
  Er  Er2  1  0.887692  0.705753  0.181940  1
  Er  Er3  1  0.523813  0.705753  0.818060  1
  Er  Er4  1  0.306101  0.628057  0.321956  1
  Er  Er5  1  0.306101  0.984146  0.678044  1
  Er  Er6  1  0.693899  0.371943  0.678044  1
  Er  Er7  1  0.693899  0.015854  0.321956  1
  Er  Er8  1  0.191396  0.211980  0.403376  1
  Er  Er9  1  0.808604  0.788020  0.596624  1
  Er  Er10  1  0.191396  0.788020  0.979415  1
  Er  Er11  1  0.808604  0.211980  0.020585  1
  Ni  Ni12  1  0.500000  0.624350  0.124350  1
  Ni  Ni13  1  0.500000  0.375650  0.875650  1
  Ni  Ni14  1  0.364193  0.000000  0.364193  1
  Ni  Ni15  1  0.635807  0.000000  0.635807  1
  Ni  Ni16  1  0.000000  0.000000  0.000000  1
  Sn  Sn17  1  0.000000  0.500000  0.500000  1
