# generated using pymatgen
data_Tb4Dy3HoAl4
_symmetry_space_group_name_H-M   'P 1'
_cell_length_a   5.11456300
_cell_length_b   6.56306105
_cell_length_c   9.45186301
_cell_angle_alpha   90.03524842
_cell_angle_beta   90.00000000
_cell_angle_gamma   90.00000000
_symmetry_Int_Tables_number   1
_chemical_formula_structural   Tb4Dy3HoAl4
_chemical_formula_sum   'Tb4 Dy3 Ho1 Al4'
_cell_volume   317.27241390
_cell_formula_units_Z   1
loop_
 _symmetry_equiv_pos_site_id
 _symmetry_equiv_pos_as_xyz
  1  'x, y, z'
loop_
 _atom_site_type_symbol
 _atom_site_label
 _atom_site_symmetry_multiplicity
 _atom_site_fract_x
 _atom_site_fract_y
 _atom_site_fract_z
 _atom_site_occupancy
  Tb  Tb0  1  0.750000  0.688268  0.426872  1
  Tb  Tb1  1  0.250000  0.311799  0.572701  1
  Tb  Tb2  1  0.750000  0.187836  0.073157  1
  Tb  Tb3  1  0.250000  0.812117  0.927266  1
  Dy  Dy4  1  0.750000  0.527796  0.789934  1
  Dy  Dy5  1  0.250000  0.472207  0.209994  1
  Dy  Dy6  1  0.750000  0.027872  0.710248  1
  Ho  Ho7  1  0.250000  0.972338  0.290082  1
  Al  Al8  1  0.750000  0.208314  0.397457  1
  Al  Al9  1  0.250000  0.791468  0.602238  1
  Al  Al10  1  0.750000  0.708569  0.102552  1
  Al  Al11  1  0.250000  0.291417  0.897500  1
