# generated using pymatgen
data_YEr7Sc12Si15Ru
_symmetry_space_group_name_H-M   'P 1'
_cell_length_a   7.04456206
_cell_length_b   7.41587070
_cell_length_c   13.89338118
_cell_angle_alpha   90.01736904
_cell_angle_beta   90.00632596
_cell_angle_gamma   90.23234848
_symmetry_Int_Tables_number   1
_chemical_formula_structural   YEr7Sc12Si15Ru
_chemical_formula_sum   'Y1 Er7 Sc12 Si15 Ru1'
_cell_volume   725.80591895
_cell_formula_units_Z   1
loop_
 _symmetry_equiv_pos_site_id
 _symmetry_equiv_pos_as_xyz
  1  'x, y, z'
loop_
 _atom_site_type_symbol
 _atom_site_label
 _atom_site_symmetry_multiplicity
 _atom_site_fract_x
 _atom_site_fract_y
 _atom_site_fract_z
 _atom_site_occupancy
  Y  Y0  1  0.010872  0.178678  0.095528  1
  Er  Er1  1  0.991300  0.826585  0.904576  1
  Er  Er2  1  0.489398  0.677394  0.904437  1
  Er  Er3  1  0.991332  0.826713  0.595292  1
  Er  Er4  1  0.510815  0.322273  0.095944  1
  Er  Er5  1  0.011253  0.179181  0.404074  1
  Er  Er6  1  0.510896  0.322104  0.404160  1
  Er  Er7  1  0.489349  0.677376  0.595512  1
  Sc  Sc8  1  0.158173  0.503192  0.749987  1
  Sc  Sc9  1  0.837567  0.494987  0.250181  1
  Sc  Sc10  1  0.339232  0.005712  0.250165  1
  Sc  Sc11  1  0.670015  0.997774  0.749994  1
  Sc  Sc12  1  0.316719  0.171862  0.627949  1
  Sc  Sc13  1  0.671547  0.825408  0.374148  1
  Sc  Sc14  1  0.171100  0.677883  0.374242  1
  Sc  Sc15  1  0.671413  0.825252  0.125971  1
  Sc  Sc16  1  0.837653  0.320004  0.627621  1
  Sc  Sc17  1  0.316905  0.171834  0.871937  1
  Sc  Sc18  1  0.837417  0.320256  0.872187  1
  Sc  Sc19  1  0.171134  0.677817  0.125850  1
  Si  Si20  1  0.968501  0.885697  0.250263  1
  Si  Si21  1  0.469198  0.612860  0.250057  1
  Si  Si22  1  0.529496  0.389457  0.749964  1
  Si  Si23  1  0.286709  0.865593  0.749980  1
  Si  Si24  1  0.712818  0.130780  0.250351  1
  Si  Si25  1  0.214494  0.370241  0.250464  1
  Si  Si26  1  0.779826  0.628394  0.749965  1
  Si  Si27  1  0.160835  0.468531  0.537393  1
  Si  Si28  1  0.842781  0.535371  0.461638  1
  Si  Si29  1  0.343269  0.966191  0.460361  1
  Si  Si30  1  0.842419  0.536193  0.038153  1
  Si  Si31  1  0.656890  0.034486  0.538707  1
  Si  Si32  1  0.160999  0.469213  0.962315  1
  Si  Si33  1  0.656674  0.034347  0.961155  1
  Si  Si34  1  0.344281  0.965570  0.039479  1
  Ru  Ru35  1  0.026720  0.104792  0.749999  1
