# generated using pymatgen
data_RbGd(SO4)2
_symmetry_space_group_name_H-M   'P 1'
_cell_length_a   5.24993497
_cell_length_b   5.25017363
_cell_length_c   8.70309063
_cell_angle_alpha   93.48664567
_cell_angle_beta   93.48614370
_cell_angle_gamma   64.16479594
_symmetry_Int_Tables_number   1
_chemical_formula_structural   RbGd(SO4)2
_chemical_formula_sum   'Rb1 Gd1 S2 O8'
_cell_volume   215.35097054
_cell_formula_units_Z   1
loop_
 _symmetry_equiv_pos_site_id
 _symmetry_equiv_pos_as_xyz
  1  'x, y, z'
loop_
 _atom_site_type_symbol
 _atom_site_label
 _atom_site_symmetry_multiplicity
 _atom_site_fract_x
 _atom_site_fract_y
 _atom_site_fract_z
 _atom_site_occupancy
  Rb  Rb0  1  0.000000  0.000000  0.500000  1
  Gd  Gd1  1  0.000000  0.000000  0.000000  1
  S  S2  1  0.370239  0.370224  0.212742  1
  S  S3  1  0.629762  0.629777  0.787258  1
  O  O4  1  0.245693  0.245675  0.087349  1
  O  O5  1  0.683474  0.247666  0.190012  1
  O  O6  1  0.247690  0.683442  0.190015  1
  O  O7  1  0.314223  0.314206  0.366116  1
  O  O8  1  0.685778  0.685795  0.633884  1
  O  O9  1  0.752310  0.316558  0.809986  1
  O  O10  1  0.316526  0.752334  0.809989  1
  O  O11  1  0.754307  0.754325  0.912651  1
