# generated using pymatgen
data_La8Tm12Si15Tc
_symmetry_space_group_name_H-M   'P 1'
_cell_length_a   7.69431200
_cell_length_b   7.74088546
_cell_length_c   14.20234900
_cell_angle_alpha   89.77919168
_cell_angle_beta   90.00156377
_cell_angle_gamma   90.16467947
_symmetry_Int_Tables_number   1
_chemical_formula_structural   La8Tm12Si15Tc
_chemical_formula_sum   'La8 Tm12 Si15 Tc1'
_cell_volume   845.89332032
_cell_formula_units_Z   1
loop_
 _symmetry_equiv_pos_site_id
 _symmetry_equiv_pos_as_xyz
  1  'x, y, z'
loop_
 _atom_site_type_symbol
 _atom_site_label
 _atom_site_symmetry_multiplicity
 _atom_site_fract_x
 _atom_site_fract_y
 _atom_site_fract_z
 _atom_site_occupancy
  La  La0  1  0.633940  0.991696  0.464629  1
  La  La1  1  0.354356  0.008597  0.959461  1
  La  La2  1  0.998934  0.651796  0.538121  1
  La  La3  1  0.490191  0.853118  0.211089  1
  La  La4  1  0.502246  0.138100  0.703364  1
  La  La5  1  0.851657  0.487281  0.788648  1
  La  La6  1  0.144330  0.506504  0.288945  1
  La  La7  1  0.009995  0.352470  0.039092  1
  Tm  Tm8  1  0.492052  0.358704  0.124152  1
  Tm  Tm9  1  0.999478  0.138242  0.624040  1
  Tm  Tm10  1  0.856455  0.007332  0.875348  1
  Tm  Tm11  1  0.144508  0.989801  0.379681  1
  Tm  Tm12  1  0.503452  0.643678  0.622167  1
  Tm  Tm13  1  0.358145  0.494666  0.875897  1
  Tm  Tm14  1  0.642453  0.502709  0.373617  1
  Tm  Tm15  1  0.004801  0.862374  0.125218  1
  Tm  Tm16  1  0.317623  0.315158  0.501195  1
  Tm  Tm17  1  0.184765  0.825306  0.745703  1
  Tm  Tm18  1  0.819922  0.177052  0.252719  1
  Tm  Tm19  1  0.680913  0.681282  0.001315  1
  Si  Si20  1  0.709763  0.063270  0.063441  1
  Si  Si21  1  0.936010  0.293667  0.437460  1
  Si  Si22  1  0.436312  0.210266  0.310515  1
  Si  Si23  1  0.565437  0.787973  0.813170  1
  Si  Si24  1  0.210440  0.439910  0.690263  1
  Si  Si25  1  0.789201  0.564025  0.186831  1
  Si  Si26  1  0.060073  0.711301  0.937657  1
  Si  Si27  1  0.796531  0.848065  0.692171  1
  Si  Si28  1  0.207187  0.147217  0.189788  1
  Si  Si29  1  0.848842  0.794511  0.310839  1
  Si  Si30  1  0.356073  0.700266  0.436242  1
  Si  Si31  1  0.649171  0.296766  0.942342  1
  Si  Si32  1  0.711676  0.356227  0.560231  1
  Si  Si33  1  0.292760  0.650253  0.059495  1
  Si  Si34  1  0.145256  0.210056  0.812532  1
  Tc  Tc35  1  0.295052  0.940361  0.562621  1
