# generated using pymatgen
data_Lu12Co8S
_symmetry_space_group_name_H-M   'P 1'
_cell_length_a   4.00795800
_cell_length_b   11.02355414
_cell_length_c   11.02340412
_cell_angle_alpha   60.00112956
_cell_angle_beta   89.99957550
_cell_angle_gamma   89.99780052
_symmetry_Int_Tables_number   1
_chemical_formula_structural   Lu12Co8S
_chemical_formula_sum   'Lu12 Co8 S1'
_cell_volume   421.78983101
_cell_formula_units_Z   1
loop_
 _symmetry_equiv_pos_site_id
 _symmetry_equiv_pos_as_xyz
  1  'x, y, z'
loop_
 _atom_site_type_symbol
 _atom_site_label
 _atom_site_symmetry_multiplicity
 _atom_site_fract_x
 _atom_site_fract_y
 _atom_site_fract_z
 _atom_site_occupancy
  Lu  Lu0  1  0.749934  0.619907  0.864802  1
  Lu  Lu1  1  0.749924  0.515275  0.619914  1
  Lu  Lu2  1  0.749902  0.864808  0.515286  1
  Lu  Lu3  1  0.250066  0.380093  0.135198  1
  Lu  Lu4  1  0.250076  0.484725  0.380086  1
  Lu  Lu5  1  0.250098  0.135192  0.484714  1
  Lu  Lu6  1  0.742902  0.768565  0.255123  1
  Lu  Lu7  1  0.742880  0.976294  0.768575  1
  Lu  Lu8  1  0.742899  0.255136  0.976307  1
  Lu  Lu9  1  0.257098  0.231435  0.744877  1
  Lu  Lu10  1  0.257120  0.023706  0.231425  1
  Lu  Lu11  1  0.257101  0.744864  0.023693  1
  Co  Co12  1  0.751022  0.333339  0.333322  1
  Co  Co13  1  0.248978  0.666661  0.666678  1
  Co  Co14  1  0.749064  0.279611  0.565750  1
  Co  Co15  1  0.749028  0.154645  0.279616  1
  Co  Co16  1  0.749043  0.565752  0.154630  1
  Co  Co17  1  0.250936  0.720389  0.434250  1
  Co  Co18  1  0.250972  0.845355  0.720384  1
  Co  Co19  1  0.250957  0.434248  0.845370  1
  S  S20  1  0.500000  0.000000  0.000000  1
