# generated using pymatgen
data_Hf10CoRe3
_symmetry_space_group_name_H-M   'P 1'
_cell_length_a   8.69179500
_cell_length_b   8.69171894
_cell_length_c   8.46866600
_cell_angle_alpha   90.00000000
_cell_angle_beta   90.00000000
_cell_angle_gamma   119.99925389
_symmetry_Int_Tables_number   1
_chemical_formula_structural   Hf10CoRe3
_chemical_formula_sum   'Hf20 Co2 Re6'
_cell_volume   554.06925348
_cell_formula_units_Z   2
loop_
 _symmetry_equiv_pos_site_id
 _symmetry_equiv_pos_as_xyz
  1  'x, y, z'
loop_
 _atom_site_type_symbol
 _atom_site_label
 _atom_site_symmetry_multiplicity
 _atom_site_fract_x
 _atom_site_fract_y
 _atom_site_fract_z
 _atom_site_occupancy
  Hf  Hf0  1  0.202145  0.797856  0.440351  1
  Hf  Hf1  1  0.202146  0.404291  0.440353  1
  Hf  Hf2  1  0.595709  0.797855  0.440354  1
  Hf  Hf3  1  0.797855  0.202144  0.559649  1
  Hf  Hf4  1  0.797854  0.595709  0.559647  1
  Hf  Hf5  1  0.404291  0.202145  0.559646  1
  Hf  Hf6  1  0.797855  0.202144  0.940351  1
  Hf  Hf7  1  0.797854  0.595709  0.940353  1
  Hf  Hf8  1  0.404291  0.202145  0.940354  1
  Hf  Hf9  1  0.202145  0.797856  0.059649  1
  Hf  Hf10  1  0.202146  0.404291  0.059647  1
  Hf  Hf11  1  0.595709  0.797855  0.059646  1
  Hf  Hf12  1  0.542495  0.457503  0.250000  1
  Hf  Hf13  1  0.542494  0.084992  0.250000  1
  Hf  Hf14  1  0.915007  0.457505  0.250000  1
  Hf  Hf15  1  0.457505  0.542497  0.750000  1
  Hf  Hf16  1  0.457506  0.915008  0.750000  1
  Hf  Hf17  1  0.084993  0.542495  0.750000  1
  Hf  Hf18  1  0.000000  0.000000  0.500000  1
  Hf  Hf19  1  0.000000  0.000000  0.000000  1
  Co  Co20  1  0.333332  0.666667  0.250000  1
  Co  Co21  1  0.666668  0.333333  0.750000  1
  Re  Re22  1  0.882624  0.117379  0.250000  1
  Re  Re23  1  0.882622  0.765240  0.250000  1
  Re  Re24  1  0.234763  0.117380  0.250000  1
  Re  Re25  1  0.117376  0.882621  0.750000  1
  Re  Re26  1  0.117378  0.234760  0.750000  1
  Re  Re27  1  0.765237  0.882620  0.750000  1
