# generated using pymatgen
data_Lu10Tl3Re
_symmetry_space_group_name_H-M   'P 1'
_cell_length_a   9.57256400
_cell_length_b   9.57256571
_cell_length_c   9.57884200
_cell_angle_alpha   90.00000000
_cell_angle_beta   90.00000000
_cell_angle_gamma   120.00000100
_symmetry_Int_Tables_number   1
_chemical_formula_structural   Lu10Tl3Re
_chemical_formula_sum   'Lu20 Tl6 Re2'
_cell_volume   760.15170137
_cell_formula_units_Z   2
loop_
 _symmetry_equiv_pos_site_id
 _symmetry_equiv_pos_as_xyz
  1  'x, y, z'
loop_
 _atom_site_type_symbol
 _atom_site_label
 _atom_site_symmetry_multiplicity
 _atom_site_fract_x
 _atom_site_fract_y
 _atom_site_fract_z
 _atom_site_occupancy
  Lu  Lu0  1  0.000000  0.000000  0.500000  1
  Lu  Lu1  1  0.000000  0.000000  0.000000  1
  Lu  Lu2  1  0.210496  0.789504  0.441252  1
  Lu  Lu3  1  0.210496  0.420994  0.441252  1
  Lu  Lu4  1  0.579006  0.789504  0.441252  1
  Lu  Lu5  1  0.789504  0.210496  0.558748  1
  Lu  Lu6  1  0.789504  0.579006  0.558748  1
  Lu  Lu7  1  0.420994  0.210496  0.558748  1
  Lu  Lu8  1  0.789504  0.210496  0.941252  1
  Lu  Lu9  1  0.789504  0.579006  0.941252  1
  Lu  Lu10  1  0.420994  0.210496  0.941252  1
  Lu  Lu11  1  0.210496  0.789504  0.058748  1
  Lu  Lu12  1  0.210496  0.420994  0.058748  1
  Lu  Lu13  1  0.579006  0.789504  0.058748  1
  Lu  Lu14  1  0.533729  0.466271  0.250000  1
  Lu  Lu15  1  0.533729  0.067459  0.250000  1
  Lu  Lu16  1  0.932541  0.466271  0.250000  1
  Lu  Lu17  1  0.466271  0.533729  0.750000  1
  Lu  Lu18  1  0.466271  0.932541  0.750000  1
  Lu  Lu19  1  0.067459  0.533729  0.750000  1
  Tl  Tl20  1  0.881466  0.118534  0.250000  1
  Tl  Tl21  1  0.881466  0.762932  0.250000  1
  Tl  Tl22  1  0.237068  0.118534  0.250000  1
  Tl  Tl23  1  0.118534  0.881466  0.750000  1
  Tl  Tl24  1  0.118534  0.237068  0.750000  1
  Tl  Tl25  1  0.762932  0.881466  0.750000  1
  Re  Re26  1  0.333333  0.666667  0.250000  1
  Re  Re27  1  0.666667  0.333333  0.750000  1
