# generated using pymatgen
data_BaSr2Sc4O9
_symmetry_space_group_name_H-M   'P 1'
_cell_length_a   8.61174036
_cell_length_b   8.61174024
_cell_length_c   8.61173941
_cell_angle_alpha   39.10499347
_cell_angle_beta   39.10500619
_cell_angle_gamma   39.10499136
_symmetry_Int_Tables_number   1
_chemical_formula_structural   BaSr2Sc4O9
_chemical_formula_sum   'Ba1 Sr2 Sc4 O9'
_cell_volume   228.54740362
_cell_formula_units_Z   1
loop_
 _symmetry_equiv_pos_site_id
 _symmetry_equiv_pos_as_xyz
  1  'x, y, z'
loop_
 _atom_site_type_symbol
 _atom_site_label
 _atom_site_symmetry_multiplicity
 _atom_site_fract_x
 _atom_site_fract_y
 _atom_site_fract_z
 _atom_site_occupancy
  Ba  Ba0  1  0.580745  0.580745  0.580745  1
  Sr  Sr1  1  0.998117  0.998117  0.998117  1
  Sr  Sr2  1  0.165057  0.165057  0.165057  1
  Sc  Sc3  1  0.300678  0.300678  0.300678  1
  Sc  Sc4  1  0.424806  0.424806  0.424806  1
  Sc  Sc5  1  0.738763  0.738763  0.738763  1
  Sc  Sc6  1  0.863024  0.863024  0.863024  1
  O  O7  1  0.443284  0.597647  0.040668  1
  O  O8  1  0.581316  0.087466  0.076777  1
  O  O9  1  0.076777  0.581316  0.087467  1
  O  O10  1  0.714210  0.572590  0.124340  1
  O  O11  1  0.597647  0.040669  0.443284  1
  O  O12  1  0.040669  0.443283  0.597647  1
  O  O13  1  0.087466  0.076776  0.581318  1
  O  O14  1  0.572590  0.124341  0.714210  1
  O  O15  1  0.124340  0.714210  0.572591  1
