# generated using pymatgen
data_Y7Tm(WC2)4
_symmetry_space_group_name_H-M   'P 1'
_cell_length_a   5.73881900
_cell_length_b   5.73881853
_cell_length_c   9.89383923
_cell_angle_alpha   89.90570574
_cell_angle_beta   90.09429215
_cell_angle_gamma   89.97927938
_symmetry_Int_Tables_number   1
_chemical_formula_structural   Y7Tm(WC2)4
_chemical_formula_sum   'Y7 Tm1 W4 C8'
_cell_volume   325.84320082
_cell_formula_units_Z   1
loop_
 _symmetry_equiv_pos_site_id
 _symmetry_equiv_pos_as_xyz
  1  'x, y, z'
loop_
 _atom_site_type_symbol
 _atom_site_label
 _atom_site_symmetry_multiplicity
 _atom_site_fract_x
 _atom_site_fract_y
 _atom_site_fract_z
 _atom_site_occupancy
  Y  Y0  1  0.200110  0.199937  0.341434  1
  Y  Y1  1  0.800366  0.799815  0.657808  1
  Y  Y2  1  0.300196  0.699804  0.842355  1
  Y  Y3  1  0.800063  0.799890  0.341434  1
  Y  Y4  1  0.200185  0.199634  0.657808  1
  Y  Y5  1  0.699683  0.300317  0.157942  1
  Y  Y6  1  0.699608  0.300392  0.842364  1
  Tm  Tm7  1  0.299163  0.700837  0.157399  1
  W  W8  1  0.178045  0.178075  0.000675  1
  W  W9  1  0.821925  0.821955  0.000675  1
  W  W10  1  0.322037  0.677963  0.499057  1
  W  W11  1  0.677609  0.322391  0.499293  1
  C  C12  1  0.001943  0.998057  0.153392  1
  C  C13  1  0.498335  0.501665  0.345003  1
  C  C14  1  0.499934  0.500066  0.652410  1
  C  C15  1  0.498937  0.997996  0.002072  1
  C  C16  1  0.002004  0.501063  0.002072  1
  C  C17  1  0.999669  0.000331  0.847428  1
  C  C18  1  0.500362  0.000175  0.499690  1
  C  C19  1  0.999825  0.499638  0.499690  1
