# generated using pymatgen
data_Sm4Lu2Si3Hg
_symmetry_space_group_name_H-M   'P 1'
_cell_length_a   7.60065395
_cell_length_b   7.60065395
_cell_length_c   4.39040500
_cell_angle_alpha   90.00000000
_cell_angle_beta   90.00000000
_cell_angle_gamma   88.67649164
_symmetry_Int_Tables_number   1
_chemical_formula_structural   Sm4Lu2Si3Hg
_chemical_formula_sum   'Sm4 Lu2 Si3 Hg1'
_cell_volume   253.56577022
_cell_formula_units_Z   1
loop_
 _symmetry_equiv_pos_site_id
 _symmetry_equiv_pos_as_xyz
  1  'x, y, z'
loop_
 _atom_site_type_symbol
 _atom_site_label
 _atom_site_symmetry_multiplicity
 _atom_site_fract_x
 _atom_site_fract_y
 _atom_site_fract_z
 _atom_site_occupancy
  Sm  Sm0  1  0.675215  0.175215  0.500000  1
  Sm  Sm1  1  0.336234  0.836234  0.500000  1
  Sm  Sm2  1  0.175668  0.312391  0.500000  1
  Sm  Sm3  1  0.812391  0.675668  0.500000  1
  Lu  Lu4  1  0.001893  0.003743  0.000000  1
  Lu  Lu5  1  0.503743  0.501893  0.000000  1
  Si  Si6  1  0.869528  0.369528  0.000000  1
  Si  Si7  1  0.618526  0.886226  0.000000  1
  Si  Si8  1  0.386226  0.118526  0.000000  1
  Hg  Hg9  1  0.120575  0.620575  0.000000  1
