# generated using pymatgen
data_Er15Tm(ZnIn3)2
_symmetry_space_group_name_H-M   'P 1'
_cell_length_a   10.56210600
_cell_length_b   10.56210677
_cell_length_c   6.71355500
_cell_angle_alpha   90.00000000
_cell_angle_beta   90.00000000
_cell_angle_gamma   119.99999760
_symmetry_Int_Tables_number   1
_chemical_formula_structural   Er15Tm(ZnIn3)2
_chemical_formula_sum   'Er15 Tm1 Zn2 In6'
_cell_volume   648.61093821
_cell_formula_units_Z   1
loop_
 _symmetry_equiv_pos_site_id
 _symmetry_equiv_pos_as_xyz
  1  'x, y, z'
loop_
 _atom_site_type_symbol
 _atom_site_label
 _atom_site_symmetry_multiplicity
 _atom_site_fract_x
 _atom_site_fract_y
 _atom_site_fract_z
 _atom_site_occupancy
  Er  Er0  1  0.520056  0.040112  0.518560  1
  Er  Er1  1  0.959888  0.479944  0.518560  1
  Er  Er2  1  0.520056  0.479944  0.518560  1
  Er  Er3  1  0.479936  0.959871  0.018586  1
  Er  Er4  1  0.040129  0.520064  0.018586  1
  Er  Er5  1  0.479936  0.520064  0.018586  1
  Er  Er6  1  0.173206  0.346412  0.734793  1
  Er  Er7  1  0.653588  0.826794  0.734793  1
  Er  Er8  1  0.173206  0.826794  0.734793  1
  Er  Er9  1  0.826808  0.653615  0.234712  1
  Er  Er10  1  0.346385  0.173192  0.234712  1
  Er  Er11  1  0.826808  0.173192  0.234712  1
  Er  Er12  1  0.666667  0.333333  0.867593  1
  Er  Er13  1  0.333333  0.666667  0.367533  1
  Er  Er14  1  0.000000  0.000000  0.497734  1
  Tm  Tm15  1  0.000000  0.000000  0.997688  1
  Zn  Zn16  1  0.666667  0.333333  0.303759  1
  Zn  Zn17  1  0.333333  0.666667  0.803724  1
  In  In18  1  0.835608  0.671217  0.750032  1
  In  In19  1  0.328783  0.164392  0.750032  1
  In  In20  1  0.835608  0.164392  0.750032  1
  In  In21  1  0.164387  0.328773  0.249975  1
  In  In22  1  0.671227  0.835613  0.249975  1
  In  In23  1  0.164387  0.835613  0.249975  1
