# generated using pymatgen
data_Hf8MnFe3Os4
_symmetry_space_group_name_H-M   'P 1'
_cell_length_a   6.41535000
_cell_length_b   4.54384100
_cell_length_c   9.08268700
_cell_angle_alpha   90.00000000
_cell_angle_beta   89.99968154
_cell_angle_gamma   90.00000000
_symmetry_Int_Tables_number   1
_chemical_formula_structural   Hf8MnFe3Os4
_chemical_formula_sum   'Hf8 Mn1 Fe3 Os4'
_cell_volume   264.76332660
_cell_formula_units_Z   1
loop_
 _symmetry_equiv_pos_site_id
 _symmetry_equiv_pos_as_xyz
  1  'x, y, z'
loop_
 _atom_site_type_symbol
 _atom_site_label
 _atom_site_symmetry_multiplicity
 _atom_site_fract_x
 _atom_site_fract_y
 _atom_site_fract_z
 _atom_site_occupancy
  Hf  Hf0  1  0.501301  0.750000  0.124987  1
  Hf  Hf1  1  0.998692  0.750000  0.124991  1
  Hf  Hf2  1  0.500542  0.249999  0.373938  1
  Hf  Hf3  1  0.999450  0.249999  0.373936  1
  Hf  Hf4  1  0.499879  0.750000  0.625010  1
  Hf  Hf5  1  0.000119  0.750000  0.625008  1
  Hf  Hf6  1  0.500510  0.249999  0.876057  1
  Hf  Hf7  1  0.999490  0.249999  0.876057  1
  Mn  Mn8  1  0.750034  0.249999  0.125042  1
  Fe  Fe9  1  0.249994  0.750000  0.375912  1
  Fe  Fe10  1  0.749996  0.249999  0.624994  1
  Fe  Fe11  1  0.249998  0.750000  0.874062  1
  Os  Os12  1  0.250001  0.249999  0.124999  1
  Os  Os13  1  0.749997  0.750000  0.376172  1
  Os  Os14  1  0.249998  0.249999  0.625010  1
  Os  Os15  1  0.749999  0.750000  0.873830  1
