# generated using pymatgen
data_Yb5Mg(Si3Ru)8
_symmetry_space_group_name_H-M   'P 1'
_cell_length_a   10.16578311
_cell_length_b   10.16578286
_cell_length_c   8.13264878
_cell_angle_alpha   90.23648016
_cell_angle_beta   89.76352002
_cell_angle_gamma   132.80422568
_symmetry_Int_Tables_number   1
_chemical_formula_structural   Yb5Mg(Si3Ru)8
_chemical_formula_sum   'Yb5 Mg1 Si24 Ru8'
_cell_volume   616.61745519
_cell_formula_units_Z   1
loop_
 _symmetry_equiv_pos_site_id
 _symmetry_equiv_pos_as_xyz
  1  'x, y, z'
loop_
 _atom_site_type_symbol
 _atom_site_label
 _atom_site_symmetry_multiplicity
 _atom_site_fract_x
 _atom_site_fract_y
 _atom_site_fract_z
 _atom_site_occupancy
  Yb  Yb0  1  0.500078  0.500132  0.500934  1
  Yb  Yb1  1  0.000132  0.000078  0.999066  1
  Yb  Yb2  1  0.501896  0.001896  0.750000  1
  Yb  Yb3  1  0.997542  0.497542  0.250000  1
  Yb  Yb4  1  0.497069  0.997069  0.250000  1
  Mg  Mg5  1  0.998488  0.498488  0.750000  1
  Si  Si6  1  0.796088  0.206774  0.501486  1
  Si  Si7  1  0.290479  0.701171  0.996505  1
  Si  Si8  1  0.201171  0.790479  0.503495  1
  Si  Si9  1  0.706774  0.296088  0.998514  1
  Si  Si10  1  0.334144  0.334028  0.833115  1
  Si  Si11  1  0.667261  0.667405  0.168000  1
  Si  Si12  1  0.167405  0.167261  0.332000  1
  Si  Si13  1  0.834028  0.834144  0.666885  1
  Si  Si14  1  0.124642  0.893269  0.729292  1
  Si  Si15  1  0.107435  0.873478  0.267918  1
  Si  Si16  1  0.607366  0.373016  0.232688  1
  Si  Si17  1  0.627573  0.394665  0.769723  1
  Si  Si18  1  0.873016  0.107366  0.267312  1
  Si  Si19  1  0.894665  0.127573  0.730277  1
  Si  Si20  1  0.393269  0.624642  0.770708  1
  Si  Si21  1  0.373478  0.607435  0.232082  1
  Si  Si22  1  0.348907  0.114645  0.507399  1
  Si  Si23  1  0.886588  0.654679  0.492056  1
  Si  Si24  1  0.384925  0.150460  0.009471  1
  Si  Si25  1  0.846853  0.613195  0.991112  1
  Si  Si26  1  0.650460  0.884925  0.490529  1
  Si  Si27  1  0.113195  0.346853  0.508888  1
  Si  Si28  1  0.614645  0.848907  0.992601  1
  Si  Si29  1  0.154679  0.386588  0.007944  1
  Ru  Ru30  1  0.673065  0.332388  0.502498  1
  Ru  Ru31  1  0.167682  0.827037  0.995963  1
  Ru  Ru32  1  0.327037  0.667682  0.504037  1
  Ru  Ru33  1  0.832388  0.173065  0.997502  1
  Ru  Ru34  1  0.127493  0.128099  0.624496  1
  Ru  Ru35  1  0.874295  0.875688  0.373985  1
  Ru  Ru36  1  0.375688  0.374295  0.126015  1
  Ru  Ru37  1  0.628099  0.627493  0.875504  1
