# generated using pymatgen
data_Lu3HfIr2O
_symmetry_space_group_name_H-M   'P 1'
_cell_length_a   8.95369943
_cell_length_b   8.95369977
_cell_length_c   8.95369900
_cell_angle_alpha   59.99999916
_cell_angle_beta   59.99999790
_cell_angle_gamma   59.99999560
_symmetry_Int_Tables_number   1
_chemical_formula_structural   Lu3HfIr2O
_chemical_formula_sum   'Lu12 Hf4 Ir8 O4'
_cell_volume   507.56598263
_cell_formula_units_Z   4
loop_
 _symmetry_equiv_pos_site_id
 _symmetry_equiv_pos_as_xyz
  1  'x, y, z'
loop_
 _atom_site_type_symbol
 _atom_site_label
 _atom_site_symmetry_multiplicity
 _atom_site_fract_x
 _atom_site_fract_y
 _atom_site_fract_z
 _atom_site_occupancy
  Lu  Lu0  1  0.813540  0.813540  0.186460  1
  Lu  Lu1  1  0.186460  0.186460  0.813540  1
  Lu  Lu2  1  0.813540  0.186460  0.813540  1
  Lu  Lu3  1  0.186460  0.813540  0.186460  1
  Lu  Lu4  1  0.186460  0.813540  0.813540  1
  Lu  Lu5  1  0.813540  0.186460  0.186460  1
  Lu  Lu6  1  0.436460  0.436460  0.063540  1
  Lu  Lu7  1  0.063540  0.063540  0.436460  1
  Lu  Lu8  1  0.436460  0.063540  0.436460  1
  Lu  Lu9  1  0.063540  0.436460  0.063540  1
  Lu  Lu10  1  0.063540  0.436460  0.436460  1
  Lu  Lu11  1  0.436460  0.063540  0.063540  1
  Hf  Hf12  1  0.125000  0.625000  0.625000  1
  Hf  Hf13  1  0.625000  0.125000  0.625000  1
  Hf  Hf14  1  0.625000  0.625000  0.125000  1
  Hf  Hf15  1  0.625000  0.625000  0.625000  1
  Ir  Ir16  1  0.755279  0.414907  0.414907  1
  Ir  Ir17  1  0.414907  0.755279  0.414907  1
  Ir  Ir18  1  0.414907  0.414907  0.755279  1
  Ir  Ir19  1  0.414907  0.414907  0.414907  1
  Ir  Ir20  1  0.494721  0.835093  0.835093  1
  Ir  Ir21  1  0.835093  0.494721  0.835093  1
  Ir  Ir22  1  0.835093  0.835093  0.494721  1
  Ir  Ir23  1  0.835093  0.835093  0.835093  1
  O  O24  1  0.625000  0.125000  0.125000  1
  O  O25  1  0.125000  0.625000  0.125000  1
  O  O26  1  0.125000  0.125000  0.625000  1
  O  O27  1  0.125000  0.125000  0.125000  1
