# generated using pymatgen
data_Li3Nd7SmSi12Rh
_symmetry_space_group_name_H-M   'P 1'
_cell_length_a   8.28597100
_cell_length_b   8.28597042
_cell_length_c   8.37810100
_cell_angle_alpha   90.00000000
_cell_angle_beta   90.00000000
_cell_angle_gamma   119.99999832
_symmetry_Int_Tables_number   1
_chemical_formula_structural   Li3Nd7SmSi12Rh
_chemical_formula_sum   'Li3 Nd7 Sm1 Si12 Rh1'
_cell_volume   498.15330751
_cell_formula_units_Z   1
loop_
 _symmetry_equiv_pos_site_id
 _symmetry_equiv_pos_as_xyz
  1  'x, y, z'
loop_
 _atom_site_type_symbol
 _atom_site_label
 _atom_site_symmetry_multiplicity
 _atom_site_fract_x
 _atom_site_fract_y
 _atom_site_fract_z
 _atom_site_occupancy
  Li  Li0  1  0.333333  0.666667  0.492811  1
  Li  Li1  1  0.666667  0.333333  0.508299  1
  Li  Li2  1  0.666667  0.333333  0.993415  1
  Nd  Nd3  1  0.000000  0.000000  0.749379  1
  Nd  Nd4  1  0.499188  0.500812  0.247651  1
  Nd  Nd5  1  0.499188  0.998376  0.247651  1
  Nd  Nd6  1  0.001624  0.500812  0.247651  1
  Nd  Nd7  1  0.496141  0.503859  0.752321  1
  Nd  Nd8  1  0.496141  0.992282  0.752321  1
  Nd  Nd9  1  0.007718  0.503859  0.752321  1
  Sm  Sm10  1  0.000000  0.000000  0.251103  1
  Si  Si11  1  0.165532  0.834468  0.499766  1
  Si  Si12  1  0.165532  0.331063  0.499766  1
  Si  Si13  1  0.668937  0.834468  0.499766  1
  Si  Si14  1  0.834030  0.165970  0.498701  1
  Si  Si15  1  0.834030  0.668060  0.498701  1
  Si  Si16  1  0.331940  0.165970  0.498701  1
  Si  Si17  1  0.835910  0.164090  0.000378  1
  Si  Si18  1  0.835910  0.671820  0.000378  1
  Si  Si19  1  0.328180  0.164090  0.000378  1
  Si  Si20  1  0.168037  0.831963  0.002074  1
  Si  Si21  1  0.168037  0.336075  0.002074  1
  Si  Si22  1  0.663925  0.831963  0.002074  1
  Rh  Rh23  1  0.333333  0.666667  0.002325  1
