# generated using pymatgen
data_Zr13Al9(FeRu3)2
_symmetry_space_group_name_H-M   'P 1'
_cell_length_a   9.09076857
_cell_length_b   9.09076855
_cell_length_c   9.09076800
_cell_angle_alpha   59.92980603
_cell_angle_beta   59.92980610
_cell_angle_gamma   59.92981558
_symmetry_Int_Tables_number   1
_chemical_formula_structural   Zr13Al9(FeRu3)2
_chemical_formula_sum   'Zr13 Al9 Fe2 Ru6'
_cell_volume   530.38934097
_cell_formula_units_Z   1
loop_
 _symmetry_equiv_pos_site_id
 _symmetry_equiv_pos_as_xyz
  1  'x, y, z'
loop_
 _atom_site_type_symbol
 _atom_site_label
 _atom_site_symmetry_multiplicity
 _atom_site_fract_x
 _atom_site_fract_y
 _atom_site_fract_z
 _atom_site_occupancy
  Zr  Zr0  1  0.205102  0.205102  0.799672  1
  Zr  Zr1  1  0.799672  0.205102  0.205102  1
  Zr  Zr2  1  0.205102  0.799672  0.205102  1
  Zr  Zr3  1  0.806083  0.806083  0.172791  1
  Zr  Zr4  1  0.172791  0.806083  0.806083  1
  Zr  Zr5  1  0.806083  0.172791  0.806083  1
  Zr  Zr6  1  0.382372  0.382372  0.382372  1
  Zr  Zr7  1  0.383156  0.855370  0.383156  1
  Zr  Zr8  1  0.855370  0.383156  0.383156  1
  Zr  Zr9  1  0.383156  0.383156  0.855370  1
  Zr  Zr10  1  0.838603  0.479631  0.838603  1
  Zr  Zr11  1  0.479631  0.838603  0.838603  1
  Zr  Zr12  1  0.838603  0.838603  0.479631  1
  Al  Al13  1  0.162751  0.162751  0.162751  1
  Al  Al14  1  0.163151  0.513941  0.163151  1
  Al  Al15  1  0.513941  0.163151  0.163151  1
  Al  Al16  1  0.163151  0.163151  0.513941  1
  Al  Al17  1  0.614068  0.614068  0.614068  1
  Al  Al18  1  0.618580  0.151251  0.618580  1
  Al  Al19  1  0.151251  0.618580  0.618580  1
  Al  Al20  1  0.618580  0.618580  0.151251  1
  Al  Al21  1  0.827457  0.827457  0.827457  1
  Fe  Fe22  1  0.499597  0.499597  0.499597  1
  Fe  Fe23  1  0.004805  0.004805  0.004805  1
  Ru  Ru24  1  0.003074  0.003074  0.501743  1
  Ru  Ru25  1  0.501743  0.003074  0.003074  1
  Ru  Ru26  1  0.003074  0.501743  0.003074  1
  Ru  Ru27  1  0.496786  0.496786  0.005482  1
  Ru  Ru28  1  0.005482  0.496786  0.496786  1
  Ru  Ru29  1  0.496786  0.005482  0.496786  1
