# generated using pymatgen
data_Yb2GaSi4Pt3
_symmetry_space_group_name_H-M   'P 1'
_cell_length_a   8.29985938
_cell_length_b   8.29985987
_cell_length_c   8.29985943
_cell_angle_alpha   138.31988808
_cell_angle_beta   103.99484083
_cell_angle_gamma   90.64724201
_symmetry_Int_Tables_number   1
_chemical_formula_structural   Yb2GaSi4Pt3
_chemical_formula_sum   'Yb4 Ga2 Si8 Pt6'
_cell_volume   352.22075727
_cell_formula_units_Z   2
loop_
 _symmetry_equiv_pos_site_id
 _symmetry_equiv_pos_as_xyz
  1  'x, y, z'
loop_
 _atom_site_type_symbol
 _atom_site_label
 _atom_site_symmetry_multiplicity
 _atom_site_fract_x
 _atom_site_fract_y
 _atom_site_fract_z
 _atom_site_occupancy
  Yb  Yb0  1  0.106134  0.871818  0.234315  1
  Yb  Yb1  1  0.893866  0.128182  0.765685  1
  Yb  Yb2  1  0.637502  0.371818  0.265685  1
  Yb  Yb3  1  0.362498  0.628182  0.734315  1
  Ga  Ga4  1  0.000000  0.750000  0.750000  1
  Ga  Ga5  1  0.000000  0.250000  0.250000  1
  Si  Si6  1  0.271774  0.021774  0.750000  1
  Si  Si7  1  0.728226  0.478226  0.750000  1
  Si  Si8  1  0.728226  0.978226  0.250000  1
  Si  Si9  1  0.271774  0.521774  0.250000  1
  Si  Si10  1  0.760434  0.611724  0.148711  1
  Si  Si11  1  0.239566  0.388276  0.851289  1
  Si  Si12  1  0.463013  0.111724  0.351289  1
  Si  Si13  1  0.536987  0.888276  0.648711  1
  Pt  Pt14  1  0.500000  0.750000  0.250000  1
  Pt  Pt15  1  0.500000  0.250000  0.750000  1
  Pt  Pt16  1  0.021883  0.645016  0.376868  1
  Pt  Pt17  1  0.978117  0.354984  0.623132  1
  Pt  Pt18  1  0.268148  0.145016  0.123132  1
  Pt  Pt19  1  0.731852  0.854984  0.876868  1
