# generated using pymatgen
data_Pu(RhO3)2
_symmetry_space_group_name_H-M   'P 1'
_cell_length_a   4.81294000
_cell_length_b   4.81294000
_cell_length_c   9.40096100
_cell_angle_alpha   90.00000000
_cell_angle_beta   90.00000000
_cell_angle_gamma   90.00000000
_symmetry_Int_Tables_number   1
_chemical_formula_structural   Pu(RhO3)2
_chemical_formula_sum   'Pu2 Rh4 O12'
_cell_volume   217.76754055
_cell_formula_units_Z   2
loop_
 _symmetry_equiv_pos_site_id
 _symmetry_equiv_pos_as_xyz
  1  'x, y, z'
loop_
 _atom_site_type_symbol
 _atom_site_label
 _atom_site_symmetry_multiplicity
 _atom_site_fract_x
 _atom_site_fract_y
 _atom_site_fract_z
 _atom_site_occupancy
  Pu  Pu0  1  0.000000  0.000000  0.000000  1
  Pu  Pu1  1  0.500000  0.500000  0.500000  1
  Rh  Rh2  1  0.000000  0.000000  0.331144  1
  Rh  Rh3  1  0.000000  0.000000  0.668856  1
  Rh  Rh4  1  0.500000  0.500000  0.831144  1
  Rh  Rh5  1  0.500000  0.500000  0.168856  1
  O  O6  1  0.315051  0.315051  0.000000  1
  O  O7  1  0.684949  0.684949  0.000000  1
  O  O8  1  0.184949  0.815051  0.500000  1
  O  O9  1  0.815051  0.184949  0.500000  1
  O  O10  1  0.298337  0.298337  0.332160  1
  O  O11  1  0.701663  0.701663  0.667840  1
  O  O12  1  0.701663  0.701663  0.332160  1
  O  O13  1  0.201663  0.798337  0.832160  1
  O  O14  1  0.201663  0.798337  0.167840  1
  O  O15  1  0.298337  0.298337  0.667840  1
  O  O16  1  0.798337  0.201663  0.167840  1
  O  O17  1  0.798337  0.201663  0.832160  1
