# generated using pymatgen
data_Y2Fe3Re14C3
_symmetry_space_group_name_H-M   'P 1'
_cell_length_a   6.92939217
_cell_length_b   6.92939152
_cell_length_c   6.92939152
_cell_angle_alpha   82.46303314
_cell_angle_beta   82.46303382
_cell_angle_gamma   82.46302470
_symmetry_Int_Tables_number   1
_chemical_formula_structural   Y2Fe3Re14C3
_chemical_formula_sum   'Y2 Fe3 Re14 C3'
_cell_volume   324.79472232
_cell_formula_units_Z   1
loop_
 _symmetry_equiv_pos_site_id
 _symmetry_equiv_pos_as_xyz
  1  'x, y, z'
loop_
 _atom_site_type_symbol
 _atom_site_label
 _atom_site_symmetry_multiplicity
 _atom_site_fract_x
 _atom_site_fract_y
 _atom_site_fract_z
 _atom_site_occupancy
  Y  Y0  1  0.648679  0.648679  0.648679  1
  Y  Y1  1  0.351321  0.351321  0.351321  1
  Fe  Fe2  1  0.000000  0.000000  0.500000  1
  Fe  Fe3  1  0.500000  0.000000  0.000000  1
  Fe  Fe4  1  0.000000  0.500000  0.000000  1
  Re  Re5  1  0.722294  0.277706  0.000000  1
  Re  Re6  1  0.000000  0.722294  0.277706  1
  Re  Re7  1  0.277706  0.000000  0.722294  1
  Re  Re8  1  0.000000  0.277706  0.722294  1
  Re  Re9  1  0.722294  0.000000  0.277706  1
  Re  Re10  1  0.277706  0.722294  0.000000  1
  Re  Re11  1  0.346341  0.346341  0.860824  1
  Re  Re12  1  0.860824  0.346341  0.346341  1
  Re  Re13  1  0.346341  0.860824  0.346341  1
  Re  Re14  1  0.653659  0.653659  0.139176  1
  Re  Re15  1  0.139176  0.653659  0.653659  1
  Re  Re16  1  0.653659  0.139176  0.653659  1
  Re  Re17  1  0.897840  0.897840  0.897840  1
  Re  Re18  1  0.102160  0.102160  0.102160  1
  C  C19  1  0.500000  0.500000  0.000000  1
  C  C20  1  0.000000  0.500000  0.500000  1
  C  C21  1  0.500000  0.000000  0.500000  1
