# generated using pymatgen
data_Ho15Lu(Ga3Fe)2
_symmetry_space_group_name_H-M   'P 1'
_cell_length_a   9.93664610
_cell_length_b   9.93664449
_cell_length_c   6.89226300
_cell_angle_alpha   89.95474757
_cell_angle_beta   90.04524666
_cell_angle_gamma   119.99676690
_symmetry_Int_Tables_number   1
_chemical_formula_structural   Ho15Lu(Ga3Fe)2
_chemical_formula_sum   'Ho15 Lu1 Ga6 Fe2'
_cell_volume   589.36727071
_cell_formula_units_Z   1
loop_
 _symmetry_equiv_pos_site_id
 _symmetry_equiv_pos_as_xyz
  1  'x, y, z'
loop_
 _atom_site_type_symbol
 _atom_site_label
 _atom_site_symmetry_multiplicity
 _atom_site_fract_x
 _atom_site_fract_y
 _atom_site_fract_z
 _atom_site_occupancy
  Ho  Ho0  1  0.654229  0.826889  0.510481  1
  Ho  Ho1  1  0.173111  0.345771  0.510481  1
  Ho  Ho2  1  0.826858  0.173142  0.010796  1
  Ho  Ho3  1  0.346300  0.173252  0.010854  1
  Ho  Ho4  1  0.826748  0.653700  0.010854  1
  Ho  Ho5  1  0.332912  0.667088  0.829198  1
  Ho  Ho6  1  0.666619  0.333381  0.329900  1
  Ho  Ho7  1  0.463011  0.536989  0.206368  1
  Ho  Ho8  1  0.073860  0.537698  0.207624  1
  Ho  Ho9  1  0.462302  0.926140  0.207624  1
  Ho  Ho10  1  0.537074  0.462926  0.706766  1
  Ho  Ho11  1  0.926716  0.463710  0.706786  1
  Ho  Ho12  1  0.536290  0.073284  0.706786  1
  Ho  Ho13  1  0.000404  0.999596  0.231568  1
  Ho  Ho14  1  0.000304  0.999696  0.730985  1
  Lu  Lu15  1  0.173387  0.826613  0.511296  1
  Ga  Ga16  1  0.163766  0.836234  0.957472  1
  Ga  Ga17  1  0.672301  0.836235  0.958771  1
  Ga  Ga18  1  0.163765  0.327699  0.958771  1
  Ga  Ga19  1  0.836184  0.163816  0.458815  1
  Ga  Ga20  1  0.326658  0.162065  0.459352  1
  Ga  Ga21  1  0.837935  0.673342  0.459352  1
  Fe  Fe22  1  0.332691  0.667309  0.447072  1
  Fe  Fe23  1  0.666578  0.333422  0.946065  1
