# generated using pymatgen
data_LiTi(VPt6)2
_symmetry_space_group_name_H-M   'P 1'
_cell_length_a   5.54497300
_cell_length_b   5.54497283
_cell_length_c   9.01536000
_cell_angle_alpha   90.00000000
_cell_angle_beta   90.00000000
_cell_angle_gamma   120.00000696
_symmetry_Int_Tables_number   1
_chemical_formula_structural   LiTi(VPt6)2
_chemical_formula_sum   'Li1 Ti1 V2 Pt12'
_cell_volume   240.05598235
_cell_formula_units_Z   1
loop_
 _symmetry_equiv_pos_site_id
 _symmetry_equiv_pos_as_xyz
  1  'x, y, z'
loop_
 _atom_site_type_symbol
 _atom_site_label
 _atom_site_symmetry_multiplicity
 _atom_site_fract_x
 _atom_site_fract_y
 _atom_site_fract_z
 _atom_site_occupancy
  Li  Li0  1  0.333333  0.666667  0.250000  1
  Ti  Ti1  1  0.666667  0.333333  0.750000  1
  V  V2  1  0.000000  0.000000  0.493554  1
  V  V3  1  0.000000  0.000000  0.006446  1
  Pt  Pt4  1  0.500843  0.499157  0.500985  1
  Pt  Pt5  1  0.500843  0.001686  0.500985  1
  Pt  Pt6  1  0.998314  0.499157  0.500985  1
  Pt  Pt7  1  0.500843  0.499157  0.999015  1
  Pt  Pt8  1  0.500843  0.001686  0.999015  1
  Pt  Pt9  1  0.998314  0.499157  0.999015  1
  Pt  Pt10  1  0.834438  0.668876  0.250000  1
  Pt  Pt11  1  0.331124  0.165562  0.250000  1
  Pt  Pt12  1  0.834438  0.165562  0.250000  1
  Pt  Pt13  1  0.165488  0.330976  0.750000  1
  Pt  Pt14  1  0.669024  0.834512  0.750000  1
  Pt  Pt15  1  0.165488  0.834512  0.750000  1
