# generated using pymatgen
data_Ho3SnRh6C
_symmetry_space_group_name_H-M   'P 1'
_cell_length_a   5.79236300
_cell_length_b   5.79236368
_cell_length_c   13.78919000
_cell_angle_alpha   90.00000000
_cell_angle_beta   90.00000000
_cell_angle_gamma   120.00000184
_symmetry_Int_Tables_number   1
_chemical_formula_structural   Ho3SnRh6C
_chemical_formula_sum   'Ho6 Sn2 Rh12 C2'
_cell_volume   400.66459893
_cell_formula_units_Z   2
loop_
 _symmetry_equiv_pos_site_id
 _symmetry_equiv_pos_as_xyz
  1  'x, y, z'
loop_
 _atom_site_type_symbol
 _atom_site_label
 _atom_site_symmetry_multiplicity
 _atom_site_fract_x
 _atom_site_fract_y
 _atom_site_fract_z
 _atom_site_occupancy
  Ho  Ho0  1  0.000000  0.000000  0.750000  1
  Ho  Ho1  1  0.000000  0.000000  0.250000  1
  Ho  Ho2  1  0.333333  0.666667  0.410804  1
  Ho  Ho3  1  0.666667  0.333333  0.910804  1
  Ho  Ho4  1  0.666667  0.333333  0.589196  1
  Ho  Ho5  1  0.333333  0.666667  0.089196  1
  Sn  Sn6  1  0.333333  0.666667  0.750000  1
  Sn  Sn7  1  0.666667  0.333333  0.250000  1
  Rh  Rh8  1  0.339915  0.169959  0.414350  1
  Rh  Rh9  1  0.830041  0.169959  0.414350  1
  Rh  Rh10  1  0.830041  0.660085  0.414350  1
  Rh  Rh11  1  0.169959  0.339915  0.914350  1
  Rh  Rh12  1  0.660085  0.830041  0.585650  1
  Rh  Rh13  1  0.660085  0.830041  0.914350  1
  Rh  Rh14  1  0.339915  0.169959  0.085650  1
  Rh  Rh15  1  0.169959  0.339915  0.585650  1
  Rh  Rh16  1  0.169959  0.830041  0.585650  1
  Rh  Rh17  1  0.830041  0.169959  0.085650  1
  Rh  Rh18  1  0.830041  0.660085  0.085650  1
  Rh  Rh19  1  0.169959  0.830041  0.914350  1
  C  C20  1  0.000000  0.000000  0.500000  1
  C  C21  1  0.000000  0.000000  0.000000  1
