# generated using pymatgen
data_ErTm11Co4TcBi
_symmetry_space_group_name_H-M   'P 1'
_cell_length_a   8.21362456
_cell_length_b   8.21362446
_cell_length_c   8.20910578
_cell_angle_alpha   110.53640486
_cell_angle_beta   111.79212223
_cell_angle_gamma   106.16202399
_symmetry_Int_Tables_number   1
_chemical_formula_structural   ErTm11Co4TcBi
_chemical_formula_sum   'Er1 Tm11 Co4 Tc1 Bi1'
_cell_volume   425.08251888
_cell_formula_units_Z   1
loop_
 _symmetry_equiv_pos_site_id
 _symmetry_equiv_pos_as_xyz
  1  'x, y, z'
loop_
 _atom_site_type_symbol
 _atom_site_label
 _atom_site_symmetry_multiplicity
 _atom_site_fract_x
 _atom_site_fract_y
 _atom_site_fract_z
 _atom_site_occupancy
  Er  Er0  1  0.280726  0.182745  0.463470  1
  Tm  Tm1  1  0.720103  0.817801  0.537905  1
  Tm  Tm2  1  0.280010  0.817261  0.097270  1
  Tm  Tm3  1  0.720211  0.182703  0.902915  1
  Tm  Tm4  1  0.618562  0.309599  0.308510  1
  Tm  Tm5  1  0.381497  0.690361  0.691642  1
  Tm  Tm6  1  0.001281  0.310145  0.691642  1
  Tm  Tm7  1  0.998911  0.689948  0.308510  1
  Tm  Tm8  1  0.216327  0.414520  0.198052  1
  Tm  Tm9  1  0.784056  0.586178  0.802383  1
  Tm  Tm10  1  0.216205  0.018327  0.802383  1
  Tm  Tm11  1  0.783531  0.981726  0.198052  1
  Co  Co12  1  0.999635  0.377076  0.376711  1
  Co  Co13  1  0.999517  0.622868  0.622385  1
  Co  Co14  1  0.389089  0.888213  0.499766  1
  Co  Co15  1  0.611553  0.110677  0.499766  1
  Tc  Tc16  1  0.999067  0.000031  0.999099  1
  Bi  Bi17  1  0.499717  0.499822  0.999539  1
