# generated using pymatgen
data_La3HoLuP12Ru19
_symmetry_space_group_name_H-M   'P 1'
_cell_length_a   12.62623000
_cell_length_b   12.62623142
_cell_length_c   4.02016500
_cell_angle_alpha   90.00000000
_cell_angle_beta   90.00000000
_cell_angle_gamma   120.00000151
_symmetry_Int_Tables_number   1
_chemical_formula_structural   La3HoLuP12Ru19
_chemical_formula_sum   'La3 Ho1 Lu1 P12 Ru19'
_cell_volume   555.03701218
_cell_formula_units_Z   1
loop_
 _symmetry_equiv_pos_site_id
 _symmetry_equiv_pos_as_xyz
  1  'x, y, z'
loop_
 _atom_site_type_symbol
 _atom_site_label
 _atom_site_symmetry_multiplicity
 _atom_site_fract_x
 _atom_site_fract_y
 _atom_site_fract_z
 _atom_site_occupancy
  La  La0  1  0.999975  0.183208  0.500000  1
  La  La1  1  0.816792  0.816767  0.500000  1
  La  La2  1  0.183233  0.000025  0.500000  1
  Ho  Ho3  1  0.333333  0.666667  0.000000  1
  Lu  Lu4  1  0.666667  0.333333  0.000000  1
  P  P5  1  0.999948  0.809434  0.000000  1
  P  P6  1  0.190566  0.190514  0.000000  1
  P  P7  1  0.809486  0.000052  0.000000  1
  P  P8  1  0.695514  0.175180  0.500000  1
  P  P9  1  0.824820  0.520333  0.500000  1
  P  P10  1  0.479667  0.304486  0.500000  1
  P  P11  1  0.174902  0.695624  0.500000  1
  P  P12  1  0.520722  0.825098  0.500000  1
  P  P13  1  0.304376  0.479278  0.500000  1
  P  P14  1  0.000081  0.374920  0.000000  1
  P  P15  1  0.625080  0.625161  0.000000  1
  P  P16  1  0.374839  0.999919  0.000000  1
  Ru  Ru17  1  0.000034  0.553756  0.000000  1
  Ru  Ru18  1  0.446244  0.446278  0.000000  1
  Ru  Ru19  1  0.553722  0.999966  0.000000  1
  Ru  Ru20  1  0.999908  0.711052  0.500000  1
  Ru  Ru21  1  0.288948  0.288856  0.500000  1
  Ru  Ru22  1  0.711144  0.000092  0.500000  1
  Ru  Ru23  1  0.803141  0.186113  0.000000  1
  Ru  Ru24  1  0.813887  0.617028  0.000000  1
  Ru  Ru25  1  0.382972  0.196859  0.000000  1
  Ru  Ru26  1  0.185820  0.803387  0.000000  1
  Ru  Ru27  1  0.617568  0.814180  0.000000  1
  Ru  Ru28  1  0.196613  0.382432  0.000000  1
  Ru  Ru29  1  0.873437  0.368408  0.500000  1
  Ru  Ru30  1  0.631592  0.505029  0.500000  1
  Ru  Ru31  1  0.494971  0.126563  0.500000  1
  Ru  Ru32  1  0.368428  0.874202  0.500000  1
  Ru  Ru33  1  0.505774  0.631572  0.500000  1
  Ru  Ru34  1  0.125798  0.494226  0.500000  1
  Ru  Ru35  1  0.000000  0.000000  0.000000  1
