# generated using pymatgen
data_YbSb12IrRu3
_symmetry_space_group_name_H-M   'P 1'
_cell_length_a   8.13174952
_cell_length_b   8.13174880
_cell_length_c   8.13174891
_cell_angle_alpha   109.43597576
_cell_angle_beta   109.43598174
_cell_angle_gamma   109.43597624
_symmetry_Int_Tables_number   1
_chemical_formula_structural   YbSb12IrRu3
_chemical_formula_sum   'Yb1 Sb12 Ir1 Ru3'
_cell_volume   414.47219838
_cell_formula_units_Z   1
loop_
 _symmetry_equiv_pos_site_id
 _symmetry_equiv_pos_as_xyz
  1  'x, y, z'
loop_
 _atom_site_type_symbol
 _atom_site_label
 _atom_site_symmetry_multiplicity
 _atom_site_fract_x
 _atom_site_fract_y
 _atom_site_fract_z
 _atom_site_occupancy
  Yb  Yb0  1  0.000000  0.000000  0.000000  1
  Sb  Sb1  1  0.845912  0.661773  0.504262  1
  Sb  Sb2  1  0.154088  0.338227  0.495738  1
  Sb  Sb3  1  0.156949  0.660363  0.817526  1
  Sb  Sb4  1  0.843051  0.339637  0.182474  1
  Sb  Sb5  1  0.661773  0.504262  0.845912  1
  Sb  Sb6  1  0.338227  0.495738  0.154088  1
  Sb  Sb7  1  0.660363  0.817526  0.156949  1
  Sb  Sb8  1  0.339637  0.182474  0.843051  1
  Sb  Sb9  1  0.504262  0.845912  0.661773  1
  Sb  Sb10  1  0.495738  0.154088  0.338227  1
  Sb  Sb11  1  0.182474  0.843051  0.339637  1
  Sb  Sb12  1  0.817526  0.156949  0.660363  1
  Ir  Ir13  1  0.500000  0.500000  0.500000  1
  Ru  Ru14  1  0.500000  0.000000  0.000000  1
  Ru  Ru15  1  0.000000  0.500000  0.000000  1
  Ru  Ru16  1  0.000000  0.000000  0.500000  1
