# generated using pymatgen
data_Tb6Pr2Cd2PdRu
_symmetry_space_group_name_H-M   'P 1'
_cell_length_a   9.78218603
_cell_length_b   9.78509181
_cell_length_c   9.82037144
_cell_angle_alpha   59.86106722
_cell_angle_beta   59.89039623
_cell_angle_gamma   59.88061979
_symmetry_Int_Tables_number   1
_chemical_formula_structural   Tb6Pr2Cd2PdRu
_chemical_formula_sum   'Tb12 Pr4 Cd4 Pd2 Ru2'
_cell_volume   662.83204704
_cell_formula_units_Z   2
loop_
 _symmetry_equiv_pos_site_id
 _symmetry_equiv_pos_as_xyz
  1  'x, y, z'
loop_
 _atom_site_type_symbol
 _atom_site_label
 _atom_site_symmetry_multiplicity
 _atom_site_fract_x
 _atom_site_fract_y
 _atom_site_fract_z
 _atom_site_occupancy
  Tb  Tb0  1  0.348007  0.348415  0.354518  1
  Tb  Tb1  1  0.348415  0.348007  0.949060  1
  Tb  Tb2  1  0.343696  0.955983  0.350234  1
  Tb  Tb3  1  0.955983  0.343696  0.350088  1
  Tb  Tb4  1  0.820119  0.185195  0.188112  1
  Tb  Tb5  1  0.185195  0.820119  0.806574  1
  Tb  Tb6  1  0.186774  0.817773  0.188813  1
  Tb  Tb7  1  0.817773  0.186774  0.806640  1
  Tb  Tb8  1  0.187075  0.187075  0.812925  1
  Tb  Tb9  1  0.810034  0.810034  0.189966  1
  Tb  Tb10  1  0.941172  0.552970  0.563213  1
  Tb  Tb11  1  0.552970  0.941172  0.942645  1
  Pr  Pr12  1  0.558694  0.936996  0.565912  1
  Pr  Pr13  1  0.936996  0.558694  0.938398  1
  Pr  Pr14  1  0.563167  0.563167  0.936833  1
  Pr  Pr15  1  0.937726  0.937726  0.562274  1
  Cd  Cd16  1  0.582175  0.577972  0.578639  1
  Cd  Cd17  1  0.577972  0.582175  0.261213  1
  Cd  Cd18  1  0.579833  0.259001  0.581910  1
  Cd  Cd19  1  0.259001  0.579833  0.579255  1
  Pd  Pd20  1  0.143764  0.572415  0.143535  1
  Pd  Pd21  1  0.572415  0.143764  0.140286  1
  Ru  Ru22  1  0.149164  0.141878  0.135401  1
  Ru  Ru23  1  0.141878  0.149164  0.573558  1
