# generated using pymatgen
data_LaTb3Te7Pd
_symmetry_space_group_name_H-M   'P 1'
_cell_length_a   4.28311956
_cell_length_b   8.75761818
_cell_length_c   9.26722041
_cell_angle_alpha   90.02343803
_cell_angle_beta   90.02614579
_cell_angle_gamma   89.99948898
_symmetry_Int_Tables_number   1
_chemical_formula_structural   LaTb3Te7Pd
_chemical_formula_sum   'La1 Tb3 Te7 Pd1'
_cell_volume   347.61268419
_cell_formula_units_Z   1
loop_
 _symmetry_equiv_pos_site_id
 _symmetry_equiv_pos_as_xyz
  1  'x, y, z'
loop_
 _atom_site_type_symbol
 _atom_site_label
 _atom_site_symmetry_multiplicity
 _atom_site_fract_x
 _atom_site_fract_y
 _atom_site_fract_z
 _atom_site_occupancy
  La  La0  1  0.499182  0.497604  0.268910  1
  Tb  Tb1  1  0.000398  0.750331  0.711599  1
  Tb  Tb2  1  0.004474  0.249444  0.741569  1
  Tb  Tb3  1  0.499425  0.003055  0.269035  1
  Te  Te4  1  0.996538  0.944554  0.001063  1
  Te  Te5  1  0.996799  0.557073  0.994848  1
  Te  Te6  1  0.504477  0.247118  0.996056  1
  Te  Te7  1  0.999620  0.758798  0.372153  1
  Te  Te8  1  0.000212  0.240719  0.375946  1
  Te  Te9  1  0.501601  0.001944  0.629779  1
  Te  Te10  1  0.501653  0.497711  0.633767  1
  Pd  Pd11  1  0.495619  0.751650  0.006199  1
