# generated using pymatgen
data_TbTm7Sc10(Si8W)2
_symmetry_space_group_name_H-M   'P 1'
_cell_length_a   6.95965673
_cell_length_b   7.25244422
_cell_length_c   13.78676139
_cell_angle_alpha   90.06375442
_cell_angle_beta   89.97757127
_cell_angle_gamma   90.44397354
_symmetry_Int_Tables_number   1
_chemical_formula_structural   TbTm7Sc10(Si8W)2
_chemical_formula_sum   'Tb1 Tm7 Sc10 Si16 W2'
_cell_volume   695.85882072
_cell_formula_units_Z   1
loop_
 _symmetry_equiv_pos_site_id
 _symmetry_equiv_pos_as_xyz
  1  'x, y, z'
loop_
 _atom_site_type_symbol
 _atom_site_label
 _atom_site_symmetry_multiplicity
 _atom_site_fract_x
 _atom_site_fract_y
 _atom_site_fract_z
 _atom_site_occupancy
  Tb  Tb0  1  0.486507  0.673908  0.596984  1
  Tm  Tm1  1  0.008040  0.180392  0.096399  1
  Tm  Tm2  1  0.991995  0.819769  0.904209  1
  Tm  Tm3  1  0.485794  0.674611  0.901987  1
  Tm  Tm4  1  0.991990  0.819992  0.596609  1
  Tm  Tm5  1  0.514514  0.325186  0.097925  1
  Tm  Tm6  1  0.007675  0.180724  0.402996  1
  Tm  Tm7  1  0.514345  0.325567  0.401189  1
  Sc  Sc8  1  0.343248  0.005850  0.249770  1
  Sc  Sc9  1  0.656812  0.994416  0.750357  1
  Sc  Sc10  1  0.325686  0.177921  0.626254  1
  Sc  Sc11  1  0.674088  0.822317  0.373310  1
  Sc  Sc12  1  0.171831  0.669327  0.373680  1
  Sc  Sc13  1  0.673605  0.821760  0.126138  1
  Sc  Sc14  1  0.828612  0.330082  0.626568  1
  Sc  Sc15  1  0.326120  0.177985  0.874443  1
  Sc  Sc16  1  0.827964  0.330400  0.874552  1
  Sc  Sc17  1  0.172537  0.669045  0.125970  1
  Si  Si18  1  0.029204  0.123045  0.750588  1
  Si  Si19  1  0.971118  0.876850  0.249673  1
  Si  Si20  1  0.479565  0.603530  0.249738  1
  Si  Si21  1  0.520894  0.395027  0.750927  1
  Si  Si22  1  0.280054  0.859125  0.750811  1
  Si  Si23  1  0.719060  0.141536  0.249630  1
  Si  Si24  1  0.205857  0.369117  0.249742  1
  Si  Si25  1  0.795408  0.630481  0.750758  1
  Si  Si26  1  0.152926  0.465314  0.544890  1
  Si  Si27  1  0.844255  0.533872  0.454532  1
  Si  Si28  1  0.343091  0.967357  0.460829  1
  Si  Si29  1  0.844874  0.533566  0.045682  1
  Si  Si30  1  0.657265  0.036604  0.537596  1
  Si  Si31  1  0.155242  0.466729  0.954662  1
  Si  Si32  1  0.656699  0.034062  0.961820  1
  Si  Si33  1  0.343097  0.965448  0.038547  1
  W  W34  1  0.151497  0.497517  0.750509  1
  W  W35  1  0.848529  0.501573  0.249724  1
