# generated using pymatgen
data_Ti2Co2Sn2Rh
_symmetry_space_group_name_H-M   'P 1'
_cell_length_a   7.42488164
_cell_length_b   7.42488160
_cell_length_c   7.42488104
_cell_angle_alpha   33.87825918
_cell_angle_beta   33.87825844
_cell_angle_gamma   33.87825521
_symmetry_Int_Tables_number   1
_chemical_formula_structural   Ti2Co2Sn2Rh
_chemical_formula_sum   'Ti2 Co2 Sn2 Rh1'
_cell_volume   113.35026732
_cell_formula_units_Z   1
loop_
 _symmetry_equiv_pos_site_id
 _symmetry_equiv_pos_as_xyz
  1  'x, y, z'
loop_
 _atom_site_type_symbol
 _atom_site_label
 _atom_site_symmetry_multiplicity
 _atom_site_fract_x
 _atom_site_fract_y
 _atom_site_fract_z
 _atom_site_occupancy
  Ti  Ti0  1  0.750609  0.750609  0.750609  1
  Ti  Ti1  1  0.250960  0.250960  0.250960  1
  Co  Co2  1  0.628751  0.628751  0.628751  1
  Co  Co3  1  0.375352  0.375352  0.375352  1
  Sn  Sn4  1  0.991841  0.991841  0.991841  1
  Sn  Sn5  1  0.506048  0.506048  0.506048  1
  Rh  Rh6  1  0.121439  0.121439  0.121439  1
