# generated using pymatgen
data_Er3Mg5(B6Os)4
_symmetry_space_group_name_H-M   'P 1'
_cell_length_a   3.54556900
_cell_length_b   8.88685879
_cell_length_c   11.19694840
_cell_angle_alpha   89.94715269
_cell_angle_beta   90.00000000
_cell_angle_gamma   90.00000000
_symmetry_Int_Tables_number   1
_chemical_formula_structural   Er3Mg5(B6Os)4
_chemical_formula_sum   'Er3 Mg5 B24 Os4'
_cell_volume   352.80417280
_cell_formula_units_Z   1
loop_
 _symmetry_equiv_pos_site_id
 _symmetry_equiv_pos_as_xyz
  1  'x, y, z'
loop_
 _atom_site_type_symbol
 _atom_site_label
 _atom_site_symmetry_multiplicity
 _atom_site_fract_x
 _atom_site_fract_y
 _atom_site_fract_z
 _atom_site_occupancy
  Er  Er0  1  0.000000  0.322705  0.413791  1
  Er  Er1  1  0.000000  0.676116  0.587879  1
  Er  Er2  1  0.000000  0.823720  0.084879  1
  Mg  Mg3  1  0.000000  0.172935  0.912586  1
  Mg  Mg4  1  0.000000  0.945155  0.371948  1
  Mg  Mg5  1  0.000000  0.056866  0.629267  1
  Mg  Mg6  1  0.000000  0.443908  0.126058  1
  Mg  Mg7  1  0.000000  0.556754  0.873138  1
  B  B8  1  0.500000  0.554998  0.433109  1
  B  B9  1  0.500000  0.444022  0.567666  1
  B  B10  1  0.500000  0.054681  0.065118  1
  B  B11  1  0.500000  0.945422  0.933011  1
  B  B12  1  0.500000  0.755702  0.418637  1
  B  B13  1  0.500000  0.244121  0.583190  1
  B  B14  1  0.500000  0.255909  0.078496  1
  B  B15  1  0.500000  0.744962  0.917963  1
  B  B16  1  0.500000  0.794370  0.262748  1
  B  B17  1  0.500000  0.204866  0.738974  1
  B  B18  1  0.500000  0.293797  0.236139  1
  B  B19  1  0.500000  0.705924  0.763260  1
  B  B20  1  0.500000  0.628422  0.181773  1
  B  B21  1  0.500000  0.370011  0.820412  1
  B  B22  1  0.500000  0.128600  0.317277  1
  B  B23  1  0.500000  0.872193  0.682664  1
  B  B24  1  0.500000  0.981255  0.212088  1
  B  B25  1  0.500000  0.021599  0.788577  1
  B  B26  1  0.500000  0.480386  0.286376  1
  B  B27  1  0.500000  0.519158  0.713800  1
  B  B28  1  0.500000  0.592500  0.024971  1
  B  B29  1  0.500000  0.406607  0.974450  1
  B  B30  1  0.500000  0.092909  0.474799  1
  B  B31  1  0.500000  0.907137  0.525758  1
  Os  Os32  1  0.000000  0.640248  0.318897  1
  Os  Os33  1  0.000000  0.360390  0.683645  1
  Os  Os34  1  0.000000  0.141037  0.178136  1
  Os  Os35  1  0.000000  0.860611  0.818517  1
