# generated using pymatgen
data_Zr10AlTl2CuPb4
_symmetry_space_group_name_H-M   'P 1'
_cell_length_a   8.82345432
_cell_length_b   8.83171973
_cell_length_c   5.95007208
_cell_angle_alpha   89.98081876
_cell_angle_beta   90.00960519
_cell_angle_gamma   120.03098169
_symmetry_Int_Tables_number   1
_chemical_formula_structural   Zr10AlTl2CuPb4
_chemical_formula_sum   'Zr10 Al1 Tl2 Cu1 Pb4'
_cell_volume   401.42192260
_cell_formula_units_Z   1
loop_
 _symmetry_equiv_pos_site_id
 _symmetry_equiv_pos_as_xyz
  1  'x, y, z'
loop_
 _atom_site_type_symbol
 _atom_site_label
 _atom_site_symmetry_multiplicity
 _atom_site_fract_x
 _atom_site_fract_y
 _atom_site_fract_z
 _atom_site_occupancy
  Zr  Zr0  1  0.666286  0.333011  0.499080  1
  Zr  Zr1  1  0.333714  0.666726  0.499080  1
  Zr  Zr2  1  0.334202  0.666332  0.001197  1
  Zr  Zr3  1  0.665798  0.332129  0.001197  1
  Zr  Zr4  1  0.737836  0.738800  0.246651  1
  Zr  Zr5  1  0.262164  0.000964  0.246651  1
  Zr  Zr6  1  0.000000  0.261470  0.246473  1
  Zr  Zr7  1  0.260786  0.260670  0.754089  1
  Zr  Zr8  1  0.739214  0.999884  0.754089  1
  Zr  Zr9  1  0.000000  0.739939  0.752627  1
  Al  Al10  1  0.000000  0.000899  0.498034  1
  Tl  Tl11  1  0.385450  0.385345  0.250576  1
  Tl  Tl12  1  0.614550  0.999896  0.250576  1
  Cu  Cu13  1  0.000000  0.000677  0.002228  1
  Pb  Pb14  1  0.000000  0.614533  0.250809  1
  Pb  Pb15  1  0.613549  0.613391  0.748863  1
  Pb  Pb16  1  0.386451  0.999842  0.748863  1
  Pb  Pb17  1  0.000000  0.385493  0.748918  1
