# generated using pymatgen
data_Ac3In2HgPt2Rh
_symmetry_space_group_name_H-M   'P 1'
_cell_length_a   7.98839499
_cell_length_b   7.98839570
_cell_length_c   4.18068900
_cell_angle_alpha   90.00000000
_cell_angle_beta   90.00000000
_cell_angle_gamma   118.79534096
_symmetry_Int_Tables_number   1
_chemical_formula_structural   Ac3In2HgPt2Rh
_chemical_formula_sum   'Ac3 In2 Hg1 Pt2 Rh1'
_cell_volume   233.79891800
_cell_formula_units_Z   1
loop_
 _symmetry_equiv_pos_site_id
 _symmetry_equiv_pos_as_xyz
  1  'x, y, z'
loop_
 _atom_site_type_symbol
 _atom_site_label
 _atom_site_symmetry_multiplicity
 _atom_site_fract_x
 _atom_site_fract_y
 _atom_site_fract_z
 _atom_site_occupancy
  Ac  Ac0  1  0.994293  0.592101  0.500000  1
  Ac  Ac1  1  0.413970  0.413970  0.500000  1
  Ac  Ac2  1  0.592101  0.994293  0.500000  1
  In  In3  1  0.003183  0.243428  0.000000  1
  In  In4  1  0.243428  0.003183  0.000000  1
  Hg  Hg5  1  0.755686  0.755686  0.000000  1
  Pt  Pt6  1  0.316089  0.662575  0.000000  1
  Pt  Pt7  1  0.662575  0.316089  0.000000  1
  Rh  Rh8  1  0.018676  0.018676  0.500000  1
