# generated using pymatgen
data_Tb7Ce3(SiB4)4
_symmetry_space_group_name_H-M   'P 1'
_cell_length_a   7.28123988
_cell_length_b   7.28123988
_cell_length_c   8.23357207
_cell_angle_alpha   89.98959712
_cell_angle_beta   89.98959712
_cell_angle_gamma   90.10132026
_symmetry_Int_Tables_number   1
_chemical_formula_structural   Tb7Ce3(SiB4)4
_chemical_formula_sum   'Tb7 Ce3 Si4 B16'
_cell_volume   436.51409897
_cell_formula_units_Z   1
loop_
 _symmetry_equiv_pos_site_id
 _symmetry_equiv_pos_as_xyz
  1  'x, y, z'
loop_
 _atom_site_type_symbol
 _atom_site_label
 _atom_site_symmetry_multiplicity
 _atom_site_fract_x
 _atom_site_fract_y
 _atom_site_fract_z
 _atom_site_occupancy
  Tb  Tb0  1  0.819811  0.679990  0.221047  1
  Tb  Tb1  1  0.819814  0.680241  0.778781  1
  Tb  Tb2  1  0.681494  0.181494  0.778737  1
  Tb  Tb3  1  0.180241  0.319814  0.778781  1
  Tb  Tb4  1  0.179990  0.319811  0.221047  1
  Tb  Tb5  1  0.998991  0.001009  0.500280  1
  Tb  Tb6  1  0.501009  0.498991  0.500280  1
  Ce  Ce7  1  0.681997  0.181997  0.227419  1
  Ce  Ce8  1  0.317438  0.817438  0.772337  1
  Ce  Ce9  1  0.318277  0.818277  0.228401  1
  Si  Si10  1  0.114116  0.614116  0.500497  1
  Si  Si11  1  0.885172  0.385172  0.499842  1
  Si  Si12  1  0.385788  0.114298  0.500425  1
  Si  Si13  1  0.614298  0.885788  0.500425  1
  B  B14  1  0.172557  0.038509  0.999123  1
  B  B15  1  0.827199  0.961671  0.999662  1
  B  B16  1  0.959700  0.172287  0.999287  1
  B  B17  1  0.328379  0.539716  0.999183  1
  B  B18  1  0.039716  0.828379  0.999183  1
  B  B19  1  0.672287  0.459700  0.999287  1
  B  B20  1  0.538509  0.672557  0.999123  1
  B  B21  1  0.461671  0.327199  0.999662  1
  B  B22  1  0.091683  0.591683  0.999322  1
  B  B23  1  0.908511  0.408511  0.000742  1
  B  B24  1  0.409761  0.090553  0.000016  1
  B  B25  1  0.590553  0.909761  0.000016  1
  B  B26  1  0.999635  0.000180  0.158608  1
  B  B27  1  0.000983  0.000238  0.839941  1
  B  B28  1  0.500238  0.500983  0.839941  1
  B  B29  1  0.500180  0.499635  0.158608  1
