# generated using pymatgen
data_Ba8SrAu6
_symmetry_space_group_name_H-M   'P 1'
_cell_length_a   8.76954673
_cell_length_b   8.76954716
_cell_length_c   8.76954664
_cell_angle_alpha   71.60024135
_cell_angle_beta   71.60024156
_cell_angle_gamma   71.60024158
_symmetry_Int_Tables_number   1
_chemical_formula_structural   Ba8SrAu6
_chemical_formula_sum   'Ba8 Sr1 Au6'
_cell_volume   589.49275867
_cell_formula_units_Z   1
loop_
 _symmetry_equiv_pos_site_id
 _symmetry_equiv_pos_as_xyz
  1  'x, y, z'
loop_
 _atom_site_type_symbol
 _atom_site_label
 _atom_site_symmetry_multiplicity
 _atom_site_fract_x
 _atom_site_fract_y
 _atom_site_fract_z
 _atom_site_occupancy
  Ba  Ba0  1  0.893044  0.173846  0.653911  1
  Ba  Ba1  1  0.653911  0.893044  0.173846  1
  Ba  Ba2  1  0.173846  0.653911  0.893044  1
  Ba  Ba3  1  0.106956  0.826154  0.346089  1
  Ba  Ba4  1  0.346089  0.106956  0.826154  1
  Ba  Ba5  1  0.826154  0.346089  0.106956  1
  Ba  Ba6  1  0.300473  0.300473  0.300473  1
  Ba  Ba7  1  0.699527  0.699527  0.699527  1
  Sr  Sr8  1  0.500000  0.500000  0.500000  1
  Au  Au9  1  0.901753  0.542701  0.347315  1
  Au  Au10  1  0.347315  0.901753  0.542701  1
  Au  Au11  1  0.542701  0.347315  0.901753  1
  Au  Au12  1  0.098247  0.457299  0.652685  1
  Au  Au13  1  0.652685  0.098247  0.457299  1
  Au  Au14  1  0.457299  0.652685  0.098247  1
