# generated using pymatgen
data_Y3Er7Hg3Ru
_symmetry_space_group_name_H-M   'P 1'
_cell_length_a   9.52908800
_cell_length_b   9.52908776
_cell_length_c   9.67745200
_cell_angle_alpha   90.00000000
_cell_angle_beta   90.00000000
_cell_angle_gamma   120.00000085
_symmetry_Int_Tables_number   1
_chemical_formula_structural   Y3Er7Hg3Ru
_chemical_formula_sum   'Y6 Er14 Hg6 Ru2'
_cell_volume   761.01692917
_cell_formula_units_Z   2
loop_
 _symmetry_equiv_pos_site_id
 _symmetry_equiv_pos_as_xyz
  1  'x, y, z'
loop_
 _atom_site_type_symbol
 _atom_site_label
 _atom_site_symmetry_multiplicity
 _atom_site_fract_x
 _atom_site_fract_y
 _atom_site_fract_z
 _atom_site_occupancy
  Y  Y0  1  0.540545  0.459455  0.250000  1
  Y  Y1  1  0.540545  0.081091  0.250000  1
  Y  Y2  1  0.918909  0.459455  0.250000  1
  Y  Y3  1  0.459455  0.540545  0.750000  1
  Y  Y4  1  0.459455  0.918909  0.750000  1
  Y  Y5  1  0.081091  0.540545  0.750000  1
  Er  Er6  1  0.000000  0.000000  0.500000  1
  Er  Er7  1  0.000000  0.000000  0.000000  1
  Er  Er8  1  0.209509  0.790491  0.439789  1
  Er  Er9  1  0.209509  0.419019  0.439789  1
  Er  Er10  1  0.580981  0.790491  0.439789  1
  Er  Er11  1  0.790491  0.209509  0.560211  1
  Er  Er12  1  0.790491  0.580981  0.560211  1
  Er  Er13  1  0.419019  0.209509  0.560211  1
  Er  Er14  1  0.790491  0.209509  0.939789  1
  Er  Er15  1  0.790491  0.580981  0.939789  1
  Er  Er16  1  0.419019  0.209509  0.939789  1
  Er  Er17  1  0.209509  0.790491  0.060211  1
  Er  Er18  1  0.209509  0.419019  0.060211  1
  Er  Er19  1  0.580981  0.790491  0.060211  1
  Hg  Hg20  1  0.883143  0.116857  0.250000  1
  Hg  Hg21  1  0.883143  0.766288  0.250000  1
  Hg  Hg22  1  0.233712  0.116857  0.250000  1
  Hg  Hg23  1  0.116857  0.883143  0.750000  1
  Hg  Hg24  1  0.116857  0.233712  0.750000  1
  Hg  Hg25  1  0.766288  0.883143  0.750000  1
  Ru  Ru26  1  0.333333  0.666667  0.250000  1
  Ru  Ru27  1  0.666667  0.333333  0.750000  1
