# generated using pymatgen
data_YEr2Tm5(Si3Rh)4
_symmetry_space_group_name_H-M   'P 1'
_cell_length_a   8.14784400
_cell_length_b   8.14990532
_cell_length_c   7.79988000
_cell_angle_alpha   90.00000000
_cell_angle_beta   90.00000000
_cell_angle_gamma   119.99163363
_symmetry_Int_Tables_number   1
_chemical_formula_structural   YEr2Tm5(Si3Rh)4
_chemical_formula_sum   'Y1 Er2 Tm5 Si12 Rh4'
_cell_volume   448.59086850
_cell_formula_units_Z   1
loop_
 _symmetry_equiv_pos_site_id
 _symmetry_equiv_pos_as_xyz
  1  'x, y, z'
loop_
 _atom_site_type_symbol
 _atom_site_label
 _atom_site_symmetry_multiplicity
 _atom_site_fract_x
 _atom_site_fract_y
 _atom_site_fract_z
 _atom_site_occupancy
  Y  Y0  1  0.000015  0.000029  0.750000  1
  Er  Er1  1  0.509253  0.018508  0.250000  1
  Er  Er2  1  0.999957  0.999913  0.250000  1
  Tm  Tm3  1  0.981824  0.490981  0.250000  1
  Tm  Tm4  1  0.509156  0.490981  0.250000  1
  Tm  Tm5  1  0.490816  0.981631  0.750000  1
  Tm  Tm6  1  0.018363  0.509167  0.750000  1
  Tm  Tm7  1  0.490805  0.509167  0.750000  1
  Si  Si8  1  0.167074  0.832858  0.499719  1
  Si  Si9  1  0.167092  0.334182  0.499653  1
  Si  Si10  1  0.665785  0.832858  0.499719  1
  Si  Si11  1  0.334193  0.167174  0.999944  1
  Si  Si12  1  0.832864  0.665730  0.499775  1
  Si  Si13  1  0.832980  0.167174  0.999944  1
  Si  Si14  1  0.832864  0.665730  0.000225  1
  Si  Si15  1  0.167092  0.334182  0.000347  1
  Si  Si16  1  0.665785  0.832858  0.000281  1
  Si  Si17  1  0.334193  0.167174  0.500056  1
  Si  Si18  1  0.832980  0.167174  0.500056  1
  Si  Si19  1  0.167074  0.832858  0.000281  1
  Rh  Rh20  1  0.333146  0.666293  0.034200  1
  Rh  Rh21  1  0.666771  0.333541  0.965035  1
  Rh  Rh22  1  0.666771  0.333541  0.534965  1
  Rh  Rh23  1  0.333146  0.666293  0.465800  1
