# generated using pymatgen
data_Yb2CoNiSn4
_symmetry_space_group_name_H-M   'P 1'
_cell_length_a   5.81292566
_cell_length_b   5.81292521
_cell_length_c   7.46531100
_cell_angle_alpha   90.00000000
_cell_angle_beta   90.00000000
_cell_angle_gamma   137.63570910
_symmetry_Int_Tables_number   1
_chemical_formula_structural   Yb2CoNiSn4
_chemical_formula_sum   'Yb2 Co1 Ni1 Sn4'
_cell_volume   169.97908970
_cell_formula_units_Z   1
loop_
 _symmetry_equiv_pos_site_id
 _symmetry_equiv_pos_as_xyz
  1  'x, y, z'
loop_
 _atom_site_type_symbol
 _atom_site_label
 _atom_site_symmetry_multiplicity
 _atom_site_fract_x
 _atom_site_fract_y
 _atom_site_fract_z
 _atom_site_occupancy
  Yb  Yb0  1  0.937505  0.062495  0.249999  1
  Yb  Yb1  1  0.062765  0.937235  0.750000  1
  Co  Co2  1  0.210287  0.789713  0.249999  1
  Ni  Ni3  1  0.789924  0.210076  0.750000  1
  Sn  Sn4  1  0.647473  0.352527  0.048312  1
  Sn  Sn5  1  0.647473  0.352527  0.451688  1
  Sn  Sn6  1  0.352287  0.647713  0.544863  1
  Sn  Sn7  1  0.352287  0.647713  0.955136  1
