# generated using pymatgen
data_Dy2Si5NiRh2
_symmetry_space_group_name_H-M   'P 1'
_cell_length_a   8.05382762
_cell_length_b   8.02150021
_cell_length_c   8.02149904
_cell_angle_alpha   138.29851379
_cell_angle_beta   104.60307161
_cell_angle_gamma   90.01380014
_symmetry_Int_Tables_number   1
_chemical_formula_structural   Dy2Si5NiRh2
_chemical_formula_sum   'Dy4 Si10 Ni2 Rh4'
_cell_volume   318.98960785
_cell_formula_units_Z   2
loop_
 _symmetry_equiv_pos_site_id
 _symmetry_equiv_pos_as_xyz
  1  'x, y, z'
loop_
 _atom_site_type_symbol
 _atom_site_label
 _atom_site_symmetry_multiplicity
 _atom_site_fract_x
 _atom_site_fract_y
 _atom_site_fract_z
 _atom_site_occupancy
  Dy  Dy0  1  0.635451  0.867904  0.767548  1
  Dy  Dy1  1  0.364549  0.132096  0.232452  1
  Dy  Dy2  1  0.102399  0.368253  0.734146  1
  Dy  Dy3  1  0.897601  0.631747  0.265854  1
  Si  Si4  1  0.276171  0.013379  0.744797  1
  Si  Si5  1  0.723829  0.986621  0.255203  1
  Si  Si6  1  0.723829  0.468626  0.737207  1
  Si  Si7  1  0.276171  0.531374  0.262793  1
  Si  Si8  1  0.447225  0.607349  0.839876  1
  Si  Si9  1  0.552775  0.392651  0.160124  1
  Si  Si10  1  0.764437  0.106082  0.658353  1
  Si  Si11  1  0.235563  0.893918  0.341647  1
  Si  Si12  1  0.000000  0.726956  0.726956  1
  Si  Si13  1  0.000000  0.273044  0.273044  1
  Ni  Ni14  1  0.252970  0.639321  0.613648  1
  Ni  Ni15  1  0.747030  0.360679  0.386352  1
  Rh  Rh16  1  0.029799  0.135890  0.893910  1
  Rh  Rh17  1  0.970201  0.864110  0.106090  1
  Rh  Rh18  1  0.500000  0.751041  0.251041  1
  Rh  Rh19  1  0.500000  0.248959  0.748959  1
