# generated using pymatgen
data_Dy13Tm7(Bi2Sb)4
_symmetry_space_group_name_H-M   'P 1'
_cell_length_a   8.16729350
_cell_length_b   9.41233704
_cell_length_c   11.96618906
_cell_angle_alpha   89.99249236
_cell_angle_beta   90.03881878
_cell_angle_gamma   90.00614058
_symmetry_Int_Tables_number   1
_chemical_formula_structural   Dy13Tm7(Bi2Sb)4
_chemical_formula_sum   'Dy13 Tm7 Bi8 Sb4'
_cell_volume   919.88044560
_cell_formula_units_Z   1
loop_
 _symmetry_equiv_pos_site_id
 _symmetry_equiv_pos_as_xyz
  1  'x, y, z'
loop_
 _atom_site_type_symbol
 _atom_site_label
 _atom_site_symmetry_multiplicity
 _atom_site_fract_x
 _atom_site_fract_y
 _atom_site_fract_z
 _atom_site_occupancy
  Dy  Dy0  1  0.352966  0.750508  0.213279  1
  Dy  Dy1  1  0.852018  0.750399  0.286271  1
  Dy  Dy2  1  0.647640  0.250173  0.786477  1
  Dy  Dy3  1  0.147810  0.250308  0.713514  1
  Dy  Dy4  1  0.188677  0.562231  0.442489  1
  Dy  Dy5  1  0.472720  0.249998  0.487900  1
  Dy  Dy6  1  0.972496  0.250167  0.011976  1
  Dy  Dy7  1  0.527895  0.750237  0.512231  1
  Dy  Dy8  1  0.027553  0.750061  0.987827  1
  Dy  Dy9  1  0.315005  0.250017  0.218065  1
  Dy  Dy10  1  0.815275  0.250010  0.281878  1
  Dy  Dy11  1  0.684958  0.750086  0.782043  1
  Dy  Dy12  1  0.184997  0.750353  0.718364  1
  Tm  Tm13  1  0.688897  0.563878  0.057427  1
  Tm  Tm14  1  0.188873  0.936102  0.442384  1
  Tm  Tm15  1  0.311041  0.063843  0.942588  1
  Tm  Tm16  1  0.811360  0.436027  0.557464  1
  Tm  Tm17  1  0.311183  0.436096  0.942481  1
  Tm  Tm18  1  0.810621  0.063683  0.557699  1
  Tm  Tm19  1  0.688945  0.936184  0.057386  1
  Bi  Bi20  1  0.565651  0.995674  0.325248  1
  Bi  Bi21  1  0.065405  0.504727  0.174427  1
  Bi  Bi22  1  0.434361  0.495622  0.674888  1
  Bi  Bi23  1  0.934342  0.004736  0.825373  1
  Bi  Bi24  1  0.434504  0.004707  0.674739  1
  Bi  Bi25  1  0.934160  0.495522  0.825415  1
  Bi  Bi26  1  0.566010  0.504646  0.325174  1
  Bi  Bi27  1  0.065553  0.995552  0.174503  1
  Sb  Sb28  1  0.407423  0.749978  0.957892  1
  Sb  Sb29  1  0.907074  0.750615  0.542256  1
  Sb  Sb30  1  0.592625  0.250022  0.042007  1
  Sb  Sb31  1  0.091963  0.247840  0.458338  1
