# generated using pymatgen
data_La8Zn5Ga3Ir5Rh3
_symmetry_space_group_name_H-M   'P 1'
_cell_length_a   4.07031800
_cell_length_b   7.49080245
_cell_length_c   16.69574264
_cell_angle_alpha   89.57256278
_cell_angle_beta   90.00000000
_cell_angle_gamma   90.00000000
_symmetry_Int_Tables_number   1
_chemical_formula_structural   La8Zn5Ga3Ir5Rh3
_chemical_formula_sum   'La8 Zn5 Ga3 Ir5 Rh3'
_cell_volume   509.03816007
_cell_formula_units_Z   1
loop_
 _symmetry_equiv_pos_site_id
 _symmetry_equiv_pos_as_xyz
  1  'x, y, z'
loop_
 _atom_site_type_symbol
 _atom_site_label
 _atom_site_symmetry_multiplicity
 _atom_site_fract_x
 _atom_site_fract_y
 _atom_site_fract_z
 _atom_site_occupancy
  La  La0  1  0.750000  0.327863  0.439745  1
  La  La1  1  0.250000  0.049928  0.716979  1
  La  La2  1  0.250000  0.547456  0.783104  1
  La  La3  1  0.250000  0.673988  0.560068  1
  La  La4  1  0.750000  0.826119  0.058713  1
  La  La5  1  0.250000  0.175120  0.941219  1
  La  La6  1  0.750000  0.450556  0.217291  1
  La  La7  1  0.750000  0.950506  0.282633  1
  Zn  Zn8  1  0.750000  0.002586  0.562723  1
  Zn  Zn9  1  0.250000  0.501456  0.058651  1
  Zn  Zn10  1  0.750000  0.375717  0.649492  1
  Zn  Zn11  1  0.750000  0.498199  0.940715  1
  Zn  Zn12  1  0.250000  0.621155  0.350007  1
  Ga  Ga13  1  0.250000  0.121798  0.149311  1
  Ga  Ga14  1  0.250000  0.997921  0.439125  1
  Ga  Ga15  1  0.750000  0.878515  0.849874  1
  Ir  Ir16  1  0.750000  0.241701  0.818044  1
  Ir  Ir17  1  0.250000  0.240872  0.315462  1
  Ir  Ir18  1  0.750000  0.768532  0.434034  1
  Ir  Ir19  1  0.750000  0.257521  0.070856  1
  Ir  Ir20  1  0.750000  0.753432  0.687050  1
  Rh  Rh21  1  0.250000  0.743241  0.929534  1
  Rh  Rh22  1  0.250000  0.237291  0.564162  1
  Rh  Rh23  1  0.250000  0.758530  0.181206  1
