# generated using pymatgen
data_Pu4VB16W3
_symmetry_space_group_name_H-M   'P 1'
_cell_length_a   3.61081400
_cell_length_b   6.01347705
_cell_length_c   11.64553310
_cell_angle_alpha   90.01459290
_cell_angle_beta   90.00000000
_cell_angle_gamma   90.00000000
_symmetry_Int_Tables_number   1
_chemical_formula_structural   Pu4VB16W3
_chemical_formula_sum   'Pu4 V1 B16 W3'
_cell_volume   252.86582334
_cell_formula_units_Z   1
loop_
 _symmetry_equiv_pos_site_id
 _symmetry_equiv_pos_as_xyz
  1  'x, y, z'
loop_
 _atom_site_type_symbol
 _atom_site_label
 _atom_site_symmetry_multiplicity
 _atom_site_fract_x
 _atom_site_fract_y
 _atom_site_fract_z
 _atom_site_occupancy
  Pu  Pu0  1  0.000000  0.625898  0.346139  1
  Pu  Pu1  1  0.000000  0.374239  0.651719  1
  Pu  Pu2  1  0.000000  0.123762  0.149126  1
  Pu  Pu3  1  0.000000  0.874374  0.851728  1
  V  V4  1  0.000000  0.630749  0.084647  1
  B  B5  1  0.500000  0.784009  0.184676  1
  B  B6  1  0.500000  0.213087  0.813922  1
  B  B7  1  0.500000  0.288006  0.311528  1
  B  B8  1  0.500000  0.712720  0.687969  1
  B  B9  1  0.500000  0.864558  0.033606  1
  B  B10  1  0.500000  0.133534  0.968623  1
  B  B11  1  0.500000  0.366959  0.467411  1
  B  B12  1  0.500000  0.633122  0.532038  1
  B  B13  1  0.500000  0.883728  0.451926  1
  B  B14  1  0.500000  0.115759  0.547382  1
  B  B15  1  0.500000  0.387079  0.048323  1
  B  B16  1  0.500000  0.616106  0.954579  1
  B  B17  1  0.500000  0.973320  0.305929  1
  B  B18  1  0.500000  0.025431  0.693407  1
  B  B19  1  0.500000  0.477192  0.191475  1
  B  B20  1  0.500000  0.525908  0.808290  1
  W  W21  1  0.000000  0.370631  0.916113  1
  W  W22  1  0.000000  0.132706  0.413047  1
  W  W23  1  0.000000  0.867123  0.586397  1
