# generated using pymatgen
data_Fe(PO3)3
_symmetry_space_group_name_H-M   'P 1'
_cell_length_a   15.48992000
_cell_length_b   6.32518100
_cell_length_c   8.44846638
_cell_angle_alpha   74.03001673
_cell_angle_beta   90.00000000
_cell_angle_gamma   90.00000000
_symmetry_Int_Tables_number   1
_chemical_formula_structural   Fe(PO3)3
_chemical_formula_sum   'Fe4 P12 O36'
_cell_volume   795.80529870
_cell_formula_units_Z   4
loop_
 _symmetry_equiv_pos_site_id
 _symmetry_equiv_pos_as_xyz
  1  'x, y, z'
loop_
 _atom_site_type_symbol
 _atom_site_label
 _atom_site_symmetry_multiplicity
 _atom_site_fract_x
 _atom_site_fract_y
 _atom_site_fract_z
 _atom_site_occupancy
  Fe  Fe0  1  0.638076  0.119785  0.123107  1
  Fe  Fe1  1  0.861924  0.119785  0.623107  1
  Fe  Fe2  1  0.138076  0.880215  0.376893  1
  Fe  Fe3  1  0.361924  0.880215  0.876893  1
  P  P4  1  0.955941  0.151539  0.277543  1
  P  P5  1  0.387654  0.412346  0.789964  1
  P  P6  1  0.612346  0.587654  0.210036  1
  P  P7  1  0.160026  0.791677  0.015654  1
  P  P8  1  0.660026  0.208323  0.484346  1
  P  P9  1  0.112346  0.412346  0.289964  1
  P  P10  1  0.339974  0.791677  0.515654  1
  P  P11  1  0.887654  0.587654  0.710036  1
  P  P12  1  0.455941  0.848461  0.222457  1
  P  P13  1  0.544059  0.151539  0.777543  1
  P  P14  1  0.044059  0.848461  0.722457  1
  P  P15  1  0.839974  0.208323  0.984346  1
  O  O16  1  0.388600  0.564447  0.898082  1
  O  O17  1  0.073740  0.835598  0.906177  1
  O  O18  1  0.926260  0.164402  0.093823  1
  O  O19  1  0.379076  0.822523  0.121293  1
  O  O20  1  0.651533  0.465847  0.388295  1
  O  O21  1  0.573740  0.164402  0.593823  1
  O  O22  1  0.840350  0.800853  0.647751  1
  O  O23  1  0.340350  0.199147  0.852249  1
  O  O24  1  0.848467  0.465847  0.888295  1
  O  O25  1  0.346846  0.931637  0.632187  1
  O  O26  1  0.010779  0.949188  0.336925  1
  O  O27  1  0.879076  0.177477  0.378707  1
  O  O28  1  0.263303  0.814478  0.405475  1
  O  O29  1  0.014004  0.370790  0.243966  1
  O  O30  1  0.989221  0.050812  0.663075  1
  O  O31  1  0.659650  0.800853  0.147751  1
  O  O32  1  0.611400  0.435553  0.101918  1
  O  O33  1  0.159650  0.199147  0.352249  1
  O  O34  1  0.514004  0.629210  0.256034  1
  O  O35  1  0.846846  0.068363  0.867813  1
  O  O36  1  0.763303  0.185522  0.094525  1
  O  O37  1  0.736697  0.185522  0.594525  1
  O  O38  1  0.111400  0.564447  0.398082  1
  O  O39  1  0.489221  0.949188  0.836925  1
  O  O40  1  0.510779  0.050812  0.163075  1
  O  O41  1  0.236697  0.814478  0.905475  1
  O  O42  1  0.151533  0.534153  0.111705  1
  O  O43  1  0.120924  0.822523  0.621293  1
  O  O44  1  0.426260  0.835598  0.406177  1
  O  O45  1  0.985996  0.629210  0.756034  1
  O  O46  1  0.348467  0.534153  0.611705  1
  O  O47  1  0.153154  0.931637  0.132187  1
  O  O48  1  0.620924  0.177477  0.878707  1
  O  O49  1  0.485996  0.370790  0.743966  1
  O  O50  1  0.888600  0.435553  0.601918  1
  O  O51  1  0.653154  0.068363  0.367813  1
