# generated using pymatgen
data_Ho4Er4Tm4CdCo5
_symmetry_space_group_name_H-M   'P 1'
_cell_length_a   8.15710287
_cell_length_b   8.15573450
_cell_length_c   8.15710321
_cell_angle_alpha   110.53454720
_cell_angle_beta   110.87167359
_cell_angle_gamma   107.04122938
_symmetry_Int_Tables_number   1
_chemical_formula_structural   Ho4Er4Tm4CdCo5
_chemical_formula_sum   'Ho4 Er4 Tm4 Cd1 Co5'
_cell_volume   417.14757576
_cell_formula_units_Z   1
loop_
 _symmetry_equiv_pos_site_id
 _symmetry_equiv_pos_as_xyz
  1  'x, y, z'
loop_
 _atom_site_type_symbol
 _atom_site_label
 _atom_site_symmetry_multiplicity
 _atom_site_fract_x
 _atom_site_fract_y
 _atom_site_fract_z
 _atom_site_occupancy
  Ho  Ho0  1  0.288522  0.184733  0.473280  1
  Ho  Ho1  1  0.711478  0.815267  0.526720  1
  Ho  Ho2  1  0.288548  0.815267  0.103790  1
  Ho  Ho3  1  0.711452  0.184733  0.896210  1
  Er  Er4  1  0.212779  0.405700  0.192920  1
  Er  Er5  1  0.787221  0.594300  0.807080  1
  Er  Er6  1  0.212630  0.019663  0.807032  1
  Er  Er7  1  0.787370  0.980337  0.192968  1
  Tm  Tm8  1  0.619740  0.315166  0.304508  1
  Tm  Tm9  1  0.380260  0.684834  0.695492  1
  Tm  Tm10  1  0.010660  0.315166  0.695427  1
  Tm  Tm11  1  0.989340  0.684834  0.304573  1
  Cd  Cd12  1  0.500000  0.500000  0.000000  1
  Co  Co13  1  0.000084  0.376680  0.376596  1
  Co  Co14  1  0.999916  0.623320  0.623404  1
  Co  Co15  1  0.385874  0.885882  0.500008  1
  Co  Co16  1  0.614126  0.114118  0.499992  1
  Co  Co17  1  0.000000  0.000000  0.000000  1
