# generated using pymatgen
data_ErCoP3Ir3W
_symmetry_space_group_name_H-M   'P 1'
_cell_length_a   3.92634000
_cell_length_b   10.72065100
_cell_length_c   12.36891700
_cell_angle_alpha   90.00000000
_cell_angle_beta   90.00000000
_cell_angle_gamma   90.00000000
_symmetry_Int_Tables_number   1
_chemical_formula_structural   ErCoP3Ir3W
_chemical_formula_sum   'Er4 Co4 P12 Ir12 W4'
_cell_volume   520.64384425
_cell_formula_units_Z   4
loop_
 _symmetry_equiv_pos_site_id
 _symmetry_equiv_pos_as_xyz
  1  'x, y, z'
loop_
 _atom_site_type_symbol
 _atom_site_label
 _atom_site_symmetry_multiplicity
 _atom_site_fract_x
 _atom_site_fract_y
 _atom_site_fract_z
 _atom_site_occupancy
  Er  Er0  1  0.250000  0.583066  0.708665  1
  Er  Er1  1  0.250000  0.916934  0.208665  1
  Er  Er2  1  0.750000  0.416934  0.291335  1
  Er  Er3  1  0.750000  0.083066  0.791335  1
  Co  Co4  1  0.250000  0.461105  0.936405  1
  Co  Co5  1  0.250000  0.038895  0.436405  1
  Co  Co6  1  0.750000  0.538895  0.063595  1
  Co  Co7  1  0.750000  0.961105  0.563595  1
  P  P8  1  0.250000  0.425198  0.108281  1
  P  P9  1  0.250000  0.074802  0.608281  1
  P  P10  1  0.750000  0.574802  0.891719  1
  P  P11  1  0.750000  0.925198  0.391719  1
  P  P12  1  0.250000  0.268906  0.871398  1
  P  P13  1  0.250000  0.231094  0.371398  1
  P  P14  1  0.750000  0.731094  0.128602  1
  P  P15  1  0.750000  0.768906  0.628602  1
  P  P16  1  0.250000  0.596265  0.389540  1
  P  P17  1  0.250000  0.903735  0.889540  1
  P  P18  1  0.750000  0.403735  0.610460  1
  P  P19  1  0.750000  0.096265  0.110460  1
  Ir  Ir20  1  0.250000  0.404182  0.483015  1
  Ir  Ir21  1  0.250000  0.095818  0.983015  1
  Ir  Ir22  1  0.750000  0.595818  0.516985  1
  Ir  Ir23  1  0.750000  0.904182  0.016985  1
  Ir  Ir24  1  0.250000  0.233761  0.181878  1
  Ir  Ir25  1  0.250000  0.266239  0.681878  1
  Ir  Ir26  1  0.750000  0.766239  0.818122  1
  Ir  Ir27  1  0.750000  0.733761  0.318122  1
  Ir  Ir28  1  0.250000  0.889070  0.699853  1
  Ir  Ir29  1  0.250000  0.610930  0.199853  1
  Ir  Ir30  1  0.750000  0.110930  0.300147  1
  Ir  Ir31  1  0.750000  0.389070  0.800147  1
  W  W32  1  0.250000  0.708727  0.982430  1
  W  W33  1  0.250000  0.791273  0.482430  1
  W  W34  1  0.750000  0.291273  0.017570  1
  W  W35  1  0.750000  0.208727  0.517570  1
