# generated using pymatgen
data_Ho2Lu2Si4OsRh3
_symmetry_space_group_name_H-M   'P 1'
_cell_length_a   4.24797500
_cell_length_b   6.83833661
_cell_length_c   7.28580306
_cell_angle_alpha   89.84222431
_cell_angle_beta   90.00000000
_cell_angle_gamma   90.00000000
_symmetry_Int_Tables_number   1
_chemical_formula_structural   Ho2Lu2Si4OsRh3
_chemical_formula_sum   'Ho2 Lu2 Si4 Os1 Rh3'
_cell_volume   211.64509513
_cell_formula_units_Z   1
loop_
 _symmetry_equiv_pos_site_id
 _symmetry_equiv_pos_as_xyz
  1  'x, y, z'
loop_
 _atom_site_type_symbol
 _atom_site_label
 _atom_site_symmetry_multiplicity
 _atom_site_fract_x
 _atom_site_fract_y
 _atom_site_fract_z
 _atom_site_occupancy
  Ho  Ho0  1  0.750000  0.999690  0.184948  1
  Ho  Ho1  1  0.750000  0.504557  0.312054  1
  Lu  Lu2  1  0.250000  0.996782  0.810505  1
  Lu  Lu3  1  0.250000  0.496427  0.692407  1
  Si  Si4  1  0.250000  0.295324  0.104957  1
  Si  Si5  1  0.750000  0.704283  0.883406  1
  Si  Si6  1  0.250000  0.797049  0.403680  1
  Si  Si7  1  0.750000  0.200850  0.609036  1
  Os  Os8  1  0.750000  0.845045  0.569231  1
  Rh  Rh9  1  0.250000  0.158097  0.436057  1
  Rh  Rh10  1  0.750000  0.344205  0.928903  1
  Rh  Rh11  1  0.250000  0.657692  0.064818  1
