# generated using pymatgen
data_Dy2Lu3CoRu
_symmetry_space_group_name_H-M   'P 1'
_cell_length_a   6.23201540
_cell_length_b   7.09258686
_cell_length_c   8.38186955
_cell_angle_alpha   96.80076103
_cell_angle_beta   112.51429776
_cell_angle_gamma   89.69861979
_symmetry_Int_Tables_number   1
_chemical_formula_structural   Dy2Lu3CoRu
_chemical_formula_sum   'Dy4 Lu6 Co2 Ru2'
_cell_volume   339.51811428
_cell_formula_units_Z   2
loop_
 _symmetry_equiv_pos_site_id
 _symmetry_equiv_pos_as_xyz
  1  'x, y, z'
loop_
 _atom_site_type_symbol
 _atom_site_label
 _atom_site_symmetry_multiplicity
 _atom_site_fract_x
 _atom_site_fract_y
 _atom_site_fract_z
 _atom_site_occupancy
  Dy  Dy0  1  0.526544  0.087866  0.813611  1
  Dy  Dy1  1  0.473456  0.912134  0.186389  1
  Dy  Dy2  1  0.702712  0.418267  0.190747  1
  Dy  Dy3  1  0.297288  0.581733  0.809253  1
  Lu  Lu4  1  0.289630  0.320455  0.432280  1
  Lu  Lu5  1  0.710370  0.679545  0.567720  1
  Lu  Lu6  1  0.857084  0.186322  0.565118  1
  Lu  Lu7  1  0.142916  0.813678  0.434882  1
  Lu  Lu8  1  0.077665  0.258789  0.000333  1
  Lu  Lu9  1  0.922335  0.741211  0.999667  1
  Co  Co10  1  0.324154  0.577162  0.227203  1
  Co  Co11  1  0.675846  0.422838  0.772797  1
  Ru  Ru12  1  0.101702  0.926218  0.783132  1
  Ru  Ru13  1  0.898298  0.073782  0.216868  1
