# generated using pymatgen
data_Sm2Mn3Co9P7
_symmetry_space_group_name_H-M   'P 1'
_cell_length_a   9.13199800
_cell_length_b   9.13199828
_cell_length_c   3.62714800
_cell_angle_alpha   90.00000000
_cell_angle_beta   90.00000000
_cell_angle_gamma   120.00000623
_symmetry_Int_Tables_number   1
_chemical_formula_structural   Sm2Mn3Co9P7
_chemical_formula_sum   'Sm2 Mn3 Co9 P7'
_cell_volume   261.95549302
_cell_formula_units_Z   1
loop_
 _symmetry_equiv_pos_site_id
 _symmetry_equiv_pos_as_xyz
  1  'x, y, z'
loop_
 _atom_site_type_symbol
 _atom_site_label
 _atom_site_symmetry_multiplicity
 _atom_site_fract_x
 _atom_site_fract_y
 _atom_site_fract_z
 _atom_site_occupancy
  Sm  Sm0  1  0.666667  0.333333  0.000000  1
  Sm  Sm1  1  0.333333  0.666667  0.500000  1
  Mn  Mn2  1  0.219587  0.101157  0.000000  1
  Mn  Mn3  1  0.898843  0.118431  0.000000  1
  Mn  Mn4  1  0.881569  0.780413  0.000000  1
  Co  Co5  1  0.428813  0.058797  0.500000  1
  Co  Co6  1  0.941203  0.370017  0.500000  1
  Co  Co7  1  0.629983  0.571187  0.500000  1
  Co  Co8  1  0.156649  0.273725  0.500000  1
  Co  Co9  1  0.726275  0.882923  0.500000  1
  Co  Co10  1  0.117077  0.843351  0.500000  1
  Co  Co11  1  0.385627  0.434942  0.000000  1
  Co  Co12  1  0.565058  0.950685  0.000000  1
  Co  Co13  1  0.049315  0.614373  0.000000  1
  P  P14  1  0.113617  0.403553  0.000000  1
  P  P15  1  0.596447  0.710063  0.000000  1
  P  P16  1  0.289937  0.886383  0.000000  1
  P  P17  1  0.000000  0.000000  0.500000  1
  P  P18  1  0.409654  0.300956  0.500000  1
  P  P19  1  0.699044  0.108697  0.500000  1
  P  P20  1  0.891303  0.590346  0.500000  1
