# generated using pymatgen
data_ErTm3Ga20(OsRu)3
_symmetry_space_group_name_H-M   'P 1'
_cell_length_a   8.89110150
_cell_length_b   8.89110191
_cell_length_c   6.37423300
_cell_angle_alpha   90.00000000
_cell_angle_beta   90.00000000
_cell_angle_gamma   90.07092455
_symmetry_Int_Tables_number   1
_chemical_formula_structural   ErTm3Ga20(OsRu)3
_chemical_formula_sum   'Er1 Tm3 Ga20 Os3 Ru3'
_cell_volume   503.89350251
_cell_formula_units_Z   1
loop_
 _symmetry_equiv_pos_site_id
 _symmetry_equiv_pos_as_xyz
  1  'x, y, z'
loop_
 _atom_site_type_symbol
 _atom_site_label
 _atom_site_symmetry_multiplicity
 _atom_site_fract_x
 _atom_site_fract_y
 _atom_site_fract_z
 _atom_site_occupancy
  Er  Er0  1  0.683363  0.183363  0.000000  1
  Tm  Tm1  1  0.183609  0.316608  0.000000  1
  Tm  Tm2  1  0.816608  0.683609  0.000000  1
  Tm  Tm3  1  0.316356  0.816356  0.000000  1
  Ga  Ga4  1  0.499234  0.999234  0.283738  1
  Ga  Ga5  1  0.499234  0.999234  0.716262  1
  Ga  Ga6  1  0.292447  0.561663  0.707076  1
  Ga  Ga7  1  0.000143  0.500143  0.283178  1
  Ga  Ga8  1  0.000143  0.500143  0.716822  1
  Ga  Ga9  1  0.061663  0.792447  0.707076  1
  Ga  Ga10  1  0.207295  0.061330  0.292759  1
  Ga  Ga11  1  0.061663  0.792447  0.292924  1
  Ga  Ga12  1  0.707164  0.439524  0.707476  1
  Ga  Ga13  1  0.207295  0.061330  0.707241  1
  Ga  Ga14  1  0.939524  0.207164  0.707476  1
  Ga  Ga15  1  0.707164  0.439524  0.292524  1
  Ga  Ga16  1  0.561330  0.707295  0.292759  1
  Ga  Ga17  1  0.939524  0.207164  0.292524  1
  Ga  Ga18  1  0.561330  0.707295  0.707241  1
  Ga  Ga19  1  0.793221  0.937975  0.292696  1
  Ga  Ga20  1  0.437975  0.293221  0.707304  1
  Ga  Ga21  1  0.793221  0.937975  0.707304  1
  Ga  Ga22  1  0.437975  0.293221  0.292696  1
  Ga  Ga23  1  0.292447  0.561663  0.292924  1
  Os  Os24  1  0.999989  0.999919  0.000000  1
  Os  Os25  1  0.678336  0.178336  0.500000  1
  Os  Os26  1  0.499919  0.499989  0.000000  1
  Ru  Ru27  1  0.177936  0.321897  0.500000  1
  Ru  Ru28  1  0.321997  0.821997  0.500000  1
  Ru  Ru29  1  0.821897  0.677936  0.500000  1
