# generated using pymatgen
data_Tb5P12Ru17Pt2
_symmetry_space_group_name_H-M   'P 1'
_cell_length_a   3.99369300
_cell_length_b   12.54957499
_cell_length_c   12.54958284
_cell_angle_alpha   119.45049603
_cell_angle_beta   90.00000000
_cell_angle_gamma   90.00000000
_symmetry_Int_Tables_number   1
_chemical_formula_structural   Tb5P12Ru17Pt2
_chemical_formula_sum   'Tb5 P12 Ru17 Pt2'
_cell_volume   547.69886844
_cell_formula_units_Z   1
loop_
 _symmetry_equiv_pos_site_id
 _symmetry_equiv_pos_as_xyz
  1  'x, y, z'
loop_
 _atom_site_type_symbol
 _atom_site_label
 _atom_site_symmetry_multiplicity
 _atom_site_fract_x
 _atom_site_fract_y
 _atom_site_fract_z
 _atom_site_occupancy
  Tb  Tb0  1  0.500000  0.998648  0.181819  1
  Tb  Tb1  1  0.500000  0.181817  0.998652  1
  Tb  Tb2  1  0.500000  0.816369  0.816371  1
  Tb  Tb3  1  0.000000  0.335636  0.663532  1
  Tb  Tb4  1  0.000000  0.663529  0.335636  1
  P  P5  1  0.000000  0.001519  0.813865  1
  P  P6  1  0.000000  0.813863  0.001520  1
  P  P7  1  0.000000  0.182416  0.182425  1
  P  P8  1  0.500000  0.306653  0.476655  1
  P  P9  1  0.500000  0.184127  0.700709  1
  P  P10  1  0.500000  0.522741  0.821489  1
  P  P11  1  0.500000  0.821487  0.522741  1
  P  P12  1  0.500000  0.476650  0.306657  1
  P  P13  1  0.500000  0.700709  0.184129  1
  P  P14  1  0.000000  0.999274  0.364557  1
  P  P15  1  0.000000  0.364555  0.999281  1
  P  P16  1  0.000000  0.626024  0.626028  1
  Ru  Ru17  1  0.000000  0.444742  0.444751  1
  Ru  Ru18  1  0.500000  0.002551  0.711517  1
  Ru  Ru19  1  0.500000  0.711512  0.002555  1
  Ru  Ru20  1  0.500000  0.281944  0.281950  1
  Ru  Ru21  1  0.000000  0.191192  0.376025  1
  Ru  Ru22  1  0.000000  0.186515  0.804540  1
  Ru  Ru23  1  0.000000  0.623626  0.816247  1
  Ru  Ru24  1  0.000000  0.816244  0.623625  1
  Ru  Ru25  1  0.000000  0.376020  0.191197  1
  Ru  Ru26  1  0.000000  0.804541  0.186515  1
  Ru  Ru27  1  0.500000  0.129557  0.495354  1
  Ru  Ru28  1  0.500000  0.371720  0.878128  1
  Ru  Ru29  1  0.500000  0.508077  0.631843  1
  Ru  Ru30  1  0.500000  0.631840  0.508081  1
  Ru  Ru31  1  0.500000  0.495355  0.129563  1
  Ru  Ru32  1  0.500000  0.878127  0.371717  1
  Ru  Ru33  1  0.000000  0.997439  0.997438  1
  Pt  Pt34  1  0.000000  0.001529  0.551349  1
  Pt  Pt35  1  0.000000  0.551349  0.001537  1
