# generated using pymatgen
data_Y2IrRhO7
_symmetry_space_group_name_H-M   'P 1'
_cell_length_a   7.25318931
_cell_length_b   7.25766953
_cell_length_c   7.25766949
_cell_angle_alpha   60.00315735
_cell_angle_beta   60.02041222
_cell_angle_gamma   60.02041248
_symmetry_Int_Tables_number   1
_chemical_formula_structural   Y2IrRhO7
_chemical_formula_sum   'Y4 Ir2 Rh2 O14'
_cell_volume   270.24189939
_cell_formula_units_Z   2
loop_
 _symmetry_equiv_pos_site_id
 _symmetry_equiv_pos_as_xyz
  1  'x, y, z'
loop_
 _atom_site_type_symbol
 _atom_site_label
 _atom_site_symmetry_multiplicity
 _atom_site_fract_x
 _atom_site_fract_y
 _atom_site_fract_z
 _atom_site_occupancy
  Y  Y0  1  0.625000  0.125000  0.125000  1
  Y  Y1  1  0.125000  0.625000  0.125000  1
  Y  Y2  1  0.125000  0.125000  0.625000  1
  Y  Y3  1  0.125000  0.125000  0.125000  1
  Ir  Ir4  1  0.125000  0.625000  0.625000  1
  Ir  Ir5  1  0.625000  0.625000  0.625000  1
  Rh  Rh6  1  0.625000  0.125000  0.625000  1
  Rh  Rh7  1  0.625000  0.625000  0.125000  1
  O  O8  1  0.714723  0.708437  0.291150  1
  O  O9  1  0.285691  0.291150  0.708437  1
  O  O10  1  0.714723  0.291150  0.708437  1
  O  O11  1  0.285691  0.708437  0.291150  1
  O  O12  1  0.291463  0.708537  0.708537  1
  O  O13  1  0.715484  0.284516  0.284516  1
  O  O14  1  0.535277  0.541563  0.958850  1
  O  O15  1  0.964309  0.958850  0.541563  1
  O  O16  1  0.535277  0.958850  0.541563  1
  O  O17  1  0.964309  0.541563  0.958850  1
  O  O18  1  0.958537  0.541463  0.541463  1
  O  O19  1  0.534516  0.965484  0.965484  1
  O  O20  1  0.248445  0.251555  0.251555  1
  O  O21  1  0.001555  0.998445  0.998445  1
