# generated using pymatgen
data_LiTb2Lu4Rh17
_symmetry_space_group_name_H-M   'P 1'
_cell_length_a   5.27634700
_cell_length_b   5.27634765
_cell_length_c   17.34557500
_cell_angle_alpha   90.00000000
_cell_angle_beta   90.00000000
_cell_angle_gamma   120.00000221
_symmetry_Int_Tables_number   1
_chemical_formula_structural   LiTb2Lu4Rh17
_chemical_formula_sum   'Li1 Tb2 Lu4 Rh17'
_cell_volume   418.20197067
_cell_formula_units_Z   1
loop_
 _symmetry_equiv_pos_site_id
 _symmetry_equiv_pos_as_xyz
  1  'x, y, z'
loop_
 _atom_site_type_symbol
 _atom_site_label
 _atom_site_symmetry_multiplicity
 _atom_site_fract_x
 _atom_site_fract_y
 _atom_site_fract_z
 _atom_site_occupancy
  Li  Li0  1  0.000000  0.000000  0.250000  1
  Tb  Tb1  1  0.333333  0.666667  0.750000  1
  Tb  Tb2  1  0.666667  0.333333  0.250000  1
  Lu  Lu3  1  0.333333  0.666667  0.538845  1
  Lu  Lu4  1  0.666667  0.333333  0.040938  1
  Lu  Lu5  1  0.666667  0.333333  0.459062  1
  Lu  Lu6  1  0.333333  0.666667  0.961155  1
  Rh  Rh7  1  0.168190  0.336380  0.124365  1
  Rh  Rh8  1  0.832095  0.664190  0.623651  1
  Rh  Rh9  1  0.663620  0.831810  0.124365  1
  Rh  Rh10  1  0.168190  0.831810  0.124365  1
  Rh  Rh11  1  0.832095  0.167905  0.623651  1
  Rh  Rh12  1  0.335810  0.167905  0.623651  1
  Rh  Rh13  1  0.832095  0.664190  0.876349  1
  Rh  Rh14  1  0.832095  0.167905  0.876349  1
  Rh  Rh15  1  0.335810  0.167905  0.876349  1
  Rh  Rh16  1  0.663620  0.831810  0.375635  1
  Rh  Rh17  1  0.168190  0.831810  0.375635  1
  Rh  Rh18  1  0.168190  0.336380  0.375635  1
  Rh  Rh19  1  0.000000  0.000000  0.750000  1
  Rh  Rh20  1  0.333333  0.666667  0.250000  1
  Rh  Rh21  1  0.666667  0.333333  0.750000  1
  Rh  Rh22  1  0.000000  0.000000  0.001731  1
  Rh  Rh23  1  0.000000  0.000000  0.498269  1
