# generated using pymatgen
data_Yb2Th2Ga20Pt11
_symmetry_space_group_name_H-M   'P 1'
_cell_length_a   4.28032775
_cell_length_b   10.94630596
_cell_length_c   13.70742800
_cell_angle_alpha   81.46037403
_cell_angle_beta   80.81376185
_cell_angle_gamma   78.47465120
_symmetry_Int_Tables_number   1
_chemical_formula_structural   Yb2Th2Ga20Pt11
_chemical_formula_sum   'Yb2 Th2 Ga20 Pt11'
_cell_volume   616.69408436
_cell_formula_units_Z   1
loop_
 _symmetry_equiv_pos_site_id
 _symmetry_equiv_pos_as_xyz
  1  'x, y, z'
loop_
 _atom_site_type_symbol
 _atom_site_label
 _atom_site_symmetry_multiplicity
 _atom_site_fract_x
 _atom_site_fract_y
 _atom_site_fract_z
 _atom_site_occupancy
  Yb  Yb0  1  0.772342  0.626418  0.824955  1
  Yb  Yb1  1  0.227658  0.373582  0.175045  1
  Th  Th2  1  0.122893  0.086968  0.666432  1
  Th  Th3  1  0.877107  0.913032  0.333568  1
  Ga  Ga4  1  0.008142  0.072644  0.912850  1
  Ga  Ga5  1  0.991858  0.927356  0.087150  1
  Ga  Ga6  1  0.064394  0.673578  0.193115  1
  Ga  Ga7  1  0.935606  0.326422  0.806885  1
  Ga  Ga8  1  0.104561  0.341364  0.453016  1
  Ga  Ga9  1  0.895439  0.658636  0.546984  1
  Ga  Ga10  1  0.201688  0.602820  0.991394  1
  Ga  Ga11  1  0.798312  0.397180  0.008606  1
  Ga  Ga12  1  0.257957  0.776136  0.702459  1
  Ga  Ga13  1  0.742043  0.223864  0.297541  1
  Ga  Ga14  1  0.305337  0.890964  0.499844  1
  Ga  Ga15  1  0.694663  0.109036  0.500156  1
  Ga  Ga16  1  0.382402  0.529795  0.701544  1
  Ga  Ga17  1  0.617598  0.470205  0.298456  1
  Ga  Ga18  1  0.395916  0.204232  0.002051  1
  Ga  Ga19  1  0.604084  0.795768  0.997949  1
  Ga  Ga20  1  0.539615  0.290371  0.629441  1
  Ga  Ga21  1  0.460385  0.709629  0.370559  1
  Ga  Ga22  1  0.640974  0.925510  0.797282  1
  Ga  Ga23  1  0.359026  0.074490  0.202718  1
  Pt  Pt24  1  0.500000  0.500000  0.500000  1
  Pt  Pt25  1  0.029397  0.574130  0.371502  1
  Pt  Pt26  1  0.970603  0.425870  0.628498  1
  Pt  Pt27  1  0.141774  0.833777  0.888660  1
  Pt  Pt28  1  0.858226  0.166223  0.111340  1
  Pt  Pt29  1  0.242763  0.124893  0.392013  1
  Pt  Pt30  1  0.757237  0.875107  0.607987  1
  Pt  Pt31  1  0.346861  0.417219  0.890654  1
  Pt  Pt32  1  0.653139  0.582781  0.109346  1
  Pt  Pt33  1  0.509426  0.166177  0.815852  1
  Pt  Pt34  1  0.490574  0.833823  0.184148  1
