# generated using pymatgen
data_Cs8ThSb4
_symmetry_space_group_name_H-M   'P 1'
_cell_length_a   12.71647800
_cell_length_b   12.71647816
_cell_length_c   12.71647800
_cell_angle_alpha   60.00000041
_cell_angle_beta   60.00000001
_cell_angle_gamma   60.00000040
_symmetry_Int_Tables_number   1
_chemical_formula_structural   Cs8ThSb4
_chemical_formula_sum   'Cs16 Th2 Sb8'
_cell_volume   1454.07076630
_cell_formula_units_Z   2
loop_
 _symmetry_equiv_pos_site_id
 _symmetry_equiv_pos_as_xyz
  1  'x, y, z'
loop_
 _atom_site_type_symbol
 _atom_site_label
 _atom_site_symmetry_multiplicity
 _atom_site_fract_x
 _atom_site_fract_y
 _atom_site_fract_z
 _atom_site_occupancy
  Cs  Cs0  1  0.625000  0.125000  0.625000  1
  Cs  Cs1  1  0.625000  0.625000  0.125000  1
  Cs  Cs2  1  0.125000  0.625000  0.625000  1
  Cs  Cs3  1  0.625000  0.625000  0.625000  1
  Cs  Cs4  1  0.026548  0.026548  0.473452  1
  Cs  Cs5  1  0.776548  0.223452  0.223452  1
  Cs  Cs6  1  0.223452  0.776548  0.776548  1
  Cs  Cs7  1  0.776548  0.776548  0.223452  1
  Cs  Cs8  1  0.776548  0.223452  0.776548  1
  Cs  Cs9  1  0.223452  0.776548  0.223452  1
  Cs  Cs10  1  0.473452  0.026548  0.473452  1
  Cs  Cs11  1  0.473452  0.026548  0.026548  1
  Cs  Cs12  1  0.026548  0.473452  0.473452  1
  Cs  Cs13  1  0.026548  0.473452  0.026548  1
  Cs  Cs14  1  0.223452  0.223452  0.776548  1
  Cs  Cs15  1  0.473452  0.473452  0.026548  1
  Th  Th16  1  0.750000  0.750000  0.750000  1
  Th  Th17  1  0.500000  0.500000  0.500000  1
  Sb  Sb18  1  0.399614  0.801159  0.399614  1
  Sb  Sb19  1  0.850386  0.850386  0.448841  1
  Sb  Sb20  1  0.448841  0.850386  0.850386  1
  Sb  Sb21  1  0.850386  0.850386  0.850386  1
  Sb  Sb22  1  0.801159  0.399614  0.399614  1
  Sb  Sb23  1  0.399614  0.399614  0.399614  1
  Sb  Sb24  1  0.399614  0.399614  0.801159  1
  Sb  Sb25  1  0.850386  0.448841  0.850386  1
