# generated using pymatgen
data_Pr2MnAl20Rh3
_symmetry_space_group_name_H-M   'P 1'
_cell_length_a   6.88405828
_cell_length_b   6.86741704
_cell_length_c   9.20074381
_cell_angle_alpha   90.09082387
_cell_angle_beta   90.28368218
_cell_angle_gamma   97.25941524
_symmetry_Int_Tables_number   1
_chemical_formula_structural   Pr2MnAl20Rh3
_chemical_formula_sum   'Pr2 Mn1 Al20 Rh3'
_cell_volume   431.47859000
_cell_formula_units_Z   1
loop_
 _symmetry_equiv_pos_site_id
 _symmetry_equiv_pos_as_xyz
  1  'x, y, z'
loop_
 _atom_site_type_symbol
 _atom_site_label
 _atom_site_symmetry_multiplicity
 _atom_site_fract_x
 _atom_site_fract_y
 _atom_site_fract_z
 _atom_site_occupancy
  Pr  Pr0  1  0.876345  0.127951  0.751339  1
  Pr  Pr1  1  0.123655  0.872049  0.248661  1
  Mn  Mn2  1  0.000000  0.500000  0.000000  1
  Al  Al3  1  0.622108  0.379394  0.550991  1
  Al  Al4  1  0.377892  0.620606  0.449009  1
  Al  Al5  1  0.372210  0.618252  0.047451  1
  Al  Al6  1  0.627790  0.381748  0.952549  1
  Al  Al7  1  0.225170  0.226271  0.499195  1
  Al  Al8  1  0.774830  0.773729  0.500805  1
  Al  Al9  1  0.779093  0.770453  0.002105  1
  Al  Al10  1  0.220907  0.229547  0.997895  1
  Al  Al11  1  0.844790  0.163585  0.100572  1
  Al  Al12  1  0.155210  0.836415  0.899428  1
  Al  Al13  1  0.159704  0.841134  0.604484  1
  Al  Al14  1  0.840296  0.158866  0.395516  1
  Al  Al15  1  0.861243  0.589104  0.754419  1
  Al  Al16  1  0.138757  0.410896  0.245581  1
  Al  Al17  1  0.407453  0.141254  0.751078  1
  Al  Al18  1  0.592547  0.858746  0.248922  1
  Al  Al19  1  0.222173  0.482692  0.756978  1
  Al  Al20  1  0.777827  0.517308  0.243022  1
  Al  Al21  1  0.518923  0.773992  0.750606  1
  Al  Al22  1  0.481077  0.226008  0.249394  1
  Rh  Rh23  1  0.000000  0.500000  0.500000  1
  Rh  Rh24  1  0.500000  0.000000  0.000000  1
  Rh  Rh25  1  0.500000  0.000000  0.500000  1
