# generated using pymatgen
data_Hf8TaCo2Au
_symmetry_space_group_name_H-M   'P 1'
_cell_length_a   8.65707287
_cell_length_b   8.65697057
_cell_length_c   8.66460700
_cell_angle_alpha   59.97234837
_cell_angle_beta   59.97271674
_cell_angle_gamma   59.89341652
_symmetry_Int_Tables_number   1
_chemical_formula_structural   Hf8TaCo2Au
_chemical_formula_sum   'Hf16 Ta2 Co4 Au2'
_cell_volume   458.60596294
_cell_formula_units_Z   2
loop_
 _symmetry_equiv_pos_site_id
 _symmetry_equiv_pos_as_xyz
  1  'x, y, z'
loop_
 _atom_site_type_symbol
 _atom_site_label
 _atom_site_symmetry_multiplicity
 _atom_site_fract_x
 _atom_site_fract_y
 _atom_site_fract_z
 _atom_site_occupancy
  Hf  Hf0  1  0.705724  0.102631  0.095727  1
  Hf  Hf1  1  0.102630  0.705722  0.095729  1
  Hf  Hf2  1  0.098491  0.098502  0.704566  1
  Hf  Hf3  1  0.098566  0.098578  0.098402  1
  Hf  Hf4  1  0.313661  0.313654  0.686329  1
  Hf  Hf5  1  0.688372  0.688374  0.311626  1
  Hf  Hf6  1  0.314545  0.676447  0.316257  1
  Hf  Hf7  1  0.676437  0.314562  0.692725  1
  Hf  Hf8  1  0.676442  0.314545  0.316264  1
  Hf  Hf9  1  0.314560  0.676443  0.692728  1
  Hf  Hf10  1  0.947800  0.947797  0.552287  1
  Hf  Hf11  1  0.545688  0.545687  0.954300  1
  Hf  Hf12  1  0.947451  0.558195  0.939162  1
  Hf  Hf13  1  0.558080  0.947447  0.555279  1
  Hf  Hf14  1  0.558206  0.947443  0.939162  1
  Hf  Hf15  1  0.947456  0.558071  0.555279  1
  Ta  Ta16  1  0.332904  0.332907  0.000446  1
  Ta  Ta17  1  0.332910  0.332912  0.333762  1
  Co  Co18  1  0.328878  0.894094  0.888513  1
  Co  Co19  1  0.894087  0.328874  0.888519  1
  Co  Co20  1  0.891917  0.891921  0.328445  1
  Co  Co21  1  0.891960  0.891963  0.887732  1
  Au  Au22  1  0.995163  0.338068  0.333381  1
  Au  Au23  1  0.338069  0.995160  0.333382  1
