# generated using pymatgen
data_DyTm2Sn3Ir2Rh
_symmetry_space_group_name_H-M   'P 1'
_cell_length_a   7.66295746
_cell_length_b   7.64863233
_cell_length_c   3.69364800
_cell_angle_alpha   90.00000000
_cell_angle_beta   90.00000000
_cell_angle_gamma   119.93817888
_symmetry_Int_Tables_number   1
_chemical_formula_structural   DyTm2Sn3Ir2Rh
_chemical_formula_sum   'Dy1 Tm2 Sn3 Ir2 Rh1'
_cell_volume   187.60160249
_cell_formula_units_Z   1
loop_
 _symmetry_equiv_pos_site_id
 _symmetry_equiv_pos_as_xyz
  1  'x, y, z'
loop_
 _atom_site_type_symbol
 _atom_site_label
 _atom_site_symmetry_multiplicity
 _atom_site_fract_x
 _atom_site_fract_y
 _atom_site_fract_z
 _atom_site_occupancy
  Dy  Dy0  1  0.000000  0.403515  0.000000  1
  Tm  Tm1  1  0.596637  0.596640  0.000000  1
  Tm  Tm2  1  0.403363  0.000003  0.000000  1
  Sn  Sn3  1  0.267356  0.265924  0.500000  1
  Sn  Sn4  1  0.000000  0.734845  0.500000  1
  Sn  Sn5  1  0.732644  0.998568  0.500000  1
  Ir  Ir6  1  0.665055  0.333026  0.500000  1
  Ir  Ir7  1  0.334945  0.667971  0.500000  1
  Rh  Rh8  1  0.000000  0.999508  0.000000  1
