# generated using pymatgen
data_Hf4Ta2TiH16
_symmetry_space_group_name_H-M   'P 1'
_cell_length_a   6.40142197
_cell_length_b   6.40142252
_cell_length_c   6.64185300
_cell_angle_alpha   58.74957932
_cell_angle_beta   58.74957634
_cell_angle_gamma   62.50083642
_symmetry_Int_Tables_number   1
_chemical_formula_structural   Hf4Ta2TiH16
_chemical_formula_sum   'Hf4 Ta2 Ti1 H16'
_cell_volume   191.88971197
_cell_formula_units_Z   1
loop_
 _symmetry_equiv_pos_site_id
 _symmetry_equiv_pos_as_xyz
  1  'x, y, z'
loop_
 _atom_site_type_symbol
 _atom_site_label
 _atom_site_symmetry_multiplicity
 _atom_site_fract_x
 _atom_site_fract_y
 _atom_site_fract_z
 _atom_site_occupancy
  Hf  Hf0  1  0.500000  0.000000  0.500000  1
  Hf  Hf1  1  0.000000  0.500000  0.500000  1
  Hf  Hf2  1  0.000000  0.500000  0.000000  1
  Hf  Hf3  1  0.500000  0.000000  0.000000  1
  Ta  Ta4  1  0.000000  0.000000  0.500000  1
  Ta  Ta5  1  0.500000  0.500000  0.000000  1
  Ti  Ti6  1  0.000000  0.000000  0.000000  1
  H  H7  1  0.882181  0.882181  0.365108  1
  H  H8  1  0.870531  0.365108  0.882181  1
  H  H9  1  0.365108  0.870531  0.882181  1
  H  H10  1  0.882181  0.882181  0.870531  1
  H  H11  1  0.117819  0.117819  0.634892  1
  H  H12  1  0.129469  0.634892  0.117819  1
  H  H13  1  0.634892  0.129469  0.117819  1
  H  H14  1  0.117819  0.117819  0.129469  1
  H  H15  1  0.615380  0.615380  0.135282  1
  H  H16  1  0.633959  0.135282  0.615380  1
  H  H17  1  0.135282  0.633959  0.615380  1
  H  H18  1  0.615380  0.615380  0.633959  1
  H  H19  1  0.384620  0.384620  0.864718  1
  H  H20  1  0.366041  0.864718  0.384620  1
  H  H21  1  0.864718  0.366041  0.384620  1
  H  H22  1  0.384620  0.384620  0.366041  1
