# generated using pymatgen
data_Eu3Th(WO6)2
_symmetry_space_group_name_H-M   'P 1'
_cell_length_a   5.54948400
_cell_length_b   7.87278276
_cell_length_c   11.75529762
_cell_angle_alpha   76.33296029
_cell_angle_beta   90.00000000
_cell_angle_gamma   90.00000000
_symmetry_Int_Tables_number   1
_chemical_formula_structural   Eu3Th(WO6)2
_chemical_formula_sum   'Eu6 Th2 W4 O24'
_cell_volume   499.04543810
_cell_formula_units_Z   2
loop_
 _symmetry_equiv_pos_site_id
 _symmetry_equiv_pos_as_xyz
  1  'x, y, z'
loop_
 _atom_site_type_symbol
 _atom_site_label
 _atom_site_symmetry_multiplicity
 _atom_site_fract_x
 _atom_site_fract_y
 _atom_site_fract_z
 _atom_site_occupancy
  Eu  Eu0  1  0.735898  0.000000  0.750000  1
  Eu  Eu1  1  0.264102  0.000000  0.250000  1
  Eu  Eu2  1  0.193133  0.800687  0.576040  1
  Eu  Eu3  1  0.806867  0.800687  0.076040  1
  Eu  Eu4  1  0.193133  0.199313  0.923960  1
  Eu  Eu5  1  0.806867  0.199313  0.423960  1
  Th  Th6  1  0.680468  0.500000  0.750000  1
  Th  Th7  1  0.319532  0.500000  0.250000  1
  W  W8  1  0.251362  0.724671  0.887971  1
  W  W9  1  0.748638  0.724671  0.387971  1
  W  W10  1  0.251362  0.275329  0.612029  1
  W  W11  1  0.748638  0.275329  0.112029  1
  O  O12  1  0.041221  0.930305  0.895446  1
  O  O13  1  0.511005  0.854151  0.929445  1
  O  O14  1  0.958779  0.930305  0.395446  1
  O  O15  1  0.458563  0.775990  0.734304  1
  O  O16  1  0.488995  0.854151  0.429445  1
  O  O17  1  0.985552  0.702079  0.775734  1
  O  O18  1  0.541437  0.775990  0.234304  1
  O  O19  1  0.844123  0.635147  0.546888  1
  O  O20  1  0.363532  0.493906  0.888786  1
  O  O21  1  0.014448  0.702079  0.275734  1
  O  O22  1  0.363532  0.506094  0.611214  1
  O  O23  1  0.844123  0.364853  0.953112  1
  O  O24  1  0.155877  0.635147  0.046888  1
  O  O25  1  0.636468  0.493906  0.388786  1
  O  O26  1  0.985552  0.297921  0.724266  1
  O  O27  1  0.636468  0.506094  0.111214  1
  O  O28  1  0.155877  0.364853  0.453112  1
  O  O29  1  0.458563  0.224010  0.765696  1
  O  O30  1  0.014448  0.297921  0.224266  1
  O  O31  1  0.511005  0.145849  0.570555  1
  O  O32  1  0.541437  0.224010  0.265696  1
  O  O33  1  0.041221  0.069695  0.604554  1
  O  O34  1  0.488995  0.145849  0.070555  1
  O  O35  1  0.958779  0.069695  0.104554  1
