# generated using pymatgen
data_AlCoTeO6
_symmetry_space_group_name_H-M   'P 1'
_cell_length_a   4.49642700
_cell_length_b   4.49642700
_cell_length_c   8.86234500
_cell_angle_alpha   90.00000000
_cell_angle_beta   90.00000000
_cell_angle_gamma   90.00000000
_symmetry_Int_Tables_number   1
_chemical_formula_structural   AlCoTeO6
_chemical_formula_sum   'Al2 Co2 Te2 O12'
_cell_volume   179.17761296
_cell_formula_units_Z   2
loop_
 _symmetry_equiv_pos_site_id
 _symmetry_equiv_pos_as_xyz
  1  'x, y, z'
loop_
 _atom_site_type_symbol
 _atom_site_label
 _atom_site_symmetry_multiplicity
 _atom_site_fract_x
 _atom_site_fract_y
 _atom_site_fract_z
 _atom_site_occupancy
  Al  Al0  1  0.500000  0.500000  0.164762  1
  Al  Al1  1  0.000000  0.000000  0.664762  1
  Co  Co2  1  0.500000  0.500000  0.833953  1
  Co  Co3  1  0.000000  0.000000  0.333953  1
  Te  Te4  1  0.500000  0.500000  0.499745  1
  Te  Te5  1  0.000000  0.000000  0.999745  1
  O  O6  1  0.190928  0.809072  0.502364  1
  O  O7  1  0.809072  0.190928  0.502364  1
  O  O8  1  0.309072  0.309072  0.002364  1
  O  O9  1  0.690928  0.690928  0.002364  1
  O  O10  1  0.196004  0.803996  0.168338  1
  O  O11  1  0.803996  0.196004  0.168338  1
  O  O12  1  0.303996  0.303996  0.668338  1
  O  O13  1  0.696004  0.696004  0.668338  1
  O  O14  1  0.805349  0.194651  0.830068  1
  O  O15  1  0.194651  0.805349  0.830068  1
  O  O16  1  0.694651  0.694651  0.330068  1
  O  O17  1  0.305350  0.305350  0.330068  1
