# generated using pymatgen
data_LiDy6Ho10Cd3Pt4
_symmetry_space_group_name_H-M   'P 1'
_cell_length_a   9.64938666
_cell_length_b   9.64938725
_cell_length_c   9.64938670
_cell_angle_alpha   59.97104816
_cell_angle_beta   59.97104842
_cell_angle_gamma   59.97104728
_symmetry_Int_Tables_number   1
_chemical_formula_structural   LiDy6Ho10Cd3Pt4
_chemical_formula_sum   'Li1 Dy6 Ho10 Cd3 Pt4'
_cell_volume   634.89065672
_cell_formula_units_Z   1
loop_
 _symmetry_equiv_pos_site_id
 _symmetry_equiv_pos_as_xyz
  1  'x, y, z'
loop_
 _atom_site_type_symbol
 _atom_site_label
 _atom_site_symmetry_multiplicity
 _atom_site_fract_x
 _atom_site_fract_y
 _atom_site_fract_z
 _atom_site_occupancy
  Li  Li0  1  0.571828  0.571828  0.571828  1
  Dy  Dy1  1  0.936012  0.564968  0.564968  1
  Dy  Dy2  1  0.563131  0.936354  0.936354  1
  Dy  Dy3  1  0.564968  0.936012  0.564968  1
  Dy  Dy4  1  0.936354  0.563130  0.936354  1
  Dy  Dy5  1  0.564968  0.564968  0.936012  1
  Dy  Dy6  1  0.936354  0.936354  0.563130  1
  Ho  Ho7  1  0.350989  0.350989  0.350989  1
  Ho  Ho8  1  0.352523  0.352523  0.943935  1
  Ho  Ho9  1  0.352523  0.943935  0.352523  1
  Ho  Ho10  1  0.943935  0.352523  0.352523  1
  Ho  Ho11  1  0.810055  0.191757  0.191757  1
  Ho  Ho12  1  0.187369  0.812753  0.812753  1
  Ho  Ho13  1  0.191757  0.810055  0.191757  1
  Ho  Ho14  1  0.812753  0.187369  0.812753  1
  Ho  Ho15  1  0.191757  0.191757  0.810055  1
  Ho  Ho16  1  0.812753  0.812753  0.187369  1
  Cd  Cd17  1  0.582315  0.582315  0.254256  1
  Cd  Cd18  1  0.582315  0.254256  0.582315  1
  Cd  Cd19  1  0.254256  0.582315  0.582315  1
  Pt  Pt20  1  0.144051  0.144051  0.144051  1
  Pt  Pt21  1  0.143058  0.143058  0.570919  1
  Pt  Pt22  1  0.143058  0.570919  0.143058  1
  Pt  Pt23  1  0.570919  0.143058  0.143058  1
