# generated using pymatgen
data_Mn3Zn(AuO2)4
_symmetry_space_group_name_H-M   'P 1'
_cell_length_a   5.30752655
_cell_length_b   6.38596150
_cell_length_c   7.03852354
_cell_angle_alpha   66.55437449
_cell_angle_beta   75.48293059
_cell_angle_gamma   93.15176916
_symmetry_Int_Tables_number   1
_chemical_formula_structural   Mn3Zn(AuO2)4
_chemical_formula_sum   'Mn3 Zn1 Au4 O8'
_cell_volume   208.63793009
_cell_formula_units_Z   1
loop_
 _symmetry_equiv_pos_site_id
 _symmetry_equiv_pos_as_xyz
  1  'x, y, z'
loop_
 _atom_site_type_symbol
 _atom_site_label
 _atom_site_symmetry_multiplicity
 _atom_site_fract_x
 _atom_site_fract_y
 _atom_site_fract_z
 _atom_site_occupancy
  Mn  Mn0  1  0.998098  0.502881  0.997988  1
  Mn  Mn1  1  0.500198  0.250256  0.000058  1
  Mn  Mn2  1  0.001890  0.997098  0.001993  1
  Zn  Zn3  1  0.499958  0.749950  0.000034  1
  Au  Au4  1  0.009007  0.000265  0.500178  1
  Au  Au5  1  0.991006  0.499734  0.499802  1
  Au  Au6  1  0.500011  0.750019  0.500015  1
  Au  Au7  1  0.500009  0.249983  0.500005  1
  O  O8  1  0.900161  0.844658  0.831552  1
  O  O9  1  0.881517  0.341590  0.833913  1
  O  O10  1  0.375164  0.575106  0.832359  1
  O  O11  1  0.384537  0.089582  0.835469  1
  O  O12  1  0.118434  0.158327  0.166086  1
  O  O13  1  0.099765  0.655293  0.168473  1
  O  O14  1  0.624820  0.924891  0.167617  1
  O  O15  1  0.615427  0.410366  0.164456  1
