# generated using pymatgen
data_Tm3LuTc3B8Os
_symmetry_space_group_name_H-M   'P 1'
_cell_length_a   5.88585588
_cell_length_b   5.25021200
_cell_length_c   6.38657428
_cell_angle_alpha   90.00000000
_cell_angle_beta   90.34071347
_cell_angle_gamma   90.00000000
_symmetry_Int_Tables_number   1
_chemical_formula_structural   Tm3LuTc3B8Os
_chemical_formula_sum   'Tm3 Lu1 Tc3 B8 Os1'
_cell_volume   197.35437265
_cell_formula_units_Z   1
loop_
 _symmetry_equiv_pos_site_id
 _symmetry_equiv_pos_as_xyz
  1  'x, y, z'
loop_
 _atom_site_type_symbol
 _atom_site_label
 _atom_site_symmetry_multiplicity
 _atom_site_fract_x
 _atom_site_fract_y
 _atom_site_fract_z
 _atom_site_occupancy
  Tm  Tm0  1  0.014538  0.250000  0.337556  1
  Tm  Tm1  1  0.514221  0.250000  0.161930  1
  Tm  Tm2  1  0.484642  0.750000  0.835921  1
  Lu  Lu3  1  0.984715  0.750000  0.664537  1
  Tc  Tc4  1  0.181011  0.250000  0.813871  1
  Tc  Tc5  1  0.679851  0.250000  0.683987  1
  Tc  Tc6  1  0.819645  0.750000  0.186345  1
  B  B7  1  0.366921  0.077837  0.535131  1
  B  B8  1  0.868593  0.421986  0.964835  1
  B  B9  1  0.633516  0.579727  0.465471  1
  B  B10  1  0.133435  0.921102  0.035085  1
  B  B11  1  0.633516  0.920273  0.465471  1
  B  B12  1  0.133435  0.578898  0.035085  1
  B  B13  1  0.366921  0.422163  0.535131  1
  B  B14  1  0.868593  0.078014  0.964835  1
  Os  Os15  1  0.316446  0.750000  0.314811  1
