# generated using pymatgen
data_La5Pr3Cd2IrOs
_symmetry_space_group_name_H-M   'P 1'
_cell_length_a   10.07478930
_cell_length_b   10.07478931
_cell_length_c   10.12482400
_cell_angle_alpha   59.83558541
_cell_angle_beta   59.83558535
_cell_angle_gamma   59.71590660
_symmetry_Int_Tables_number   1
_chemical_formula_structural   La5Pr3Cd2IrOs
_chemical_formula_sum   'La10 Pr6 Cd4 Ir2 Os2'
_cell_volume   723.30952006
_cell_formula_units_Z   2
loop_
 _symmetry_equiv_pos_site_id
 _symmetry_equiv_pos_as_xyz
  1  'x, y, z'
loop_
 _atom_site_type_symbol
 _atom_site_label
 _atom_site_symmetry_multiplicity
 _atom_site_fract_x
 _atom_site_fract_y
 _atom_site_fract_z
 _atom_site_occupancy
  La  La0  1  0.345978  0.345978  0.348335  1
  La  La1  1  0.345978  0.345978  0.959708  1
  La  La2  1  0.345166  0.960603  0.347116  1
  La  La3  1  0.960603  0.345166  0.347116  1
  La  La4  1  0.811524  0.190547  0.190639  1
  La  La5  1  0.190547  0.811524  0.807289  1
  La  La6  1  0.190547  0.811524  0.190639  1
  La  La7  1  0.811524  0.190547  0.807289  1
  La  La8  1  0.190176  0.190176  0.809824  1
  La  La9  1  0.808504  0.808504  0.191496  1
  Pr  Pr10  1  0.938300  0.559964  0.563173  1
  Pr  Pr11  1  0.559964  0.938300  0.938563  1
  Pr  Pr12  1  0.559964  0.938300  0.563173  1
  Pr  Pr13  1  0.938300  0.559964  0.938563  1
  Pr  Pr14  1  0.562534  0.562534  0.937466  1
  Pr  Pr15  1  0.939469  0.939469  0.560531  1
  Cd  Cd16  1  0.579549  0.579549  0.580073  1
  Cd  Cd17  1  0.579549  0.579549  0.260828  1
  Cd  Cd18  1  0.579404  0.260291  0.580152  1
  Cd  Cd19  1  0.260291  0.579404  0.580152  1
  Ir  Ir20  1  0.141536  0.580851  0.138807  1
  Ir  Ir21  1  0.580851  0.141536  0.138807  1
  Os  Os22  1  0.139871  0.139871  0.136987  1
  Os  Os23  1  0.139871  0.139871  0.583272  1
