# generated using pymatgen
data_Sr3PrU2O10
_symmetry_space_group_name_H-M   'P 1'
_cell_length_a   8.08409669
_cell_length_b   5.70665500
_cell_length_c   12.03001743
_cell_angle_alpha   90.00000000
_cell_angle_beta   107.89277640
_cell_angle_gamma   90.00000000
_symmetry_Int_Tables_number   1
_chemical_formula_structural   Sr3PrU2O10
_chemical_formula_sum   'Sr6 Pr2 U4 O20'
_cell_volume   528.13984556
_cell_formula_units_Z   2
loop_
 _symmetry_equiv_pos_site_id
 _symmetry_equiv_pos_as_xyz
  1  'x, y, z'
loop_
 _atom_site_type_symbol
 _atom_site_label
 _atom_site_symmetry_multiplicity
 _atom_site_fract_x
 _atom_site_fract_y
 _atom_site_fract_z
 _atom_site_occupancy
  Sr  Sr0  1  0.660439  0.994842  0.360638  1
  Sr  Sr1  1  0.339561  0.494843  0.139362  1
  Sr  Sr2  1  0.154508  0.061983  0.317190  1
  Sr  Sr3  1  0.845492  0.561984  0.182810  1
  Sr  Sr4  1  0.847298  0.940558  0.682024  1
  Sr  Sr5  1  0.152703  0.440559  0.817976  1
  Pr  Pr6  1  0.340067  0.001747  0.637219  1
  Pr  Pr7  1  0.659933  0.501748  0.862781  1
  U  U8  1  0.999336  0.998416  0.000062  1
  U  U9  1  0.000664  0.498417  0.499938  1
  U  U10  1  0.499499  0.998898  0.995315  1
  U  U11  1  0.500502  0.498899  0.504685  1
  O  O12  1  0.250306  0.154108  0.991779  1
  O  O13  1  0.749694  0.654107  0.508222  1
  O  O14  1  0.745959  0.828966  0.998855  1
  O  O15  1  0.254042  0.328966  0.501145  1
  O  O16  1  0.023372  0.256248  0.123199  1
  O  O17  1  0.976628  0.756248  0.376800  1
  O  O18  1  0.967405  0.737443  0.873225  1
  O  O19  1  0.032596  0.237443  0.626775  1
  O  O20  1  0.613187  0.308419  0.055944  1
  O  O21  1  0.386814  0.808418  0.444056  1
  O  O22  1  0.399435  0.698868  0.912449  1
  O  O23  1  0.600566  0.198870  0.587551  1
  O  O24  1  0.890130  0.284898  0.359364  1
  O  O25  1  0.109869  0.784899  0.140635  1
  O  O26  1  0.120169  0.719537  0.640233  1
  O  O27  1  0.879831  0.219537  0.859767  1
  O  O28  1  0.451503  0.335394  0.337521  1
  O  O29  1  0.548494  0.835393  0.162479  1
  O  O30  1  0.549118  0.679673  0.679711  1
  O  O31  1  0.450882  0.179673  0.820289  1
