# generated using pymatgen
data_Tb7Sn23(Os2Pt)2
_symmetry_space_group_name_H-M   'P 1'
_cell_length_a   9.91714606
_cell_length_b   9.90362490
_cell_length_c   10.15566423
_cell_angle_alpha   90.00000017
_cell_angle_beta   89.44898045
_cell_angle_gamma   119.95490936
_symmetry_Int_Tables_number   1
_chemical_formula_structural   Tb7Sn23(Os2Pt)2
_chemical_formula_sum   'Tb7 Sn23 Os4 Pt2'
_cell_volume   864.15222260
_cell_formula_units_Z   1
loop_
 _symmetry_equiv_pos_site_id
 _symmetry_equiv_pos_as_xyz
  1  'x, y, z'
loop_
 _atom_site_type_symbol
 _atom_site_label
 _atom_site_symmetry_multiplicity
 _atom_site_fract_x
 _atom_site_fract_y
 _atom_site_fract_z
 _atom_site_occupancy
  Tb  Tb0  1  0.000000  0.000000  0.000000  1
  Tb  Tb1  1  0.482766  0.519812  0.306613  1
  Tb  Tb2  1  0.517234  0.480188  0.693387  1
  Tb  Tb3  1  0.482766  0.962953  0.306613  1
  Tb  Tb4  1  0.517234  0.037047  0.693387  1
  Tb  Tb5  1  0.038096  0.519048  0.304840  1
  Tb  Tb6  1  0.961904  0.480952  0.695160  1
  Sn  Sn7  1  0.350313  0.995806  0.997929  1
  Sn  Sn8  1  0.649687  0.004194  0.002071  1
  Sn  Sn9  1  0.000000  0.350037  0.000000  1
  Sn  Sn10  1  0.000000  0.649963  0.000000  1
  Sn  Sn11  1  0.649687  0.645494  0.002071  1
  Sn  Sn12  1  0.350313  0.354506  0.997929  1
  Sn  Sn13  1  0.326033  0.663018  0.825787  1
  Sn  Sn14  1  0.673967  0.336982  0.174213  1
  Sn  Sn15  1  0.000000  0.000000  0.500000  1
  Sn  Sn16  1  0.779797  0.220398  0.457880  1
  Sn  Sn17  1  0.220203  0.779602  0.542120  1
  Sn  Sn18  1  0.779797  0.559399  0.457880  1
  Sn  Sn19  1  0.220203  0.440601  0.542120  1
  Sn  Sn20  1  0.443710  0.221855  0.460478  1
  Sn  Sn21  1  0.556290  0.778145  0.539522  1
  Sn  Sn22  1  0.334229  0.667115  0.120726  1
  Sn  Sn23  1  0.665771  0.332885  0.879274  1
  Sn  Sn24  1  0.115167  0.878408  0.282057  1
  Sn  Sn25  1  0.884833  0.121592  0.717943  1
  Sn  Sn26  1  0.115167  0.236760  0.282057  1
  Sn  Sn27  1  0.884833  0.763240  0.717943  1
  Sn  Sn28  1  0.766381  0.883191  0.280393  1
  Sn  Sn29  1  0.233619  0.116809  0.719607  1
  Os  Os30  1  0.830028  0.168464  0.199783  1
  Os  Os31  1  0.169972  0.831536  0.800217  1
  Os  Os32  1  0.830028  0.661564  0.199783  1
  Os  Os33  1  0.169972  0.338436  0.800217  1
  Pt  Pt34  1  0.339865  0.169932  0.199096  1
  Pt  Pt35  1  0.660135  0.830068  0.800904  1
