# generated using pymatgen
data_Cu7MoS8
_symmetry_space_group_name_H-M   'P 1'
_cell_length_a   7.49443700
_cell_length_b   7.49443776
_cell_length_c   12.33615400
_cell_angle_alpha   90.00000000
_cell_angle_beta   90.00000000
_cell_angle_gamma   119.99999221
_symmetry_Int_Tables_number   1
_chemical_formula_structural   Cu7MoS8
_chemical_formula_sum   'Cu14 Mo2 S16'
_cell_volume   600.05149030
_cell_formula_units_Z   2
loop_
 _symmetry_equiv_pos_site_id
 _symmetry_equiv_pos_as_xyz
  1  'x, y, z'
loop_
 _atom_site_type_symbol
 _atom_site_label
 _atom_site_symmetry_multiplicity
 _atom_site_fract_x
 _atom_site_fract_y
 _atom_site_fract_z
 _atom_site_occupancy
  Cu  Cu0  1  0.840899  0.681800  0.107751  1
  Cu  Cu1  1  0.506391  0.493609  0.350505  1
  Cu  Cu2  1  0.012781  0.506391  0.850505  1
  Cu  Cu3  1  0.840899  0.159101  0.107751  1
  Cu  Cu4  1  0.493609  0.506391  0.850505  1
  Cu  Cu5  1  0.159101  0.318200  0.607751  1
  Cu  Cu6  1  0.506391  0.012781  0.350505  1
  Cu  Cu7  1  0.987219  0.493609  0.350505  1
  Cu  Cu8  1  0.159101  0.840899  0.607751  1
  Cu  Cu9  1  0.493609  0.987219  0.850505  1
  Cu  Cu10  1  0.681800  0.840899  0.607751  1
  Cu  Cu11  1  0.318200  0.159101  0.107751  1
  Cu  Cu12  1  0.000000  0.000000  0.852490  1
  Cu  Cu13  1  0.000000  0.000000  0.352490  1
  Mo  Mo14  1  0.333333  0.666667  0.480594  1
  Mo  Mo15  1  0.666667  0.333333  0.980594  1
  S  S16  1  0.000000  0.000000  0.036176  1
  S  S17  1  0.329944  0.164973  0.291054  1
  S  S18  1  0.835027  0.164973  0.291054  1
  S  S19  1  0.004382  0.502192  0.540497  1
  S  S20  1  0.835027  0.670056  0.291054  1
  S  S21  1  0.666667  0.333333  0.797316  1
  S  S22  1  0.164973  0.329944  0.791054  1
  S  S23  1  0.497808  0.502192  0.540497  1
  S  S24  1  0.000000  0.000000  0.536176  1
  S  S25  1  0.333333  0.666667  0.297316  1
  S  S26  1  0.995618  0.497808  0.040497  1
  S  S27  1  0.497808  0.995618  0.540497  1
  S  S28  1  0.164973  0.835027  0.791054  1
  S  S29  1  0.670056  0.835027  0.791054  1
  S  S30  1  0.502192  0.004382  0.040497  1
  S  S31  1  0.502192  0.497808  0.040497  1
