# generated using pymatgen
data_Dy6Y5HoCo5Sn
_symmetry_space_group_name_H-M   'P 1'
_cell_length_a   8.30516219
_cell_length_b   8.31143793
_cell_length_c   8.30516275
_cell_angle_alpha   107.08319357
_cell_angle_beta   110.63654410
_cell_angle_gamma   110.69005164
_symmetry_Int_Tables_number   1
_chemical_formula_structural   Dy6Y5HoCo5Sn
_chemical_formula_sum   'Dy6 Y5 Ho1 Co5 Sn1'
_cell_volume   440.91131789
_cell_formula_units_Z   1
loop_
 _symmetry_equiv_pos_site_id
 _symmetry_equiv_pos_as_xyz
  1  'x, y, z'
loop_
 _atom_site_type_symbol
 _atom_site_label
 _atom_site_symmetry_multiplicity
 _atom_site_fract_x
 _atom_site_fract_y
 _atom_site_fract_z
 _atom_site_occupancy
  Dy  Dy0  1  0.693294  0.379787  0.686494  1
  Dy  Dy1  1  0.693048  0.006785  0.313738  1
  Dy  Dy2  1  0.192200  0.206632  0.400054  1
  Dy  Dy3  1  0.807876  0.793112  0.600562  1
  Dy  Dy4  1  0.192550  0.793112  0.985235  1
  Dy  Dy5  1  0.806578  0.206632  0.014432  1
  Y  Y6  1  0.479329  0.292364  0.186595  1
  Y  Y7  1  0.105769  0.292364  0.813034  1
  Y  Y8  1  0.893974  0.707582  0.186974  1
  Y  Y9  1  0.520608  0.707582  0.813608  1
  Y  Y10  1  0.305090  0.619012  0.313922  1
  Ho  Ho11  1  0.307011  0.993310  0.686298  1
  Co  Co12  1  0.500669  0.611753  0.111083  1
  Co  Co13  1  0.499650  0.386432  0.886783  1
  Co  Co14  1  0.378923  0.001383  0.378544  1
  Co  Co15  1  0.622839  0.001383  0.622462  1
  Co  Co16  1  0.000404  0.000495  0.000091  1
  Sn  Sn17  1  0.000186  0.500280  0.500094  1
