# generated using pymatgen
data_La4Cd2Pd3Pt
_symmetry_space_group_name_H-M   'P 1'
_cell_length_a   7.90749429
_cell_length_b   7.90749429
_cell_length_c   4.00977700
_cell_angle_alpha   90.00000000
_cell_angle_beta   90.00000000
_cell_angle_gamma   89.62082886
_symmetry_Int_Tables_number   1
_chemical_formula_structural   La4Cd2Pd3Pt
_chemical_formula_sum   'La4 Cd2 Pd3 Pt1'
_cell_volume   250.71971427
_cell_formula_units_Z   1
loop_
 _symmetry_equiv_pos_site_id
 _symmetry_equiv_pos_as_xyz
  1  'x, y, z'
loop_
 _atom_site_type_symbol
 _atom_site_label
 _atom_site_symmetry_multiplicity
 _atom_site_fract_x
 _atom_site_fract_y
 _atom_site_fract_z
 _atom_site_occupancy
  La  La0  1  0.674118  0.174118  0.500000  1
  La  La1  1  0.322412  0.822412  0.500000  1
  La  La2  1  0.175532  0.328700  0.500000  1
  La  La3  1  0.828700  0.675532  0.500000  1
  Cd  Cd4  1  0.999847  0.001497  0.000000  1
  Cd  Cd5  1  0.501497  0.499847  0.000000  1
  Pd  Pd6  1  0.870219  0.370219  0.000000  1
  Pd  Pd7  1  0.628040  0.872736  0.000000  1
  Pd  Pd8  1  0.372736  0.128040  0.000000  1
  Pt  Pt9  1  0.126899  0.626899  0.000000  1
