# generated using pymatgen
data_Zr3Zn5Ni
_symmetry_space_group_name_H-M   'P 1'
_cell_length_a   6.45545000
_cell_length_b   6.45544803
_cell_length_c   4.18468400
_cell_angle_alpha   90.00000000
_cell_angle_beta   90.00000000
_cell_angle_gamma   119.99999983
_symmetry_Int_Tables_number   1
_chemical_formula_structural   Zr3Zn5Ni
_chemical_formula_sum   'Zr3 Zn5 Ni1'
_cell_volume   151.02408461
_cell_formula_units_Z   1
loop_
 _symmetry_equiv_pos_site_id
 _symmetry_equiv_pos_as_xyz
  1  'x, y, z'
loop_
 _atom_site_type_symbol
 _atom_site_label
 _atom_site_symmetry_multiplicity
 _atom_site_fract_x
 _atom_site_fract_y
 _atom_site_fract_z
 _atom_site_occupancy
  Zr  Zr0  1  0.000000  0.401966  0.500000  1
  Zr  Zr1  1  0.598034  0.598034  0.500000  1
  Zr  Zr2  1  0.401966  0.000000  0.500000  1
  Zn  Zn3  1  0.000000  0.766453  0.000000  1
  Zn  Zn4  1  0.233547  0.233547  0.000000  1
  Zn  Zn5  1  0.766453  0.000000  0.000000  1
  Zn  Zn6  1  0.333333  0.666667  0.000000  1
  Zn  Zn7  1  0.666667  0.333333  0.000000  1
  Ni  Ni8  1  0.000000  0.000000  0.500000  1
