# generated using pymatgen
data_DyHo7Tm2(BiAu2)2
_symmetry_space_group_name_H-M   'P 1'
_cell_length_a   8.68170617
_cell_length_b   8.68170604
_cell_length_c   8.68168526
_cell_angle_alpha   124.22098023
_cell_angle_beta   124.22097877
_cell_angle_gamma   82.82892290
_symmetry_Int_Tables_number   1
_chemical_formula_structural   DyHo7Tm2(BiAu2)2
_chemical_formula_sum   'Dy1 Ho7 Tm2 Bi2 Au4'
_cell_volume   429.50094611
_cell_formula_units_Z   1
loop_
 _symmetry_equiv_pos_site_id
 _symmetry_equiv_pos_as_xyz
  1  'x, y, z'
loop_
 _atom_site_type_symbol
 _atom_site_label
 _atom_site_symmetry_multiplicity
 _atom_site_fract_x
 _atom_site_fract_y
 _atom_site_fract_z
 _atom_site_occupancy
  Dy  Dy0  1  0.014747  0.514747  0.809990  1
  Ho  Ho1  1  0.704911  0.204911  0.190028  1
  Ho  Ho2  1  0.514828  0.704961  0.500015  1
  Ho  Ho3  1  0.204961  0.014828  0.500015  1
  Ho  Ho4  1  0.985173  0.485173  0.190191  1
  Ho  Ho5  1  0.295056  0.795056  0.809861  1
  Ho  Ho6  1  0.485110  0.295005  0.499968  1
  Ho  Ho7  1  0.795005  0.985110  0.499968  1
  Tm  Tm8  1  0.999984  0.000076  0.000016  1
  Tm  Tm9  1  0.500076  0.499984  0.000016  1
  Bi  Bi10  1  0.749957  0.750040  0.000007  1
  Bi  Bi11  1  0.250040  0.249957  0.000007  1
  Au  Au12  1  0.638351  0.138351  0.776688  1
  Au  Au13  1  0.361794  0.861794  0.223475  1
  Au  Au14  1  0.138396  0.361611  0.499877  1
  Au  Au15  1  0.861611  0.638396  0.499877  1
