# generated using pymatgen
data_NdDySn5Ir3
_symmetry_space_group_name_H-M   'P 1'
_cell_length_a   13.52607219
_cell_length_b   13.52607230
_cell_length_c   7.30127000
_cell_angle_alpha   90.00000000
_cell_angle_beta   90.00000000
_cell_angle_gamma   161.02350866
_symmetry_Int_Tables_number   1
_chemical_formula_structural   NdDySn5Ir3
_chemical_formula_sum   'Nd2 Dy2 Sn10 Ir6'
_cell_volume   434.37605630
_cell_formula_units_Z   2
loop_
 _symmetry_equiv_pos_site_id
 _symmetry_equiv_pos_as_xyz
  1  'x, y, z'
loop_
 _atom_site_type_symbol
 _atom_site_label
 _atom_site_symmetry_multiplicity
 _atom_site_fract_x
 _atom_site_fract_y
 _atom_site_fract_z
 _atom_site_occupancy
  Nd  Nd0  1  0.172381  0.827619  0.754527  1
  Nd  Nd1  1  0.827619  0.172381  0.254527  1
  Dy  Dy2  1  0.476527  0.523473  0.737911  1
  Dy  Dy3  1  0.523473  0.476527  0.237911  1
  Sn  Sn4  1  0.881033  0.118967  0.730771  1
  Sn  Sn5  1  0.118967  0.881033  0.230771  1
  Sn  Sn6  1  0.704489  0.295511  0.049654  1
  Sn  Sn7  1  0.295511  0.704489  0.549654  1
  Sn  Sn8  1  0.595692  0.404308  0.613419  1
  Sn  Sn9  1  0.404308  0.595692  0.113419  1
  Sn  Sn10  1  0.952937  0.047063  0.397922  1
  Sn  Sn11  1  0.047063  0.952937  0.897922  1
  Sn  Sn12  1  0.290745  0.709255  0.976474  1
  Sn  Sn13  1  0.709255  0.290745  0.476474  1
  Ir  Ir14  1  0.049745  0.950255  0.518218  1
  Ir  Ir15  1  0.950255  0.049745  0.018218  1
  Ir  Ir16  1  0.777287  0.222713  0.763830  1
  Ir  Ir17  1  0.222713  0.777287  0.263830  1
  Ir  Ir18  1  0.395097  0.604903  0.485273  1
  Ir  Ir19  1  0.604903  0.395097  0.985273  1
