# generated using pymatgen
data_DyHo18MgIr12
_symmetry_space_group_name_H-M   'P 1'
_cell_length_a   10.82898102
_cell_length_b   10.82810303
_cell_length_c   6.29973303
_cell_angle_alpha   89.99174885
_cell_angle_beta   90.00688617
_cell_angle_gamma   90.00146061
_symmetry_Int_Tables_number   1
_chemical_formula_structural   DyHo18MgIr12
_chemical_formula_sum   'Dy1 Ho18 Mg1 Ir12'
_cell_volume   738.68981209
_cell_formula_units_Z   1
loop_
 _symmetry_equiv_pos_site_id
 _symmetry_equiv_pos_as_xyz
  1  'x, y, z'
loop_
 _atom_site_type_symbol
 _atom_site_label
 _atom_site_symmetry_multiplicity
 _atom_site_fract_x
 _atom_site_fract_y
 _atom_site_fract_z
 _atom_site_occupancy
  Dy  Dy0  1  0.284177  0.084841  0.378770  1
  Ho  Ho1  1  0.290617  0.911728  0.879299  1
  Ho  Ho2  1  0.709425  0.088176  0.879295  1
  Ho  Ho3  1  0.715509  0.915222  0.379047  1
  Ho  Ho4  1  0.588861  0.791848  0.879491  1
  Ho  Ho5  1  0.587908  0.208092  0.377731  1
  Ho  Ho6  1  0.412301  0.791828  0.377744  1
  Ho  Ho7  1  0.411254  0.208178  0.879481  1
  Ho  Ho8  1  0.208047  0.412289  0.622299  1
  Ho  Ho9  1  0.208115  0.588844  0.120496  1
  Ho  Ho10  1  0.791871  0.411165  0.120490  1
  Ho  Ho11  1  0.791956  0.587764  0.622261  1
  Ho  Ho12  1  0.911851  0.709413  0.120717  1
  Ho  Ho13  1  0.915186  0.284521  0.620953  1
  Ho  Ho14  1  0.084792  0.715469  0.621003  1
  Ho  Ho15  1  0.088029  0.290720  0.120592  1
  Ho  Ho16  1  0.999957  0.999980  0.999944  1
  Ho  Ho17  1  0.499996  0.500015  0.999987  1
  Ho  Ho18  1  0.500032  0.500016  0.500052  1
  Mg  Mg19  1  0.999862  0.999949  0.500046  1
  Ir  Ir20  1  0.846388  0.154125  0.247969  1
  Ir  Ir21  1  0.845886  0.846337  0.752039  1
  Ir  Ir22  1  0.153964  0.153730  0.752629  1
  Ir  Ir23  1  0.153502  0.845616  0.247783  1
  Ir  Ir24  1  0.654436  0.346099  0.748348  1
  Ir  Ir25  1  0.653909  0.654442  0.251652  1
  Ir  Ir26  1  0.346163  0.345853  0.251519  1
  Ir  Ir27  1  0.345567  0.653911  0.748337  1
  Ir  Ir28  1  0.500210  0.999896  0.123813  1
  Ir  Ir29  1  0.500245  0.999905  0.620741  1
  Ir  Ir30  1  0.999984  0.500005  0.875973  1
  Ir  Ir31  1  0.999999  0.500024  0.379498  1
