# generated using pymatgen
data_Tm12Fe2Bi2Os
_symmetry_space_group_name_H-M   'P 1'
_cell_length_a   8.35904356
_cell_length_b   8.35904519
_cell_length_c   8.35904374
_cell_angle_alpha   108.17918919
_cell_angle_beta   108.17918587
_cell_angle_gamma   112.08738732
_symmetry_Int_Tables_number   1
_chemical_formula_structural   Tm12Fe2Bi2Os
_chemical_formula_sum   'Tm12 Fe2 Bi2 Os1'
_cell_volume   448.91586214
_cell_formula_units_Z   1
loop_
 _symmetry_equiv_pos_site_id
 _symmetry_equiv_pos_as_xyz
  1  'x, y, z'
loop_
 _atom_site_type_symbol
 _atom_site_label
 _atom_site_symmetry_multiplicity
 _atom_site_fract_x
 _atom_site_fract_y
 _atom_site_fract_z
 _atom_site_occupancy
  Tm  Tm0  1  0.194741  0.426453  0.231711  1
  Tm  Tm1  1  0.805259  0.573547  0.768289  1
  Tm  Tm2  1  0.194741  0.963031  0.768289  1
  Tm  Tm3  1  0.963031  0.194741  0.768289  1
  Tm  Tm4  1  0.805259  0.036969  0.231711  1
  Tm  Tm5  1  0.036969  0.805259  0.231711  1
  Tm  Tm6  1  0.426453  0.194741  0.231711  1
  Tm  Tm7  1  0.573547  0.805259  0.768289  1
  Tm  Tm8  1  0.309263  0.309263  0.618525  1
  Tm  Tm9  1  0.690737  0.690737  0.381475  1
  Tm  Tm10  1  0.690737  0.309263  0.000000  1
  Tm  Tm11  1  0.309263  0.690737  0.000000  1
  Fe  Fe12  1  0.383613  0.383613  0.000000  1
  Fe  Fe13  1  0.616387  0.616387  0.000000  1
  Bi  Bi14  1  0.000000  0.500000  0.500000  1
  Bi  Bi15  1  0.500000  0.000000  0.500000  1
  Os  Os16  1  0.000000  0.000000  0.000000  1
