# generated using pymatgen
data_Sn4Ir2PdRh
_symmetry_space_group_name_H-M   'P 1'
_cell_length_a   4.02419500
_cell_length_b   5.82513379
_cell_length_c   6.71337499
_cell_angle_alpha   90.00762097
_cell_angle_beta   90.00000000
_cell_angle_gamma   90.00000000
_symmetry_Int_Tables_number   1
_chemical_formula_structural   Sn4Ir2PdRh
_chemical_formula_sum   'Sn4 Ir2 Pd1 Rh1'
_cell_volume   157.37140558
_cell_formula_units_Z   1
loop_
 _symmetry_equiv_pos_site_id
 _symmetry_equiv_pos_as_xyz
  1  'x, y, z'
loop_
 _atom_site_type_symbol
 _atom_site_label
 _atom_site_symmetry_multiplicity
 _atom_site_fract_x
 _atom_site_fract_y
 _atom_site_fract_z
 _atom_site_occupancy
  Sn  Sn0  1  0.750000  0.301080  0.915375  1
  Sn  Sn1  1  0.750000  0.785742  0.585081  1
  Sn  Sn2  1  0.250000  0.704388  0.091796  1
  Sn  Sn3  1  0.250000  0.211014  0.404654  1
  Ir  Ir4  1  0.750000  0.990927  0.218680  1
  Ir  Ir5  1  0.250000  0.506912  0.714694  1
  Pd  Pd6  1  0.250000  0.008423  0.786055  1
  Rh  Rh7  1  0.750000  0.491515  0.283666  1
