# generated using pymatgen
data_Nb12Al9Zn13Ni2
_symmetry_space_group_name_H-M   'P 1'
_cell_length_a   8.81873700
_cell_length_b   8.81873552
_cell_length_c   8.10563000
_cell_angle_alpha   90.00000000
_cell_angle_beta   90.00000000
_cell_angle_gamma   119.99998681
_symmetry_Int_Tables_number   1
_chemical_formula_structural   Nb12Al9Zn13Ni2
_chemical_formula_sum   'Nb12 Al9 Zn13 Ni2'
_cell_volume   545.92146870
_cell_formula_units_Z   1
loop_
 _symmetry_equiv_pos_site_id
 _symmetry_equiv_pos_as_xyz
  1  'x, y, z'
loop_
 _atom_site_type_symbol
 _atom_site_label
 _atom_site_symmetry_multiplicity
 _atom_site_fract_x
 _atom_site_fract_y
 _atom_site_fract_z
 _atom_site_occupancy
  Nb  Nb0  1  0.330742  0.999882  0.067345  1
  Nb  Nb1  1  0.669140  0.999882  0.932655  1
  Nb  Nb2  1  0.000118  0.330860  0.067345  1
  Nb  Nb3  1  0.670438  0.000841  0.567809  1
  Nb  Nb4  1  0.999159  0.329562  0.432191  1
  Nb  Nb5  1  0.000118  0.669258  0.932655  1
  Nb  Nb6  1  0.330403  0.000841  0.432191  1
  Nb  Nb7  1  0.999159  0.669597  0.567809  1
  Nb  Nb8  1  0.669140  0.669258  0.067345  1
  Nb  Nb9  1  0.330742  0.330860  0.932655  1
  Nb  Nb10  1  0.330403  0.329562  0.567809  1
  Nb  Nb11  1  0.670438  0.669597  0.432191  1
  Al  Al12  1  0.666667  0.333333  0.500000  1
  Al  Al13  1  0.666667  0.333333  0.000000  1
  Al  Al14  1  0.333333  0.666667  0.000000  1
  Al  Al15  1  0.169632  0.999657  0.750262  1
  Al  Al16  1  0.830026  0.999657  0.249738  1
  Al  Al17  1  0.000343  0.169974  0.750262  1
  Al  Al18  1  0.000343  0.830368  0.249738  1
  Al  Al19  1  0.830026  0.830368  0.750262  1
  Al  Al20  1  0.169632  0.169974  0.249738  1
  Zn  Zn21  1  0.160973  0.494868  0.747240  1
  Zn  Zn22  1  0.840485  0.506164  0.249920  1
  Zn  Zn23  1  0.505132  0.666105  0.747240  1
  Zn  Zn24  1  0.493836  0.159515  0.750080  1
  Zn  Zn25  1  0.493836  0.334321  0.249920  1
  Zn  Zn26  1  0.505132  0.839027  0.252760  1
  Zn  Zn27  1  0.333895  0.839027  0.747240  1
  Zn  Zn28  1  0.665679  0.506164  0.750080  1
  Zn  Zn29  1  0.665679  0.159515  0.249920  1
  Zn  Zn30  1  0.333895  0.494868  0.252760  1
  Zn  Zn31  1  0.840485  0.334321  0.750080  1
  Zn  Zn32  1  0.160973  0.666105  0.252760  1
  Zn  Zn33  1  0.333333  0.666667  0.500000  1
  Ni  Ni34  1  0.000000  0.000000  0.500000  1
  Ni  Ni35  1  0.000000  0.000000  0.000000  1
