# generated using pymatgen
data_Sc4Al6ZnRh
_symmetry_space_group_name_H-M   'P 1'
_cell_length_a   5.36026800
_cell_length_b   5.36026914
_cell_length_c   8.47520600
_cell_angle_alpha   90.00000000
_cell_angle_beta   90.00000000
_cell_angle_gamma   120.00000530
_symmetry_Int_Tables_number   1
_chemical_formula_structural   Sc4Al6ZnRh
_chemical_formula_sum   'Sc4 Al6 Zn1 Rh1'
_cell_volume   210.88902153
_cell_formula_units_Z   1
loop_
 _symmetry_equiv_pos_site_id
 _symmetry_equiv_pos_as_xyz
  1  'x, y, z'
loop_
 _atom_site_type_symbol
 _atom_site_label
 _atom_site_symmetry_multiplicity
 _atom_site_fract_x
 _atom_site_fract_y
 _atom_site_fract_z
 _atom_site_occupancy
  Sc  Sc0  1  0.333333  0.666667  0.063709  1
  Sc  Sc1  1  0.666667  0.333333  0.564867  1
  Sc  Sc2  1  0.333333  0.666667  0.435133  1
  Sc  Sc3  1  0.666667  0.333333  0.936291  1
  Al  Al4  1  0.831137  0.662273  0.255639  1
  Al  Al5  1  0.168863  0.831137  0.744361  1
  Al  Al6  1  0.662273  0.831137  0.744361  1
  Al  Al7  1  0.337727  0.168863  0.255639  1
  Al  Al8  1  0.831137  0.168863  0.255639  1
  Al  Al9  1  0.168863  0.337727  0.744361  1
  Zn  Zn10  1  0.000000  0.000000  0.000000  1
  Rh  Rh11  1  0.000000  0.000000  0.500000  1
