# generated using pymatgen
data_CaHf5(Be2Ir5)2
_symmetry_space_group_name_H-M   'P 1'
_cell_length_a   9.60684286
_cell_length_b   9.60684286
_cell_length_c   3.28676200
_cell_angle_alpha   90.00000000
_cell_angle_beta   90.00000000
_cell_angle_gamma   89.66991272
_symmetry_Int_Tables_number   1
_chemical_formula_structural   CaHf5(Be2Ir5)2
_chemical_formula_sum   'Ca1 Hf5 Be4 Ir10'
_cell_volume   303.33493001
_cell_formula_units_Z   1
loop_
 _symmetry_equiv_pos_site_id
 _symmetry_equiv_pos_as_xyz
  1  'x, y, z'
loop_
 _atom_site_type_symbol
 _atom_site_label
 _atom_site_symmetry_multiplicity
 _atom_site_fract_x
 _atom_site_fract_y
 _atom_site_fract_z
 _atom_site_occupancy
  Ca  Ca0  1  0.175659  0.675659  0.000000  1
  Hf  Hf1  1  0.324501  0.173896  0.000000  1
  Hf  Hf2  1  0.825417  0.325417  0.000000  1
  Hf  Hf3  1  0.497053  0.500933  0.000000  1
  Hf  Hf4  1  0.673896  0.824501  0.000000  1
  Hf  Hf5  1  0.000933  0.997053  0.000000  1
  Be  Be6  1  0.382193  0.882193  0.000000  1
  Be  Be7  1  0.118011  0.378025  0.000000  1
  Be  Be8  1  0.878025  0.618011  0.000000  1
  Be  Be9  1  0.621419  0.121419  0.000000  1
  Ir  Ir10  1  0.223929  0.944775  0.500000  1
  Ir  Ir11  1  0.914554  0.784282  0.500000  1
  Ir  Ir12  1  0.444775  0.723929  0.500000  1
  Ir  Ir13  1  0.574195  0.285195  0.500000  1
  Ir  Ir14  1  0.713351  0.567515  0.500000  1
  Ir  Ir15  1  0.284282  0.414554  0.500000  1
  Ir  Ir16  1  0.067515  0.213351  0.500000  1
  Ir  Ir17  1  0.990398  0.490398  0.500000  1
  Ir  Ir18  1  0.504702  0.004702  0.500000  1
  Ir  Ir19  1  0.785195  0.074195  0.500000  1
