# generated using pymatgen
data_LiPr14Nd2Cd3Ir4
_symmetry_space_group_name_H-M   'P 1'
_cell_length_a   10.05272940
_cell_length_b   10.05272885
_cell_length_c   10.05194908
_cell_angle_alpha   59.87972867
_cell_angle_beta   59.87972957
_cell_angle_gamma   59.86570638
_symmetry_Int_Tables_number   1
_chemical_formula_structural   LiPr14Nd2Cd3Ir4
_chemical_formula_sum   'Li1 Pr14 Nd2 Cd3 Ir4'
_cell_volume   716.25923711
_cell_formula_units_Z   1
loop_
 _symmetry_equiv_pos_site_id
 _symmetry_equiv_pos_as_xyz
  1  'x, y, z'
loop_
 _atom_site_type_symbol
 _atom_site_label
 _atom_site_symmetry_multiplicity
 _atom_site_fract_x
 _atom_site_fract_y
 _atom_site_fract_z
 _atom_site_occupancy
  Li  Li0  1  0.571289  0.571289  0.571520  1
  Pr  Pr1  1  0.347588  0.957899  0.347393  1
  Pr  Pr2  1  0.957899  0.347588  0.347393  1
  Pr  Pr3  1  0.809615  0.191326  0.191228  1
  Pr  Pr4  1  0.187549  0.811302  0.811588  1
  Pr  Pr5  1  0.191326  0.809615  0.191228  1
  Pr  Pr6  1  0.811302  0.187549  0.811588  1
  Pr  Pr7  1  0.191272  0.191272  0.809642  1
  Pr  Pr8  1  0.811469  0.811469  0.187568  1
  Pr  Pr9  1  0.938807  0.561794  0.561816  1
  Pr  Pr10  1  0.561052  0.938706  0.938546  1
  Pr  Pr11  1  0.561794  0.938807  0.561816  1
  Pr  Pr12  1  0.938706  0.561052  0.938546  1
  Pr  Pr13  1  0.561670  0.561670  0.939048  1
  Pr  Pr14  1  0.938449  0.938449  0.561163  1
  Nd  Nd15  1  0.347933  0.347933  0.347728  1
  Nd  Nd16  1  0.347287  0.347287  0.958474  1
  Cd  Cd17  1  0.580782  0.580782  0.259768  1
  Cd  Cd18  1  0.580595  0.259915  0.580985  1
  Cd  Cd19  1  0.259915  0.580595  0.580985  1
  Ir  Ir20  1  0.142221  0.142221  0.141493  1
  Ir  Ir21  1  0.142859  0.142859  0.575659  1
  Ir  Ir22  1  0.143151  0.575468  0.142412  1
  Ir  Ir23  1  0.575468  0.143151  0.142412  1
