# generated using pymatgen
data_Ho6Fe2Co15P12W
_symmetry_space_group_name_H-M   'P 1'
_cell_length_a   3.70257000
_cell_length_b   10.54664200
_cell_length_c   12.16997100
_cell_angle_alpha   90.00000000
_cell_angle_beta   90.00000000
_cell_angle_gamma   90.00000000
_symmetry_Int_Tables_number   1
_chemical_formula_structural   Ho6Fe2Co15P12W
_chemical_formula_sum   'Ho6 Fe2 Co15 P12 W1'
_cell_volume   475.23347644
_cell_formula_units_Z   1
loop_
 _symmetry_equiv_pos_site_id
 _symmetry_equiv_pos_as_xyz
  1  'x, y, z'
loop_
 _atom_site_type_symbol
 _atom_site_label
 _atom_site_symmetry_multiplicity
 _atom_site_fract_x
 _atom_site_fract_y
 _atom_site_fract_z
 _atom_site_occupancy
  Ho  Ho0  1  0.000000  0.500000  0.521756  1
  Ho  Ho1  1  0.500000  0.000000  0.474615  1
  Ho  Ho2  1  0.500000  0.817521  0.204149  1
  Ho  Ho3  1  0.500000  0.182479  0.204149  1
  Ho  Ho4  1  0.000000  0.679740  0.795083  1
  Ho  Ho5  1  0.000000  0.320260  0.795083  1
  Fe  Fe6  1  0.000000  0.500000  0.987954  1
  Fe  Fe7  1  0.500000  0.500000  0.155334  1
  Co  Co8  1  0.500000  0.000000  0.014607  1
  Co  Co9  1  0.500000  0.297425  0.430568  1
  Co  Co10  1  0.500000  0.702575  0.430568  1
  Co  Co11  1  0.000000  0.204362  0.568611  1
  Co  Co12  1  0.000000  0.795638  0.568611  1
  Co  Co13  1  0.500000  0.878069  0.707773  1
  Co  Co14  1  0.500000  0.121931  0.707773  1
  Co  Co15  1  0.000000  0.621145  0.291428  1
  Co  Co16  1  0.000000  0.378855  0.291428  1
  Co  Co17  1  0.500000  0.331822  0.993885  1
  Co  Co18  1  0.500000  0.668178  0.993885  1
  Co  Co19  1  0.000000  0.167354  0.009895  1
  Co  Co20  1  0.000000  0.832646  0.009895  1
  Co  Co21  1  0.500000  0.500000  0.701203  1
  Co  Co22  1  0.000000  0.000000  0.300299  1
  P  P23  1  0.500000  0.311349  0.615461  1
  P  P24  1  0.500000  0.688651  0.615461  1
  P  P25  1  0.000000  0.190488  0.383344  1
  P  P26  1  0.000000  0.809512  0.383344  1
  P  P27  1  0.500000  0.500000  0.884132  1
  P  P28  1  0.000000  0.000000  0.120634  1
  P  P29  1  0.500000  0.843162  0.894078  1
  P  P30  1  0.500000  0.156838  0.894078  1
  P  P31  1  0.000000  0.650835  0.108157  1
  P  P32  1  0.000000  0.349165  0.108157  1
  P  P33  1  0.500000  0.500000  0.341521  1
  P  P34  1  0.000000  0.000000  0.649172  1
  W  W35  1  0.000000  0.000000  0.843911  1
