# generated using pymatgen
data_Zr2Pa(ZnRh)3
_symmetry_space_group_name_H-M   'P 1'
_cell_length_a   7.11844500
_cell_length_b   7.20043926
_cell_length_c   3.63578100
_cell_angle_alpha   90.00000000
_cell_angle_beta   90.00000000
_cell_angle_gamma   120.38176088
_symmetry_Int_Tables_number   1
_chemical_formula_structural   Zr2Pa(ZnRh)3
_chemical_formula_sum   'Zr2 Pa1 Zn3 Rh3'
_cell_volume   160.76403912
_cell_formula_units_Z   1
loop_
 _symmetry_equiv_pos_site_id
 _symmetry_equiv_pos_as_xyz
  1  'x, y, z'
loop_
 _atom_site_type_symbol
 _atom_site_label
 _atom_site_symmetry_multiplicity
 _atom_site_fract_x
 _atom_site_fract_y
 _atom_site_fract_z
 _atom_site_occupancy
  Zr  Zr0  1  0.602785  0.598916  0.500000  1
  Zr  Zr1  1  0.397215  0.996131  0.500000  1
  Pa  Pa2  1  0.000000  0.406463  0.500000  1
  Zn  Zn3  1  0.000000  0.758407  0.000000  1
  Zn  Zn4  1  0.279226  0.259112  0.000000  1
  Zn  Zn5  1  0.720774  0.979887  0.000000  1
  Rh  Rh6  1  0.315134  0.649993  0.000000  1
  Rh  Rh7  1  0.684866  0.334858  0.000000  1
  Rh  Rh8  1  0.000000  0.016232  0.500000  1
