# generated using pymatgen
data_Tm4Lu4In3Fe
_symmetry_space_group_name_H-M   'P 1'
_cell_length_a   10.13937500
_cell_length_b   10.13937460
_cell_length_c   6.98297800
_cell_angle_alpha   90.00000000
_cell_angle_beta   90.00000000
_cell_angle_gamma   120.00001109
_symmetry_Int_Tables_number   1
_chemical_formula_structural   Tm4Lu4In3Fe
_chemical_formula_sum   'Tm8 Lu8 In6 Fe2'
_cell_volume   621.71824276
_cell_formula_units_Z   2
loop_
 _symmetry_equiv_pos_site_id
 _symmetry_equiv_pos_as_xyz
  1  'x, y, z'
loop_
 _atom_site_type_symbol
 _atom_site_label
 _atom_site_symmetry_multiplicity
 _atom_site_fract_x
 _atom_site_fract_y
 _atom_site_fract_z
 _atom_site_occupancy
  Tm  Tm0  1  0.464339  0.535661  0.287116  1
  Tm  Tm1  1  0.928677  0.464339  0.787116  1
  Tm  Tm2  1  0.535661  0.071323  0.787116  1
  Tm  Tm3  1  0.464339  0.928677  0.287116  1
  Tm  Tm4  1  0.071323  0.535661  0.287116  1
  Tm  Tm5  1  0.535661  0.464339  0.787116  1
  Tm  Tm6  1  0.000000  0.000000  0.271125  1
  Tm  Tm7  1  0.000000  0.000000  0.771125  1
  Lu  Lu8  1  0.179017  0.820983  0.991212  1
  Lu  Lu9  1  0.358033  0.179017  0.491212  1
  Lu  Lu10  1  0.820983  0.641967  0.491212  1
  Lu  Lu11  1  0.179017  0.358033  0.991212  1
  Lu  Lu12  1  0.641967  0.820983  0.991212  1
  Lu  Lu13  1  0.820983  0.179017  0.491212  1
  Lu  Lu14  1  0.333333  0.666667  0.679645  1
  Lu  Lu15  1  0.666667  0.333333  0.179645  1
  In  In16  1  0.163801  0.836199  0.539054  1
  In  In17  1  0.327603  0.163801  0.039054  1
  In  In18  1  0.836199  0.672397  0.039054  1
  In  In19  1  0.163801  0.327603  0.539054  1
  In  In20  1  0.672397  0.836199  0.539054  1
  In  In21  1  0.836199  0.163801  0.039054  1
  Fe  Fe22  1  0.333333  0.666667  0.059089  1
  Fe  Fe23  1  0.666667  0.333333  0.559089  1
