# generated using pymatgen
data_Tm4GeB4Ir9
_symmetry_space_group_name_H-M   'P 1'
_cell_length_a   10.72010575
_cell_length_b   10.72010594
_cell_length_c   10.72010737
_cell_angle_alpha   29.74882411
_cell_angle_beta   29.74882129
_cell_angle_gamma   29.74883045
_symmetry_Int_Tables_number   1
_chemical_formula_structural   Tm4GeB4Ir9
_chemical_formula_sum   'Tm4 Ge1 B4 Ir9'
_cell_volume   268.58038488
_cell_formula_units_Z   1
loop_
 _symmetry_equiv_pos_site_id
 _symmetry_equiv_pos_as_xyz
  1  'x, y, z'
loop_
 _atom_site_type_symbol
 _atom_site_label
 _atom_site_symmetry_multiplicity
 _atom_site_fract_x
 _atom_site_fract_y
 _atom_site_fract_z
 _atom_site_occupancy
  Tm  Tm0  1  0.150036  0.150036  0.150036  1
  Tm  Tm1  1  0.950345  0.950345  0.950345  1
  Tm  Tm2  1  0.849964  0.849964  0.849964  1
  Tm  Tm3  1  0.049655  0.049655  0.049655  1
  Ge  Ge4  1  0.500000  0.500000  0.500000  1
  B  B5  1  0.615792  0.615792  0.615792  1
  B  B6  1  0.717992  0.717992  0.717992  1
  B  B7  1  0.384208  0.384208  0.384208  1
  B  B8  1  0.282008  0.282008  0.282008  1
  Ir  Ir9  1  0.401791  0.901702  0.401791  1
  Ir  Ir10  1  0.901702  0.401791  0.401791  1
  Ir  Ir11  1  0.500000  0.500000  0.000000  1
  Ir  Ir12  1  0.500000  0.000000  0.500000  1
  Ir  Ir13  1  0.000000  0.500000  0.500000  1
  Ir  Ir14  1  0.598209  0.098298  0.598209  1
  Ir  Ir15  1  0.598209  0.598209  0.098298  1
  Ir  Ir16  1  0.098298  0.598209  0.598209  1
  Ir  Ir17  1  0.401791  0.401791  0.901702  1
