# generated using pymatgen
data_HfZr9Sn6S
_symmetry_space_group_name_H-M   'P 1'
_cell_length_a   5.84678300
_cell_length_b   8.58616161
_cell_length_c   8.58624300
_cell_angle_alpha   119.99987417
_cell_angle_beta   89.99994536
_cell_angle_gamma   89.99986304
_symmetry_Int_Tables_number   1
_chemical_formula_structural   HfZr9Sn6S
_chemical_formula_sum   'Hf1 Zr9 Sn6 S1'
_cell_volume   373.29346889
_cell_formula_units_Z   1
loop_
 _symmetry_equiv_pos_site_id
 _symmetry_equiv_pos_as_xyz
  1  'x, y, z'
loop_
 _atom_site_type_symbol
 _atom_site_label
 _atom_site_symmetry_multiplicity
 _atom_site_fract_x
 _atom_site_fract_y
 _atom_site_fract_z
 _atom_site_occupancy
  Hf  Hf0  1  0.499999  0.333335  0.666667  1
  Zr  Zr1  1  0.500000  0.666673  0.333337  1
  Zr  Zr2  1  0.000000  0.666672  0.333333  1
  Zr  Zr3  1  0.000001  0.333338  0.666671  1
  Zr  Zr4  1  0.756320  0.250085  0.999887  1
  Zr  Zr5  1  0.756308  0.749798  0.749913  1
  Zr  Zr6  1  0.756309  0.000101  0.250197  1
  Zr  Zr7  1  0.243685  0.749799  0.999886  1
  Zr  Zr8  1  0.243688  0.250089  0.250200  1
  Zr  Zr9  1  0.243691  0.000108  0.749907  1
  Sn  Sn10  1  0.750265  0.605919  0.999569  1
  Sn  Sn11  1  0.750272  0.393643  0.394075  1
  Sn  Sn12  1  0.750265  0.000436  0.606361  1
  Sn  Sn13  1  0.249736  0.393644  0.999569  1
  Sn  Sn14  1  0.249731  0.605924  0.606352  1
  Sn  Sn15  1  0.249735  0.000440  0.394077  1
  S  S16  1  0.499997  0.999998  0.000000  1
