# generated using pymatgen
data_Ho3Cd3InAgIr
_symmetry_space_group_name_H-M   'P 1'
_cell_length_a   8.03683600
_cell_length_b   8.03683551
_cell_length_c   3.80887600
_cell_angle_alpha   90.00000000
_cell_angle_beta   90.00000000
_cell_angle_gamma   120.00001024
_symmetry_Int_Tables_number   1
_chemical_formula_structural   Ho3Cd3InAgIr
_chemical_formula_sum   'Ho3 Cd3 In1 Ag1 Ir1'
_cell_volume   213.05788279
_cell_formula_units_Z   1
loop_
 _symmetry_equiv_pos_site_id
 _symmetry_equiv_pos_as_xyz
  1  'x, y, z'
loop_
 _atom_site_type_symbol
 _atom_site_label
 _atom_site_symmetry_multiplicity
 _atom_site_fract_x
 _atom_site_fract_y
 _atom_site_fract_z
 _atom_site_occupancy
  Ho  Ho0  1  0.429469  0.384426  0.500000  1
  Ho  Ho1  1  0.615574  0.045043  0.500000  1
  Ho  Ho2  1  0.954957  0.570531  0.500000  1
  Cd  Cd3  1  0.734228  0.736333  0.000000  1
  Cd  Cd4  1  0.263667  0.997897  0.000000  1
  Cd  Cd5  1  0.002103  0.265772  0.000000  1
  In  In6  1  0.333333  0.666667  0.000000  1
  Ag  Ag7  1  0.000000  0.000000  0.500000  1
  Ir  Ir8  1  0.666667  0.333333  0.000000  1
