# generated using pymatgen
data_La3CCl5
_symmetry_space_group_name_H-M   'P 1'
_cell_length_a   7.61377570
_cell_length_b   9.00773801
_cell_length_c   9.07298035
_cell_angle_alpha   108.91344674
_cell_angle_beta   97.65155143
_cell_angle_gamma   106.59344349
_symmetry_Int_Tables_number   1
_chemical_formula_structural   La3CCl5
_chemical_formula_sum   'La6 C2 Cl10'
_cell_volume   546.37759855
_cell_formula_units_Z   2
loop_
 _symmetry_equiv_pos_site_id
 _symmetry_equiv_pos_as_xyz
  1  'x, y, z'
loop_
 _atom_site_type_symbol
 _atom_site_label
 _atom_site_symmetry_multiplicity
 _atom_site_fract_x
 _atom_site_fract_y
 _atom_site_fract_z
 _atom_site_occupancy
  La  La0  1  0.878083  0.950476  0.234568  1
  La  La1  1  0.121917  0.049524  0.765432  1
  La  La2  1  0.027195  0.708973  0.910220  1
  La  La3  1  0.972805  0.291027  0.089780  1
  La  La4  1  0.601198  0.837457  0.784863  1
  La  La5  1  0.398802  0.162543  0.215137  1
  C  C6  1  0.906646  0.963957  0.950338  1
  C  C7  1  0.093354  0.036043  0.049662  1
  Cl  Cl8  1  0.756587  0.916085  0.536651  1
  Cl  Cl9  1  0.243413  0.083915  0.463349  1
  Cl  Cl10  1  0.456519  0.828081  0.077428  1
  Cl  Cl11  1  0.543481  0.171919  0.922572  1
  Cl  Cl12  1  0.821060  0.264040  0.355693  1
  Cl  Cl13  1  0.178940  0.735960  0.644307  1
  Cl  Cl14  1  0.909824  0.627256  0.169866  1
  Cl  Cl15  1  0.090176  0.372744  0.830134  1
  Cl  Cl16  1  0.651364  0.530069  0.717135  1
  Cl  Cl17  1  0.348636  0.469931  0.282865  1
