# generated using pymatgen
data_Yb2NbIr3
_symmetry_space_group_name_H-M   'P 1'
_cell_length_a   5.62914785
_cell_length_b   5.62914841
_cell_length_c   5.24789791
_cell_angle_alpha   57.56624354
_cell_angle_beta   57.56625503
_cell_angle_gamma   59.99999680
_symmetry_Int_Tables_number   1
_chemical_formula_structural   Yb2NbIr3
_chemical_formula_sum   'Yb2 Nb1 Ir3'
_cell_volume   113.07307595
_cell_formula_units_Z   1
loop_
 _symmetry_equiv_pos_site_id
 _symmetry_equiv_pos_as_xyz
  1  'x, y, z'
loop_
 _atom_site_type_symbol
 _atom_site_label
 _atom_site_symmetry_multiplicity
 _atom_site_fract_x
 _atom_site_fract_y
 _atom_site_fract_z
 _atom_site_occupancy
  Yb  Yb0  1  0.502041  0.502041  0.493878  1
  Yb  Yb1  1  0.747959  0.747959  0.756122  1
  Nb  Nb2  1  0.125000  0.125000  0.625000  1
  Ir  Ir3  1  0.625000  0.125000  0.125000  1
  Ir  Ir4  1  0.125000  0.125000  0.125000  1
  Ir  Ir5  1  0.125000  0.625000  0.125000  1
