# generated using pymatgen
data_Th4Hg2RhAu3
_symmetry_space_group_name_H-M   'P 1'
_cell_length_a   8.12259854
_cell_length_b   8.12259815
_cell_length_c   3.83470800
_cell_angle_alpha   90.00000000
_cell_angle_beta   90.00000000
_cell_angle_gamma   90.32200524
_symmetry_Int_Tables_number   1
_chemical_formula_structural   Th4Hg2RhAu3
_chemical_formula_sum   'Th4 Hg2 Rh1 Au3'
_cell_volume   252.99701516
_cell_formula_units_Z   1
loop_
 _symmetry_equiv_pos_site_id
 _symmetry_equiv_pos_as_xyz
  1  'x, y, z'
loop_
 _atom_site_type_symbol
 _atom_site_label
 _atom_site_symmetry_multiplicity
 _atom_site_fract_x
 _atom_site_fract_y
 _atom_site_fract_z
 _atom_site_occupancy
  Th  Th0  1  0.157281  0.321248  0.500000  1
  Th  Th1  1  0.688015  0.188015  0.500000  1
  Th  Th2  1  0.821248  0.657281  0.500000  1
  Th  Th3  1  0.327841  0.827841  0.500000  1
  Hg  Hg4  1  0.997762  0.002167  0.000000  1
  Hg  Hg5  1  0.502167  0.497762  0.000000  1
  Rh  Rh6  1  0.872651  0.372651  0.000000  1
  Au  Au7  1  0.126223  0.626223  0.000000  1
  Au  Au8  1  0.629776  0.877036  0.000000  1
  Au  Au9  1  0.377036  0.129776  0.000000  1
