# generated using pymatgen
data_Dy2YVB7
_symmetry_space_group_name_H-M   'P 1'
_cell_length_a   8.14665291
_cell_length_b   8.14665383
_cell_length_c   9.42854000
_cell_angle_alpha   90.00000000
_cell_angle_beta   90.00000000
_cell_angle_gamma   155.62127523
_symmetry_Int_Tables_number   1
_chemical_formula_structural   Dy2YVB7
_chemical_formula_sum   'Dy4 Y2 V2 B14'
_cell_volume   258.28970548
_cell_formula_units_Z   2
loop_
 _symmetry_equiv_pos_site_id
 _symmetry_equiv_pos_as_xyz
  1  'x, y, z'
loop_
 _atom_site_type_symbol
 _atom_site_label
 _atom_site_symmetry_multiplicity
 _atom_site_fract_x
 _atom_site_fract_y
 _atom_site_fract_z
 _atom_site_occupancy
  Dy  Dy0  1  0.894525  0.105475  0.440838  1
  Dy  Dy1  1  0.105475  0.894525  0.559162  1
  Dy  Dy2  1  0.894525  0.105475  0.059162  1
  Dy  Dy3  1  0.105475  0.894525  0.940838  1
  Y  Y4  1  0.242408  0.757592  0.250000  1
  Y  Y5  1  0.757592  0.242408  0.750000  1
  V  V6  1  0.052836  0.947164  0.250000  1
  V  V7  1  0.947164  0.052836  0.750000  1
  B  B8  1  0.727147  0.272853  0.468321  1
  B  B9  1  0.272853  0.727147  0.531679  1
  B  B10  1  0.727147  0.272853  0.031679  1
  B  B11  1  0.272853  0.727147  0.968321  1
  B  B12  1  0.632137  0.367863  0.149779  1
  B  B13  1  0.367863  0.632137  0.850221  1
  B  B14  1  0.632137  0.367863  0.350221  1
  B  B15  1  0.367863  0.632137  0.649779  1
  B  B16  1  0.521023  0.478977  0.095169  1
  B  B17  1  0.478977  0.521023  0.904831  1
  B  B18  1  0.521023  0.478977  0.404831  1
  B  B19  1  0.478977  0.521023  0.595169  1
  B  B20  1  0.458961  0.541039  0.250000  1
  B  B21  1  0.541039  0.458961  0.750000  1
