# generated using pymatgen
data_Lu5Be5P7Ir19
_symmetry_space_group_name_H-M   'P 1'
_cell_length_a   12.50809393
_cell_length_b   12.42858560
_cell_length_c   3.93213400
_cell_angle_alpha   90.00000000
_cell_angle_beta   90.00000000
_cell_angle_gamma   119.70547052
_symmetry_Int_Tables_number   1
_chemical_formula_structural   Lu5Be5P7Ir19
_chemical_formula_sum   'Lu5 Be5 P7 Ir19'
_cell_volume   530.94933189
_cell_formula_units_Z   1
loop_
 _symmetry_equiv_pos_site_id
 _symmetry_equiv_pos_as_xyz
  1  'x, y, z'
loop_
 _atom_site_type_symbol
 _atom_site_label
 _atom_site_symmetry_multiplicity
 _atom_site_fract_x
 _atom_site_fract_y
 _atom_site_fract_z
 _atom_site_occupancy
  Lu  Lu0  1  0.334371  0.665905  0.500000  1
  Lu  Lu1  1  0.663761  0.320419  0.500000  1
  Lu  Lu2  1  0.188842  0.190819  0.000000  1
  Lu  Lu3  1  0.812338  0.002256  0.000000  1
  Lu  Lu4  1  0.006662  0.817137  0.000000  1
  Be  Be5  1  0.311966  0.834684  0.000000  1
  Be  Be6  1  0.165157  0.478033  0.000000  1
  Be  Be7  1  0.521963  0.686865  0.000000  1
  Be  Be8  1  0.831744  0.307859  0.000000  1
  Be  Be9  1  0.478618  0.165056  0.000000  1
  P  P10  1  0.692225  0.514995  0.000000  1
  P  P11  1  0.366242  0.373430  0.500000  1
  P  P12  1  0.625141  0.999447  0.500000  1
  P  P13  1  0.006277  0.631366  0.500000  1
  P  P14  1  0.818154  0.820689  0.500000  1
  P  P15  1  0.184415  0.003657  0.500000  1
  P  P16  1  0.999150  0.182552  0.500000  1
  Ir  Ir17  1  0.193887  0.818296  0.500000  1
  Ir  Ir18  1  0.181541  0.376302  0.500000  1
  Ir  Ir19  1  0.625267  0.810074  0.500000  1
  Ir  Ir20  1  0.814098  0.189466  0.500000  1
  Ir  Ir21  1  0.376436  0.189587  0.500000  1
  Ir  Ir22  1  0.810377  0.624022  0.500000  1
  Ir  Ir23  1  0.126285  0.639176  0.000000  1
  Ir  Ir24  1  0.358691  0.488158  0.000000  1
  Ir  Ir25  1  0.509297  0.870153  0.000000  1
  Ir  Ir26  1  0.638105  0.125297  0.000000  1
  Ir  Ir27  1  0.497205  0.363965  0.000000  1
  Ir  Ir28  1  0.871172  0.507277  0.000000  1
  Ir  Ir29  1  0.548200  0.556822  0.500000  1
  Ir  Ir30  1  0.444446  0.002707  0.500000  1
  Ir  Ir31  1  0.995980  0.443214  0.500000  1
  Ir  Ir32  1  0.719864  0.716435  0.000000  1
  Ir  Ir33  1  0.282289  0.003164  0.000000  1
  Ir  Ir34  1  0.999308  0.280589  0.000000  1
  Ir  Ir35  1  0.000526  0.000129  0.500000  1
