# generated using pymatgen
data_PrDyHoRuO7
_symmetry_space_group_name_H-M   'P 1'
_cell_length_a   6.46315369
_cell_length_b   6.45350315
_cell_length_c   7.52167900
_cell_angle_alpha   90.00000000
_cell_angle_beta   90.00000000
_cell_angle_gamma   110.13693001
_symmetry_Int_Tables_number   1
_chemical_formula_structural   PrDyHoRuO7
_chemical_formula_sum   'Pr2 Dy2 Ho2 Ru2 O14'
_cell_volume   294.55164139
_cell_formula_units_Z   2
loop_
 _symmetry_equiv_pos_site_id
 _symmetry_equiv_pos_as_xyz
  1  'x, y, z'
loop_
 _atom_site_type_symbol
 _atom_site_label
 _atom_site_symmetry_multiplicity
 _atom_site_fract_x
 _atom_site_fract_y
 _atom_site_fract_z
 _atom_site_occupancy
  Pr  Pr0  1  0.000000  0.000000  0.500000  1
  Pr  Pr1  1  0.000000  0.000000  0.000000  1
  Dy  Dy2  1  0.481132  0.928870  0.750000  1
  Dy  Dy3  1  0.518868  0.071130  0.250000  1
  Ho  Ho4  1  0.929865  0.481602  0.750000  1
  Ho  Ho5  1  0.070135  0.518398  0.250000  1
  Ru  Ru6  1  0.500000  0.500000  0.500000  1
  Ru  Ru7  1  0.500000  0.500000  0.000000  1
  O  O8  1  0.590257  0.589765  0.750000  1
  O  O9  1  0.409743  0.410235  0.250000  1
  O  O10  1  0.836779  0.119026  0.750000  1
  O  O11  1  0.163221  0.880974  0.250000  1
  O  O12  1  0.116877  0.835245  0.750000  1
  O  O13  1  0.883123  0.164755  0.250000  1
  O  O14  1  0.440648  0.182064  0.962769  1
  O  O15  1  0.559352  0.817936  0.462769  1
  O  O16  1  0.181597  0.441010  0.962940  1
  O  O17  1  0.818403  0.558990  0.462940  1
  O  O18  1  0.440648  0.182064  0.537231  1
  O  O19  1  0.559352  0.817936  0.037231  1
  O  O20  1  0.818403  0.558990  0.037060  1
  O  O21  1  0.181597  0.441010  0.537060  1
