# generated using pymatgen
data_Yb15Lu4ThPt16
_symmetry_space_group_name_H-M   'P 1'
_cell_length_a   7.48093848
_cell_length_b   7.57242578
_cell_length_c   14.56038001
_cell_angle_alpha   90.02289412
_cell_angle_beta   90.14809130
_cell_angle_gamma   89.97143591
_symmetry_Int_Tables_number   1
_chemical_formula_structural   Yb15Lu4ThPt16
_chemical_formula_sum   'Yb15 Lu4 Th1 Pt16'
_cell_volume   824.82588042
_cell_formula_units_Z   1
loop_
 _symmetry_equiv_pos_site_id
 _symmetry_equiv_pos_as_xyz
  1  'x, y, z'
loop_
 _atom_site_type_symbol
 _atom_site_label
 _atom_site_symmetry_multiplicity
 _atom_site_fract_x
 _atom_site_fract_y
 _atom_site_fract_z
 _atom_site_occupancy
  Yb  Yb0  1  0.849181  0.666066  0.122134  1
  Yb  Yb1  1  0.650095  0.166849  0.879607  1
  Yb  Yb2  1  0.149054  0.334360  0.621991  1
  Yb  Yb3  1  0.490091  0.675251  0.594851  1
  Yb  Yb4  1  0.993358  0.821724  0.907949  1
  Yb  Yb5  1  0.506760  0.321401  0.093732  1
  Yb  Yb6  1  0.007918  0.178565  0.403964  1
  Yb  Yb7  1  0.506042  0.325177  0.400163  1
  Yb  Yb8  1  0.005801  0.180534  0.093567  1
  Yb  Yb9  1  0.491498  0.680533  0.906961  1
  Yb  Yb10  1  0.997056  0.814499  0.594989  1
  Yb  Yb11  1  0.812562  0.509538  0.753095  1
  Yb  Yb12  1  0.306558  0.989389  0.753063  1
  Yb  Yb13  1  0.187742  0.489813  0.248106  1
  Yb  Yb14  1  0.693017  0.008570  0.248373  1
  Lu  Lu15  1  0.150918  0.336633  0.877337  1
  Lu  Lu16  1  0.350231  0.835942  0.124195  1
  Lu  Lu17  1  0.852932  0.664333  0.374662  1
  Lu  Lu18  1  0.350672  0.832831  0.375649  1
  Th  Th19  1  0.649869  0.160971  0.622107  1
  Pt  Pt20  1  0.685667  0.955885  0.457450  1
  Pt  Pt21  1  0.188690  0.541677  0.039204  1
  Pt  Pt22  1  0.310553  0.041195  0.961371  1
  Pt  Pt23  1  0.813528  0.460025  0.537442  1
  Pt  Pt24  1  0.321665  0.030823  0.539906  1
  Pt  Pt25  1  0.830585  0.466542  0.956885  1
  Pt  Pt26  1  0.669455  0.965966  0.044285  1
  Pt  Pt27  1  0.175552  0.544828  0.456117  1
  Pt  Pt28  1  0.445079  0.379929  0.747425  1
  Pt  Pt29  1  0.946265  0.120606  0.752733  1
  Pt  Pt30  1  0.551977  0.624669  0.252692  1
  Pt  Pt31  1  0.059983  0.878010  0.253848  1
  Pt  Pt32  1  0.680623  0.863017  0.747253  1
  Pt  Pt33  1  0.181535  0.633740  0.754617  1
  Pt  Pt34  1  0.322180  0.131931  0.249199  1
  Pt  Pt35  1  0.815307  0.368179  0.253079  1
