# generated using pymatgen
data_Ce2Fe3Co9P7
_symmetry_space_group_name_H-M   'P 1'
_cell_length_a   9.02422800
_cell_length_b   9.02422876
_cell_length_c   3.66778800
_cell_angle_alpha   90.00000000
_cell_angle_beta   90.00000000
_cell_angle_gamma   120.00000454
_symmetry_Int_Tables_number   1
_chemical_formula_structural   Ce2Fe3Co9P7
_chemical_formula_sum   'Ce2 Fe3 Co9 P7'
_cell_volume   258.67531851
_cell_formula_units_Z   1
loop_
 _symmetry_equiv_pos_site_id
 _symmetry_equiv_pos_as_xyz
  1  'x, y, z'
loop_
 _atom_site_type_symbol
 _atom_site_label
 _atom_site_symmetry_multiplicity
 _atom_site_fract_x
 _atom_site_fract_y
 _atom_site_fract_z
 _atom_site_occupancy
  Ce  Ce0  1  0.000000  0.000000  0.000000  1
  Ce  Ce1  1  0.333333  0.666667  0.500000  1
  Fe  Fe2  1  0.883695  0.429746  0.500000  1
  Fe  Fe3  1  0.546051  0.116305  0.500000  1
  Fe  Fe4  1  0.570254  0.453949  0.500000  1
  Co  Co5  1  0.100197  0.396154  0.000000  1
  Co  Co6  1  0.295957  0.899803  0.000000  1
  Co  Co7  1  0.603846  0.704043  0.000000  1
  Co  Co8  1  0.819563  0.606733  0.000000  1
  Co  Co9  1  0.787170  0.180437  0.000000  1
  Co  Co10  1  0.393267  0.212830  0.000000  1
  Co  Co11  1  0.048391  0.767481  0.500000  1
  Co  Co12  1  0.719090  0.951609  0.500000  1
  Co  Co13  1  0.232519  0.280910  0.500000  1
  P  P14  1  0.071160  0.630903  0.000000  1
  P  P15  1  0.559743  0.928840  0.000000  1
  P  P16  1  0.369097  0.440257  0.000000  1
  P  P17  1  0.772549  0.730656  0.500000  1
  P  P18  1  0.958108  0.227451  0.500000  1
  P  P19  1  0.269344  0.041892  0.500000  1
  P  P20  1  0.666667  0.333333  0.000000  1
