# generated using pymatgen
data_La4Sn8IrPdRh2
_symmetry_space_group_name_H-M   'P 1'
_cell_length_a   8.98145719
_cell_length_b   8.98145554
_cell_length_c   9.72540927
_cell_angle_alpha   89.55205065
_cell_angle_beta   90.44794794
_cell_angle_gamma   149.53509502
_symmetry_Int_Tables_number   1
_chemical_formula_structural   La4Sn8IrPdRh2
_chemical_formula_sum   'La4 Sn8 Ir1 Pd1 Rh2'
_cell_volume   397.74443435
_cell_formula_units_Z   1
loop_
 _symmetry_equiv_pos_site_id
 _symmetry_equiv_pos_as_xyz
  1  'x, y, z'
loop_
 _atom_site_type_symbol
 _atom_site_label
 _atom_site_symmetry_multiplicity
 _atom_site_fract_x
 _atom_site_fract_y
 _atom_site_fract_z
 _atom_site_occupancy
  La  La0  1  0.497625  0.502375  0.499765  1
  La  La1  1  0.498932  0.501068  0.998657  1
  La  La2  1  0.297643  0.702357  0.249577  1
  La  La3  1  0.704164  0.295836  0.749202  1
  Sn  Sn4  1  0.908813  0.091187  0.749858  1
  Sn  Sn5  1  0.926080  0.073920  0.250339  1
  Sn  Sn6  1  0.090939  0.909061  0.246982  1
  Sn  Sn7  1  0.072665  0.927335  0.754379  1
  Sn  Sn8  1  0.698271  0.301729  0.406274  1
  Sn  Sn9  1  0.305450  0.694550  0.592482  1
  Sn  Sn10  1  0.302537  0.697463  0.910939  1
  Sn  Sn11  1  0.697425  0.302575  0.088313  1
  Ir  Ir12  1  0.851927  0.148073  0.005682  1
  Pd  Pd13  1  0.146131  0.853869  0.507287  1
  Rh  Rh14  1  0.149065  0.850935  0.996024  1
  Rh  Rh15  1  0.852331  0.147669  0.494239  1
