# generated using pymatgen
data_DySb3IF24
_symmetry_space_group_name_H-M   'P 1'
_cell_length_a   10.59032857
_cell_length_b   10.59032812
_cell_length_c   9.82899800
_cell_angle_alpha   88.47753159
_cell_angle_beta   88.47753166
_cell_angle_gamma   119.43878601
_symmetry_Int_Tables_number   1
_chemical_formula_structural   DySb3IF24
_chemical_formula_sum   'Dy2 Sb6 I2 F48'
_cell_volume   958.70134020
_cell_formula_units_Z   2
loop_
 _symmetry_equiv_pos_site_id
 _symmetry_equiv_pos_as_xyz
  1  'x, y, z'
loop_
 _atom_site_type_symbol
 _atom_site_label
 _atom_site_symmetry_multiplicity
 _atom_site_fract_x
 _atom_site_fract_y
 _atom_site_fract_z
 _atom_site_occupancy
  Dy  Dy0  1  0.000000  0.000000  0.500000  1
  Dy  Dy1  1  0.000000  0.000000  0.000000  1
  Sb  Sb2  1  0.347402  0.171639  0.742274  1
  Sb  Sb3  1  0.828361  0.652598  0.757726  1
  Sb  Sb4  1  0.824059  0.175941  0.750000  1
  Sb  Sb5  1  0.171639  0.347402  0.242274  1
  Sb  Sb6  1  0.175941  0.824059  0.250000  1
  Sb  Sb7  1  0.652598  0.828361  0.257726  1
  I  I8  1  0.333468  0.666532  0.750000  1
  I  I9  1  0.666532  0.333468  0.250000  1
  F  F10  1  0.306558  0.297508  0.844486  1
  F  F11  1  0.984086  0.667883  0.858876  1
  F  F12  1  0.688627  0.011539  0.857521  1
  F  F13  1  0.297508  0.306558  0.344486  1
  F  F14  1  0.011539  0.688627  0.357521  1
  F  F15  1  0.667883  0.984086  0.358876  1
  F  F16  1  0.693442  0.702492  0.155514  1
  F  F17  1  0.015914  0.332117  0.141124  1
  F  F18  1  0.311373  0.988461  0.142479  1
  F  F19  1  0.702492  0.693442  0.655514  1
  F  F20  1  0.988461  0.311373  0.642479  1
  F  F21  1  0.332117  0.015914  0.641124  1
  F  F22  1  0.480182  0.319618  0.619476  1
  F  F23  1  0.833013  0.520656  0.636158  1
  F  F24  1  0.686574  0.171403  0.630103  1
  F  F25  1  0.319618  0.480182  0.119476  1
  F  F26  1  0.171403  0.686574  0.130103  1
  F  F27  1  0.520656  0.833013  0.136158  1
  F  F28  1  0.519818  0.680382  0.380524  1
  F  F29  1  0.166987  0.479344  0.363842  1
  F  F30  1  0.313426  0.828597  0.369897  1
  F  F31  1  0.680382  0.519818  0.880524  1
  F  F32  1  0.828597  0.313426  0.869897  1
  F  F33  1  0.479344  0.166987  0.863842  1
  F  F34  1  0.182156  0.515587  0.865090  1
  F  F35  1  0.329392  0.810810  0.861687  1
  F  F36  1  0.476525  0.661668  0.862693  1
  F  F37  1  0.515587  0.182156  0.365090  1
  F  F38  1  0.661668  0.476525  0.362693  1
  F  F39  1  0.810810  0.329392  0.361687  1
  F  F40  1  0.817844  0.484413  0.134910  1
  F  F41  1  0.670608  0.189190  0.138313  1
  F  F42  1  0.523475  0.338332  0.137307  1
  F  F43  1  0.484413  0.817844  0.634910  1
  F  F44  1  0.338332  0.523475  0.637307  1
  F  F45  1  0.189190  0.670608  0.638313  1
  F  F46  1  0.178498  0.145007  0.627908  1
  F  F47  1  0.980991  0.821501  0.636478  1
  F  F48  1  0.849314  0.030499  0.636058  1
  F  F49  1  0.145007  0.178498  0.127908  1
  F  F50  1  0.030499  0.849314  0.136058  1
  F  F51  1  0.821501  0.980991  0.136478  1
  F  F52  1  0.821502  0.854993  0.372092  1
  F  F53  1  0.019009  0.178499  0.363522  1
  F  F54  1  0.150686  0.969501  0.363942  1
  F  F55  1  0.854993  0.821502  0.872092  1
  F  F56  1  0.969501  0.150686  0.863942  1
  F  F57  1  0.178499  0.019009  0.863522  1
