# generated using pymatgen
data_Hf6Ti6Si5P
_symmetry_space_group_name_H-M   'P 1'
_cell_length_a   7.86581758
_cell_length_b   7.86440408
_cell_length_c   7.86585589
_cell_angle_alpha   127.50583554
_cell_angle_beta   124.33101693
_cell_angle_gamma   80.05222102
_symmetry_Int_Tables_number   1
_chemical_formula_structural   Hf6Ti6Si5P
_chemical_formula_sum   'Hf6 Ti6 Si5 P1'
_cell_volume   307.75567949
_cell_formula_units_Z   1
loop_
 _symmetry_equiv_pos_site_id
 _symmetry_equiv_pos_as_xyz
  1  'x, y, z'
loop_
 _atom_site_type_symbol
 _atom_site_label
 _atom_site_symmetry_multiplicity
 _atom_site_fract_x
 _atom_site_fract_y
 _atom_site_fract_z
 _atom_site_occupancy
  Hf  Hf0  1  0.455427  0.659307  0.706673  1
  Hf  Hf1  1  0.548510  0.255315  0.209852  1
  Hf  Hf2  1  0.750345  0.845579  0.598470  1
  Hf  Hf3  1  0.247603  0.846033  0.095220  1
  Hf  Hf4  1  0.045792  0.255714  0.706751  1
  Hf  Hf5  1  0.952427  0.658712  0.203598  1
  Ti  Ti6  1  0.499825  0.502562  0.002496  1
  Ti  Ti7  1  0.998930  0.502393  0.503041  1
  Ti  Ti8  1  0.124304  0.253086  0.127795  1
  Ti  Ti9  1  0.875830  0.002282  0.127808  1
  Ti  Ti10  1  0.375232  0.003724  0.627779  1
  Ti  Ti11  1  0.625755  0.254852  0.630108  1
  Si  Si12  1  0.249984  0.253735  0.502846  1
  Si  Si13  1  0.749946  0.252755  0.003655  1
  Si  Si14  1  0.333262  0.586788  0.253174  1
  Si  Si15  1  0.666631  0.920427  0.254566  1
  Si  Si16  1  0.166918  0.919787  0.752373  1
  P  P17  1  0.833278  0.586547  0.753396  1
