# generated using pymatgen
data_Tb20(Ru3Au)3
_symmetry_space_group_name_H-M   'P 1'
_cell_length_a   10.99766781
_cell_length_b   10.99766734
_cell_length_c   6.44701011
_cell_angle_alpha   90.01301447
_cell_angle_beta   90.01300900
_cell_angle_gamma   90.23519020
_symmetry_Int_Tables_number   1
_chemical_formula_structural   Tb20(Ru3Au)3
_chemical_formula_sum   'Tb20 Ru9 Au3'
_cell_volume   779.75083156
_cell_formula_units_Z   1
loop_
 _symmetry_equiv_pos_site_id
 _symmetry_equiv_pos_as_xyz
  1  'x, y, z'
loop_
 _atom_site_type_symbol
 _atom_site_label
 _atom_site_symmetry_multiplicity
 _atom_site_fract_x
 _atom_site_fract_y
 _atom_site_fract_z
 _atom_site_occupancy
  Tb  Tb0  1  0.297501  0.082690  0.361337  1
  Tb  Tb1  1  0.295658  0.906057  0.876743  1
  Tb  Tb2  1  0.699262  0.089765  0.864953  1
  Tb  Tb3  1  0.695907  0.907942  0.364957  1
  Tb  Tb4  1  0.578194  0.789463  0.876852  1
  Tb  Tb5  1  0.579275  0.209478  0.377144  1
  Tb  Tb6  1  0.410244  0.790640  0.379907  1
  Tb  Tb7  1  0.419256  0.210203  0.877657  1
  Tb  Tb8  1  0.210537  0.421806  0.623148  1
  Tb  Tb9  1  0.209360  0.589756  0.120093  1
  Tb  Tb10  1  0.790522  0.420725  0.122856  1
  Tb  Tb11  1  0.789797  0.580744  0.622343  1
  Tb  Tb12  1  0.917310  0.702499  0.138663  1
  Tb  Tb13  1  0.910235  0.300738  0.635047  1
  Tb  Tb14  1  0.093943  0.704342  0.623257  1
  Tb  Tb15  1  0.092058  0.304093  0.135043  1
  Tb  Tb16  1  0.003992  0.992861  0.497787  1
  Tb  Tb17  1  0.007139  0.996008  0.002213  1
  Tb  Tb18  1  0.498997  0.499410  0.000992  1
  Tb  Tb19  1  0.500590  0.501003  0.499008  1
  Ru  Ru20  1  0.148403  0.851597  0.250000  1
  Ru  Ru21  1  0.653659  0.346341  0.750000  1
  Ru  Ru22  1  0.654816  0.653458  0.248297  1
  Ru  Ru23  1  0.346542  0.345184  0.251703  1
  Ru  Ru24  1  0.348293  0.651707  0.750000  1
  Ru  Ru25  1  0.499930  0.999487  0.117104  1
  Ru  Ru26  1  0.500382  0.999311  0.619975  1
  Ru  Ru27  1  0.000689  0.499618  0.880025  1
  Ru  Ru28  1  0.000513  0.500070  0.382896  1
  Au  Au29  1  0.846606  0.153394  0.250000  1
  Au  Au30  1  0.843329  0.842938  0.752013  1
  Au  Au31  1  0.157062  0.156671  0.747987  1
