# generated using pymatgen
data_LuHf7Sc2(In2Pt)4
_symmetry_space_group_name_H-M   'P 1'
_cell_length_a   3.45276600
_cell_length_b   7.69182944
_cell_length_c   17.48803567
_cell_angle_alpha   89.92271724
_cell_angle_beta   90.00000000
_cell_angle_gamma   90.00000000
_symmetry_Int_Tables_number   1
_chemical_formula_structural   LuHf7Sc2(In2Pt)4
_chemical_formula_sum   'Lu1 Hf7 Sc2 In8 Pt4'
_cell_volume   464.44835318
_cell_formula_units_Z   1
loop_
 _symmetry_equiv_pos_site_id
 _symmetry_equiv_pos_as_xyz
  1  'x, y, z'
loop_
 _atom_site_type_symbol
 _atom_site_label
 _atom_site_symmetry_multiplicity
 _atom_site_fract_x
 _atom_site_fract_y
 _atom_site_fract_z
 _atom_site_occupancy
  Lu  Lu0  1  0.000000  0.756535  0.279209  1
  Hf  Hf1  1  0.000000  0.138564  0.421930  1
  Hf  Hf2  1  0.000000  0.864791  0.580541  1
  Hf  Hf3  1  0.000000  0.364249  0.920475  1
  Hf  Hf4  1  0.000000  0.636126  0.077699  1
  Hf  Hf5  1  0.000000  0.256285  0.221473  1
  Hf  Hf6  1  0.000000  0.999949  0.999570  1
  Hf  Hf7  1  0.000000  0.501400  0.500490  1
  Sc  Sc8  1  0.000000  0.741059  0.778117  1
  Sc  Sc9  1  0.000000  0.242213  0.722096  1
  In  In10  1  0.500000  0.435402  0.352543  1
  In  In11  1  0.500000  0.562803  0.649712  1
  In  In12  1  0.500000  0.063051  0.850336  1
  In  In13  1  0.500000  0.937833  0.146467  1
  In  In14  1  0.500000  0.296853  0.063607  1
  In  In15  1  0.500000  0.702194  0.933644  1
  In  In16  1  0.500000  0.201965  0.566334  1
  In  In17  1  0.500000  0.803391  0.437188  1
  Pt  Pt18  1  0.500000  0.053735  0.306898  1
  Pt  Pt19  1  0.500000  0.952674  0.692255  1
  Pt  Pt20  1  0.500000  0.451967  0.808456  1
  Pt  Pt21  1  0.500000  0.536960  0.190955  1
