# generated using pymatgen
data_LiTm8Hf11Si16
_symmetry_space_group_name_H-M   'P 1'
_cell_length_a   7.24904458
_cell_length_b   7.24904437
_cell_length_c   13.22093623
_cell_angle_alpha   89.91218636
_cell_angle_beta   90.08781360
_cell_angle_gamma   90.02963243
_symmetry_Int_Tables_number   1
_chemical_formula_structural   LiTm8Hf11Si16
_chemical_formula_sum   'Li1 Tm8 Hf11 Si16'
_cell_volume   694.74057155
_cell_formula_units_Z   1
loop_
 _symmetry_equiv_pos_site_id
 _symmetry_equiv_pos_as_xyz
  1  'x, y, z'
loop_
 _atom_site_type_symbol
 _atom_site_label
 _atom_site_symmetry_multiplicity
 _atom_site_fract_x
 _atom_site_fract_y
 _atom_site_fract_z
 _atom_site_occupancy
  Li  Li0  1  0.177068  0.177068  0.000000  1
  Tm  Tm1  1  0.997363  0.344974  0.211930  1
  Tm  Tm2  1  0.004360  0.655298  0.716350  1
  Tm  Tm3  1  0.155264  0.496113  0.464572  1
  Tm  Tm4  1  0.499104  0.846749  0.033569  1
  Tm  Tm5  1  0.846749  0.499104  0.966431  1
  Tm  Tm6  1  0.496113  0.155264  0.535428  1
  Tm  Tm7  1  0.344974  0.997363  0.788070  1
  Tm  Tm8  1  0.655298  0.004360  0.283650  1
  Hf  Hf9  1  0.824653  0.824653  0.500000  1
  Hf  Hf10  1  0.324537  0.676467  0.249614  1
  Hf  Hf11  1  0.676467  0.324537  0.750386  1
  Hf  Hf12  1  0.146350  0.997383  0.374581  1
  Hf  Hf13  1  0.856693  0.002247  0.878262  1
  Hf  Hf14  1  0.503448  0.646073  0.625723  1
  Hf  Hf15  1  0.354911  0.492044  0.877806  1
  Hf  Hf16  1  0.492044  0.354911  0.122194  1
  Hf  Hf17  1  0.646073  0.503448  0.374277  1
  Hf  Hf18  1  0.997383  0.146350  0.625419  1
  Hf  Hf19  1  0.002247  0.856693  0.121738  1
  Si  Si20  1  0.358441  0.295703  0.317292  1
  Si  Si21  1  0.640095  0.704861  0.820338  1
  Si  Si22  1  0.206510  0.860061  0.569471  1
  Si  Si23  1  0.134158  0.780826  0.928047  1
  Si  Si24  1  0.780826  0.134158  0.071953  1
  Si  Si25  1  0.860061  0.206510  0.430529  1
  Si  Si26  1  0.295703  0.358441  0.682708  1
  Si  Si27  1  0.704861  0.640095  0.179662  1
  Si  Si28  1  0.296687  0.051305  0.187904  1
  Si  Si29  1  0.703317  0.951575  0.686554  1
  Si  Si30  1  0.451073  0.797777  0.435800  1
  Si  Si31  1  0.206520  0.559993  0.064272  1
  Si  Si32  1  0.559993  0.206520  0.935728  1
  Si  Si33  1  0.797777  0.451073  0.564200  1
  Si  Si34  1  0.051305  0.296687  0.812096  1
  Si  Si35  1  0.951575  0.703317  0.313446  1
