# generated using pymatgen
data_Er4TmHgBiAu
_symmetry_space_group_name_H-M   'P 1'
_cell_length_a   8.65763624
_cell_length_b   8.65763692
_cell_length_c   8.70593467
_cell_angle_alpha   123.70567489
_cell_angle_beta   123.70567486
_cell_angle_gamma   83.33607524
_symmetry_Int_Tables_number   1
_chemical_formula_structural   Er4TmHgBiAu
_chemical_formula_sum   'Er8 Tm2 Hg2 Bi2 Au2'
_cell_volume   433.89297890
_cell_formula_units_Z   2
loop_
 _symmetry_equiv_pos_site_id
 _symmetry_equiv_pos_as_xyz
  1  'x, y, z'
loop_
 _atom_site_type_symbol
 _atom_site_label
 _atom_site_symmetry_multiplicity
 _atom_site_fract_x
 _atom_site_fract_y
 _atom_site_fract_z
 _atom_site_occupancy
  Er  Er0  1  0.506364  0.006364  0.796993  1
  Er  Er1  1  0.209370  0.709370  0.203007  1
  Er  Er2  1  0.017138  0.198898  0.500000  1
  Er  Er3  1  0.698898  0.517138  0.500000  1
  Er  Er4  1  0.493636  0.993636  0.203007  1
  Er  Er5  1  0.790630  0.290630  0.796993  1
  Er  Er6  1  0.982862  0.801102  0.500000  1
  Er  Er7  1  0.301102  0.482862  0.500000  1
  Tm  Tm8  1  0.500000  0.500000  0.000000  1
  Tm  Tm9  1  0.000000  0.000000  0.000000  1
  Hg  Hg10  1  0.140741  0.640741  0.781481  1
  Hg  Hg11  1  0.859259  0.359259  0.218519  1
  Bi  Bi12  1  0.250000  0.250000  0.000000  1
  Bi  Bi13  1  0.750000  0.750000  0.000000  1
  Au  Au14  1  0.637912  0.862088  0.500000  1
  Au  Au15  1  0.362088  0.137912  0.500000  1
