# generated using pymatgen
data_Dy3Mg2CdGa2Hg
_symmetry_space_group_name_H-M   'P 1'
_cell_length_a   7.38426273
_cell_length_b   7.39873211
_cell_length_c   4.40838700
_cell_angle_alpha   90.00000000
_cell_angle_beta   90.00000000
_cell_angle_gamma   120.06484292
_symmetry_Int_Tables_number   1
_chemical_formula_structural   Dy3Mg2CdGa2Hg
_chemical_formula_sum   'Dy3 Mg2 Cd1 Ga2 Hg1'
_cell_volume   208.44460016
_cell_formula_units_Z   1
loop_
 _symmetry_equiv_pos_site_id
 _symmetry_equiv_pos_as_xyz
  1  'x, y, z'
loop_
 _atom_site_type_symbol
 _atom_site_label
 _atom_site_symmetry_multiplicity
 _atom_site_fract_x
 _atom_site_fract_y
 _atom_site_fract_z
 _atom_site_occupancy
  Dy  Dy0  1  0.424174  0.424907  0.500000  1
  Dy  Dy1  1  0.575826  0.000732  0.500000  1
  Dy  Dy2  1  0.000000  0.570548  0.500000  1
  Mg  Mg3  1  0.750884  0.752099  0.000000  1
  Mg  Mg4  1  0.249116  0.001215  0.000000  1
  Cd  Cd5  1  0.000000  0.255763  0.000000  1
  Ga  Ga6  1  0.663361  0.333361  0.000000  1
  Ga  Ga7  1  0.336639  0.670000  0.000000  1
  Hg  Hg8  1  0.000000  0.991375  0.500000  1
