# generated using pymatgen
data_Er2Al4Si2Rh
_symmetry_space_group_name_H-M   'P 1'
_cell_length_a   4.18383517
_cell_length_b   4.18384211
_cell_length_c   10.25708400
_cell_angle_alpha   101.70867054
_cell_angle_beta   101.70849446
_cell_angle_gamma   89.99800088
_symmetry_Int_Tables_number   1
_chemical_formula_structural   Er2Al4Si2Rh
_chemical_formula_sum   'Er2 Al4 Si2 Rh1'
_cell_volume   171.99252511
_cell_formula_units_Z   1
loop_
 _symmetry_equiv_pos_site_id
 _symmetry_equiv_pos_as_xyz
  1  'x, y, z'
loop_
 _atom_site_type_symbol
 _atom_site_label
 _atom_site_symmetry_multiplicity
 _atom_site_fract_x
 _atom_site_fract_y
 _atom_site_fract_z
 _atom_site_occupancy
  Er  Er0  1  0.186419  0.186424  0.373325  1
  Er  Er1  1  0.813572  0.813581  0.626675  1
  Al  Al2  1  0.570740  0.070287  0.141337  1
  Al  Al3  1  0.070290  0.570736  0.141337  1
  Al  Al4  1  0.929715  0.429260  0.858663  1
  Al  Al5  1  0.429268  0.929712  0.858663  1
  Si  Si6  1  0.662645  0.662645  0.325035  1
  Si  Si7  1  0.337356  0.337353  0.674964  1
  Rh  Rh8  1  0.000003  0.000005  0.000002  1
