# generated using pymatgen
data_Eu2ZnAgAs3
_symmetry_space_group_name_H-M   'P 1'
_cell_length_a   8.17240804
_cell_length_b   8.17240759
_cell_length_c   12.03012055
_cell_angle_alpha   55.49797400
_cell_angle_beta   55.49797710
_cell_angle_gamma   30.33529079
_symmetry_Int_Tables_number   1
_chemical_formula_structural   Eu2ZnAgAs3
_chemical_formula_sum   'Eu4 Zn2 Ag2 As6'
_cell_volume   328.56607644
_cell_formula_units_Z   2
loop_
 _symmetry_equiv_pos_site_id
 _symmetry_equiv_pos_as_xyz
  1  'x, y, z'
loop_
 _atom_site_type_symbol
 _atom_site_label
 _atom_site_symmetry_multiplicity
 _atom_site_fract_x
 _atom_site_fract_y
 _atom_site_fract_z
 _atom_site_occupancy
  Eu  Eu0  1  0.268923  0.268923  0.335408  1
  Eu  Eu1  1  0.731077  0.731077  0.664592  1
  Eu  Eu2  1  0.395519  0.395519  0.944046  1
  Eu  Eu3  1  0.604481  0.604481  0.055954  1
  Zn  Zn4  1  0.411087  0.411087  0.658102  1
  Zn  Zn5  1  0.588913  0.588913  0.341898  1
  Ag  Ag6  1  0.046429  0.046429  0.683494  1
  Ag  Ag7  1  0.953571  0.953571  0.316506  1
  As  As8  1  0.081212  0.081212  0.878990  1
  As  As9  1  0.918788  0.918788  0.121010  1
  As  As10  1  0.164338  0.164338  0.189200  1
  As  As11  1  0.835662  0.835662  0.810800  1
  As  As12  1  0.379283  0.379283  0.475870  1
  As  As13  1  0.620717  0.620717  0.524130  1
