# generated using pymatgen
data_LaCo12HgO24
_symmetry_space_group_name_H-M   'P 1'
_cell_length_a   7.80642117
_cell_length_b   7.80642127
_cell_length_c   8.96779134
_cell_angle_alpha   56.32479158
_cell_angle_beta   56.32479095
_cell_angle_gamma   66.46964604
_symmetry_Int_Tables_number   1
_chemical_formula_structural   LaCo12HgO24
_chemical_formula_sum   'La1 Co12 Hg1 O24'
_cell_volume   375.13790344
_cell_formula_units_Z   1
loop_
 _symmetry_equiv_pos_site_id
 _symmetry_equiv_pos_as_xyz
  1  'x, y, z'
loop_
 _atom_site_type_symbol
 _atom_site_label
 _atom_site_symmetry_multiplicity
 _atom_site_fract_x
 _atom_site_fract_y
 _atom_site_fract_z
 _atom_site_occupancy
  La  La0  1  0.825062  0.174938  0.000000  1
  Co  Co1  1  0.974575  0.316296  0.524067  1
  Co  Co2  1  0.836975  0.841133  0.817712  1
  Co  Co3  1  0.158867  0.163025  0.182288  1
  Co  Co4  1  0.490440  0.831581  0.184600  1
  Co  Co5  1  0.017664  0.694652  0.471031  1
  Co  Co6  1  0.355476  0.360713  0.467948  1
  Co  Co7  1  0.305348  0.982336  0.528969  1
  Co  Co8  1  0.639287  0.644524  0.532052  1
  Co  Co9  1  0.499486  0.177070  0.818986  1
  Co  Co10  1  0.168419  0.509560  0.815400  1
  Co  Co11  1  0.822930  0.500514  0.181014  1
  Co  Co12  1  0.683704  0.025425  0.475933  1
  Hg  Hg13  1  0.315592  0.684408  0.000000  1
  O  O14  1  0.155128  0.170746  0.651753  1
  O  O15  1  0.872214  0.541358  0.932053  1
  O  O16  1  0.133635  0.140471  0.402041  1
  O  O17  1  0.859529  0.866365  0.597959  1
  O  O18  1  0.192624  0.533702  0.594142  1
  O  O19  1  0.118105  0.459947  0.067498  1
  O  O20  1  0.458642  0.127786  0.067947  1
  O  O21  1  0.871859  0.212119  0.251903  1
  O  O22  1  0.206436  0.880756  0.256181  1
  O  O23  1  0.540653  0.547827  0.263824  1
  O  O24  1  0.486312  0.829028  0.659204  1
  O  O25  1  0.825741  0.492789  0.657303  1
  O  O26  1  0.829254  0.844872  0.348247  1
  O  O27  1  0.170972  0.513688  0.340796  1
  O  O28  1  0.787881  0.128141  0.748097  1
  O  O29  1  0.119244  0.793564  0.743819  1
  O  O30  1  0.452173  0.459347  0.736176  1
  O  O31  1  0.540053  0.881895  0.932502  1
  O  O32  1  0.200507  0.212275  0.932726  1
  O  O33  1  0.466298  0.807376  0.405858  1
  O  O34  1  0.798072  0.474097  0.404320  1
  O  O35  1  0.525903  0.201928  0.595680  1
  O  O36  1  0.787725  0.799493  0.067274  1
  O  O37  1  0.507211  0.174259  0.342697  1
