# generated using pymatgen
data_Pr2SiIrBr2
_symmetry_space_group_name_H-M   'P 1'
_cell_length_a   4.21175400
_cell_length_b   4.21175440
_cell_length_c   11.49669200
_cell_angle_alpha   90.00000000
_cell_angle_beta   90.00000000
_cell_angle_gamma   119.99998113
_symmetry_Int_Tables_number   1
_chemical_formula_structural   Pr2SiIrBr2
_chemical_formula_sum   'Pr2 Si1 Ir1 Br2'
_cell_volume   176.61583802
_cell_formula_units_Z   1
loop_
 _symmetry_equiv_pos_site_id
 _symmetry_equiv_pos_as_xyz
  1  'x, y, z'
loop_
 _atom_site_type_symbol
 _atom_site_label
 _atom_site_symmetry_multiplicity
 _atom_site_fract_x
 _atom_site_fract_y
 _atom_site_fract_z
 _atom_site_occupancy
  Pr  Pr0  1  0.000000  0.000000  0.174122  1
  Pr  Pr1  1  0.000000  0.000000  0.825027  1
  Si  Si2  1  0.666667  0.333333  0.996333  1
  Ir  Ir3  1  0.333333  0.666667  0.003842  1
  Br  Br4  1  0.333333  0.666667  0.658310  1
  Br  Br5  1  0.666667  0.333333  0.342367  1
