# generated using pymatgen
data_LuSc(AlCo)2
_symmetry_space_group_name_H-M   'P 1'
_cell_length_a   3.90028900
_cell_length_b   6.53665688
_cell_length_c   7.60924700
_cell_angle_alpha   89.22895436
_cell_angle_beta   90.00000000
_cell_angle_gamma   90.00000000
_symmetry_Int_Tables_number   1
_chemical_formula_structural   LuSc(AlCo)2
_chemical_formula_sum   'Lu2 Sc2 Al4 Co4'
_cell_volume   193.97905195
_cell_formula_units_Z   2
loop_
 _symmetry_equiv_pos_site_id
 _symmetry_equiv_pos_as_xyz
  1  'x, y, z'
loop_
 _atom_site_type_symbol
 _atom_site_label
 _atom_site_symmetry_multiplicity
 _atom_site_fract_x
 _atom_site_fract_y
 _atom_site_fract_z
 _atom_site_occupancy
  Lu  Lu0  1  0.250000  0.532298  0.822893  1
  Lu  Lu1  1  0.750000  0.467702  0.177107  1
  Sc  Sc2  1  0.250000  0.032423  0.673610  1
  Sc  Sc3  1  0.750000  0.967577  0.326390  1
  Al  Al4  1  0.250000  0.643951  0.442792  1
  Al  Al5  1  0.750000  0.356049  0.557208  1
  Al  Al6  1  0.250000  0.134635  0.056846  1
  Al  Al7  1  0.750000  0.865365  0.943154  1
  Co  Co8  1  0.750000  0.739822  0.627288  1
  Co  Co9  1  0.250000  0.260178  0.372712  1
  Co  Co10  1  0.750000  0.230852  0.867733  1
  Co  Co11  1  0.250000  0.769148  0.132267  1
