# generated using pymatgen
data_Tm4Cu4Si3Ge
_symmetry_space_group_name_H-M   'P 1'
_cell_length_a   4.17599100
_cell_length_b   6.93175216
_cell_length_c   7.29317700
_cell_angle_alpha   89.83523116
_cell_angle_beta   90.00000000
_cell_angle_gamma   90.00000000
_symmetry_Int_Tables_number   1
_chemical_formula_structural   Tm4Cu4Si3Ge
_chemical_formula_sum   'Tm4 Cu4 Si3 Ge1'
_cell_volume   211.11424507
_cell_formula_units_Z   1
loop_
 _symmetry_equiv_pos_site_id
 _symmetry_equiv_pos_as_xyz
  1  'x, y, z'
loop_
 _atom_site_type_symbol
 _atom_site_label
 _atom_site_symmetry_multiplicity
 _atom_site_fract_x
 _atom_site_fract_y
 _atom_site_fract_z
 _atom_site_occupancy
  Tm  Tm0  1  0.750000  0.500385  0.790756  1
  Tm  Tm1  1  0.750000  0.999144  0.707019  1
  Tm  Tm2  1  0.250000  0.501906  0.209566  1
  Tm  Tm3  1  0.250000  0.999846  0.290763  1
  Cu  Cu4  1  0.750000  0.323781  0.431038  1
  Cu  Cu5  1  0.750000  0.808931  0.076141  1
  Cu  Cu6  1  0.250000  0.683417  0.576172  1
  Cu  Cu7  1  0.250000  0.178281  0.917242  1
  Si  Si8  1  0.750000  0.718581  0.405677  1
  Si  Si9  1  0.250000  0.783061  0.905353  1
  Si  Si10  1  0.250000  0.280932  0.594156  1
  Ge  Ge11  1  0.750000  0.221735  0.096116  1
