# generated using pymatgen
data_TbCe6Dy(AlRu)8
_symmetry_space_group_name_H-M   'P 1'
_cell_length_a   4.01038300
_cell_length_b   7.30306015
_cell_length_c   15.94561866
_cell_angle_alpha   89.98424758
_cell_angle_beta   90.00000000
_cell_angle_gamma   90.00000000
_symmetry_Int_Tables_number   1
_chemical_formula_structural   TbCe6Dy(AlRu)8
_chemical_formula_sum   'Tb1 Ce6 Dy1 Al8 Ru8'
_cell_volume   467.01635049
_cell_formula_units_Z   1
loop_
 _symmetry_equiv_pos_site_id
 _symmetry_equiv_pos_as_xyz
  1  'x, y, z'
loop_
 _atom_site_type_symbol
 _atom_site_label
 _atom_site_symmetry_multiplicity
 _atom_site_fract_x
 _atom_site_fract_y
 _atom_site_fract_z
 _atom_site_occupancy
  Tb  Tb0  1  0.750000  0.956861  0.218344  1
  Ce  Ce1  1  0.750000  0.823221  0.438002  1
  Ce  Ce2  1  0.750000  0.454414  0.282644  1
  Ce  Ce3  1  0.750000  0.329120  0.062913  1
  Ce  Ce4  1  0.250000  0.674080  0.938855  1
  Ce  Ce5  1  0.250000  0.048253  0.779192  1
  Ce  Ce6  1  0.250000  0.542455  0.718757  1
  Dy  Dy7  1  0.250000  0.159844  0.559709  1
  Al  Al8  1  0.750000  0.489568  0.562931  1
  Al  Al9  1  0.750000  0.370885  0.850983  1
  Al  Al10  1  0.750000  0.006369  0.936660  1
  Al  Al11  1  0.750000  0.870344  0.648878  1
  Al  Al12  1  0.250000  0.487964  0.438121  1
  Al  Al13  1  0.250000  0.996682  0.065623  1
  Al  Al14  1  0.250000  0.636584  0.152563  1
  Al  Al15  1  0.250000  0.125368  0.344786  1
  Ru  Ru16  1  0.750000  0.750255  0.816861  1
  Ru  Ru17  1  0.250000  0.239960  0.938529  1
  Ru  Ru18  1  0.750000  0.265694  0.426607  1
  Ru  Ru19  1  0.250000  0.754566  0.325181  1
  Ru  Ru20  1  0.750000  0.762436  0.061583  1
  Ru  Ru21  1  0.750000  0.249203  0.690066  1
  Ru  Ru22  1  0.250000  0.273155  0.177836  1
  Ru  Ru23  1  0.250000  0.732717  0.564377  1
