# generated using pymatgen
data_La4CrMo5O24
_symmetry_space_group_name_H-M   'P 1'
_cell_length_a   7.70267875
_cell_length_b   7.70267065
_cell_length_c   11.04575916
_cell_angle_alpha   89.76193103
_cell_angle_beta   89.76210972
_cell_angle_gamma   90.28014762
_symmetry_Int_Tables_number   1
_chemical_formula_structural   La4CrMo5O24
_chemical_formula_sum   'La4 Cr1 Mo5 O24'
_cell_volume   655.33892352
_cell_formula_units_Z   1
loop_
 _symmetry_equiv_pos_site_id
 _symmetry_equiv_pos_as_xyz
  1  'x, y, z'
loop_
 _atom_site_type_symbol
 _atom_site_label
 _atom_site_symmetry_multiplicity
 _atom_site_fract_x
 _atom_site_fract_y
 _atom_site_fract_z
 _atom_site_occupancy
  La  La0  1  0.190432  0.690431  0.733507  1
  La  La1  1  0.809791  0.309789  0.739826  1
  La  La2  1  0.687705  0.805906  0.263649  1
  La  La3  1  0.305906  0.187707  0.263649  1
  Cr  Cr4  1  0.210347  0.710357  0.355452  1
  Mo  Mo5  1  0.789582  0.289579  0.355884  1
  Mo  Mo6  1  0.710039  0.791409  0.644126  1
  Mo  Mo7  1  0.291410  0.210037  0.644125  1
  Mo  Mo8  1  0.002239  0.997159  0.000157  1
  Mo  Mo9  1  0.497161  0.502238  0.000156  1
  O  O10  1  0.995295  0.225170  0.296748  1
  O  O11  1  0.017836  0.767837  0.302842  1
  O  O12  1  0.225213  0.003072  0.701276  1
  O  O13  1  0.503072  0.725212  0.701276  1
  O  O14  1  0.773802  0.996811  0.703419  1
  O  O15  1  0.496811  0.273802  0.703419  1
  O  O16  1  0.267834  0.517842  0.302844  1
  O  O17  1  0.725171  0.495293  0.296748  1
  O  O18  1  0.187673  0.041343  0.092497  1
  O  O19  1  0.818998  0.953090  0.096605  1
  O  O20  1  0.043763  0.814305  0.904598  1
  O  O21  1  0.314306  0.543761  0.904598  1
  O  O22  1  0.958157  0.183221  0.907127  1
  O  O23  1  0.683222  0.458156  0.907127  1
  O  O24  1  0.453091  0.318996  0.096606  1
  O  O25  1  0.541344  0.687672  0.092497  1
  O  O26  1  0.627075  0.127074  0.312421  1
  O  O27  1  0.362214  0.862217  0.311852  1
  O  O28  1  0.129325  0.371465  0.687828  1
  O  O29  1  0.871465  0.629324  0.687828  1
  O  O30  1  0.201119  0.701121  0.505830  1
  O  O31  1  0.802211  0.302211  0.516567  1
  O  O32  1  0.700298  0.806097  0.483459  1
  O  O33  1  0.306098  0.200297  0.483459  1
