# generated using pymatgen
data_Pr3Nd2DyTa2O14
_symmetry_space_group_name_H-M   'P 1'
_cell_length_a   6.69160314
_cell_length_b   6.65486157
_cell_length_c   7.71192500
_cell_angle_alpha   90.00000000
_cell_angle_beta   90.00000000
_cell_angle_gamma   108.71243632
_symmetry_Int_Tables_number   1
_chemical_formula_structural   Pr3Nd2DyTa2O14
_chemical_formula_sum   'Pr3 Nd2 Dy1 Ta2 O14'
_cell_volume   325.27185217
_cell_formula_units_Z   1
loop_
 _symmetry_equiv_pos_site_id
 _symmetry_equiv_pos_as_xyz
  1  'x, y, z'
loop_
 _atom_site_type_symbol
 _atom_site_label
 _atom_site_symmetry_multiplicity
 _atom_site_fract_x
 _atom_site_fract_y
 _atom_site_fract_z
 _atom_site_occupancy
  Pr  Pr0  1  0.533958  0.527436  0.499415  1
  Pr  Pr1  1  0.533958  0.527436  0.000585  1
  Pr  Pr2  1  0.462111  0.004373  0.250000  1
  Nd  Nd3  1  0.006965  0.462069  0.750000  1
  Nd  Nd4  1  0.532159  0.003285  0.750000  1
  Dy  Dy5  1  0.003949  0.530256  0.250000  1
  Ta  Ta6  1  0.000684  0.001046  0.498425  1
  Ta  Ta7  1  0.000684  0.001046  0.001575  1
  O  O8  1  0.945421  0.056654  0.750000  1
  O  O9  1  0.056717  0.936571  0.250000  1
  O  O10  1  0.353568  0.633497  0.250000  1
  O  O11  1  0.644464  0.367620  0.750000  1
  O  O12  1  0.370733  0.632156  0.750000  1
  O  O13  1  0.646730  0.378446  0.250000  1
  O  O14  1  0.307141  0.069665  0.967987  1
  O  O15  1  0.679057  0.918836  0.474628  1
  O  O16  1  0.307141  0.069665  0.532013  1
  O  O17  1  0.679057  0.918836  0.025372  1
  O  O18  1  0.035151  0.299476  0.458509  1
  O  O19  1  0.932601  0.681076  0.975853  1
  O  O20  1  0.932601  0.681076  0.524147  1
  O  O21  1  0.035151  0.299476  0.041491  1
