# generated using pymatgen
data_Pr7Nd2Th(Al2Ru3)2
_symmetry_space_group_name_H-M   'P 1'
_cell_length_a   8.58421278
_cell_length_b   8.62618128
_cell_length_c   8.58421349
_cell_angle_alpha   109.27079404
_cell_angle_beta   109.00369182
_cell_angle_gamma   109.94126606
_symmetry_Int_Tables_number   1
_chemical_formula_structural   Pr7Nd2Th(Al2Ru3)2
_chemical_formula_sum   'Pr7 Nd2 Th1 Al4 Ru6'
_cell_volume   490.49061895
_cell_formula_units_Z   1
loop_
 _symmetry_equiv_pos_site_id
 _symmetry_equiv_pos_as_xyz
  1  'x, y, z'
loop_
 _atom_site_type_symbol
 _atom_site_label
 _atom_site_symmetry_multiplicity
 _atom_site_fract_x
 _atom_site_fract_y
 _atom_site_fract_z
 _atom_site_occupancy
  Pr  Pr0  1  0.687847  0.437831  0.251221  1
  Pr  Pr1  1  0.064243  0.750000  0.814243  1
  Pr  Pr2  1  0.813389  0.062169  0.750016  1
  Pr  Pr3  1  0.218129  0.217972  0.215672  1
  Pr  Pr4  1  0.496634  0.996646  0.282591  1
  Pr  Pr5  1  0.285946  0.503354  0.999988  1
  Pr  Pr6  1  0.997699  0.282028  0.500157  1
  Nd  Nd7  1  0.249666  0.684326  0.436582  1
  Nd  Nd8  1  0.752256  0.815674  0.065339  1
  Th  Th9  1  0.439310  0.250000  0.689310  1
  Al  Al10  1  0.590775  0.594384  0.592663  1
  Al  Al11  1  0.504104  0.999665  0.910043  1
  Al  Al12  1  0.910379  0.500335  0.004439  1
  Al  Al13  1  0.998279  0.905616  0.496391  1
  Ru  Ru14  1  0.260566  0.126631  0.853760  1
  Ru  Ru15  1  0.727129  0.373369  0.633935  1
  Ru  Ru16  1  0.872618  0.250000  0.122619  1
  Ru  Ru17  1  0.120811  0.870422  0.250227  1
  Ru  Ru18  1  0.630418  0.750000  0.380418  1
  Ru  Ru19  1  0.379804  0.629577  0.750388  1
