# generated using pymatgen
data_Ho2Mg2In3Pb
_symmetry_space_group_name_H-M   'P 1'
_cell_length_a   4.52412500
_cell_length_b   4.63786300
_cell_length_c   9.38824200
_cell_angle_alpha   90.00000000
_cell_angle_beta   90.00000000
_cell_angle_gamma   90.00000000
_symmetry_Int_Tables_number   1
_chemical_formula_structural   Ho2Mg2In3Pb
_chemical_formula_sum   'Ho2 Mg2 In3 Pb1'
_cell_volume   196.98664673
_cell_formula_units_Z   1
loop_
 _symmetry_equiv_pos_site_id
 _symmetry_equiv_pos_as_xyz
  1  'x, y, z'
loop_
 _atom_site_type_symbol
 _atom_site_label
 _atom_site_symmetry_multiplicity
 _atom_site_fract_x
 _atom_site_fract_y
 _atom_site_fract_z
 _atom_site_occupancy
  Ho  Ho0  1  0.000000  0.000000  0.249137  1
  Ho  Ho1  1  0.000000  0.000000  0.750863  1
  Mg  Mg2  1  0.000000  0.500000  0.000000  1
  Mg  Mg3  1  0.500000  0.000000  0.500000  1
  In  In4  1  0.500000  0.500000  0.260357  1
  In  In5  1  0.500000  0.500000  0.739643  1
  In  In6  1  0.000000  0.500000  0.500000  1
  Pb  Pb7  1  0.500000  0.000000  0.000000  1
