# generated using pymatgen
data_HoTm3(CO)2
_symmetry_space_group_name_H-M   'P 1'
_cell_length_a   6.01945509
_cell_length_b   6.01945515
_cell_length_c   6.01945500
_cell_angle_alpha   132.20885395
_cell_angle_beta   132.19367971
_cell_angle_gamma   69.91132858
_symmetry_Int_Tables_number   1
_chemical_formula_structural   HoTm3(CO)2
_chemical_formula_sum   'Ho1 Tm3 C2 O2'
_cell_volume   117.36081868
_cell_formula_units_Z   1
loop_
 _symmetry_equiv_pos_site_id
 _symmetry_equiv_pos_as_xyz
  1  'x, y, z'
loop_
 _atom_site_type_symbol
 _atom_site_label
 _atom_site_symmetry_multiplicity
 _atom_site_fract_x
 _atom_site_fract_y
 _atom_site_fract_z
 _atom_site_occupancy
  Ho  Ho0  1  0.504076  0.004076  0.500000  1
  Tm  Tm1  1  0.753803  0.753803  0.000000  1
  Tm  Tm2  1  0.245820  0.245820  0.000000  1
  Tm  Tm3  1  0.996364  0.496364  0.500000  1
  C  C4  1  0.000280  0.000280  0.000000  1
  C  C5  1  0.750977  0.250977  0.500000  1
  O  O6  1  0.500461  0.500461  0.000000  1
  O  O7  1  0.248221  0.748221  0.500000  1
