# generated using pymatgen
data_Hf6Zn12Cu11Si
_symmetry_space_group_name_H-M   'P 1'
_cell_length_a   8.56006657
_cell_length_b   8.54512456
_cell_length_c   8.51551700
_cell_angle_alpha   60.11316205
_cell_angle_beta   60.17062471
_cell_angle_gamma   60.06039733
_symmetry_Int_Tables_number   1
_chemical_formula_structural   Hf6Zn12Cu11Si
_chemical_formula_sum   'Hf6 Zn12 Cu11 Si1'
_cell_volume   441.58890266
_cell_formula_units_Z   1
loop_
 _symmetry_equiv_pos_site_id
 _symmetry_equiv_pos_as_xyz
  1  'x, y, z'
loop_
 _atom_site_type_symbol
 _atom_site_label
 _atom_site_symmetry_multiplicity
 _atom_site_fract_x
 _atom_site_fract_y
 _atom_site_fract_z
 _atom_site_occupancy
  Hf  Hf0  1  0.721181  0.279131  0.291371  1
  Hf  Hf1  1  0.273022  0.720875  0.719505  1
  Hf  Hf2  1  0.273022  0.720881  0.286590  1
  Hf  Hf3  1  0.721174  0.279141  0.708308  1
  Hf  Hf4  1  0.286174  0.286030  0.713900  1
  Hf  Hf5  1  0.726850  0.713856  0.279642  1
  Zn  Zn6  1  0.880440  0.364832  0.877362  1
  Zn  Zn7  1  0.631019  0.122370  0.123308  1
  Zn  Zn8  1  0.370465  0.876993  0.876269  1
  Zn  Zn9  1  0.333318  0.338832  0.336773  1
  Zn  Zn10  1  0.662509  0.663835  0.659051  1
  Zn  Zn11  1  0.333328  0.338832  0.991071  1
  Zn  Zn12  1  0.332808  0.991448  0.337871  1
  Zn  Zn13  1  0.662503  0.663828  0.014610  1
  Zn  Zn14  1  0.669870  0.999736  0.665199  1
  Zn  Zn15  1  0.004629  0.331855  0.331758  1
  Zn  Zn16  1  0.999825  0.670838  0.664666  1
  Zn  Zn17  1  0.002715  0.990705  0.003289  1
  Cu  Cu18  1  0.120971  0.122354  0.119998  1
  Cu  Cu19  1  0.876760  0.878350  0.878776  1
  Cu  Cu20  1  0.120961  0.122345  0.636702  1
  Cu  Cu21  1  0.123900  0.629834  0.123130  1
  Cu  Cu22  1  0.876767  0.878352  0.366110  1
  Cu  Cu23  1  0.498735  0.002368  0.999405  1
  Cu  Cu24  1  0.998997  0.500206  0.501603  1
  Cu  Cu25  1  0.998999  0.500205  0.999191  1
  Cu  Cu26  1  0.498732  0.002373  0.499497  1
  Cu  Cu27  1  0.999441  0.002313  0.499121  1
  Cu  Cu28  1  0.502874  0.499066  0.999039  1
  Si  Si29  1  0.498007  0.508220  0.496887  1
