# generated using pymatgen
data_PuMg2(NbN2)3
_symmetry_space_group_name_H-M   'P 1'
_cell_length_a   5.36951500
_cell_length_b   5.36951441
_cell_length_c   10.80434200
_cell_angle_alpha   90.00000000
_cell_angle_beta   90.00000000
_cell_angle_gamma   119.99999749
_symmetry_Int_Tables_number   1
_chemical_formula_structural   PuMg2(NbN2)3
_chemical_formula_sum   'Pu2 Mg4 Nb6 N12'
_cell_volume   269.77334533
_cell_formula_units_Z   2
loop_
 _symmetry_equiv_pos_site_id
 _symmetry_equiv_pos_as_xyz
  1  'x, y, z'
loop_
 _atom_site_type_symbol
 _atom_site_label
 _atom_site_symmetry_multiplicity
 _atom_site_fract_x
 _atom_site_fract_y
 _atom_site_fract_z
 _atom_site_occupancy
  Pu  Pu0  1  0.000000  0.000000  0.500000  1
  Pu  Pu1  1  0.000000  0.000000  0.000000  1
  Mg  Mg2  1  0.333333  0.666667  0.000000  1
  Mg  Mg3  1  0.333333  0.666667  0.500000  1
  Mg  Mg4  1  0.666667  0.333333  0.500000  1
  Mg  Mg5  1  0.666667  0.333333  0.000000  1
  Nb  Nb6  1  0.000000  0.336795  0.250000  1
  Nb  Nb7  1  0.663205  0.000000  0.750000  1
  Nb  Nb8  1  0.336795  0.336795  0.750000  1
  Nb  Nb9  1  0.663205  0.663205  0.250000  1
  Nb  Nb10  1  0.336795  0.000000  0.250000  1
  Nb  Nb11  1  0.000000  0.663205  0.750000  1
  N  N12  1  0.662819  0.662819  0.626796  1
  N  N13  1  0.662819  0.662819  0.873204  1
  N  N14  1  0.337181  0.337181  0.126796  1
  N  N15  1  0.337181  0.337181  0.373204  1
  N  N16  1  0.337181  0.000000  0.873204  1
  N  N17  1  0.337181  0.000000  0.626796  1
  N  N18  1  0.000000  0.662819  0.373204  1
  N  N19  1  0.000000  0.662819  0.126796  1
  N  N20  1  0.662819  0.000000  0.126796  1
  N  N21  1  0.662819  0.000000  0.373204  1
  N  N22  1  0.000000  0.337181  0.873204  1
  N  N23  1  0.000000  0.337181  0.626796  1
