# generated using pymatgen
data_BaNa(PPt)2
_symmetry_space_group_name_H-M   'P 1'
_cell_length_a   6.48340779
_cell_length_b   6.49618900
_cell_length_c   6.45415988
_cell_angle_alpha   90.00000000
_cell_angle_beta   90.17836937
_cell_angle_gamma   90.00000000
_symmetry_Int_Tables_number   1
_chemical_formula_structural   BaNa(PPt)2
_chemical_formula_sum   'Ba2 Na2 P4 Pt4'
_cell_volume   271.83138967
_cell_formula_units_Z   2
loop_
 _symmetry_equiv_pos_site_id
 _symmetry_equiv_pos_as_xyz
  1  'x, y, z'
loop_
 _atom_site_type_symbol
 _atom_site_label
 _atom_site_symmetry_multiplicity
 _atom_site_fract_x
 _atom_site_fract_y
 _atom_site_fract_z
 _atom_site_occupancy
  Ba  Ba0  1  0.138437  0.133776  0.129424  1
  Ba  Ba1  1  0.861563  0.633776  0.370576  1
  Na  Na2  1  0.635053  0.359550  0.857756  1
  Na  Na3  1  0.364947  0.859550  0.642244  1
  P  P4  1  0.584437  0.918157  0.082446  1
  P  P5  1  0.086934  0.591458  0.910398  1
  P  P6  1  0.913066  0.091458  0.589602  1
  P  P7  1  0.415563  0.418157  0.417554  1
  Pt  Pt8  1  0.157226  0.346267  0.655470  1
  Pt  Pt9  1  0.648365  0.150792  0.351093  1
  Pt  Pt10  1  0.842774  0.846267  0.844530  1
  Pt  Pt11  1  0.351635  0.650792  0.148907  1
