# generated using pymatgen
data_Sr3NdV2O8
_symmetry_space_group_name_H-M   'P 1'
_cell_length_a   6.87564725
_cell_length_b   6.87564621
_cell_length_c   5.53113400
_cell_angle_alpha   90.00000000
_cell_angle_beta   90.00000000
_cell_angle_gamma   132.65149784
_symmetry_Int_Tables_number   1
_chemical_formula_structural   Sr3NdV2O8
_chemical_formula_sum   'Sr3 Nd1 V2 O8'
_cell_volume   192.31675494
_cell_formula_units_Z   1
loop_
 _symmetry_equiv_pos_site_id
 _symmetry_equiv_pos_as_xyz
  1  'x, y, z'
loop_
 _atom_site_type_symbol
 _atom_site_label
 _atom_site_symmetry_multiplicity
 _atom_site_fract_x
 _atom_site_fract_y
 _atom_site_fract_z
 _atom_site_occupancy
  Sr  Sr0  1  0.644493  0.355507  0.000000  1
  Sr  Sr1  1  0.356381  0.643619  0.000000  1
  Sr  Sr2  1  0.854416  0.145584  0.500000  1
  Nd  Nd3  1  0.139742  0.860258  0.500000  1
  V  V4  1  0.499618  0.500382  0.500000  1
  V  V5  1  0.997178  0.002822  0.000000  1
  O  O6  1  0.845183  0.154817  0.000000  1
  O  O7  1  0.323362  0.676638  0.500000  1
  O  O8  1  0.665165  0.334835  0.500000  1
  O  O9  1  0.160086  0.839914  0.000000  1
  O  O10  1  0.759239  0.752050  0.747809  1
  O  O11  1  0.247950  0.240761  0.252191  1
  O  O12  1  0.247950  0.240761  0.747809  1
  O  O13  1  0.759239  0.752050  0.252191  1
