# generated using pymatgen
data_Th4IrPt11
_symmetry_space_group_name_H-M   'P 1'
_cell_length_a   5.99153186
_cell_length_b   5.97832309
_cell_length_c   9.79299765
_cell_angle_alpha   90.00000113
_cell_angle_beta   89.47150054
_cell_angle_gamma   119.92710282
_symmetry_Int_Tables_number   1
_chemical_formula_structural   Th4IrPt11
_chemical_formula_sum   'Th4 Ir1 Pt11'
_cell_volume   303.98873192
_cell_formula_units_Z   1
loop_
 _symmetry_equiv_pos_site_id
 _symmetry_equiv_pos_as_xyz
  1  'x, y, z'
loop_
 _atom_site_type_symbol
 _atom_site_label
 _atom_site_symmetry_multiplicity
 _atom_site_fract_x
 _atom_site_fract_y
 _atom_site_fract_z
 _atom_site_occupancy
  Th  Th0  1  0.000000  0.000000  0.500000  1
  Th  Th1  1  0.000000  0.000000  0.000000  1
  Th  Th2  1  0.326339  0.663169  0.253397  1
  Th  Th3  1  0.673661  0.336831  0.746603  1
  Ir  Ir4  1  0.000000  0.500000  0.500000  1
  Pt  Pt5  1  0.500000  0.500000  0.500000  1
  Pt  Pt6  1  0.500000  0.000000  0.500000  1
  Pt  Pt7  1  0.500000  0.500000  0.000000  1
  Pt  Pt8  1  0.500000  0.000000  0.000000  1
  Pt  Pt9  1  0.000000  0.500000  0.000000  1
  Pt  Pt10  1  0.820142  0.646258  0.249787  1
  Pt  Pt11  1  0.349711  0.174855  0.247594  1
  Pt  Pt12  1  0.820142  0.173886  0.249787  1
  Pt  Pt13  1  0.179858  0.353742  0.750213  1
  Pt  Pt14  1  0.650289  0.825145  0.752406  1
  Pt  Pt15  1  0.179858  0.826114  0.750213  1
