# generated using pymatgen
data_Y3HoAl18(PtRh)3
_symmetry_space_group_name_H-M   'P 1'
_cell_length_a   7.59763448
_cell_length_b   7.59619228
_cell_length_c   9.45715701
_cell_angle_alpha   89.99579137
_cell_angle_beta   89.99868933
_cell_angle_gamma   119.57781486
_symmetry_Int_Tables_number   1
_chemical_formula_structural   Y3HoAl18(PtRh)3
_chemical_formula_sum   'Y3 Ho1 Al18 Pt3 Rh3'
_cell_volume   474.67622671
_cell_formula_units_Z   1
loop_
 _symmetry_equiv_pos_site_id
 _symmetry_equiv_pos_as_xyz
  1  'x, y, z'
loop_
 _atom_site_type_symbol
 _atom_site_label
 _atom_site_symmetry_multiplicity
 _atom_site_fract_x
 _atom_site_fract_y
 _atom_site_fract_z
 _atom_site_occupancy
  Y  Y0  1  0.006394  0.331046  0.749901  1
  Y  Y1  1  0.669032  0.993686  0.250088  1
  Y  Y2  1  0.329424  0.004510  0.749668  1
  Ho  Ho3  1  0.995453  0.670735  0.250385  1
  Al  Al4  1  0.125562  0.126077  0.250741  1
  Al  Al5  1  0.873548  0.874193  0.749267  1
  Al  Al6  1  0.999941  0.331484  0.076681  1
  Al  Al7  1  0.999047  0.669122  0.924040  1
  Al  Al8  1  0.996421  0.664937  0.574334  1
  Al  Al9  1  0.334865  0.003248  0.424641  1
  Al  Al10  1  0.996055  0.331449  0.424749  1
  Al  Al11  1  0.668952  0.003876  0.574645  1
  Al  Al12  1  0.668894  0.999922  0.923911  1
  Al  Al13  1  0.330628  0.000564  0.077027  1
  Al  Al14  1  0.332415  0.329134  0.551334  1
  Al  Al15  1  0.671091  0.667634  0.447734  1
  Al  Al16  1  0.670233  0.669962  0.054858  1
  Al  Al17  1  0.330012  0.329967  0.946070  1
  Al  Al18  1  0.340189  0.544956  0.250554  1
  Al  Al19  1  0.658998  0.451386  0.746525  1
  Al  Al20  1  0.549210  0.341735  0.253424  1
  Al  Al21  1  0.455143  0.659248  0.749449  1
  Pt  Pt22  1  0.672102  0.328004  0.000158  1
  Pt  Pt23  1  0.327329  0.672619  0.000140  1
  Pt  Pt24  1  0.327415  0.672538  0.499862  1
  Rh  Rh25  1  0.671907  0.328307  0.499813  1
  Rh  Rh26  1  0.999733  0.999987  0.000234  1
  Rh  Rh27  1  0.000007  0.999673  0.499769  1
