# generated using pymatgen
data_Nd5SmEuCoBr12
_symmetry_space_group_name_H-M   'P 1'
_cell_length_a   9.49634402
_cell_length_b   9.49101375
_cell_length_c   9.49563500
_cell_angle_alpha   106.45244153
_cell_angle_beta   106.50019242
_cell_angle_gamma   106.41577182
_symmetry_Int_Tables_number   1
_chemical_formula_structural   Nd5SmEuCoBr12
_chemical_formula_sum   'Nd5 Sm1 Eu1 Co1 Br12'
_cell_volume   723.06608288
_cell_formula_units_Z   1
loop_
 _symmetry_equiv_pos_site_id
 _symmetry_equiv_pos_as_xyz
  1  'x, y, z'
loop_
 _atom_site_type_symbol
 _atom_site_label
 _atom_site_symmetry_multiplicity
 _atom_site_fract_x
 _atom_site_fract_y
 _atom_site_fract_z
 _atom_site_occupancy
  Nd  Nd0  1  0.518811  0.595332  0.794273  1
  Nd  Nd1  1  0.811510  0.521136  0.602486  1
  Nd  Nd2  1  0.602925  0.812809  0.519683  1
  Nd  Nd3  1  0.478199  0.400667  0.202640  1
  Nd  Nd4  1  0.185919  0.477026  0.394689  1
  Sm  Sm5  1  0.395297  0.188435  0.477590  1
  Eu  Eu6  1  0.999054  0.998120  0.999107  1
  Co  Co7  1  0.498556  0.498780  0.498322  1
  Br  Br8  1  0.278019  0.821537  0.428226  1
  Br  Br9  1  0.426778  0.275449  0.813813  1
  Br  Br10  1  0.818682  0.427143  0.278631  1
  Br  Br11  1  0.716419  0.179157  0.569774  1
  Br  Br12  1  0.569626  0.718836  0.179015  1
  Br  Br13  1  0.178878  0.570296  0.718728  1
  Br  Br14  1  0.049113  0.126262  0.347157  1
  Br  Br15  1  0.346692  0.046828  0.132709  1
  Br  Br16  1  0.128014  0.345713  0.047798  1
  Br  Br17  1  0.952642  0.871652  0.652705  1
  Br  Br18  1  0.651379  0.950229  0.869029  1
  Br  Br19  1  0.868856  0.649958  0.948994  1
