# generated using pymatgen
data_Li2Tl(P3Pd10)2
_symmetry_space_group_name_H-M   'P 1'
_cell_length_a   8.58859846
_cell_length_b   8.58859867
_cell_length_c   8.58859900
_cell_angle_alpha   59.99999488
_cell_angle_beta   59.99999405
_cell_angle_gamma   59.99999464
_symmetry_Int_Tables_number   1
_chemical_formula_structural   Li2Tl(P3Pd10)2
_chemical_formula_sum   'Li2 Tl1 P6 Pd20'
_cell_volume   447.97304456
_cell_formula_units_Z   1
loop_
 _symmetry_equiv_pos_site_id
 _symmetry_equiv_pos_as_xyz
  1  'x, y, z'
loop_
 _atom_site_type_symbol
 _atom_site_label
 _atom_site_symmetry_multiplicity
 _atom_site_fract_x
 _atom_site_fract_y
 _atom_site_fract_z
 _atom_site_occupancy
  Li  Li0  1  0.000000  0.000000  0.000000  1
  Li  Li1  1  0.750000  0.750000  0.750000  1
  Tl  Tl2  1  0.250000  0.250000  0.250000  1
  P  P3  1  0.736277  0.263723  0.263723  1
  P  P4  1  0.263723  0.736277  0.736277  1
  P  P5  1  0.263723  0.736277  0.263723  1
  P  P6  1  0.736277  0.263723  0.736277  1
  P  P7  1  0.263723  0.263723  0.736277  1
  P  P8  1  0.736277  0.736277  0.263723  1
  Pd  Pd9  1  0.383588  0.383588  0.383588  1
  Pd  Pd10  1  0.616175  0.616175  0.616175  1
  Pd  Pd11  1  0.383588  0.383588  0.849236  1
  Pd  Pd12  1  0.383588  0.849236  0.383588  1
  Pd  Pd13  1  0.616175  0.616175  0.151477  1
  Pd  Pd14  1  0.616175  0.151477  0.616175  1
  Pd  Pd15  1  0.849236  0.383588  0.383588  1
  Pd  Pd16  1  0.151477  0.616175  0.616175  1
  Pd  Pd17  1  0.344144  0.998482  0.998482  1
  Pd  Pd18  1  0.658893  0.998482  0.998482  1
  Pd  Pd19  1  0.998482  0.344144  0.658893  1
  Pd  Pd20  1  0.998482  0.658893  0.344144  1
  Pd  Pd21  1  0.998482  0.344144  0.998482  1
  Pd  Pd22  1  0.658893  0.998482  0.344144  1
  Pd  Pd23  1  0.998482  0.658893  0.998482  1
  Pd  Pd24  1  0.344144  0.998482  0.658893  1
  Pd  Pd25  1  0.998482  0.998482  0.344144  1
  Pd  Pd26  1  0.998482  0.998482  0.658893  1
  Pd  Pd27  1  0.658893  0.344144  0.998482  1
  Pd  Pd28  1  0.344144  0.658893  0.998482  1
