# generated using pymatgen
data_Ho2ScPaGa2Ir3
_symmetry_space_group_name_H-M   'P 1'
_cell_length_a   7.21823270
_cell_length_b   7.18040378
_cell_length_c   3.95200100
_cell_angle_alpha   90.00000000
_cell_angle_beta   90.00000000
_cell_angle_gamma   117.93942847
_symmetry_Int_Tables_number   1
_chemical_formula_structural   Ho2ScPaGa2Ir3
_chemical_formula_sum   'Ho2 Sc1 Pa1 Ga2 Ir3'
_cell_volume   180.95705831
_cell_formula_units_Z   1
loop_
 _symmetry_equiv_pos_site_id
 _symmetry_equiv_pos_as_xyz
  1  'x, y, z'
loop_
 _atom_site_type_symbol
 _atom_site_label
 _atom_site_symmetry_multiplicity
 _atom_site_fract_x
 _atom_site_fract_y
 _atom_site_fract_z
 _atom_site_occupancy
  Ho  Ho0  1  0.431702  0.017319  0.000000  1
  Ho  Ho1  1  0.997627  0.389394  0.000000  1
  Sc  Sc2  1  0.014031  0.764921  0.500000  1
  Pa  Pa3  1  0.569191  0.579152  0.000000  1
  Ga  Ga4  1  0.240242  0.232957  0.500000  1
  Ga  Ga5  1  0.744660  0.003129  0.500000  1
  Ir  Ir6  1  0.983631  0.990098  0.000000  1
  Ir  Ir7  1  0.668937  0.362153  0.500000  1
  Ir  Ir8  1  0.349979  0.660877  0.500000  1
