# generated using pymatgen
data_Nd5CoRu
_symmetry_space_group_name_H-M   'P 1'
_cell_length_a   8.96683140
_cell_length_b   8.96683163
_cell_length_c   7.24812839
_cell_angle_alpha   84.01890343
_cell_angle_beta   84.01890386
_cell_angle_gamma   42.75307918
_symmetry_Int_Tables_number   1
_chemical_formula_structural   Nd5CoRu
_chemical_formula_sum   'Nd10 Co2 Ru2'
_cell_volume   393.12922967
_cell_formula_units_Z   2
loop_
 _symmetry_equiv_pos_site_id
 _symmetry_equiv_pos_as_xyz
  1  'x, y, z'
loop_
 _atom_site_type_symbol
 _atom_site_label
 _atom_site_symmetry_multiplicity
 _atom_site_fract_x
 _atom_site_fract_y
 _atom_site_fract_z
 _atom_site_occupancy
  Nd  Nd0  1  0.010283  0.804512  0.916206  1
  Nd  Nd1  1  0.195488  0.989717  0.583794  1
  Nd  Nd2  1  0.982889  0.205942  0.088809  1
  Nd  Nd3  1  0.794058  0.017111  0.411191  1
  Nd  Nd4  1  0.357911  0.210766  0.819623  1
  Nd  Nd5  1  0.789234  0.642089  0.680377  1
  Nd  Nd6  1  0.646289  0.783049  0.187089  1
  Nd  Nd7  1  0.216951  0.353711  0.312911  1
  Nd  Nd8  1  0.574158  0.425842  0.750000  1
  Nd  Nd9  1  0.431552  0.568448  0.250000  1
  Co  Co10  1  0.823308  0.400659  0.423843  1
  Co  Co11  1  0.599341  0.176692  0.076157  1
  Ru  Ru12  1  0.177792  0.599254  0.571519  1
  Ru  Ru13  1  0.400746  0.822208  0.928481  1
