# generated using pymatgen
data_U3Ni(PO5)4
_symmetry_space_group_name_H-M   'P 1'
_cell_length_a   5.43417535
_cell_length_b   8.53068711
_cell_length_c   9.17139888
_cell_angle_alpha   100.93799038
_cell_angle_beta   103.40795995
_cell_angle_gamma   95.46849047
_symmetry_Int_Tables_number   1
_chemical_formula_structural   U3Ni(PO5)4
_chemical_formula_sum   'U3 Ni1 P4 O20'
_cell_volume   401.71707000
_cell_formula_units_Z   1
loop_
 _symmetry_equiv_pos_site_id
 _symmetry_equiv_pos_as_xyz
  1  'x, y, z'
loop_
 _atom_site_type_symbol
 _atom_site_label
 _atom_site_symmetry_multiplicity
 _atom_site_fract_x
 _atom_site_fract_y
 _atom_site_fract_z
 _atom_site_occupancy
  U  U0  1  0.647782  0.701336  0.954527  1
  U  U1  1  0.336595  0.802365  0.551650  1
  U  U2  1  0.656518  0.205517  0.440073  1
  Ni  Ni3  1  0.300191  0.268509  0.026486  1
  P  P4  1  0.106321  0.505323  0.772899  1
  P  P5  1  0.935535  0.478097  0.235961  1
  P  P6  1  0.270271  0.932633  0.174668  1
  P  P7  1  0.710950  0.087921  0.828725  1
  O  O8  1  0.995868  0.130393  0.883549  1
  O  O9  1  0.985714  0.864045  0.097621  1
  O  O10  1  0.983412  0.368853  0.637784  1
  O  O11  1  0.046291  0.621896  0.371782  1
  O  O12  1  0.730666  0.366334  0.272218  1
  O  O13  1  0.284017  0.641693  0.737508  1
  O  O14  1  0.422060  0.814667  0.084803  1
  O  O15  1  0.554719  0.187705  0.914338  1
  O  O16  1  0.426202  0.321133  0.499844  1
  O  O17  1  0.586071  0.691733  0.511269  1
  O  O18  1  0.884187  0.588303  0.829002  1
  O  O19  1  0.132270  0.401593  0.168531  1
  O  O20  1  0.299142  0.467508  0.910714  1
  O  O21  1  0.768857  0.562882  0.105587  1
  O  O22  1  0.879554  0.085293  0.376736  1
  O  O23  1  0.096786  0.910025  0.609728  1
  O  O24  1  0.351984  0.929174  0.345564  1
  O  O25  1  0.617707  0.062847  0.649275  1
  O  O26  1  0.352057  0.106357  0.168752  1
  O  O27  1  0.638275  0.895867  0.840405  1
