# generated using pymatgen
data_Dy2CoOs3
_symmetry_space_group_name_H-M   'P 1'
_cell_length_a   5.30864111
_cell_length_b   5.30864132
_cell_length_c   5.30864225
_cell_angle_alpha   59.56849756
_cell_angle_beta   59.56850138
_cell_angle_gamma   59.56849114
_symmetry_Int_Tables_number   1
_chemical_formula_structural   Dy2CoOs3
_chemical_formula_sum   'Dy2 Co1 Os3'
_cell_volume   104.74998893
_cell_formula_units_Z   1
loop_
 _symmetry_equiv_pos_site_id
 _symmetry_equiv_pos_as_xyz
  1  'x, y, z'
loop_
 _atom_site_type_symbol
 _atom_site_label
 _atom_site_symmetry_multiplicity
 _atom_site_fract_x
 _atom_site_fract_y
 _atom_site_fract_z
 _atom_site_occupancy
  Dy  Dy0  1  0.624268  0.624268  0.624268  1
  Dy  Dy1  1  0.375732  0.375732  0.375732  1
  Co  Co2  1  0.000000  0.000000  0.000000  1
  Os  Os3  1  0.000000  0.500000  0.000000  1
  Os  Os4  1  0.500000  0.000000  0.000000  1
  Os  Os5  1  0.000000  0.000000  0.500000  1
