# generated using pymatgen
data_Pr2(FeN)3
_symmetry_space_group_name_H-M   'P 1'
_cell_length_a   6.36086815
_cell_length_b   6.36086781
_cell_length_c   6.15856400
_cell_angle_alpha   87.94118967
_cell_angle_beta   87.94117175
_cell_angle_gamma   118.48155164
_symmetry_Int_Tables_number   1
_chemical_formula_structural   Pr2(FeN)3
_chemical_formula_sum   'Pr4 Fe6 N6'
_cell_volume   218.48040491
_cell_formula_units_Z   2
loop_
 _symmetry_equiv_pos_site_id
 _symmetry_equiv_pos_as_xyz
  1  'x, y, z'
loop_
 _atom_site_type_symbol
 _atom_site_label
 _atom_site_symmetry_multiplicity
 _atom_site_fract_x
 _atom_site_fract_y
 _atom_site_fract_z
 _atom_site_occupancy
  Pr  Pr0  1  0.827129  0.669589  0.900733  1
  Pr  Pr1  1  0.330411  0.172871  0.599267  1
  Pr  Pr2  1  0.172871  0.330411  0.099267  1
  Pr  Pr3  1  0.669589  0.827129  0.400733  1
  Fe  Fe4  1  0.812498  0.187502  0.750000  1
  Fe  Fe5  1  0.187502  0.812498  0.250000  1
  Fe  Fe6  1  0.567324  0.165173  0.106178  1
  Fe  Fe7  1  0.432676  0.834827  0.893822  1
  Fe  Fe8  1  0.834827  0.432676  0.393822  1
  Fe  Fe9  1  0.165173  0.567324  0.606178  1
  N  N10  1  0.425943  0.574057  0.750000  1
  N  N11  1  0.574057  0.425943  0.250000  1
  N  N12  1  0.008603  0.740129  0.511902  1
  N  N13  1  0.740129  0.008603  0.011902  1
  N  N14  1  0.991397  0.259871  0.488098  1
  N  N15  1  0.259871  0.991397  0.988098  1
