# generated using pymatgen
data_TbHo3Sc3AlPt4
_symmetry_space_group_name_H-M   'P 1'
_cell_length_a   4.51133000
_cell_length_b   7.02815168
_cell_length_c   8.28603149
_cell_angle_alpha   86.94277872
_cell_angle_beta   90.00000000
_cell_angle_gamma   90.00000000
_symmetry_Int_Tables_number   1
_chemical_formula_structural   TbHo3Sc3AlPt4
_chemical_formula_sum   'Tb1 Ho3 Sc3 Al1 Pt4'
_cell_volume   262.34558523
_cell_formula_units_Z   1
loop_
 _symmetry_equiv_pos_site_id
 _symmetry_equiv_pos_as_xyz
  1  'x, y, z'
loop_
 _atom_site_type_symbol
 _atom_site_label
 _atom_site_symmetry_multiplicity
 _atom_site_fract_x
 _atom_site_fract_y
 _atom_site_fract_z
 _atom_site_occupancy
  Tb  Tb0  1  0.250000  0.040127  0.671864  1
  Ho  Ho1  1  0.250000  0.522188  0.815806  1
  Ho  Ho2  1  0.750000  0.987084  0.339702  1
  Ho  Ho3  1  0.750000  0.468066  0.183967  1
  Sc  Sc4  1  0.250000  0.134193  0.069902  1
  Sc  Sc5  1  0.250000  0.638069  0.435962  1
  Sc  Sc6  1  0.750000  0.863163  0.929265  1
  Al  Al7  1  0.750000  0.360041  0.567609  1
  Pt  Pt8  1  0.250000  0.263523  0.382572  1
  Pt  Pt9  1  0.250000  0.748347  0.101688  1
  Pt  Pt10  1  0.750000  0.729150  0.614546  1
  Pt  Pt11  1  0.750000  0.246048  0.887117  1
