# generated using pymatgen
data_YHoBe2In2F12
_symmetry_space_group_name_H-M   'P 1'
_cell_length_a   5.90839300
_cell_length_b   6.54372049
_cell_length_c   7.32526328
_cell_angle_alpha   66.12560699
_cell_angle_beta   90.00000000
_cell_angle_gamma   90.00000000
_symmetry_Int_Tables_number   1
_chemical_formula_structural   YHoBe2In2F12
_chemical_formula_sum   'Y1 Ho1 Be2 In2 F12'
_cell_volume   258.98234721
_cell_formula_units_Z   1
loop_
 _symmetry_equiv_pos_site_id
 _symmetry_equiv_pos_as_xyz
  1  'x, y, z'
loop_
 _atom_site_type_symbol
 _atom_site_label
 _atom_site_symmetry_multiplicity
 _atom_site_fract_x
 _atom_site_fract_y
 _atom_site_fract_z
 _atom_site_occupancy
  Y  Y0  1  0.750000  0.608019  0.814950  1
  Ho  Ho1  1  0.250000  0.391036  0.186485  1
  Be  Be2  1  0.250000  0.768614  0.463929  1
  Be  Be3  1  0.750000  0.232044  0.533882  1
  In  In4  1  0.250000  0.072872  0.809738  1
  In  In5  1  0.750000  0.927099  0.190839  1
  F  F6  1  0.463257  0.750987  0.596514  1
  F  F7  1  0.536157  0.250121  0.401687  1
  F  F8  1  0.963843  0.250121  0.401687  1
  F  F9  1  0.036743  0.750987  0.596514  1
  F  F10  1  0.250000  0.582054  0.383754  1
  F  F11  1  0.750000  0.417870  0.614622  1
  F  F12  1  0.496538  0.678468  0.025782  1
  F  F13  1  0.499575  0.319765  0.977161  1
  F  F14  1  0.000425  0.319765  0.977161  1
  F  F15  1  0.003462  0.678468  0.025782  1
  F  F16  1  0.250000  0.002212  0.278453  1
  F  F17  1  0.750000  0.999495  0.721059  1
