# generated using pymatgen
data_PrTiCo4As3
_symmetry_space_group_name_H-M   'P 1'
_cell_length_a   3.84966200
_cell_length_b   10.93164100
_cell_length_c   12.47484000
_cell_angle_alpha   90.00000000
_cell_angle_beta   90.00000000
_cell_angle_gamma   90.00000000
_symmetry_Int_Tables_number   1
_chemical_formula_structural   PrTiCo4As3
_chemical_formula_sum   'Pr4 Ti4 Co16 As12'
_cell_volume   524.98022557
_cell_formula_units_Z   4
loop_
 _symmetry_equiv_pos_site_id
 _symmetry_equiv_pos_as_xyz
  1  'x, y, z'
loop_
 _atom_site_type_symbol
 _atom_site_label
 _atom_site_symmetry_multiplicity
 _atom_site_fract_x
 _atom_site_fract_y
 _atom_site_fract_z
 _atom_site_occupancy
  Pr  Pr0  1  0.250000  0.579794  0.704226  1
  Pr  Pr1  1  0.250000  0.920206  0.204226  1
  Pr  Pr2  1  0.750000  0.420206  0.295774  1
  Pr  Pr3  1  0.750000  0.079794  0.795774  1
  Ti  Ti4  1  0.250000  0.696333  0.992859  1
  Ti  Ti5  1  0.250000  0.803667  0.492859  1
  Ti  Ti6  1  0.750000  0.303667  0.007141  1
  Ti  Ti7  1  0.750000  0.196333  0.507141  1
  Co  Co8  1  0.250000  0.404680  0.490613  1
  Co  Co9  1  0.250000  0.095320  0.990613  1
  Co  Co10  1  0.750000  0.595320  0.509387  1
  Co  Co11  1  0.750000  0.904680  0.009387  1
  Co  Co12  1  0.250000  0.218246  0.174710  1
  Co  Co13  1  0.250000  0.281754  0.674710  1
  Co  Co14  1  0.750000  0.781754  0.825290  1
  Co  Co15  1  0.750000  0.718246  0.325290  1
  Co  Co16  1  0.250000  0.883623  0.697374  1
  Co  Co17  1  0.250000  0.616377  0.197374  1
  Co  Co18  1  0.750000  0.116377  0.302626  1
  Co  Co19  1  0.750000  0.383623  0.802626  1
  Co  Co20  1  0.250000  0.466231  0.934352  1
  Co  Co21  1  0.250000  0.033769  0.434352  1
  Co  Co22  1  0.750000  0.533769  0.065648  1
  Co  Co23  1  0.750000  0.966231  0.565648  1
  As  As24  1  0.250000  0.419708  0.115154  1
  As  As25  1  0.250000  0.080292  0.615154  1
  As  As26  1  0.750000  0.580292  0.884846  1
  As  As27  1  0.750000  0.919708  0.384846  1
  As  As28  1  0.250000  0.270708  0.863118  1
  As  As29  1  0.250000  0.229292  0.363118  1
  As  As30  1  0.750000  0.729292  0.136882  1
  As  As31  1  0.750000  0.770708  0.636882  1
  As  As32  1  0.250000  0.598183  0.393083  1
  As  As33  1  0.250000  0.901817  0.893083  1
  As  As34  1  0.750000  0.401817  0.606917  1
  As  As35  1  0.750000  0.098183  0.106917  1
