# generated using pymatgen
data_Ba8Tm3Lu(FeO5)4
_symmetry_space_group_name_H-M   'P 1'
_cell_length_a   6.10812801
_cell_length_b   7.89143612
_cell_length_c   12.66511395
_cell_angle_alpha   91.74034761
_cell_angle_beta   90.00123635
_cell_angle_gamma   89.99543430
_symmetry_Int_Tables_number   1
_chemical_formula_structural   Ba8Tm3Lu(FeO5)4
_chemical_formula_sum   'Ba8 Tm3 Lu1 Fe4 O20'
_cell_volume   610.20097659
_cell_formula_units_Z   1
loop_
 _symmetry_equiv_pos_site_id
 _symmetry_equiv_pos_as_xyz
  1  'x, y, z'
loop_
 _atom_site_type_symbol
 _atom_site_label
 _atom_site_symmetry_multiplicity
 _atom_site_fract_x
 _atom_site_fract_y
 _atom_site_fract_z
 _atom_site_occupancy
  Ba  Ba0  1  0.755891  0.489168  0.352859  1
  Ba  Ba1  1  0.744379  0.989959  0.853188  1
  Ba  Ba2  1  0.244089  0.510270  0.647392  1
  Ba  Ba3  1  0.255626  0.010845  0.146595  1
  Ba  Ba4  1  0.753533  0.994130  0.379615  1
  Ba  Ba5  1  0.746754  0.493706  0.879727  1
  Ba  Ba6  1  0.246384  0.006220  0.620922  1
  Ba  Ba7  1  0.253397  0.505604  0.119873  1
  Tm  Tm8  1  0.750871  0.263537  0.631694  1
  Tm  Tm9  1  0.749242  0.763542  0.131117  1
  Tm  Tm10  1  0.249198  0.736446  0.368749  1
  Lu  Lu11  1  0.250866  0.237010  0.868537  1
  Fe  Fe12  1  0.738128  0.743371  0.583876  1
  Fe  Fe13  1  0.761550  0.243202  0.082961  1
  Fe  Fe14  1  0.261708  0.256204  0.416385  1
  Fe  Fe15  1  0.238228  0.756557  0.915992  1
  O  O16  1  0.759922  0.972677  0.635386  1
  O  O17  1  0.740428  0.472224  0.134885  1
  O  O18  1  0.240086  0.027454  0.364680  1
  O  O19  1  0.259583  0.526404  0.865227  1
  O  O20  1  0.737960  0.056042  0.172282  1
  O  O21  1  0.762423  0.555702  0.672838  1
  O  O22  1  0.262096  0.945798  0.828154  1
  O  O23  1  0.237635  0.444017  0.327242  1
  O  O24  1  0.537234  0.747479  0.269503  1
  O  O25  1  0.965840  0.247419  0.769502  1
  O  O26  1  0.463387  0.252415  0.731883  1
  O  O27  1  0.037056  0.752625  0.230406  1
  O  O28  1  0.537827  0.227373  0.977432  1
  O  O29  1  0.959641  0.727108  0.477761  1
  O  O30  1  0.459775  0.772739  0.022114  1
  O  O31  1  0.039895  0.272905  0.522349  1
  O  O32  1  0.038468  0.232559  0.012641  1
  O  O33  1  0.460950  0.732677  0.514515  1
  O  O34  1  0.961279  0.767202  0.985581  1
  O  O35  1  0.538670  0.267410  0.486137  1
