# generated using pymatgen
data_Tb2Th5Te12
_symmetry_space_group_name_H-M   'P 1'
_cell_length_a   12.55001742
_cell_length_b   12.57455062
_cell_length_c   4.29949400
_cell_angle_alpha   90.00000000
_cell_angle_beta   90.00000000
_cell_angle_gamma   119.77437295
_symmetry_Int_Tables_number   1
_chemical_formula_structural   Tb2Th5Te12
_chemical_formula_sum   'Tb2 Th5 Te12'
_cell_volume   588.93544894
_cell_formula_units_Z   1
loop_
 _symmetry_equiv_pos_site_id
 _symmetry_equiv_pos_as_xyz
  1  'x, y, z'
loop_
 _atom_site_type_symbol
 _atom_site_label
 _atom_site_symmetry_multiplicity
 _atom_site_fract_x
 _atom_site_fract_y
 _atom_site_fract_z
 _atom_site_occupancy
  Tb  Tb0  1  0.552927  0.714797  0.500000  1
  Tb  Tb1  1  0.289438  0.841236  0.500000  1
  Th  Th2  1  0.720846  0.155766  0.000000  1
  Th  Th3  1  0.841480  0.566646  0.000000  1
  Th  Th4  1  0.435087  0.275709  0.000000  1
  Th  Th5  1  0.161084  0.449455  0.500000  1
  Th  Th6  1  0.998877  0.996456  0.000000  1
  Te  Te7  1  0.742451  0.752059  0.000000  1
  Te  Te8  1  0.247892  0.990982  0.000000  1
  Te  Te9  1  0.006905  0.253690  0.000000  1
  Te  Te10  1  0.490154  0.864633  0.000000  1
  Te  Te11  1  0.136090  0.628849  0.000000  1
  Te  Te12  1  0.377439  0.511364  0.000000  1
  Te  Te13  1  0.863421  0.385730  0.500000  1
  Te  Te14  1  0.215330  0.212023  0.500000  1
  Te  Te15  1  0.997262  0.783766  0.500000  1
  Te  Te16  1  0.787625  0.003117  0.500000  1
  Te  Te17  1  0.521999  0.136201  0.500000  1
  Te  Te18  1  0.613697  0.477519  0.500000  1
