# generated using pymatgen
data_Cr2P3(HO3)3
_symmetry_space_group_name_H-M   'P 1'
_cell_length_a   8.09843000
_cell_length_b   8.09842934
_cell_length_c   7.46994100
_cell_angle_alpha   90.00000000
_cell_angle_beta   90.00000000
_cell_angle_gamma   120.00000765
_symmetry_Int_Tables_number   1
_chemical_formula_structural   Cr2P3(HO3)3
_chemical_formula_sum   'Cr4 P6 H6 O18'
_cell_volume   424.27691256
_cell_formula_units_Z   2
loop_
 _symmetry_equiv_pos_site_id
 _symmetry_equiv_pos_as_xyz
  1  'x, y, z'
loop_
 _atom_site_type_symbol
 _atom_site_label
 _atom_site_symmetry_multiplicity
 _atom_site_fract_x
 _atom_site_fract_y
 _atom_site_fract_z
 _atom_site_occupancy
  Cr  Cr0  1  0.333333  0.666667  0.556882  1
  Cr  Cr1  1  0.666667  0.333333  0.056882  1
  Cr  Cr2  1  0.666667  0.333333  0.443118  1
  Cr  Cr3  1  0.333333  0.666667  0.943118  1
  P  P4  1  0.949883  0.309071  0.750000  1
  P  P5  1  0.640812  0.949883  0.250000  1
  P  P6  1  0.309071  0.359188  0.250000  1
  P  P7  1  0.690929  0.640812  0.750000  1
  P  P8  1  0.359188  0.050117  0.750000  1
  P  P9  1  0.050117  0.690929  0.250000  1
  H  H10  1  0.817473  0.838527  0.750000  1
  H  H11  1  0.978945  0.817473  0.250000  1
  H  H12  1  0.838527  0.021055  0.250000  1
  H  H13  1  0.161473  0.978945  0.750000  1
  H  H14  1  0.021055  0.182527  0.750000  1
  H  H15  1  0.182527  0.161473  0.250000  1
  O  O16  1  0.128962  0.515558  0.750000  1
  O  O17  1  0.613404  0.128962  0.250000  1
  O  O18  1  0.515558  0.386596  0.250000  1
  O  O19  1  0.484442  0.613404  0.750000  1
  O  O20  1  0.162647  0.728587  0.076728  1
  O  O21  1  0.434059  0.162647  0.576728  1
  O  O22  1  0.728587  0.565941  0.576728  1
  O  O23  1  0.271413  0.434059  0.076728  1
  O  O24  1  0.565941  0.837353  0.076728  1
  O  O25  1  0.837353  0.271413  0.576728  1
  O  O26  1  0.837353  0.271413  0.923272  1
  O  O27  1  0.565941  0.837353  0.423272  1
  O  O28  1  0.271413  0.434059  0.423272  1
  O  O29  1  0.728587  0.565941  0.923272  1
  O  O30  1  0.434059  0.162647  0.923272  1
  O  O31  1  0.162647  0.728587  0.423272  1
  O  O32  1  0.871038  0.484442  0.250000  1
  O  O33  1  0.386596  0.871038  0.750000  1
