# generated using pymatgen
data_DyY4Tm15Sn16
_symmetry_space_group_name_H-M   'P 1'
_cell_length_a   7.97351970
_cell_length_b   8.09368633
_cell_length_c   15.30586313
_cell_angle_alpha   90.00822980
_cell_angle_beta   89.87668339
_cell_angle_gamma   89.89587249
_symmetry_Int_Tables_number   1
_chemical_formula_structural   DyY4Tm15Sn16
_chemical_formula_sum   'Dy1 Y4 Tm15 Sn16'
_cell_volume   987.76251056
_cell_formula_units_Z   1
loop_
 _symmetry_equiv_pos_site_id
 _symmetry_equiv_pos_as_xyz
  1  'x, y, z'
loop_
 _atom_site_type_symbol
 _atom_site_label
 _atom_site_symmetry_multiplicity
 _atom_site_fract_x
 _atom_site_fract_y
 _atom_site_fract_z
 _atom_site_occupancy
  Dy  Dy0  1  0.020879  0.179494  0.903428  1
  Y  Y1  1  0.978603  0.820532  0.097025  1
  Y  Y2  1  0.478710  0.678737  0.096483  1
  Y  Y3  1  0.978201  0.820903  0.403246  1
  Y  Y4  1  0.521595  0.321077  0.596608  1
  Tm  Tm5  1  0.367090  0.837151  0.876972  1
  Tm  Tm6  1  0.867953  0.662721  0.622744  1
  Tm  Tm7  1  0.631816  0.162930  0.377258  1
  Tm  Tm8  1  0.132502  0.337266  0.122878  1
  Tm  Tm9  1  0.632237  0.162957  0.122941  1
  Tm  Tm10  1  0.131723  0.337094  0.377551  1
  Tm  Tm11  1  0.368469  0.837210  0.622697  1
  Tm  Tm12  1  0.867374  0.662488  0.876952  1
  Tm  Tm13  1  0.522341  0.320847  0.902618  1
  Tm  Tm14  1  0.022762  0.179049  0.597456  1
  Tm  Tm15  1  0.477116  0.678726  0.402733  1
  Tm  Tm16  1  0.198510  0.504033  0.749903  1
  Tm  Tm17  1  0.698487  0.996026  0.749815  1
  Tm  Tm18  1  0.801359  0.495846  0.250366  1
  Tm  Tm19  1  0.301834  0.004229  0.250314  1
  Sn  Sn20  1  0.294417  0.037694  0.041641  1
  Sn  Sn21  1  0.792037  0.463644  0.458120  1
  Sn  Sn22  1  0.707839  0.963999  0.541966  1
  Sn  Sn23  1  0.207276  0.536457  0.958038  1
  Sn  Sn24  1  0.704923  0.962820  0.958220  1
  Sn  Sn25  1  0.206489  0.537937  0.541190  1
  Sn  Sn26  1  0.293580  0.037339  0.458827  1
  Sn  Sn27  1  0.793750  0.461116  0.040974  1
  Sn  Sn28  1  0.564674  0.619126  0.749931  1
  Sn  Sn29  1  0.064559  0.880659  0.749879  1
  Sn  Sn30  1  0.435279  0.380583  0.250138  1
  Sn  Sn31  1  0.935376  0.120143  0.250117  1
  Sn  Sn32  1  0.331512  0.148871  0.750496  1
  Sn  Sn33  1  0.831578  0.350961  0.749673  1
  Sn  Sn34  1  0.667724  0.851151  0.250547  1
  Sn  Sn35  1  0.169426  0.648182  0.250260  1
