# generated using pymatgen
data_CeGeH2Pt
_symmetry_space_group_name_H-M   'P 1'
_cell_length_a   4.38692700
_cell_length_b   4.38692705
_cell_length_c   8.24355400
_cell_angle_alpha   90.00000000
_cell_angle_beta   90.00000000
_cell_angle_gamma   120.00000713
_symmetry_Int_Tables_number   1
_chemical_formula_structural   CeGeH2Pt
_chemical_formula_sum   'Ce2 Ge2 H4 Pt2'
_cell_volume   137.39341182
_cell_formula_units_Z   2
loop_
 _symmetry_equiv_pos_site_id
 _symmetry_equiv_pos_as_xyz
  1  'x, y, z'
loop_
 _atom_site_type_symbol
 _atom_site_label
 _atom_site_symmetry_multiplicity
 _atom_site_fract_x
 _atom_site_fract_y
 _atom_site_fract_z
 _atom_site_occupancy
  Ce  Ce0  1  0.000000  0.000000  0.500000  1
  Ce  Ce1  1  0.000000  0.000000  0.000000  1
  Ge  Ge2  1  0.333333  0.666667  0.750000  1
  Ge  Ge3  1  0.666667  0.333333  0.250000  1
  H  H4  1  0.333333  0.666667  0.459719  1
  H  H5  1  0.666667  0.333333  0.540281  1
  H  H6  1  0.333333  0.666667  0.040281  1
  H  H7  1  0.666667  0.333333  0.959719  1
  Pt  Pt8  1  0.666667  0.333333  0.750000  1
  Pt  Pt9  1  0.333333  0.666667  0.250000  1
