# generated using pymatgen
data_Nd2Pa2H15
_symmetry_space_group_name_H-M   'P 1'
_cell_length_a   7.58937482
_cell_length_b   7.58937508
_cell_length_c   7.58937600
_cell_angle_alpha   109.49809023
_cell_angle_beta   109.49809094
_cell_angle_gamma   109.49808714
_symmetry_Int_Tables_number   1
_chemical_formula_structural   Nd2Pa2H15
_chemical_formula_sum   'Nd4 Pa4 H30'
_cell_volume   336.17345070
_cell_formula_units_Z   2
loop_
 _symmetry_equiv_pos_site_id
 _symmetry_equiv_pos_as_xyz
  1  'x, y, z'
loop_
 _atom_site_type_symbol
 _atom_site_label
 _atom_site_symmetry_multiplicity
 _atom_site_fract_x
 _atom_site_fract_y
 _atom_site_fract_z
 _atom_site_occupancy
  Nd  Nd0  1  0.997885  0.578760  0.496576  1
  Nd  Nd1  1  0.578760  0.496576  0.997885  1
  Nd  Nd2  1  0.496576  0.997885  0.578760  1
  Nd  Nd3  1  0.425382  0.425382  0.425382  1
  Pa  Pa4  1  0.924308  0.924308  0.924308  1
  Pa  Pa5  1  0.501317  0.997843  0.079149  1
  Pa  Pa6  1  0.997843  0.079149  0.501317  1
  Pa  Pa7  1  0.079149  0.501317  0.997843  1
  H  H8  1  0.650842  0.957276  0.355461  1
  H  H9  1  0.206288  0.315716  0.845639  1
  H  H10  1  0.179034  0.390510  0.538553  1
  H  H11  1  0.090273  0.282521  0.119526  1
  H  H12  1  0.282521  0.119526  0.090273  1
  H  H13  1  0.119526  0.090273  0.282521  1
  H  H14  1  0.455481  0.140684  0.872640  1
  H  H15  1  0.725923  0.353459  0.805272  1
  H  H16  1  0.617300  0.351790  0.236556  1
  H  H17  1  0.236556  0.617300  0.351790  1
  H  H18  1  0.764296  0.894744  0.133767  1
  H  H19  1  0.133767  0.764296  0.894744  1
  H  H20  1  0.351790  0.236556  0.617300  1
  H  H21  1  0.894744  0.133767  0.764296  1
  H  H22  1  0.796694  0.604825  0.659263  1
  H  H23  1  0.315716  0.845639  0.206288  1
  H  H24  1  0.355461  0.650842  0.957276  1
  H  H25  1  0.957276  0.355461  0.650842  1
  H  H26  1  0.538553  0.179034  0.390510  1
  H  H27  1  0.390510  0.538553  0.179034  1
  H  H28  1  0.845639  0.206288  0.315716  1
  H  H29  1  0.917347  0.697067  0.040037  1
  H  H30  1  0.805272  0.725923  0.353459  1
  H  H31  1  0.140684  0.872640  0.455481  1
  H  H32  1  0.697067  0.040037  0.917347  1
  H  H33  1  0.353459  0.805272  0.725923  1
  H  H34  1  0.872640  0.455481  0.140684  1
  H  H35  1  0.659263  0.796694  0.604825  1
  H  H36  1  0.604825  0.659263  0.796694  1
  H  H37  1  0.040037  0.917347  0.697067  1
