# generated using pymatgen
data_Ba3Bi(BO3)3
_symmetry_space_group_name_H-M   'P 1'
_cell_length_a   8.29018883
_cell_length_b   8.29018888
_cell_length_c   8.29018900
_cell_angle_alpha   105.42464466
_cell_angle_beta   105.42465191
_cell_angle_gamma   105.42465805
_symmetry_Int_Tables_number   1
_chemical_formula_structural   Ba3Bi(BO3)3
_chemical_formula_sum   'Ba6 Bi2 B6 O18'
_cell_volume   493.47702159
_cell_formula_units_Z   2
loop_
 _symmetry_equiv_pos_site_id
 _symmetry_equiv_pos_as_xyz
  1  'x, y, z'
loop_
 _atom_site_type_symbol
 _atom_site_label
 _atom_site_symmetry_multiplicity
 _atom_site_fract_x
 _atom_site_fract_y
 _atom_site_fract_z
 _atom_site_occupancy
  Ba  Ba0  1  0.349611  0.732292  0.843165  1
  Ba  Ba1  1  0.843165  0.349611  0.732292  1
  Ba  Ba2  1  0.732292  0.843165  0.349611  1
  Ba  Ba3  1  0.650389  0.267708  0.156835  1
  Ba  Ba4  1  0.156835  0.650389  0.267708  1
  Ba  Ba5  1  0.267708  0.156835  0.650389  1
  Bi  Bi6  1  0.500000  0.500000  0.500000  1
  Bi  Bi7  1  0.000000  0.000000  0.000000  1
  B  B8  1  0.708295  0.619619  0.957979  1
  B  B9  1  0.957979  0.708295  0.619619  1
  B  B10  1  0.619619  0.957979  0.708295  1
  B  B11  1  0.042021  0.291705  0.380381  1
  B  B12  1  0.380381  0.042021  0.291705  1
  B  B13  1  0.291705  0.380381  0.042021  1
  O  O14  1  0.065018  0.810552  0.554854  1
  O  O15  1  0.554854  0.065018  0.810552  1
  O  O16  1  0.431004  0.502164  0.203938  1
  O  O17  1  0.502164  0.203938  0.431004  1
  O  O18  1  0.203938  0.431004  0.502164  1
  O  O19  1  0.796062  0.568996  0.497836  1
  O  O20  1  0.568996  0.497836  0.796062  1
  O  O21  1  0.497836  0.796062  0.568996  1
  O  O22  1  0.268721  0.197764  0.990479  1
  O  O23  1  0.197764  0.990479  0.268721  1
  O  O24  1  0.990479  0.268721  0.197764  1
  O  O25  1  0.731279  0.802236  0.009521  1
  O  O26  1  0.802236  0.009521  0.731279  1
  O  O27  1  0.009521  0.731279  0.802236  1
  O  O28  1  0.189448  0.445146  0.934982  1
  O  O29  1  0.445146  0.934982  0.189448  1
  O  O30  1  0.934982  0.189448  0.445146  1
  O  O31  1  0.810552  0.554854  0.065018  1
