# generated using pymatgen
data_Tb2Y2Ni13C4
_symmetry_space_group_name_H-M   'P 1'
_cell_length_a   8.40270897
_cell_length_b   8.40270989
_cell_length_c   3.86041500
_cell_angle_alpha   90.00000000
_cell_angle_beta   90.00000000
_cell_angle_gamma   91.16282256
_symmetry_Int_Tables_number   1
_chemical_formula_structural   Tb2Y2Ni13C4
_chemical_formula_sum   'Tb2 Y2 Ni13 C4'
_cell_volume   272.51049900
_cell_formula_units_Z   1
loop_
 _symmetry_equiv_pos_site_id
 _symmetry_equiv_pos_as_xyz
  1  'x, y, z'
loop_
 _atom_site_type_symbol
 _atom_site_label
 _atom_site_symmetry_multiplicity
 _atom_site_fract_x
 _atom_site_fract_y
 _atom_site_fract_z
 _atom_site_occupancy
  Tb  Tb0  1  0.812612  0.187388  0.500000  1
  Tb  Tb1  1  0.187388  0.812612  0.500000  1
  Y  Y2  1  0.650921  0.650921  0.500000  1
  Y  Y3  1  0.349079  0.349079  0.500000  1
  Ni  Ni4  1  0.500000  0.000000  0.500000  1
  Ni  Ni5  1  0.000000  0.500000  0.500000  1
  Ni  Ni6  1  0.000000  0.000000  0.000000  1
  Ni  Ni7  1  0.430896  0.784550  0.000000  1
  Ni  Ni8  1  0.569104  0.215450  0.000000  1
  Ni  Ni9  1  0.215450  0.569104  0.000000  1
  Ni  Ni10  1  0.784550  0.430896  0.000000  1
  Ni  Ni11  1  0.708712  0.925761  0.000000  1
  Ni  Ni12  1  0.291288  0.074239  0.000000  1
  Ni  Ni13  1  0.074239  0.291288  0.000000  1
  Ni  Ni14  1  0.925761  0.708712  0.000000  1
  Ni  Ni15  1  0.876810  0.876810  0.500000  1
  Ni  Ni16  1  0.123190  0.123190  0.500000  1
  C  C17  1  0.443012  0.556988  0.000000  1
  C  C18  1  0.556988  0.443012  0.000000  1
  C  C19  1  0.500000  0.000000  0.000000  1
  C  C20  1  0.000000  0.500000  0.000000  1
