# generated using pymatgen
data_Tb20Cd6ReRu
_symmetry_space_group_name_H-M   'P 1'
_cell_length_a   9.61123700
_cell_length_b   9.61123690
_cell_length_c   9.97529600
_cell_angle_alpha   90.00000000
_cell_angle_beta   90.00000000
_cell_angle_gamma   120.00000378
_symmetry_Int_Tables_number   1
_chemical_formula_structural   Tb20Cd6ReRu
_chemical_formula_sum   'Tb20 Cd6 Re1 Ru1'
_cell_volume   798.02220378
_cell_formula_units_Z   1
loop_
 _symmetry_equiv_pos_site_id
 _symmetry_equiv_pos_as_xyz
  1  'x, y, z'
loop_
 _atom_site_type_symbol
 _atom_site_label
 _atom_site_symmetry_multiplicity
 _atom_site_fract_x
 _atom_site_fract_y
 _atom_site_fract_z
 _atom_site_occupancy
  Tb  Tb0  1  0.000000  0.000000  0.499875  1
  Tb  Tb1  1  0.000000  0.000000  0.000125  1
  Tb  Tb2  1  0.209836  0.790164  0.441786  1
  Tb  Tb3  1  0.209836  0.419673  0.441786  1
  Tb  Tb4  1  0.580327  0.790164  0.441786  1
  Tb  Tb5  1  0.789695  0.210305  0.559689  1
  Tb  Tb6  1  0.789695  0.579389  0.559689  1
  Tb  Tb7  1  0.420611  0.210305  0.559689  1
  Tb  Tb8  1  0.789695  0.210305  0.940311  1
  Tb  Tb9  1  0.789695  0.579389  0.940311  1
  Tb  Tb10  1  0.420611  0.210305  0.940311  1
  Tb  Tb11  1  0.209836  0.790164  0.058214  1
  Tb  Tb12  1  0.209836  0.419673  0.058214  1
  Tb  Tb13  1  0.580327  0.790164  0.058214  1
  Tb  Tb14  1  0.538464  0.461536  0.250000  1
  Tb  Tb15  1  0.538464  0.076929  0.250000  1
  Tb  Tb16  1  0.923071  0.461536  0.250000  1
  Tb  Tb17  1  0.458792  0.541208  0.750000  1
  Tb  Tb18  1  0.458792  0.917585  0.750000  1
  Tb  Tb19  1  0.082415  0.541208  0.750000  1
  Cd  Cd20  1  0.885747  0.114253  0.250000  1
  Cd  Cd21  1  0.885747  0.771496  0.250000  1
  Cd  Cd22  1  0.228504  0.114253  0.250000  1
  Cd  Cd23  1  0.114104  0.885896  0.750000  1
  Cd  Cd24  1  0.114104  0.228207  0.750000  1
  Cd  Cd25  1  0.771793  0.885896  0.750000  1
  Re  Re26  1  0.333333  0.666667  0.250000  1
  Ru  Ru27  1  0.666667  0.333333  0.750000  1
