# generated using pymatgen
data_Tb15YMgHg3Pd4
_symmetry_space_group_name_H-M   'P 1'
_cell_length_a   9.70425543
_cell_length_b   9.72871626
_cell_length_c   9.73047800
_cell_angle_alpha   59.99401633
_cell_angle_beta   59.91057935
_cell_angle_gamma   60.01171751
_symmetry_Int_Tables_number   1
_chemical_formula_structural   Tb15YMgHg3Pd4
_chemical_formula_sum   'Tb15 Y1 Mg1 Hg3 Pd4'
_cell_volume   649.17434962
_cell_formula_units_Z   1
loop_
 _symmetry_equiv_pos_site_id
 _symmetry_equiv_pos_as_xyz
  1  'x, y, z'
loop_
 _atom_site_type_symbol
 _atom_site_label
 _atom_site_symmetry_multiplicity
 _atom_site_fract_x
 _atom_site_fract_y
 _atom_site_fract_z
 _atom_site_occupancy
  Tb  Tb0  1  0.354554  0.352284  0.350630  1
  Tb  Tb1  1  0.354554  0.352284  0.942533  1
  Tb  Tb2  1  0.356841  0.937847  0.352656  1
  Tb  Tb3  1  0.926160  0.359446  0.357197  1
  Tb  Tb4  1  0.809255  0.190865  0.191142  1
  Tb  Tb5  1  0.186783  0.812226  0.811125  1
  Tb  Tb6  1  0.186783  0.812226  0.189866  1
  Tb  Tb7  1  0.809255  0.190865  0.808738  1
  Tb  Tb8  1  0.187903  0.190307  0.810895  1
  Tb  Tb9  1  0.808924  0.809637  0.190720  1
  Tb  Tb10  1  0.934829  0.565100  0.565911  1
  Tb  Tb11  1  0.563890  0.935781  0.934269  1
  Tb  Tb12  1  0.563890  0.935781  0.566060  1
  Tb  Tb13  1  0.934829  0.565100  0.934161  1
  Tb  Tb14  1  0.565325  0.566082  0.934297  1
  Y  Y15  1  0.934759  0.935540  0.564851  1
  Mg  Mg16  1  0.281996  0.571497  0.573252  1
  Hg  Hg17  1  0.582068  0.588459  0.589381  1
  Hg  Hg18  1  0.582068  0.588459  0.240091  1
  Hg  Hg19  1  0.581788  0.239288  0.589462  1
  Pd  Pd20  1  0.142174  0.145705  0.148029  1
  Pd  Pd21  1  0.142174  0.145705  0.564092  1
  Pd  Pd22  1  0.141664  0.565810  0.146263  1
  Pd  Pd23  1  0.567528  0.143709  0.144381  1
