# generated using pymatgen
data_Na14Mg2Se9
_symmetry_space_group_name_H-M   'P 1'
_cell_length_a   8.28542200
_cell_length_b   8.28542119
_cell_length_c   11.65671100
_cell_angle_alpha   90.00000000
_cell_angle_beta   90.00000000
_cell_angle_gamma   120.00000323
_symmetry_Int_Tables_number   1
_chemical_formula_structural   Na14Mg2Se9
_chemical_formula_sum   'Na14 Mg2 Se9'
_cell_volume   693.00420667
_cell_formula_units_Z   1
loop_
 _symmetry_equiv_pos_site_id
 _symmetry_equiv_pos_as_xyz
  1  'x, y, z'
loop_
 _atom_site_type_symbol
 _atom_site_label
 _atom_site_symmetry_multiplicity
 _atom_site_fract_x
 _atom_site_fract_y
 _atom_site_fract_z
 _atom_site_occupancy
  Na  Na0  1  0.026419  0.674368  0.911015  1
  Na  Na1  1  0.316291  0.947113  0.591499  1
  Na  Na2  1  0.052887  0.369179  0.591499  1
  Na  Na3  1  0.000000  0.000000  0.250489  1
  Na  Na4  1  0.000000  0.000000  0.749511  1
  Na  Na5  1  0.325632  0.352051  0.911015  1
  Na  Na6  1  0.647949  0.973581  0.911015  1
  Na  Na7  1  0.369179  0.316291  0.408501  1
  Na  Na8  1  0.630821  0.683709  0.591499  1
  Na  Na9  1  0.352051  0.026419  0.088985  1
  Na  Na10  1  0.674368  0.647949  0.088985  1
  Na  Na11  1  0.947113  0.630821  0.408501  1
  Na  Na12  1  0.683709  0.052887  0.408501  1
  Na  Na13  1  0.973581  0.325632  0.088985  1
  Mg  Mg14  1  0.333333  0.666667  0.258734  1
  Mg  Mg15  1  0.666667  0.333333  0.741266  1
  Se  Se16  1  0.307017  0.951606  0.335966  1
  Se  Se17  1  0.048394  0.355412  0.335966  1
  Se  Se18  1  0.333333  0.666667  0.033206  1
  Se  Se19  1  0.000000  0.000000  0.000000  1
  Se  Se20  1  0.355412  0.307017  0.664034  1
  Se  Se21  1  0.644588  0.692983  0.335966  1
  Se  Se22  1  0.666667  0.333333  0.966794  1
  Se  Se23  1  0.951606  0.644588  0.664034  1
  Se  Se24  1  0.692983  0.048394  0.664034  1
