# generated using pymatgen
data_Ac2AlGaI2
_symmetry_space_group_name_H-M   'P 1'
_cell_length_a   4.50981400
_cell_length_b   4.50981408
_cell_length_c   12.97597400
_cell_angle_alpha   90.00000000
_cell_angle_beta   90.00000000
_cell_angle_gamma   120.00001412
_symmetry_Int_Tables_number   1
_chemical_formula_structural   Ac2AlGaI2
_chemical_formula_sum   'Ac2 Al1 Ga1 I2'
_cell_volume   228.55346235
_cell_formula_units_Z   1
loop_
 _symmetry_equiv_pos_site_id
 _symmetry_equiv_pos_as_xyz
  1  'x, y, z'
loop_
 _atom_site_type_symbol
 _atom_site_label
 _atom_site_symmetry_multiplicity
 _atom_site_fract_x
 _atom_site_fract_y
 _atom_site_fract_z
 _atom_site_occupancy
  Ac  Ac0  1  0.000000  0.000000  0.175695  1
  Ac  Ac1  1  0.000000  0.000000  0.827045  1
  Al  Al2  1  0.333333  0.666667  0.020302  1
  Ga  Ga3  1  0.666667  0.333333  0.974770  1
  I  I4  1  0.333333  0.666667  0.656594  1
  I  I5  1  0.666667  0.333333  0.345593  1
