# generated using pymatgen
data_Sc2USn3IrRh2
_symmetry_space_group_name_H-M   'P 1'
_cell_length_a   7.36831023
_cell_length_b   7.53938986
_cell_length_c   3.74540400
_cell_angle_alpha   90.00000000
_cell_angle_beta   90.00000000
_cell_angle_gamma   120.33420219
_symmetry_Int_Tables_number   1
_chemical_formula_structural   Sc2USn3IrRh2
_chemical_formula_sum   'Sc2 U1 Sn3 Ir1 Rh2'
_cell_volume   179.58124744
_cell_formula_units_Z   1
loop_
 _symmetry_equiv_pos_site_id
 _symmetry_equiv_pos_as_xyz
  1  'x, y, z'
loop_
 _atom_site_type_symbol
 _atom_site_label
 _atom_site_symmetry_multiplicity
 _atom_site_fract_x
 _atom_site_fract_y
 _atom_site_fract_z
 _atom_site_occupancy
  Sc  Sc0  1  0.403917  0.396349  0.500000  1
  Sc  Sc1  1  0.600991  0.003120  0.500000  1
  U  U2  1  0.999521  0.588217  0.500000  1
  Sn  Sn3  1  0.714459  0.736676  0.000000  1
  Sn  Sn4  1  0.282655  0.017578  0.000000  1
  Sn  Sn5  1  0.002566  0.247706  0.000000  1
  Ir  Ir6  1  0.691535  0.358708  0.000000  1
  Rh  Rh7  1  0.306080  0.666016  0.000000  1
  Rh  Rh8  1  0.998275  0.985629  0.500000  1
