# generated using pymatgen
data_Dy8Si16MoW11
_symmetry_space_group_name_H-M   'P 1'
_cell_length_a   6.88225808
_cell_length_b   6.88225763
_cell_length_c   12.78192934
_cell_angle_alpha   90.00866228
_cell_angle_beta   89.99133950
_cell_angle_gamma   89.85105196
_symmetry_Int_Tables_number   1
_chemical_formula_structural   Dy8Si16MoW11
_chemical_formula_sum   'Dy8 Si16 Mo1 W11'
_cell_volume   605.42007170
_cell_formula_units_Z   1
loop_
 _symmetry_equiv_pos_site_id
 _symmetry_equiv_pos_as_xyz
  1  'x, y, z'
loop_
 _atom_site_type_symbol
 _atom_site_label
 _atom_site_symmetry_multiplicity
 _atom_site_fract_x
 _atom_site_fract_y
 _atom_site_fract_z
 _atom_site_occupancy
  Dy  Dy0  1  0.002205  0.662519  0.031132  1
  Dy  Dy1  1  0.997535  0.337255  0.530846  1
  Dy  Dy2  1  0.662519  0.002205  0.968868  1
  Dy  Dy3  1  0.163032  0.497925  0.781025  1
  Dy  Dy4  1  0.837461  0.502392  0.280984  1
  Dy  Dy5  1  0.497925  0.163032  0.218975  1
  Dy  Dy6  1  0.502392  0.837461  0.719016  1
  Dy  Dy7  1  0.337255  0.997535  0.469154  1
  Si  Si8  1  0.035208  0.712476  0.436725  1
  Si  Si9  1  0.963354  0.288010  0.936025  1
  Si  Si10  1  0.712476  0.035208  0.563275  1
  Si  Si11  1  0.212723  0.463386  0.185398  1
  Si  Si12  1  0.788082  0.536370  0.685993  1
  Si  Si13  1  0.463386  0.212723  0.814602  1
  Si  Si14  1  0.536370  0.788082  0.314007  1
  Si  Si15  1  0.288010  0.963354  0.063975  1
  Si  Si16  1  0.797804  0.874817  0.183367  1
  Si  Si17  1  0.298014  0.624850  0.566506  1
  Si  Si18  1  0.701756  0.374771  0.065865  1
  Si  Si19  1  0.624850  0.298014  0.433494  1
  Si  Si20  1  0.374771  0.701756  0.934135  1
  Si  Si21  1  0.125300  0.202283  0.315951  1
  Si  Si22  1  0.202283  0.125300  0.684049  1
  Si  Si23  1  0.874817  0.797804  0.816633  1
  Mo  Mo24  1  0.333615  0.333615  0.000000  1
  W  W25  1  0.334008  0.499945  0.375964  1
  W  W26  1  0.835458  0.000973  0.372927  1
  W  W27  1  0.998960  0.163480  0.126014  1
  W  W28  1  0.000973  0.835458  0.627073  1
  W  W29  1  0.499945  0.334008  0.624036  1
  W  W30  1  0.163480  0.998960  0.873986  1
  W  W31  1  0.666273  0.666273  0.500000  1
  W  W32  1  0.832853  0.166748  0.749409  1
  W  W33  1  0.166748  0.832853  0.250591  1
  W  W34  1  0.501892  0.666266  0.124189  1
  W  W35  1  0.666266  0.501892  0.875811  1
