# generated using pymatgen
data_TbEr2(CuSi)4
_symmetry_space_group_name_H-M   'P 1'
_cell_length_a   7.82578715
_cell_length_b   7.82578736
_cell_length_c   7.82578733
_cell_angle_alpha   149.40077766
_cell_angle_beta   130.52922893
_cell_angle_gamma   59.29720457
_symmetry_Int_Tables_number   1
_chemical_formula_structural   TbEr2(CuSi)4
_chemical_formula_sum   'Tb1 Er2 Cu4 Si4'
_cell_volume   183.95295272
_cell_formula_units_Z   1
loop_
 _symmetry_equiv_pos_site_id
 _symmetry_equiv_pos_as_xyz
  1  'x, y, z'
loop_
 _atom_site_type_symbol
 _atom_site_label
 _atom_site_symmetry_multiplicity
 _atom_site_fract_x
 _atom_site_fract_y
 _atom_site_fract_z
 _atom_site_occupancy
  Tb  Tb0  1  0.500000  0.000000  0.500000  1
  Er  Er1  1  0.871073  0.871073  0.000000  1
  Er  Er2  1  0.128927  0.128927  0.000000  1
  Cu  Cu3  1  0.522405  0.331123  0.191283  1
  Cu  Cu4  1  0.860160  0.668877  0.191283  1
  Cu  Cu5  1  0.139840  0.331123  0.808717  1
  Cu  Cu6  1  0.477595  0.668877  0.808717  1
  Si  Si7  1  0.816224  0.500000  0.316224  1
  Si  Si8  1  0.183776  0.500000  0.683776  1
  Si  Si9  1  0.283612  0.783612  0.500000  1
  Si  Si10  1  0.716388  0.216388  0.500000  1
