# generated using pymatgen
data_TbZnRh2Pb
_symmetry_space_group_name_H-M   'P 1'
_cell_length_a   5.43325883
_cell_length_b   5.43325979
_cell_length_c   5.43326059
_cell_angle_alpha   135.41084310
_cell_angle_beta   116.04480959
_cell_angle_gamma   81.30162225
_symmetry_Int_Tables_number   1
_chemical_formula_structural   TbZnRh2Pb
_chemical_formula_sum   'Tb1 Zn1 Rh2 Pb1'
_cell_volume   97.79286811
_cell_formula_units_Z   1
loop_
 _symmetry_equiv_pos_site_id
 _symmetry_equiv_pos_as_xyz
  1  'x, y, z'
loop_
 _atom_site_type_symbol
 _atom_site_label
 _atom_site_symmetry_multiplicity
 _atom_site_fract_x
 _atom_site_fract_y
 _atom_site_fract_z
 _atom_site_occupancy
  Tb  Tb0  1  0.303795  0.803796  0.500001  1
  Zn  Zn1  1  0.995721  0.995721  0.000000  1
  Rh  Rh2  1  0.741027  0.501077  0.239949  1
  Rh  Rh3  1  0.261129  0.501079  0.760051  1
  Pb  Pb4  1  0.698328  0.198328  0.500000  1
