# generated using pymatgen
data_Ce3(MnC3)2
_symmetry_space_group_name_H-M   'P 1'
_cell_length_a   8.18343400
_cell_length_b   8.18343336
_cell_length_c   5.08930600
_cell_angle_alpha   90.00000000
_cell_angle_beta   90.00000000
_cell_angle_gamma   120.00000257
_symmetry_Int_Tables_number   1
_chemical_formula_structural   Ce3(MnC3)2
_chemical_formula_sum   'Ce6 Mn4 C12'
_cell_volume   295.16191480
_cell_formula_units_Z   2
loop_
 _symmetry_equiv_pos_site_id
 _symmetry_equiv_pos_as_xyz
  1  'x, y, z'
loop_
 _atom_site_type_symbol
 _atom_site_label
 _atom_site_symmetry_multiplicity
 _atom_site_fract_x
 _atom_site_fract_y
 _atom_site_fract_z
 _atom_site_occupancy
  Ce  Ce0  1  0.622808  0.688663  0.750000  1
  Ce  Ce1  1  0.934145  0.622808  0.250000  1
  Ce  Ce2  1  0.688663  0.065855  0.250000  1
  Ce  Ce3  1  0.311337  0.934145  0.750000  1
  Ce  Ce4  1  0.065855  0.377192  0.750000  1
  Ce  Ce5  1  0.377192  0.311337  0.250000  1
  Mn  Mn6  1  0.000000  0.000000  0.500000  1
  Mn  Mn7  1  0.000000  0.000000  0.000000  1
  Mn  Mn8  1  0.666667  0.333333  0.750000  1
  Mn  Mn9  1  0.333333  0.666667  0.250000  1
  C  C10  1  0.961903  0.773236  0.750000  1
  C  C11  1  0.188669  0.961903  0.250000  1
  C  C12  1  0.773236  0.811331  0.250000  1
  C  C13  1  0.226764  0.188669  0.750000  1
  C  C14  1  0.811331  0.038097  0.750000  1
  C  C15  1  0.038097  0.226764  0.250000  1
  C  C16  1  0.863718  0.577882  0.750000  1
  C  C17  1  0.285836  0.863718  0.250000  1
  C  C18  1  0.577882  0.714164  0.250000  1
  C  C19  1  0.422118  0.285836  0.750000  1
  C  C20  1  0.136282  0.422118  0.250000  1
  C  C21  1  0.714164  0.136282  0.750000  1
