# generated using pymatgen
data_Ca2SiNi2
_symmetry_space_group_name_H-M   'P 1'
_cell_length_a   4.00262110
_cell_length_b   3.98635321
_cell_length_c   9.04847985
_cell_angle_alpha   100.82362287
_cell_angle_beta   115.25385442
_cell_angle_gamma   59.81609014
_symmetry_Int_Tables_number   1
_chemical_formula_structural   Ca2SiNi2
_chemical_formula_sum   'Ca2 Si1 Ni2'
_cell_volume   112.80757784
_cell_formula_units_Z   1
loop_
 _symmetry_equiv_pos_site_id
 _symmetry_equiv_pos_as_xyz
  1  'x, y, z'
loop_
 _atom_site_type_symbol
 _atom_site_label
 _atom_site_symmetry_multiplicity
 _atom_site_fract_x
 _atom_site_fract_y
 _atom_site_fract_z
 _atom_site_occupancy
  Ca  Ca0  1  0.726385  0.161677  0.363075  1
  Ca  Ca1  1  0.665558  0.434561  0.942993  1
  Si  Si2  1  0.695597  0.801129  0.652982  1
  Ni  Ni3  1  0.085929  0.128674  0.708961  1
  Ni  Ni4  1  0.305342  0.473748  0.597119  1
