# generated using pymatgen
data_Sc2MnCo11P7
_symmetry_space_group_name_H-M   'P 1'
_cell_length_a   8.96764100
_cell_length_b   8.96016797
_cell_length_c   3.53770200
_cell_angle_alpha   90.00000000
_cell_angle_beta   90.00000000
_cell_angle_gamma   120.27577289
_symmetry_Int_Tables_number   1
_chemical_formula_structural   Sc2MnCo11P7
_chemical_formula_sum   'Sc2 Mn1 Co11 P7'
_cell_volume   245.48936126
_cell_formula_units_Z   1
loop_
 _symmetry_equiv_pos_site_id
 _symmetry_equiv_pos_as_xyz
  1  'x, y, z'
loop_
 _atom_site_type_symbol
 _atom_site_label
 _atom_site_symmetry_multiplicity
 _atom_site_fract_x
 _atom_site_fract_y
 _atom_site_fract_z
 _atom_site_occupancy
  Sc  Sc0  1  0.001525  0.999216  0.000000  1
  Sc  Sc1  1  0.667355  0.334192  0.500000  1
  Mn  Mn2  1  0.456665  0.888234  0.500000  1
  Co  Co3  1  0.394827  0.295144  0.000000  1
  Co  Co4  1  0.898240  0.604643  0.000000  1
  Co  Co5  1  0.704955  0.101706  0.000000  1
  Co  Co6  1  0.610774  0.783832  0.000000  1
  Co  Co7  1  0.174998  0.389917  0.000000  1
  Co  Co8  1  0.215560  0.823554  0.000000  1
  Co  Co9  1  0.772091  0.719863  0.500000  1
  Co  Co10  1  0.948902  0.230048  0.500000  1
  Co  Co11  1  0.280121  0.052942  0.500000  1
  Co  Co12  1  0.433412  0.537158  0.500000  1
  Co  Co13  1  0.103315  0.569508  0.500000  1
  P  P14  1  0.628919  0.548972  0.000000  1
  P  P15  1  0.920854  0.372285  0.000000  1
  P  P16  1  0.450806  0.082866  0.000000  1
  P  P17  1  0.746108  0.958005  0.500000  1
  P  P18  1  0.214836  0.259229  0.500000  1
  P  P19  1  0.043553  0.785204  0.500000  1
  P  P20  1  0.332185  0.663481  0.000000  1
