# generated using pymatgen
data_LuZr3(Rh5Pb)2
_symmetry_space_group_name_H-M   'P 1'
_cell_length_a   5.72943190
_cell_length_b   5.72943123
_cell_length_c   8.31946200
_cell_angle_alpha   89.99777928
_cell_angle_beta   89.99778295
_cell_angle_gamma   96.37282329
_symmetry_Int_Tables_number   1
_chemical_formula_structural   LuZr3(Rh5Pb)2
_chemical_formula_sum   'Lu1 Zr3 Rh10 Pb2'
_cell_volume   271.41031203
_cell_formula_units_Z   1
loop_
 _symmetry_equiv_pos_site_id
 _symmetry_equiv_pos_as_xyz
  1  'x, y, z'
loop_
 _atom_site_type_symbol
 _atom_site_label
 _atom_site_symmetry_multiplicity
 _atom_site_fract_x
 _atom_site_fract_y
 _atom_site_fract_z
 _atom_site_occupancy
  Lu  Lu0  1  0.778824  0.221176  0.500000  1
  Zr  Zr1  1  0.216789  0.783211  0.000000  1
  Zr  Zr2  1  0.216269  0.783731  0.500000  1
  Zr  Zr3  1  0.783133  0.216867  0.000000  1
  Rh  Rh4  1  0.737576  0.737865  0.000665  1
  Rh  Rh5  1  0.738853  0.737081  0.499286  1
  Rh  Rh6  1  0.262135  0.262424  0.999335  1
  Rh  Rh7  1  0.262919  0.261147  0.500714  1
  Rh  Rh8  1  0.497836  0.998601  0.753215  1
  Rh  Rh9  1  0.497981  0.997293  0.246860  1
  Rh  Rh10  1  0.002364  0.998315  0.246884  1
  Rh  Rh11  1  0.001685  0.997636  0.753116  1
  Rh  Rh12  1  0.002707  0.502019  0.753140  1
  Rh  Rh13  1  0.001399  0.502164  0.246785  1
  Pb  Pb14  1  0.501217  0.501686  0.750312  1
  Pb  Pb15  1  0.498314  0.498783  0.249688  1
