# generated using pymatgen
data_BaPuCuS3
_symmetry_space_group_name_H-M   'P 1'
_cell_length_a   7.12778380
_cell_length_b   7.12778287
_cell_length_c   10.38352700
_cell_angle_alpha   90.00000000
_cell_angle_beta   90.00000000
_cell_angle_gamma   146.76587437
_symmetry_Int_Tables_number   1
_chemical_formula_structural   BaPuCuS3
_chemical_formula_sum   'Ba2 Pu2 Cu2 S6'
_cell_volume   289.12335641
_cell_formula_units_Z   2
loop_
 _symmetry_equiv_pos_site_id
 _symmetry_equiv_pos_as_xyz
  1  'x, y, z'
loop_
 _atom_site_type_symbol
 _atom_site_label
 _atom_site_symmetry_multiplicity
 _atom_site_fract_x
 _atom_site_fract_y
 _atom_site_fract_z
 _atom_site_occupancy
  Ba  Ba0  1  0.256012  0.743988  0.250000  1
  Ba  Ba1  1  0.743988  0.256012  0.750000  1
  Pu  Pu2  1  0.000000  0.000000  0.500000  1
  Pu  Pu3  1  0.000000  0.000000  0.000000  1
  Cu  Cu4  1  0.532538  0.467462  0.250000  1
  Cu  Cu5  1  0.467462  0.532538  0.750000  1
  S  S6  1  0.630386  0.369614  0.433974  1
  S  S7  1  0.369614  0.630386  0.566026  1
  S  S8  1  0.630386  0.369614  0.066026  1
  S  S9  1  0.369614  0.630386  0.933974  1
  S  S10  1  0.935951  0.064049  0.250000  1
  S  S11  1  0.064049  0.935951  0.750000  1
