# generated using pymatgen
data_Y2ErNi12B2Ir
_symmetry_space_group_name_H-M   'P 1'
_cell_length_a   4.94237700
_cell_length_b   4.99512096
_cell_length_c   10.97907500
_cell_angle_alpha   90.00000000
_cell_angle_beta   90.00000000
_cell_angle_gamma   119.65131170
_symmetry_Int_Tables_number   1
_chemical_formula_structural   Y2ErNi12B2Ir
_chemical_formula_sum   'Y2 Er1 Ni12 B2 Ir1'
_cell_volume   235.55564073
_cell_formula_units_Z   1
loop_
 _symmetry_equiv_pos_site_id
 _symmetry_equiv_pos_as_xyz
  1  'x, y, z'
loop_
 _atom_site_type_symbol
 _atom_site_label
 _atom_site_symmetry_multiplicity
 _atom_site_fract_x
 _atom_site_fract_y
 _atom_site_fract_z
 _atom_site_occupancy
  Y  Y0  1  0.500000  0.000000  0.671432  1
  Y  Y1  1  0.500000  0.000000  0.328568  1
  Er  Er2  1  0.500000  0.000000  0.000000  1
  Ni  Ni3  1  0.500000  0.500000  0.500000  1
  Ni  Ni4  1  0.000000  0.500000  0.500000  1
  Ni  Ni5  1  0.830186  0.660373  0.684817  1
  Ni  Ni6  1  0.169814  0.339627  0.684817  1
  Ni  Ni7  1  0.169814  0.339627  0.315183  1
  Ni  Ni8  1  0.830186  0.660373  0.315183  1
  Ni  Ni9  1  0.000000  0.000000  0.867398  1
  Ni  Ni10  1  0.500000  0.500000  0.869863  1
  Ni  Ni11  1  0.000000  0.500000  0.869863  1
  Ni  Ni12  1  0.000000  0.000000  0.132602  1
  Ni  Ni13  1  0.500000  0.500000  0.130137  1
  Ni  Ni14  1  0.000000  0.500000  0.130137  1
  B  B15  1  0.836320  0.672639  0.000000  1
  B  B16  1  0.163680  0.327361  0.000000  1
  Ir  Ir17  1  0.000000  0.000000  0.500000  1
