# generated using pymatgen
data_HoTh5NiBr15
_symmetry_space_group_name_H-M   'P 1'
_cell_length_a   10.14050874
_cell_length_b   10.14050910
_cell_length_c   10.14050935
_cell_angle_alpha   109.79448928
_cell_angle_beta   109.30982692
_cell_angle_gamma   109.30982910
_symmetry_Int_Tables_number   1
_chemical_formula_structural   HoTh5NiBr15
_chemical_formula_sum   'Ho1 Th5 Ni1 Br15'
_cell_volume   802.68844648
_cell_formula_units_Z   1
loop_
 _symmetry_equiv_pos_site_id
 _symmetry_equiv_pos_as_xyz
  1  'x, y, z'
loop_
 _atom_site_type_symbol
 _atom_site_label
 _atom_site_symmetry_multiplicity
 _atom_site_fract_x
 _atom_site_fract_y
 _atom_site_fract_z
 _atom_site_occupancy
  Ho  Ho0  1  0.000000  0.241628  0.241628  1
  Th  Th1  1  0.000000  0.756440  0.756440  1
  Th  Th2  1  0.238534  0.003039  0.241574  1
  Th  Th3  1  0.761466  0.003039  0.764505  1
  Th  Th4  1  0.238534  0.241574  0.003039  1
  Th  Th5  1  0.761466  0.764505  0.003039  1
  Ni  Ni6  1  0.000000  0.993733  0.993733  1
  Br  Br7  1  0.499370  0.249343  0.249343  1
  Br  Br8  1  0.500630  0.749973  0.749973  1
  Br  Br9  1  0.000000  0.249343  0.749973  1
  Br  Br10  1  0.000000  0.749973  0.249343  1
  Br  Br11  1  0.242311  0.492918  0.250607  1
  Br  Br12  1  0.757689  0.008296  0.250607  1
  Br  Br13  1  0.749891  0.500853  0.750963  1
  Br  Br14  1  0.250109  0.001072  0.750963  1
  Br  Br15  1  0.242311  0.250607  0.492918  1
  Br  Br16  1  0.749891  0.750963  0.500853  1
  Br  Br17  1  0.757689  0.250607  0.008296  1
  Br  Br18  1  0.250109  0.750963  0.001072  1
  Br  Br19  1  0.000000  0.495650  0.495650  1
  Br  Br20  1  0.500000  0.997740  0.497740  1
  Br  Br21  1  0.500000  0.497740  0.997740  1
