# generated using pymatgen
data_LiNdNi9P7W3
_symmetry_space_group_name_H-M   'P 1'
_cell_length_a   9.18966400
_cell_length_b   9.18966409
_cell_length_c   3.68816500
_cell_angle_alpha   90.00000000
_cell_angle_beta   90.00000000
_cell_angle_gamma   120.00000688
_symmetry_Int_Tables_number   1
_chemical_formula_structural   LiNdNi9P7W3
_chemical_formula_sum   'Li1 Nd1 Ni9 P7 W3'
_cell_volume   269.73680756
_cell_formula_units_Z   1
loop_
 _symmetry_equiv_pos_site_id
 _symmetry_equiv_pos_as_xyz
  1  'x, y, z'
loop_
 _atom_site_type_symbol
 _atom_site_label
 _atom_site_symmetry_multiplicity
 _atom_site_fract_x
 _atom_site_fract_y
 _atom_site_fract_z
 _atom_site_occupancy
  Li  Li0  1  0.333333  0.666667  0.000000  1
  Nd  Nd1  1  0.666667  0.333333  0.500000  1
  Ni  Ni2  1  0.716657  0.874248  0.000000  1
  Ni  Ni3  1  0.157591  0.283343  0.000000  1
  Ni  Ni4  1  0.125752  0.842409  0.000000  1
  Ni  Ni5  1  0.627876  0.570187  0.000000  1
  Ni  Ni6  1  0.942312  0.372124  0.000000  1
  Ni  Ni7  1  0.429813  0.057688  0.000000  1
  Ni  Ni8  1  0.555710  0.938148  0.500000  1
  Ni  Ni9  1  0.382438  0.444290  0.500000  1
  Ni  Ni10  1  0.061852  0.617562  0.500000  1
  P  P11  1  0.585934  0.707491  0.500000  1
  P  P12  1  0.121557  0.414066  0.500000  1
  P  P13  1  0.292509  0.878443  0.500000  1
  P  P14  1  0.000000  0.000000  0.000000  1
  P  P15  1  0.890652  0.591883  0.000000  1
  P  P16  1  0.701232  0.109348  0.000000  1
  P  P17  1  0.408117  0.298768  0.000000  1
  W  W18  1  0.878982  0.780027  0.500000  1
  W  W19  1  0.901044  0.121018  0.500000  1
  W  W20  1  0.219973  0.098956  0.500000  1
