# generated using pymatgen
data_Nd3AlIn2PdAu2
_symmetry_space_group_name_H-M   'P 1'
_cell_length_a   7.75747930
_cell_length_b   7.75747773
_cell_length_c   4.14192000
_cell_angle_alpha   90.00000000
_cell_angle_beta   90.00000000
_cell_angle_gamma   120.94770789
_symmetry_Int_Tables_number   1
_chemical_formula_structural   Nd3AlIn2PdAu2
_chemical_formula_sum   'Nd3 Al1 In2 Pd1 Au2'
_cell_volume   213.76981424
_cell_formula_units_Z   1
loop_
 _symmetry_equiv_pos_site_id
 _symmetry_equiv_pos_as_xyz
  1  'x, y, z'
loop_
 _atom_site_type_symbol
 _atom_site_label
 _atom_site_symmetry_multiplicity
 _atom_site_fract_x
 _atom_site_fract_y
 _atom_site_fract_z
 _atom_site_occupancy
  Nd  Nd0  1  0.999639  0.590133  0.000000  1
  Nd  Nd1  1  0.417417  0.417417  0.000000  1
  Nd  Nd2  1  0.590133  0.999639  0.000000  1
  Al  Al3  1  0.762964  0.762964  0.500000  1
  In  In4  1  0.999233  0.241776  0.500000  1
  In  In5  1  0.241776  0.999233  0.500000  1
  Pd  Pd6  1  0.972705  0.972705  0.000000  1
  Au  Au7  1  0.346703  0.669431  0.500000  1
  Au  Au8  1  0.669431  0.346703  0.500000  1
