# generated using pymatgen
data_Tb8Co17B8Ir3
_symmetry_space_group_name_H-M   'P 1'
_cell_length_a   5.09963000
_cell_length_b   5.12517292
_cell_length_c   20.35487243
_cell_angle_alpha   90.16387104
_cell_angle_beta   90.00000000
_cell_angle_gamma   119.83527319
_symmetry_Int_Tables_number   1
_chemical_formula_structural   Tb8Co17B8Ir3
_chemical_formula_sum   'Tb8 Co17 B8 Ir3'
_cell_volume   461.49004726
_cell_formula_units_Z   1
loop_
 _symmetry_equiv_pos_site_id
 _symmetry_equiv_pos_as_xyz
  1  'x, y, z'
loop_
 _atom_site_type_symbol
 _atom_site_label
 _atom_site_symmetry_multiplicity
 _atom_site_fract_x
 _atom_site_fract_y
 _atom_site_fract_z
 _atom_site_occupancy
  Tb  Tb0  1  0.666822  0.333644  0.821928  1
  Tb  Tb1  1  0.666262  0.332523  0.977431  1
  Tb  Tb2  1  0.333544  0.667089  0.476991  1
  Tb  Tb3  1  0.333676  0.667352  0.026031  1
  Tb  Tb4  1  0.332150  0.664300  0.177405  1
  Tb  Tb5  1  0.666858  0.333715  0.521974  1
  Tb  Tb6  1  0.667139  0.334277  0.674165  1
  Tb  Tb7  1  0.333182  0.666365  0.324910  1
  Co  Co8  1  0.162653  0.838517  0.607916  1
  Co  Co9  1  0.837732  0.162491  0.390938  1
  Co  Co10  1  0.334691  0.166734  0.251005  1
  Co  Co11  1  0.324759  0.162491  0.390938  1
  Co  Co12  1  0.836269  0.672540  0.111535  1
  Co  Co13  1  0.838436  0.676872  0.390778  1
  Co  Co14  1  0.832082  0.664165  0.250917  1
  Co  Co15  1  0.675865  0.838517  0.607916  1
  Co  Co16  1  0.666567  0.834480  0.747687  1
  Co  Co17  1  0.836177  0.158978  0.110993  1
  Co  Co18  1  0.675538  0.836588  0.890886  1
  Co  Co19  1  0.168460  0.336921  0.747899  1
  Co  Co20  1  0.167913  0.834480  0.747687  1
  Co  Co21  1  0.832042  0.166734  0.251005  1
  Co  Co22  1  0.322799  0.158978  0.110993  1
  Co  Co23  1  0.161051  0.836588  0.890886  1
  Co  Co24  1  0.162255  0.324508  0.607731  1
  B  B25  1  0.340810  0.681621  0.820592  1
  B  B26  1  0.333365  0.666732  0.674423  1
  B  B27  1  0.666983  0.333964  0.324460  1
  B  B28  1  0.996136  0.992272  0.818729  1
  B  B29  1  0.665683  0.331365  0.177520  1
  B  B30  1  0.001429  0.002858  0.677320  1
  B  B31  1  0.000005  0.000011  0.321409  1
  B  B32  1  0.999172  0.998345  0.180488  1
  Ir  Ir33  1  0.166534  0.333067  0.893802  1
  Ir  Ir34  1  0.994799  0.989599  0.003361  1
  Ir  Ir35  1  0.000161  0.000321  0.499350  1
