# generated using pymatgen
data_Tb5Y2Pa(ReB6)4
_symmetry_space_group_name_H-M   'P 1'
_cell_length_a   3.70573700
_cell_length_b   9.20168905
_cell_length_c   11.57575003
_cell_angle_alpha   89.80989612
_cell_angle_beta   90.00000000
_cell_angle_gamma   90.00000000
_symmetry_Int_Tables_number   1
_chemical_formula_structural   Tb5Y2Pa(ReB6)4
_chemical_formula_sum   'Tb5 Y2 Pa1 Re4 B24'
_cell_volume   394.71978590
_cell_formula_units_Z   1
loop_
 _symmetry_equiv_pos_site_id
 _symmetry_equiv_pos_as_xyz
  1  'x, y, z'
loop_
 _atom_site_type_symbol
 _atom_site_label
 _atom_site_symmetry_multiplicity
 _atom_site_fract_x
 _atom_site_fract_y
 _atom_site_fract_z
 _atom_site_occupancy
  Tb  Tb0  1  0.000000  0.178784  0.913172  1
  Tb  Tb1  1  0.000000  0.323612  0.414386  1
  Tb  Tb2  1  0.000000  0.675863  0.586474  1
  Tb  Tb3  1  0.000000  0.442265  0.128244  1
  Tb  Tb4  1  0.000000  0.555649  0.870966  1
  Y  Y5  1  0.000000  0.943209  0.372479  1
  Y  Y6  1  0.000000  0.057376  0.629879  1
  Pa  Pa7  1  0.000000  0.823561  0.085970  1
  Re  Re8  1  0.000000  0.134600  0.177753  1
  Re  Re9  1  0.000000  0.862661  0.824382  1
  Re  Re10  1  0.000000  0.641030  0.318020  1
  Re  Re11  1  0.000000  0.362103  0.678597  1
  B  B12  1  0.500000  0.052040  0.068160  1
  B  B13  1  0.500000  0.945655  0.933238  1
  B  B14  1  0.500000  0.553945  0.431919  1
  B  B15  1  0.500000  0.447210  0.566602  1
  B  B16  1  0.500000  0.247285  0.081569  1
  B  B17  1  0.500000  0.751913  0.919280  1
  B  B18  1  0.500000  0.747994  0.418730  1
  B  B19  1  0.500000  0.251941  0.581275  1
  B  B20  1  0.500000  0.290348  0.233594  1
  B  B21  1  0.500000  0.709096  0.766040  1
  B  B22  1  0.500000  0.791419  0.265248  1
  B  B23  1  0.500000  0.208932  0.734087  1
  B  B24  1  0.500000  0.130877  0.314491  1
  B  B25  1  0.500000  0.869589  0.686746  1
  B  B26  1  0.500000  0.632505  0.185282  1
  B  B27  1  0.500000  0.368587  0.813379  1
  B  B28  1  0.500000  0.483263  0.287487  1
  B  B29  1  0.500000  0.517304  0.711773  1
  B  B30  1  0.500000  0.982502  0.212270  1
  B  B31  1  0.500000  0.017451  0.787702  1
  B  B32  1  0.500000  0.102385  0.471881  1
  B  B33  1  0.500000  0.897694  0.529509  1
  B  B34  1  0.500000  0.607288  0.029652  1
  B  B35  1  0.500000  0.392067  0.969767  1
