# generated using pymatgen
data_Y4Tc5Ru3
_symmetry_space_group_name_H-M   'P 1'
_cell_length_a   5.30122473
_cell_length_b   5.30122473
_cell_length_c   9.22134900
_cell_angle_alpha   90.00000000
_cell_angle_beta   90.00000000
_cell_angle_gamma   121.51079584
_symmetry_Int_Tables_number   1
_chemical_formula_structural   Y4Tc5Ru3
_chemical_formula_sum   'Y4 Tc5 Ru3'
_cell_volume   220.93398152
_cell_formula_units_Z   1
loop_
 _symmetry_equiv_pos_site_id
 _symmetry_equiv_pos_as_xyz
  1  'x, y, z'
loop_
 _atom_site_type_symbol
 _atom_site_label
 _atom_site_symmetry_multiplicity
 _atom_site_fract_x
 _atom_site_fract_y
 _atom_site_fract_z
 _atom_site_occupancy
  Y  Y0  1  0.335220  0.664780  0.434816  1
  Y  Y1  1  0.665567  0.334433  0.564077  1
  Y  Y2  1  0.665567  0.334433  0.935923  1
  Y  Y3  1  0.335220  0.664780  0.065184  1
  Tc  Tc4  1  0.171074  0.343129  0.750000  1
  Tc  Tc5  1  0.170652  0.829348  0.750000  1
  Tc  Tc6  1  0.338165  0.172413  0.250000  1
  Tc  Tc7  1  0.827587  0.661835  0.250000  1
  Tc  Tc8  1  0.656871  0.828926  0.750000  1
  Ru  Ru9  1  0.004157  0.995843  0.000899  1
  Ru  Ru10  1  0.825762  0.174238  0.250000  1
  Ru  Ru11  1  0.004157  0.995843  0.499101  1
