# generated using pymatgen
data_Cs8Li4SmIn3As8
_symmetry_space_group_name_H-M   'P 1'
_cell_length_a   11.06710118
_cell_length_b   11.06712971
_cell_length_c   6.74225931
_cell_angle_alpha   90.08052140
_cell_angle_beta   89.91911376
_cell_angle_gamma   105.09507859
_symmetry_Int_Tables_number   1
_chemical_formula_structural   Cs8Li4SmIn3As8
_chemical_formula_sum   'Cs8 Li4 Sm1 In3 As8'
_cell_volume   797.30351528
_cell_formula_units_Z   1
loop_
 _symmetry_equiv_pos_site_id
 _symmetry_equiv_pos_as_xyz
  1  'x, y, z'
loop_
 _atom_site_type_symbol
 _atom_site_label
 _atom_site_symmetry_multiplicity
 _atom_site_fract_x
 _atom_site_fract_y
 _atom_site_fract_z
 _atom_site_occupancy
  Cs  Cs0  1  0.080270  0.430351  0.744858  1
  Cs  Cs1  1  0.670817  0.330895  0.775444  1
  Cs  Cs2  1  0.330894  0.670816  0.224557  1
  Cs  Cs3  1  0.573798  0.921017  0.749460  1
  Cs  Cs4  1  0.430352  0.080271  0.255142  1
  Cs  Cs5  1  0.921019  0.573798  0.250542  1
  Cs  Cs6  1  0.821342  0.170252  0.282105  1
  Cs  Cs7  1  0.170252  0.821342  0.717895  1
  Li  Li8  1  0.121974  0.121973  0.499999  1
  Li  Li9  1  0.876370  0.876369  0.500000  1
  Li  Li10  1  0.383597  0.383596  0.000002  1
  Li  Li11  1  0.622051  0.622050  0.000000  1
  Sm  Sm12  1  0.126343  0.126343  0.000001  1
  In  In13  1  0.868958  0.868955  0.000000  1
  In  In14  1  0.370663  0.370664  0.500001  1
  In  In15  1  0.633066  0.633072  0.499994  1
  As  As16  1  0.837556  0.663280  0.752438  1
  As  As17  1  0.082668  0.906352  0.236255  1
  As  As18  1  0.417553  0.585903  0.727726  1
  As  As19  1  0.585904  0.417554  0.272274  1
  As  As20  1  0.663278  0.837557  0.247561  1
  As  As21  1  0.165238  0.339687  0.256224  1
  As  As22  1  0.339687  0.165238  0.743776  1
  As  As23  1  0.906352  0.082667  0.763744  1
