# generated using pymatgen
data_NdHf4Sc5(Co2Si5)4
_symmetry_space_group_name_H-M   'P 1'
_cell_length_a   12.03101156
_cell_length_b   12.03101156
_cell_length_c   3.94861800
_cell_angle_alpha   90.00000000
_cell_angle_beta   90.00000000
_cell_angle_gamma   90.13671732
_symmetry_Int_Tables_number   1
_chemical_formula_structural   NdHf4Sc5(Co2Si5)4
_chemical_formula_sum   'Nd1 Hf4 Sc5 Co8 Si20'
_cell_volume   571.54202989
_cell_formula_units_Z   1
loop_
 _symmetry_equiv_pos_site_id
 _symmetry_equiv_pos_as_xyz
  1  'x, y, z'
loop_
 _atom_site_type_symbol
 _atom_site_label
 _atom_site_symmetry_multiplicity
 _atom_site_fract_x
 _atom_site_fract_y
 _atom_site_fract_z
 _atom_site_occupancy
  Nd  Nd0  1  0.886880  0.386880  0.500000  1
  Hf  Hf1  1  0.674457  0.174457  0.500000  1
  Hf  Hf2  1  0.180215  0.323079  0.500000  1
  Hf  Hf3  1  0.823079  0.680215  0.500000  1
  Hf  Hf4  1  0.322757  0.822757  0.500000  1
  Sc  Sc5  1  0.000410  0.998021  0.000000  1
  Sc  Sc6  1  0.498021  0.500410  0.000000  1
  Sc  Sc7  1  0.387604  0.111167  0.500000  1
  Sc  Sc8  1  0.611167  0.887604  0.500000  1
  Sc  Sc9  1  0.114266  0.614266  0.500000  1
  Co  Co10  1  0.524798  0.253371  0.000000  1
  Co  Co11  1  0.257280  0.473910  0.000000  1
  Co  Co12  1  0.741117  0.529125  0.000000  1
  Co  Co13  1  0.472989  0.745537  0.000000  1
  Co  Co14  1  0.973910  0.757280  0.000000  1
  Co  Co15  1  0.029125  0.241117  0.000000  1
  Co  Co16  1  0.753371  0.024798  0.000000  1
  Co  Co17  1  0.245537  0.972989  0.000000  1
  Si  Si18  1  0.567187  0.067187  0.000000  1
  Si  Si19  1  0.072596  0.432892  0.000000  1
  Si  Si20  1  0.932892  0.572596  0.000000  1
  Si  Si21  1  0.431115  0.931115  0.000000  1
  Si  Si22  1  0.200472  0.153985  0.000000  1
  Si  Si23  1  0.155568  0.801293  0.000000  1
  Si  Si24  1  0.844272  0.193745  0.000000  1
  Si  Si25  1  0.800325  0.845199  0.000000  1
  Si  Si26  1  0.301293  0.655568  0.000000  1
  Si  Si27  1  0.693745  0.344272  0.000000  1
  Si  Si28  1  0.653985  0.700472  0.000000  1
  Si  Si29  1  0.345199  0.300325  0.000000  1
  Si  Si30  1  0.011610  0.158159  0.500000  1
  Si  Si31  1  0.163586  0.996401  0.500000  1
  Si  Si32  1  0.835668  0.002547  0.500000  1
  Si  Si33  1  0.999592  0.836805  0.500000  1
  Si  Si34  1  0.496401  0.663586  0.500000  1
  Si  Si35  1  0.502547  0.335668  0.500000  1
  Si  Si36  1  0.658159  0.511610  0.500000  1
  Si  Si37  1  0.336805  0.499592  0.500000  1
