# generated using pymatgen
data_Dy3Lu2Si12Ir19
_symmetry_space_group_name_H-M   'P 1'
_cell_length_a   12.81081600
_cell_length_b   12.80879813
_cell_length_c   3.97590900
_cell_angle_alpha   90.00000000
_cell_angle_beta   90.00000000
_cell_angle_gamma   120.00521145
_symmetry_Int_Tables_number   1
_chemical_formula_structural   Dy3Lu2Si12Ir19
_chemical_formula_sum   'Dy3 Lu2 Si12 Ir19'
_cell_volume   564.97526311
_cell_formula_units_Z   1
loop_
 _symmetry_equiv_pos_site_id
 _symmetry_equiv_pos_as_xyz
  1  'x, y, z'
loop_
 _atom_site_type_symbol
 _atom_site_label
 _atom_site_symmetry_multiplicity
 _atom_site_fract_x
 _atom_site_fract_y
 _atom_site_fract_z
 _atom_site_occupancy
  Dy  Dy0  1  0.333369  0.666721  0.500000  1
  Dy  Dy1  1  0.666648  0.333279  0.500000  1
  Dy  Dy2  1  0.815205  0.000000  0.000000  1
  Lu  Lu3  1  0.000037  0.815339  0.000000  1
  Lu  Lu4  1  0.184698  0.184661  0.000000  1
  Si  Si5  1  0.999980  0.632994  0.500000  1
  Si  Si6  1  0.366986  0.367006  0.500000  1
  Si  Si7  1  0.632429  0.000000  0.500000  1
  Si  Si8  1  0.518928  0.687548  0.000000  1
  Si  Si9  1  0.312353  0.831415  0.000000  1
  Si  Si10  1  0.168793  0.481259  0.000000  1
  Si  Si11  1  0.480938  0.168585  0.000000  1
  Si  Si12  1  0.687535  0.518741  0.000000  1
  Si  Si13  1  0.831380  0.312452  0.000000  1
  Si  Si14  1  0.000621  0.181172  0.500000  1
  Si  Si15  1  0.819449  0.818828  0.500000  1
  Si  Si16  1  0.180983  0.000000  0.500000  1
  Ir  Ir17  1  0.512455  0.873746  0.000000  1
  Ir  Ir18  1  0.126178  0.638944  0.000000  1
  Ir  Ir19  1  0.361144  0.487347  0.000000  1
  Ir  Ir20  1  0.487235  0.361056  0.000000  1
  Ir  Ir21  1  0.873797  0.512653  0.000000  1
  Ir  Ir22  1  0.638709  0.126254  0.000000  1
  Ir  Ir23  1  0.999974  0.447514  0.500000  1
  Ir  Ir24  1  0.552460  0.552486  0.500000  1
  Ir  Ir25  1  0.447236  0.000000  0.500000  1
  Ir  Ir26  1  0.000385  0.282795  0.000000  1
  Ir  Ir27  1  0.717591  0.717205  0.000000  1
  Ir  Ir28  1  0.282147  0.000000  0.000000  1
  Ir  Ir29  1  0.623446  0.805606  0.500000  1
  Ir  Ir30  1  0.193330  0.817614  0.500000  1
  Ir  Ir31  1  0.182544  0.375873  0.500000  1
  Ir  Ir32  1  0.375715  0.182386  0.500000  1
  Ir  Ir33  1  0.806670  0.624127  0.500000  1
  Ir  Ir34  1  0.817839  0.194394  0.500000  1
  Ir  Ir35  1  0.000814  0.000000  0.500000  1
