# generated using pymatgen
data_RbCr(SnSe3)2
_symmetry_space_group_name_H-M   'P 1'
_cell_length_a   9.55560489
_cell_length_b   9.55560381
_cell_length_c   9.55560507
_cell_angle_alpha   40.78359993
_cell_angle_beta   40.78360966
_cell_angle_gamma   40.78360753
_symmetry_Int_Tables_number   1
_chemical_formula_structural   RbCr(SnSe3)2
_chemical_formula_sum   'Rb1 Cr1 Sn2 Se6'
_cell_volume   335.94600333
_cell_formula_units_Z   1
loop_
 _symmetry_equiv_pos_site_id
 _symmetry_equiv_pos_as_xyz
  1  'x, y, z'
loop_
 _atom_site_type_symbol
 _atom_site_label
 _atom_site_symmetry_multiplicity
 _atom_site_fract_x
 _atom_site_fract_y
 _atom_site_fract_z
 _atom_site_occupancy
  Rb  Rb0  1  0.998884  0.998884  0.998884  1
  Cr  Cr1  1  0.166821  0.166821  0.166821  1
  Sn  Sn2  1  0.501055  0.501055  0.501055  1
  Sn  Sn3  1  0.832299  0.832299  0.832299  1
  Se  Se4  1  0.537809  0.222359  0.912197  1
  Se  Se5  1  0.912197  0.537809  0.222359  1
  Se  Se6  1  0.222359  0.912197  0.537809  1
  Se  Se7  1  0.794971  0.112149  0.421457  1
  Se  Se8  1  0.112149  0.421457  0.794971  1
  Se  Se9  1  0.421457  0.794971  0.112149  1
