# generated using pymatgen
data_HfZr(BrO3)8
_symmetry_space_group_name_H-M   'P 1'
_cell_length_a   8.28578400
_cell_length_b   8.28578400
_cell_length_c   7.96306200
_cell_angle_alpha   90.00000000
_cell_angle_beta   90.00000000
_cell_angle_gamma   90.00000000
_symmetry_Int_Tables_number   1
_chemical_formula_structural   HfZr(BrO3)8
_chemical_formula_sum   'Hf1 Zr1 Br8 O24'
_cell_volume   546.69778251
_cell_formula_units_Z   1
loop_
 _symmetry_equiv_pos_site_id
 _symmetry_equiv_pos_as_xyz
  1  'x, y, z'
loop_
 _atom_site_type_symbol
 _atom_site_label
 _atom_site_symmetry_multiplicity
 _atom_site_fract_x
 _atom_site_fract_y
 _atom_site_fract_z
 _atom_site_occupancy
  Hf  Hf0  1  0.750000  0.750000  0.944042  1
  Zr  Zr1  1  0.250000  0.250000  0.056021  1
  Br  Br2  1  0.990745  0.534031  0.252168  1
  Br  Br3  1  0.534031  0.509255  0.252168  1
  Br  Br4  1  0.965969  0.990745  0.252168  1
  Br  Br5  1  0.509255  0.965969  0.252168  1
  Br  Br6  1  0.492293  0.032439  0.747625  1
  Br  Br7  1  0.032439  0.007707  0.747625  1
  Br  Br8  1  0.467562  0.492293  0.747625  1
  Br  Br9  1  0.007707  0.467562  0.747625  1
  O  O10  1  0.666709  0.536220  0.084794  1
  O  O11  1  0.963781  0.666709  0.084794  1
  O  O12  1  0.536220  0.833292  0.084794  1
  O  O13  1  0.833292  0.963781  0.084794  1
  O  O14  1  0.316749  0.035190  0.211707  1
  O  O15  1  0.035190  0.183251  0.211707  1
  O  O16  1  0.464810  0.316749  0.211707  1
  O  O17  1  0.183251  0.464810  0.211707  1
  O  O18  1  0.659704  0.483445  0.408407  1
  O  O19  1  0.016556  0.659704  0.408407  1
  O  O20  1  0.483445  0.840296  0.408407  1
  O  O21  1  0.840296  0.016556  0.408407  1
  O  O22  1  0.158163  0.981896  0.591437  1
  O  O23  1  0.518104  0.158163  0.591437  1
  O  O24  1  0.981896  0.341837  0.591437  1
  O  O25  1  0.341837  0.518104  0.591437  1
  O  O26  1  0.815836  0.538330  0.789450  1
  O  O27  1  0.538330  0.684163  0.789450  1
  O  O28  1  0.961671  0.815836  0.789450  1
  O  O29  1  0.684163  0.961671  0.789450  1
  O  O30  1  0.165722  0.033295  0.914397  1
  O  O31  1  0.466705  0.165722  0.914397  1
  O  O32  1  0.033295  0.334278  0.914397  1
  O  O33  1  0.334278  0.466705  0.914397  1
