# generated using pymatgen
data_Sr2TiV(PO4)4
_symmetry_space_group_name_H-M   'P 1'
_cell_length_a   5.22647192
_cell_length_b   8.21006845
_cell_length_c   8.76003224
_cell_angle_alpha   115.11602811
_cell_angle_beta   107.33772794
_cell_angle_gamma   89.83649132
_symmetry_Int_Tables_number   1
_chemical_formula_structural   Sr2TiV(PO4)4
_chemical_formula_sum   'Sr2 Ti1 V1 P4 O16'
_cell_volume   321.54499391
_cell_formula_units_Z   1
loop_
 _symmetry_equiv_pos_site_id
 _symmetry_equiv_pos_as_xyz
  1  'x, y, z'
loop_
 _atom_site_type_symbol
 _atom_site_label
 _atom_site_symmetry_multiplicity
 _atom_site_fract_x
 _atom_site_fract_y
 _atom_site_fract_z
 _atom_site_occupancy
  Sr  Sr0  1  0.813593  0.252523  0.998754  1
  Sr  Sr1  1  0.186405  0.747476  0.001246  1
  Ti  Ti2  1  0.000000  0.500000  0.500000  1
  V  V3  1  0.500000  0.000000  0.500000  1
  P  P4  1  0.880635  0.756784  0.283456  1
  P  P5  1  0.404145  0.252941  0.285942  1
  P  P6  1  0.119364  0.243215  0.716543  1
  P  P7  1  0.595854  0.747059  0.714058  1
  O  O8  1  0.828161  0.604690  0.096010  1
  O  O9  1  0.266287  0.099968  0.101256  1
  O  O10  1  0.621811  0.851797  0.290925  1
  O  O11  1  0.666988  0.349152  0.292712  1
  O  O12  1  0.125799  0.894994  0.325909  1
  O  O13  1  0.204775  0.394912  0.331366  1
  O  O14  1  0.947935  0.687802  0.428445  1
  O  O15  1  0.486080  0.190208  0.436645  1
  O  O16  1  0.513921  0.809793  0.563354  1
  O  O17  1  0.052064  0.312198  0.571555  1
  O  O18  1  0.795225  0.605088  0.668635  1
  O  O19  1  0.874201  0.105006  0.674092  1
  O  O20  1  0.333012  0.650849  0.707289  1
  O  O21  1  0.378189  0.148204  0.709076  1
  O  O22  1  0.733712  0.900031  0.898745  1
  O  O23  1  0.171840  0.395310  0.903990  1
