# generated using pymatgen
data_Be7V2SiTc2
_symmetry_space_group_name_H-M   'P 1'
_cell_length_a   4.36773400
_cell_length_b   4.36773485
_cell_length_c   7.23203400
_cell_angle_alpha   90.00000000
_cell_angle_beta   90.00000000
_cell_angle_gamma   120.00000874
_symmetry_Int_Tables_number   1
_chemical_formula_structural   Be7V2SiTc2
_chemical_formula_sum   'Be7 V2 Si1 Tc2'
_cell_volume   119.48227954
_cell_formula_units_Z   1
loop_
 _symmetry_equiv_pos_site_id
 _symmetry_equiv_pos_as_xyz
  1  'x, y, z'
loop_
 _atom_site_type_symbol
 _atom_site_label
 _atom_site_symmetry_multiplicity
 _atom_site_fract_x
 _atom_site_fract_y
 _atom_site_fract_z
 _atom_site_occupancy
  Be  Be0  1  0.000000  0.000000  0.498220  1
  Be  Be1  1  0.828926  0.657851  0.258719  1
  Be  Be2  1  0.170783  0.829217  0.741563  1
  Be  Be3  1  0.658433  0.829217  0.741563  1
  Be  Be4  1  0.342149  0.171074  0.258719  1
  Be  Be5  1  0.828926  0.171074  0.258719  1
  Be  Be6  1  0.170783  0.341567  0.741563  1
  V  V7  1  0.666667  0.333333  0.935447  1
  V  V8  1  0.333333  0.666667  0.439272  1
  Si  Si9  1  0.000000  0.000000  0.998912  1
  Tc  Tc10  1  0.333333  0.666667  0.064214  1
  Tc  Tc11  1  0.666667  0.333333  0.563084  1
