# generated using pymatgen
data_Ta12CrGa8Ni3C4
_symmetry_space_group_name_H-M   'P 1'
_cell_length_a   8.25574998
_cell_length_b   8.25575085
_cell_length_c   8.25574900
_cell_angle_alpha   59.90675975
_cell_angle_beta   59.90675624
_cell_angle_gamma   59.90676195
_symmetry_Int_Tables_number   1
_chemical_formula_structural   Ta12CrGa8Ni3C4
_chemical_formula_sum   'Ta12 Cr1 Ga8 Ni3 C4'
_cell_volume   397.04066071
_cell_formula_units_Z   1
loop_
 _symmetry_equiv_pos_site_id
 _symmetry_equiv_pos_as_xyz
  1  'x, y, z'
loop_
 _atom_site_type_symbol
 _atom_site_label
 _atom_site_symmetry_multiplicity
 _atom_site_fract_x
 _atom_site_fract_y
 _atom_site_fract_z
 _atom_site_occupancy
  Ta  Ta0  1  0.686608  0.312448  0.686608  1
  Ta  Ta1  1  0.937552  0.563392  0.563392  1
  Ta  Ta2  1  0.549177  0.941764  0.941764  1
  Ta  Ta3  1  0.941764  0.549177  0.941764  1
  Ta  Ta4  1  0.563392  0.563392  0.937552  1
  Ta  Ta5  1  0.941764  0.941764  0.549177  1
  Ta  Ta6  1  0.686608  0.686608  0.312448  1
  Ta  Ta7  1  0.312448  0.686608  0.686608  1
  Ta  Ta8  1  0.700823  0.308236  0.308236  1
  Ta  Ta9  1  0.308236  0.308236  0.700823  1
  Ta  Ta10  1  0.563392  0.937552  0.563392  1
  Ta  Ta11  1  0.308236  0.700823  0.308236  1
  Cr  Cr12  1  0.125000  0.125000  0.125000  1
  Ga  Ga13  1  0.336402  0.336402  0.336402  1
  Ga  Ga14  1  0.249960  0.914001  0.914001  1
  Ga  Ga15  1  0.914001  0.249960  0.914001  1
  Ga  Ga16  1  0.914001  0.914001  0.249960  1
  Ga  Ga17  1  0.335999  0.000040  0.335999  1
  Ga  Ga18  1  0.335999  0.335999  0.000040  1
  Ga  Ga19  1  0.000040  0.335999  0.335999  1
  Ga  Ga20  1  0.913598  0.913598  0.913598  1
  Ni  Ni21  1  0.625000  0.125000  0.125000  1
  Ni  Ni22  1  0.125000  0.625000  0.125000  1
  Ni  Ni23  1  0.125000  0.125000  0.625000  1
  C  C24  1  0.625000  0.625000  0.625000  1
  C  C25  1  0.125000  0.625000  0.625000  1
  C  C26  1  0.625000  0.125000  0.625000  1
  C  C27  1  0.625000  0.625000  0.125000  1
