# generated using pymatgen
data_Ac5(TcO6)2
_symmetry_space_group_name_H-M   'P 1'
_cell_length_a   7.37094458
_cell_length_b   7.37094422
_cell_length_c   8.10296300
_cell_angle_alpha   74.24218522
_cell_angle_beta   74.24217795
_cell_angle_gamma   49.69102702
_symmetry_Int_Tables_number   1
_chemical_formula_structural   Ac5(TcO6)2
_chemical_formula_sum   'Ac5 Tc2 O12'
_cell_volume   320.32663435
_cell_formula_units_Z   1
loop_
 _symmetry_equiv_pos_site_id
 _symmetry_equiv_pos_as_xyz
  1  'x, y, z'
loop_
 _atom_site_type_symbol
 _atom_site_label
 _atom_site_symmetry_multiplicity
 _atom_site_fract_x
 _atom_site_fract_y
 _atom_site_fract_z
 _atom_site_occupancy
  Ac  Ac0  1  0.312311  0.312311  0.353073  1
  Ac  Ac1  1  0.687689  0.687689  0.646927  1
  Ac  Ac2  1  0.688296  0.688296  0.165333  1
  Ac  Ac3  1  0.311704  0.311704  0.834667  1
  Ac  Ac4  1  0.000000  0.000000  0.500000  1
  Tc  Tc5  1  0.779638  0.220362  0.000000  1
  Tc  Tc6  1  0.220362  0.779638  0.000000  1
  O  O7  1  0.094082  0.594576  0.579700  1
  O  O8  1  0.999007  0.999007  0.183008  1
  O  O9  1  0.405424  0.905918  0.420300  1
  O  O10  1  0.500534  0.500534  0.156699  1
  O  O11  1  0.094544  0.596619  0.075556  1
  O  O12  1  0.905918  0.405424  0.420300  1
  O  O13  1  0.000993  0.000993  0.816992  1
  O  O14  1  0.594576  0.094081  0.579700  1
  O  O15  1  0.499466  0.499466  0.843301  1
  O  O16  1  0.596619  0.094544  0.075556  1
  O  O17  1  0.403381  0.905456  0.924444  1
  O  O18  1  0.905456  0.403381  0.924444  1
