# generated using pymatgen
data_Y4ErBiPb3
_symmetry_space_group_name_H-M   'P 1'
_cell_length_a   8.30852500
_cell_length_b   8.31431100
_cell_length_c   15.66590200
_cell_angle_alpha   90.00000000
_cell_angle_beta   90.00000000
_cell_angle_gamma   90.00000000
_symmetry_Int_Tables_number   1
_chemical_formula_structural   Y4ErBiPb3
_chemical_formula_sum   'Y16 Er4 Bi4 Pb12'
_cell_volume   1082.19519631
_cell_formula_units_Z   4
loop_
 _symmetry_equiv_pos_site_id
 _symmetry_equiv_pos_as_xyz
  1  'x, y, z'
loop_
 _atom_site_type_symbol
 _atom_site_label
 _atom_site_symmetry_multiplicity
 _atom_site_fract_x
 _atom_site_fract_y
 _atom_site_fract_z
 _atom_site_occupancy
  Y  Y0  1  0.385119  0.842152  0.878019  1
  Y  Y1  1  0.885119  0.657848  0.621981  1
  Y  Y2  1  0.614881  0.157848  0.378019  1
  Y  Y3  1  0.114881  0.342152  0.121981  1
  Y  Y4  1  0.619676  0.159376  0.121088  1
  Y  Y5  1  0.119676  0.340624  0.378912  1
  Y  Y6  1  0.380324  0.840624  0.621088  1
  Y  Y7  1  0.880324  0.659376  0.878912  1
  Y  Y8  1  0.558762  0.332188  0.892663  1
  Y  Y9  1  0.058762  0.167812  0.607337  1
  Y  Y10  1  0.441238  0.667812  0.392663  1
  Y  Y11  1  0.941238  0.832188  0.107337  1
  Y  Y12  1  0.457085  0.668832  0.104779  1
  Y  Y13  1  0.957085  0.831168  0.395221  1
  Y  Y14  1  0.542915  0.331168  0.604779  1
  Y  Y15  1  0.042915  0.168832  0.895221  1
  Er  Er16  1  0.216365  0.501325  0.747732  1
  Er  Er17  1  0.716365  0.998675  0.752268  1
  Er  Er18  1  0.783635  0.498675  0.247732  1
  Er  Er19  1  0.283635  0.001325  0.252268  1
  Bi  Bi20  1  0.271090  0.021501  0.046299  1
  Bi  Bi21  1  0.771090  0.478499  0.453701  1
  Bi  Bi22  1  0.728910  0.978499  0.546299  1
  Bi  Bi23  1  0.228910  0.521501  0.953701  1
  Pb  Pb24  1  0.722286  0.972870  0.955687  1
  Pb  Pb25  1  0.222286  0.527130  0.544313  1
  Pb  Pb26  1  0.277714  0.027130  0.455687  1
  Pb  Pb27  1  0.777714  0.472870  0.044313  1
  Pb  Pb28  1  0.577276  0.629877  0.748699  1
  Pb  Pb29  1  0.077276  0.870123  0.751301  1
  Pb  Pb30  1  0.422724  0.370123  0.248699  1
  Pb  Pb31  1  0.922724  0.129877  0.251301  1
  Pb  Pb32  1  0.359296  0.151869  0.751403  1
  Pb  Pb33  1  0.859296  0.348131  0.748597  1
  Pb  Pb34  1  0.640704  0.848131  0.251403  1
  Pb  Pb35  1  0.140704  0.651869  0.248597  1
