# generated using pymatgen
data_Sc12In2Fe2Re
_symmetry_space_group_name_H-M   'P 1'
_cell_length_a   7.82383858
_cell_length_b   7.82383868
_cell_length_c   7.82383799
_cell_angle_alpha   108.89113190
_cell_angle_beta   108.89113509
_cell_angle_gamma   110.63773340
_symmetry_Int_Tables_number   1
_chemical_formula_structural   Sc12In2Fe2Re
_chemical_formula_sum   'Sc12 In2 Fe2 Re1'
_cell_volume   368.55504539
_cell_formula_units_Z   1
loop_
 _symmetry_equiv_pos_site_id
 _symmetry_equiv_pos_as_xyz
  1  'x, y, z'
loop_
 _atom_site_type_symbol
 _atom_site_label
 _atom_site_symmetry_multiplicity
 _atom_site_fract_x
 _atom_site_fract_y
 _atom_site_fract_z
 _atom_site_occupancy
  Sc  Sc0  1  0.306286  0.306286  0.612572  1
  Sc  Sc1  1  0.693714  0.693714  0.387428  1
  Sc  Sc2  1  0.693714  0.306286  0.000000  1
  Sc  Sc3  1  0.306286  0.693714  0.000000  1
  Sc  Sc4  1  0.194643  0.432835  0.238193  1
  Sc  Sc5  1  0.805357  0.567165  0.761807  1
  Sc  Sc6  1  0.194643  0.956450  0.761807  1
  Sc  Sc7  1  0.956450  0.194643  0.761807  1
  Sc  Sc8  1  0.805357  0.043550  0.238193  1
  Sc  Sc9  1  0.043550  0.805357  0.238193  1
  Sc  Sc10  1  0.432835  0.194643  0.238193  1
  Sc  Sc11  1  0.567165  0.805357  0.761807  1
  In  In12  1  0.000000  0.500000  0.500000  1
  In  In13  1  0.500000  0.000000  0.500000  1
  Fe  Fe14  1  0.379080  0.379080  0.000000  1
  Fe  Fe15  1  0.620920  0.620920  0.000000  1
  Re  Re16  1  0.000000  0.000000  0.000000  1
