# generated using pymatgen
data_NdDy7(Si4Mo3)4
_symmetry_space_group_name_H-M   'P 1'
_cell_length_a   6.79988998
_cell_length_b   6.97492620
_cell_length_c   12.96189885
_cell_angle_alpha   90.08158454
_cell_angle_beta   90.02291918
_cell_angle_gamma   90.07982812
_symmetry_Int_Tables_number   1
_chemical_formula_structural   NdDy7(Si4Mo3)4
_chemical_formula_sum   'Nd1 Dy7 Si16 Mo12'
_cell_volume   614.76514174
_cell_formula_units_Z   1
loop_
 _symmetry_equiv_pos_site_id
 _symmetry_equiv_pos_as_xyz
  1  'x, y, z'
loop_
 _atom_site_type_symbol
 _atom_site_label
 _atom_site_symmetry_multiplicity
 _atom_site_fract_x
 _atom_site_fract_y
 _atom_site_fract_z
 _atom_site_occupancy
  Nd  Nd0  1  0.997996  0.165198  0.093099  1
  Dy  Dy1  1  0.497314  0.333420  0.094252  1
  Dy  Dy2  1  0.997318  0.166901  0.405772  1
  Dy  Dy3  1  0.502671  0.667049  0.594230  1
  Dy  Dy4  1  0.003214  0.833664  0.904868  1
  Dy  Dy5  1  0.503142  0.666215  0.905012  1
  Dy  Dy6  1  0.002831  0.833019  0.594207  1
  Dy  Dy7  1  0.497240  0.333329  0.406827  1
  Si  Si8  1  0.658795  0.041984  0.547670  1
  Si  Si9  1  0.158867  0.459606  0.951048  1
  Si  Si10  1  0.345390  0.955366  0.047184  1
  Si  Si11  1  0.841630  0.542086  0.452666  1
  Si  Si12  1  0.340921  0.958048  0.452939  1
  Si  Si13  1  0.840450  0.545903  0.047053  1
  Si  Si14  1  0.656878  0.042046  0.950821  1
  Si  Si15  1  0.158530  0.457554  0.547743  1
  Si  Si16  1  0.535050  0.364850  0.749475  1
  Si  Si17  1  0.034854  0.135619  0.749831  1
  Si  Si18  1  0.464497  0.634815  0.250547  1
  Si  Si19  1  0.964508  0.862244  0.251531  1
  Si  Si20  1  0.803188  0.628500  0.749470  1
  Si  Si21  1  0.303567  0.872354  0.749638  1
  Si  Si22  1  0.198557  0.373947  0.251424  1
  Si  Si23  1  0.693900  0.127056  0.251407  1
  Mo  Mo24  1  0.830509  0.335319  0.625157  1
  Mo  Mo25  1  0.331614  0.165476  0.873889  1
  Mo  Mo26  1  0.169772  0.664698  0.125608  1
  Mo  Mo27  1  0.668194  0.834335  0.375372  1
  Mo  Mo28  1  0.169948  0.664538  0.375660  1
  Mo  Mo29  1  0.667853  0.833600  0.126080  1
  Mo  Mo30  1  0.829727  0.336679  0.873603  1
  Mo  Mo31  1  0.330798  0.165349  0.625300  1
  Mo  Mo32  1  0.665998  0.999578  0.749358  1
  Mo  Mo33  1  0.165918  0.500634  0.749558  1
  Mo  Mo34  1  0.334654  0.998741  0.251047  1
  Mo  Mo35  1  0.833710  0.500283  0.250654  1
