# generated using pymatgen
data_Sm3(H6Ru)2
_symmetry_space_group_name_H-M   'P 1'
_cell_length_a   4.82712600
_cell_length_b   4.82712622
_cell_length_c   8.34996500
_cell_angle_alpha   90.00000000
_cell_angle_beta   90.00000000
_cell_angle_gamma   119.99999848
_symmetry_Int_Tables_number   1
_chemical_formula_structural   Sm3(H6Ru)2
_chemical_formula_sum   'Sm3 H12 Ru2'
_cell_volume   168.49715939
_cell_formula_units_Z   1
loop_
 _symmetry_equiv_pos_site_id
 _symmetry_equiv_pos_as_xyz
  1  'x, y, z'
loop_
 _atom_site_type_symbol
 _atom_site_label
 _atom_site_symmetry_multiplicity
 _atom_site_fract_x
 _atom_site_fract_y
 _atom_site_fract_z
 _atom_site_occupancy
  Sm  Sm0  1  0.000000  0.000000  0.000000  1
  Sm  Sm1  1  0.666667  0.333333  0.360967  1
  Sm  Sm2  1  0.333333  0.666667  0.639033  1
  H  H3  1  0.169767  0.830233  0.369601  1
  H  H4  1  0.660466  0.830233  0.369601  1
  H  H5  1  0.169767  0.339534  0.369601  1
  H  H6  1  0.830233  0.169767  0.630399  1
  H  H7  1  0.339534  0.169767  0.630399  1
  H  H8  1  0.830233  0.660466  0.630399  1
  H  H9  1  0.500560  0.001120  0.876905  1
  H  H10  1  0.500560  0.499440  0.876905  1
  H  H11  1  0.998880  0.499440  0.876905  1
  H  H12  1  0.499440  0.998880  0.123095  1
  H  H13  1  0.499440  0.500560  0.123095  1
  H  H14  1  0.001120  0.500560  0.123095  1
  Ru  Ru15  1  0.666667  0.333333  0.756740  1
  Ru  Ru16  1  0.333333  0.666667  0.243260  1
