# generated using pymatgen
data_SrMg(NbSe2)8
_symmetry_space_group_name_H-M   'P 1'
_cell_length_a   7.02480200
_cell_length_b   7.02480424
_cell_length_c   14.42913300
_cell_angle_alpha   90.00000000
_cell_angle_beta   90.00000000
_cell_angle_gamma   119.99999886
_symmetry_Int_Tables_number   1
_chemical_formula_structural   SrMg(NbSe2)8
_chemical_formula_sum   'Sr1 Mg1 Nb8 Se16'
_cell_volume   616.65064116
_cell_formula_units_Z   1
loop_
 _symmetry_equiv_pos_site_id
 _symmetry_equiv_pos_as_xyz
  1  'x, y, z'
loop_
 _atom_site_type_symbol
 _atom_site_label
 _atom_site_symmetry_multiplicity
 _atom_site_fract_x
 _atom_site_fract_y
 _atom_site_fract_z
 _atom_site_occupancy
  Sr  Sr0  1  0.000000  0.000000  0.500000  1
  Mg  Mg1  1  0.000000  0.000000  0.000000  1
  Nb  Nb2  1  0.000000  0.000000  0.232195  1
  Nb  Nb3  1  0.000000  0.000000  0.767805  1
  Nb  Nb4  1  0.508928  0.017857  0.231023  1
  Nb  Nb5  1  0.982143  0.491072  0.231023  1
  Nb  Nb6  1  0.508928  0.491072  0.231023  1
  Nb  Nb7  1  0.491072  0.982143  0.768977  1
  Nb  Nb8  1  0.017857  0.508928  0.768977  1
  Nb  Nb9  1  0.491072  0.508928  0.768977  1
  Se  Se10  1  0.333333  0.666667  0.889139  1
  Se  Se11  1  0.666667  0.333333  0.110861  1
  Se  Se12  1  0.666667  0.333333  0.353032  1
  Se  Se13  1  0.333333  0.666667  0.646968  1
  Se  Se14  1  0.169915  0.830085  0.345224  1
  Se  Se15  1  0.169915  0.339831  0.345224  1
  Se  Se16  1  0.660169  0.830085  0.345224  1
  Se  Se17  1  0.830085  0.169915  0.654776  1
  Se  Se18  1  0.830085  0.660169  0.654776  1
  Se  Se19  1  0.339831  0.169915  0.654776  1
  Se  Se20  1  0.830515  0.169485  0.882554  1
  Se  Se21  1  0.830515  0.661031  0.882554  1
  Se  Se22  1  0.338969  0.169485  0.882554  1
  Se  Se23  1  0.169485  0.830515  0.117446  1
  Se  Se24  1  0.169485  0.338969  0.117446  1
  Se  Se25  1  0.661031  0.830515  0.117446  1
