# generated using pymatgen
data_NdHoTm4(Co3P2)6
_symmetry_space_group_name_H-M   'P 1'
_cell_length_a   3.69118800
_cell_length_b   10.50311500
_cell_length_c   12.16469100
_cell_angle_alpha   90.00000000
_cell_angle_beta   90.00000000
_cell_angle_gamma   90.00000000
_symmetry_Int_Tables_number   1
_chemical_formula_structural   NdHoTm4(Co3P2)6
_chemical_formula_sum   'Nd1 Ho1 Tm4 Co18 P12'
_cell_volume   471.61256538
_cell_formula_units_Z   1
loop_
 _symmetry_equiv_pos_site_id
 _symmetry_equiv_pos_as_xyz
  1  'x, y, z'
loop_
 _atom_site_type_symbol
 _atom_site_label
 _atom_site_symmetry_multiplicity
 _atom_site_fract_x
 _atom_site_fract_y
 _atom_site_fract_z
 _atom_site_occupancy
  Nd  Nd0  1  0.000000  0.500000  0.522900  1
  Ho  Ho1  1  0.500000  0.000000  0.477816  1
  Tm  Tm2  1  0.500000  0.818233  0.205611  1
  Tm  Tm3  1  0.500000  0.181767  0.205611  1
  Tm  Tm4  1  0.000000  0.682819  0.795143  1
  Tm  Tm5  1  0.000000  0.317181  0.795143  1
  Co  Co6  1  0.000000  0.500000  0.986608  1
  Co  Co7  1  0.500000  0.000000  0.014218  1
  Co  Co8  1  0.500000  0.293883  0.429575  1
  Co  Co9  1  0.500000  0.706117  0.429575  1
  Co  Co10  1  0.000000  0.200362  0.570131  1
  Co  Co11  1  0.000000  0.799638  0.570131  1
  Co  Co12  1  0.500000  0.879550  0.711153  1
  Co  Co13  1  0.500000  0.120450  0.711153  1
  Co  Co14  1  0.000000  0.622058  0.288197  1
  Co  Co15  1  0.000000  0.377942  0.288197  1
  Co  Co16  1  0.500000  0.332805  0.994535  1
  Co  Co17  1  0.500000  0.667195  0.994535  1
  Co  Co18  1  0.000000  0.166442  0.005312  1
  Co  Co19  1  0.000000  0.833558  0.005312  1
  Co  Co20  1  0.500000  0.500000  0.156754  1
  Co  Co21  1  0.000000  0.000000  0.841154  1
  Co  Co22  1  0.500000  0.500000  0.706683  1
  Co  Co23  1  0.000000  0.000000  0.295587  1
  P  P24  1  0.500000  0.307310  0.618359  1
  P  P25  1  0.500000  0.692690  0.618359  1
  P  P26  1  0.000000  0.188230  0.383002  1
  P  P27  1  0.000000  0.811770  0.383002  1
  P  P28  1  0.500000  0.500000  0.883347  1
  P  P29  1  0.000000  0.000000  0.117774  1
  P  P30  1  0.500000  0.847149  0.892945  1
  P  P31  1  0.500000  0.152851  0.892945  1
  P  P32  1  0.000000  0.654172  0.106657  1
  P  P33  1  0.000000  0.345828  0.106657  1
  P  P34  1  0.500000  0.500000  0.339990  1
  P  P35  1  0.000000  0.000000  0.655927  1
