# generated using pymatgen
data_Sm2DyCoSn6
_symmetry_space_group_name_H-M   'P 1'
_cell_length_a   8.52182444
_cell_length_b   8.52182535
_cell_length_c   13.27544800
_cell_angle_alpha   90.00000000
_cell_angle_beta   90.00000000
_cell_angle_gamma   148.79321388
_symmetry_Int_Tables_number   1
_chemical_formula_structural   Sm2DyCoSn6
_chemical_formula_sum   'Sm4 Dy2 Co2 Sn12'
_cell_volume   499.51867009
_cell_formula_units_Z   2
loop_
 _symmetry_equiv_pos_site_id
 _symmetry_equiv_pos_as_xyz
  1  'x, y, z'
loop_
 _atom_site_type_symbol
 _atom_site_label
 _atom_site_symmetry_multiplicity
 _atom_site_fract_x
 _atom_site_fract_y
 _atom_site_fract_z
 _atom_site_occupancy
  Sm  Sm0  1  0.900013  0.099987  0.092552  1
  Sm  Sm1  1  0.099987  0.900013  0.592552  1
  Sm  Sm2  1  0.099987  0.900013  0.907448  1
  Sm  Sm3  1  0.900013  0.099987  0.407448  1
  Dy  Dy4  1  0.899499  0.100501  0.750000  1
  Dy  Dy5  1  0.100501  0.899499  0.250000  1
  Co  Co6  1  0.297867  0.702133  0.250000  1
  Co  Co7  1  0.702133  0.297867  0.750000  1
  Sn  Sn8  1  0.755026  0.244974  0.571727  1
  Sn  Sn9  1  0.427995  0.572005  0.578264  1
  Sn  Sn10  1  0.572005  0.427995  0.421736  1
  Sn  Sn11  1  0.733581  0.266419  0.250000  1
  Sn  Sn12  1  0.266419  0.733581  0.750000  1
  Sn  Sn13  1  0.244974  0.755026  0.071727  1
  Sn  Sn14  1  0.244974  0.755026  0.428273  1
  Sn  Sn15  1  0.572005  0.427995  0.078264  1
  Sn  Sn16  1  0.453134  0.546866  0.250000  1
  Sn  Sn17  1  0.546866  0.453134  0.750000  1
  Sn  Sn18  1  0.755026  0.244974  0.928273  1
  Sn  Sn19  1  0.427995  0.572005  0.921736  1
