# generated using pymatgen
data_CePrCuAs3Rh4
_symmetry_space_group_name_H-M   'P 1'
_cell_length_a   4.17470200
_cell_length_b   4.23197500
_cell_length_c   10.25900700
_cell_angle_alpha   90.00000000
_cell_angle_beta   90.00000000
_cell_angle_gamma   90.00000000
_symmetry_Int_Tables_number   1
_chemical_formula_structural   CePrCuAs3Rh4
_chemical_formula_sum   'Ce1 Pr1 Cu1 As3 Rh4'
_cell_volume   181.24828237
_cell_formula_units_Z   1
loop_
 _symmetry_equiv_pos_site_id
 _symmetry_equiv_pos_as_xyz
  1  'x, y, z'
loop_
 _atom_site_type_symbol
 _atom_site_label
 _atom_site_symmetry_multiplicity
 _atom_site_fract_x
 _atom_site_fract_y
 _atom_site_fract_z
 _atom_site_occupancy
  Ce  Ce0  1  0.000000  0.500000  0.261625  1
  Pr  Pr1  1  0.500000  0.000000  0.743084  1
  Cu  Cu2  1  0.000000  0.000000  0.499332  1
  As  As3  1  0.500000  0.500000  0.497760  1
  As  As4  1  0.000000  0.500000  0.862075  1
  As  As5  1  0.500000  0.000000  0.136142  1
  Rh  Rh6  1  0.000000  0.000000  0.001068  1
  Rh  Rh7  1  0.500000  0.500000  0.003526  1
  Rh  Rh8  1  0.000000  0.500000  0.627098  1
  Rh  Rh9  1  0.500000  0.000000  0.368290  1
