# generated using pymatgen
data_Dy5YZn2(FeRu4)2
_symmetry_space_group_name_H-M   'P 1'
_cell_length_a   5.27212314
_cell_length_b   5.22180433
_cell_length_c   13.18894699
_cell_angle_alpha   91.48345950
_cell_angle_beta   89.34393428
_cell_angle_gamma   118.07704868
_symmetry_Int_Tables_number   1
_chemical_formula_structural   Dy5YZn2(FeRu4)2
_chemical_formula_sum   'Dy5 Y1 Zn2 Fe2 Ru8'
_cell_volume   320.25389727
_cell_formula_units_Z   1
loop_
 _symmetry_equiv_pos_site_id
 _symmetry_equiv_pos_as_xyz
  1  'x, y, z'
loop_
 _atom_site_type_symbol
 _atom_site_label
 _atom_site_symmetry_multiplicity
 _atom_site_fract_x
 _atom_site_fract_y
 _atom_site_fract_z
 _atom_site_occupancy
  Dy  Dy0  1  0.337011  0.665197  0.910241  1
  Dy  Dy1  1  0.986998  0.994510  0.257029  1
  Dy  Dy2  1  0.668375  0.334363  0.585357  1
  Dy  Dy3  1  0.331653  0.665904  0.664925  1
  Dy  Dy4  1  0.013255  0.005311  0.992613  1
  Y  Y5  1  0.662650  0.334522  0.339564  1
  Zn  Zn6  1  0.500108  0.500088  0.124833  1
  Zn  Zn7  1  0.500110  0.999891  0.124839  1
  Fe  Fe8  1  0.169275  0.838605  0.459501  1
  Fe  Fe9  1  0.830766  0.161127  0.790685  1
  Ru  Ru10  1  0.172801  0.342860  0.457292  1
  Ru  Ru11  1  0.827009  0.657375  0.793064  1
  Ru  Ru12  1  0.317592  0.668958  0.290918  1
  Ru  Ru13  1  0.999851  0.000235  0.625085  1
  Ru  Ru14  1  0.682138  0.330493  0.958955  1
  Ru  Ru15  1  0.000414  0.500314  0.124687  1
  Ru  Ru16  1  0.668402  0.836370  0.461474  1
  Ru  Ru17  1  0.331593  0.163876  0.788941  1
