# generated using pymatgen
data_Th5P12Os19
_symmetry_space_group_name_H-M   'P 1'
_cell_length_a   12.71170900
_cell_length_b   12.71170932
_cell_length_c   4.06297900
_cell_angle_alpha   90.00000000
_cell_angle_beta   90.00000000
_cell_angle_gamma   120.00000177
_symmetry_Int_Tables_number   1
_chemical_formula_structural   Th5P12Os19
_chemical_formula_sum   'Th5 P12 Os19'
_cell_volume   568.56889542
_cell_formula_units_Z   1
loop_
 _symmetry_equiv_pos_site_id
 _symmetry_equiv_pos_as_xyz
  1  'x, y, z'
loop_
 _atom_site_type_symbol
 _atom_site_label
 _atom_site_symmetry_multiplicity
 _atom_site_fract_x
 _atom_site_fract_y
 _atom_site_fract_z
 _atom_site_occupancy
  Th  Th0  1  0.186295  0.186295  0.500000  1
  Th  Th1  1  0.813705  0.000000  0.500000  1
  Th  Th2  1  0.000000  0.813705  0.500000  1
  Th  Th3  1  0.333333  0.666667  0.000000  1
  Th  Th4  1  0.666667  0.333333  0.000000  1
  P  P5  1  0.814495  0.814495  0.000000  1
  P  P6  1  0.185505  0.000000  0.000000  1
  P  P7  1  0.000000  0.185505  0.000000  1
  P  P8  1  0.174838  0.477173  0.500000  1
  P  P9  1  0.522827  0.697665  0.500000  1
  P  P10  1  0.302335  0.825162  0.500000  1
  P  P11  1  0.697665  0.522827  0.500000  1
  P  P12  1  0.825162  0.302335  0.500000  1
  P  P13  1  0.477173  0.174838  0.500000  1
  P  P14  1  0.372086  0.372086  0.000000  1
  P  P15  1  0.627914  0.000000  0.000000  1
  P  P16  1  0.000000  0.627914  0.000000  1
  Os  Os17  1  0.551874  0.551874  0.000000  1
  Os  Os18  1  0.448126  0.000000  0.000000  1
  Os  Os19  1  0.000000  0.448126  0.000000  1
  Os  Os20  1  0.711042  0.711042  0.500000  1
  Os  Os21  1  0.288958  0.000000  0.500000  1
  Os  Os22  1  0.000000  0.288958  0.500000  1
  Os  Os23  1  0.183722  0.377357  0.000000  1
  Os  Os24  1  0.622643  0.806365  0.000000  1
  Os  Os25  1  0.193635  0.816278  0.000000  1
  Os  Os26  1  0.806365  0.622643  0.000000  1
  Os  Os27  1  0.816278  0.193635  0.000000  1
  Os  Os28  1  0.377357  0.183722  0.000000  1
  Os  Os29  1  0.369489  0.495666  0.500000  1
  Os  Os30  1  0.504334  0.873824  0.500000  1
  Os  Os31  1  0.126176  0.630511  0.500000  1
  Os  Os32  1  0.873824  0.504334  0.500000  1
  Os  Os33  1  0.630511  0.126176  0.500000  1
  Os  Os34  1  0.495666  0.369489  0.500000  1
  Os  Os35  1  0.000000  0.000000  0.000000  1
