# generated using pymatgen
data_Ti4BePRh10
_symmetry_space_group_name_H-M   'P 1'
_cell_length_a   3.95171800
_cell_length_b   5.37102809
_cell_length_c   10.44018304
_cell_angle_alpha   89.98495590
_cell_angle_beta   90.00000000
_cell_angle_gamma   90.00000000
_symmetry_Int_Tables_number   1
_chemical_formula_structural   Ti4BePRh10
_chemical_formula_sum   'Ti4 Be1 P1 Rh10'
_cell_volume   221.59066779
_cell_formula_units_Z   1
loop_
 _symmetry_equiv_pos_site_id
 _symmetry_equiv_pos_as_xyz
  1  'x, y, z'
loop_
 _atom_site_type_symbol
 _atom_site_label
 _atom_site_symmetry_multiplicity
 _atom_site_fract_x
 _atom_site_fract_y
 _atom_site_fract_z
 _atom_site_occupancy
  Ti  Ti0  1  0.500000  0.322790  0.133755  1
  Ti  Ti1  1  0.500000  0.677210  0.866245  1
  Ti  Ti2  1  0.500000  0.837090  0.354071  1
  Ti  Ti3  1  0.500000  0.162910  0.645929  1
  Be  Be4  1  0.000000  0.000000  0.000000  1
  P  P5  1  0.000000  0.500000  0.500000  1
  Rh  Rh6  1  0.000000  0.000000  0.500000  1
  Rh  Rh7  1  0.000000  0.500000  0.000000  1
  Rh  Rh8  1  0.000000  0.081694  0.238666  1
  Rh  Rh9  1  0.000000  0.918306  0.761334  1
  Rh  Rh10  1  0.000000  0.581611  0.261980  1
  Rh  Rh11  1  0.000000  0.418389  0.738020  1
  Rh  Rh12  1  0.500000  0.322849  0.398417  1
  Rh  Rh13  1  0.500000  0.677151  0.601583  1
  Rh  Rh14  1  0.500000  0.820498  0.105206  1
  Rh  Rh15  1  0.500000  0.179502  0.894794  1
