# generated using pymatgen
data_Pa5Nb3Fe9Co7P12
_symmetry_space_group_name_H-M   'P 1'
_cell_length_a   12.14892700
_cell_length_b   12.14892639
_cell_length_c   3.75780800
_cell_angle_alpha   90.00000000
_cell_angle_beta   90.00000000
_cell_angle_gamma   119.99999893
_symmetry_Int_Tables_number   1
_chemical_formula_structural   Pa5Nb3Fe9Co7P12
_chemical_formula_sum   'Pa5 Nb3 Fe9 Co7 P12'
_cell_volume   480.33147557
_cell_formula_units_Z   1
loop_
 _symmetry_equiv_pos_site_id
 _symmetry_equiv_pos_as_xyz
  1  'x, y, z'
loop_
 _atom_site_type_symbol
 _atom_site_label
 _atom_site_symmetry_multiplicity
 _atom_site_fract_x
 _atom_site_fract_y
 _atom_site_fract_z
 _atom_site_occupancy
  Pa  Pa0  1  0.815663  0.000000  0.500000  1
  Pa  Pa1  1  0.000000  0.815663  0.500000  1
  Pa  Pa2  1  0.184337  0.184337  0.500000  1
  Pa  Pa3  1  0.333333  0.666667  0.000000  1
  Pa  Pa4  1  0.666667  0.333333  0.000000  1
  Nb  Nb5  1  0.438603  0.000000  0.000000  1
  Nb  Nb6  1  0.000000  0.438603  0.000000  1
  Nb  Nb7  1  0.561397  0.561397  0.000000  1
  Fe  Fe8  1  0.276483  0.000000  0.500000  1
  Fe  Fe9  1  0.000000  0.276483  0.500000  1
  Fe  Fe10  1  0.723517  0.723517  0.500000  1
  Fe  Fe11  1  0.625752  0.807326  0.000000  1
  Fe  Fe12  1  0.192674  0.818426  0.000000  1
  Fe  Fe13  1  0.181574  0.374248  0.000000  1
  Fe  Fe14  1  0.374248  0.181574  0.000000  1
  Fe  Fe15  1  0.807326  0.625752  0.000000  1
  Fe  Fe16  1  0.818426  0.192674  0.000000  1
  Co  Co17  1  0.511747  0.871311  0.500000  1
  Co  Co18  1  0.128689  0.640435  0.500000  1
  Co  Co19  1  0.359565  0.488253  0.500000  1
  Co  Co20  1  0.488253  0.359565  0.500000  1
  Co  Co21  1  0.871311  0.511747  0.500000  1
  Co  Co22  1  0.640435  0.128689  0.500000  1
  Co  Co23  1  0.000000  0.000000  0.000000  1
  P  P24  1  0.181929  0.000000  0.000000  1
  P  P25  1  0.000000  0.181929  0.000000  1
  P  P26  1  0.818071  0.818071  0.000000  1
  P  P27  1  0.527840  0.694844  0.500000  1
  P  P28  1  0.305156  0.832996  0.500000  1
  P  P29  1  0.167004  0.472160  0.500000  1
  P  P30  1  0.472160  0.167004  0.500000  1
  P  P31  1  0.694844  0.527840  0.500000  1
  P  P32  1  0.832996  0.305156  0.500000  1
  P  P33  1  0.638947  0.000000  0.000000  1
  P  P34  1  0.000000  0.638947  0.000000  1
  P  P35  1  0.361053  0.361053  0.000000  1
