# generated using pymatgen
data_Si4NiPdPt2
_symmetry_space_group_name_H-M   'P 1'
_cell_length_a   3.53160800
_cell_length_b   5.53060315
_cell_length_c   5.95407676
_cell_angle_alpha   89.69192720
_cell_angle_beta   90.00000000
_cell_angle_gamma   90.00000000
_symmetry_Int_Tables_number   1
_chemical_formula_structural   Si4NiPdPt2
_chemical_formula_sum   'Si4 Ni1 Pd1 Pt2'
_cell_volume   116.29288365
_cell_formula_units_Z   1
loop_
 _symmetry_equiv_pos_site_id
 _symmetry_equiv_pos_as_xyz
  1  'x, y, z'
loop_
 _atom_site_type_symbol
 _atom_site_label
 _atom_site_symmetry_multiplicity
 _atom_site_fract_x
 _atom_site_fract_y
 _atom_site_fract_z
 _atom_site_occupancy
  Si  Si0  1  0.250000  0.665636  0.068732  1
  Si  Si1  1  0.750000  0.330389  0.907535  1
  Si  Si2  1  0.250000  0.190414  0.426004  1
  Si  Si3  1  0.750000  0.809484  0.589813  1
  Ni  Ni4  1  0.250000  0.502613  0.696700  1
  Pd  Pd5  1  0.750000  0.001215  0.191694  1
  Pt  Pt6  1  0.750000  0.498548  0.316508  1
  Pt  Pt7  1  0.250000  0.001699  0.803013  1
