# generated using pymatgen
data_Tm7Hf12Si16Pt
_symmetry_space_group_name_H-M   'P 1'
_cell_length_a   7.21986307
_cell_length_b   7.22098635
_cell_length_c   13.10812705
_cell_angle_alpha   89.78161223
_cell_angle_beta   89.73410159
_cell_angle_gamma   90.02209242
_symmetry_Int_Tables_number   1
_chemical_formula_structural   Tm7Hf12Si16Pt
_chemical_formula_sum   'Tm7 Hf12 Si16 Pt1'
_cell_volume   683.37369863
_cell_formula_units_Z   1
loop_
 _symmetry_equiv_pos_site_id
 _symmetry_equiv_pos_as_xyz
  1  'x, y, z'
loop_
 _atom_site_type_symbol
 _atom_site_label
 _atom_site_symmetry_multiplicity
 _atom_site_fract_x
 _atom_site_fract_y
 _atom_site_fract_z
 _atom_site_occupancy
  Tm  Tm0  1  0.496604  0.152744  0.538203  1
  Tm  Tm1  1  0.505388  0.847738  0.034068  1
  Tm  Tm2  1  0.655793  0.006438  0.282908  1
  Tm  Tm3  1  0.348797  0.000307  0.783139  1
  Tm  Tm4  1  0.846629  0.503452  0.961623  1
  Tm  Tm5  1  0.152408  0.494029  0.467345  1
  Tm  Tm6  1  0.000118  0.651613  0.717488  1
  Hf  Hf7  1  0.323396  0.674048  0.249896  1
  Hf  Hf8  1  0.821665  0.822163  0.500964  1
  Hf  Hf9  1  0.175684  0.179370  0.999632  1
  Hf  Hf10  1  0.999669  0.350393  0.212863  1
  Hf  Hf11  1  0.498915  0.356339  0.124387  1
  Hf  Hf12  1  0.502446  0.644406  0.629309  1
  Hf  Hf13  1  0.855899  0.004299  0.875104  1
  Hf  Hf14  1  0.142459  0.996025  0.374108  1
  Hf  Hf15  1  0.644111  0.498532  0.374790  1
  Hf  Hf16  1  0.356092  0.497479  0.871668  1
  Hf  Hf17  1  0.003258  0.855669  0.124470  1
  Hf  Hf18  1  0.995853  0.143675  0.626305  1
  Si  Si19  1  0.799137  0.147653  0.070806  1
  Si  Si20  1  0.204371  0.856670  0.569365  1
  Si  Si21  1  0.635902  0.719155  0.821762  1
  Si  Si22  1  0.353415  0.293590  0.318009  1
  Si  Si23  1  0.857083  0.205772  0.430754  1
  Si  Si24  1  0.142863  0.794526  0.930498  1
  Si  Si25  1  0.712881  0.637078  0.179920  1
  Si  Si26  1  0.282185  0.363360  0.678612  1
  Si  Si27  1  0.557415  0.207603  0.934583  1
  Si  Si28  1  0.450147  0.796518  0.435899  1
  Si  Si29  1  0.707541  0.942376  0.687089  1
  Si  Si30  1  0.296183  0.053357  0.185197  1
  Si  Si31  1  0.792632  0.442621  0.566270  1
  Si  Si32  1  0.200056  0.547821  0.065453  1
  Si  Si33  1  0.950552  0.696611  0.314177  1
  Si  Si34  1  0.058693  0.292368  0.813271  1
  Pt  Pt35  1  0.673762  0.324206  0.750063  1
