# generated using pymatgen
data_NdYTm2(Si3Rh)2
_symmetry_space_group_name_H-M   'P 1'
_cell_length_a   8.18374576
_cell_length_b   8.18374645
_cell_length_c   7.98027500
_cell_angle_alpha   90.00000000
_cell_angle_beta   90.00000000
_cell_angle_gamma   119.95048306
_symmetry_Int_Tables_number   1
_chemical_formula_structural   NdYTm2(Si3Rh)2
_chemical_formula_sum   'Nd2 Y2 Tm4 Si12 Rh4'
_cell_volume   463.09411901
_cell_formula_units_Z   2
loop_
 _symmetry_equiv_pos_site_id
 _symmetry_equiv_pos_as_xyz
  1  'x, y, z'
loop_
 _atom_site_type_symbol
 _atom_site_label
 _atom_site_symmetry_multiplicity
 _atom_site_fract_x
 _atom_site_fract_y
 _atom_site_fract_z
 _atom_site_occupancy
  Nd  Nd0  1  0.999935  0.000065  0.250000  1
  Nd  Nd1  1  0.999924  0.000076  0.750000  1
  Y  Y2  1  0.491421  0.982455  0.750000  1
  Y  Y3  1  0.017545  0.508579  0.750000  1
  Tm  Tm4  1  0.508665  0.491335  0.250000  1
  Tm  Tm5  1  0.508620  0.017266  0.250000  1
  Tm  Tm6  1  0.982734  0.491380  0.250000  1
  Tm  Tm7  1  0.492215  0.507785  0.750000  1
  Si  Si8  1  0.168635  0.831365  0.499441  1
  Si  Si9  1  0.168894  0.337241  0.500661  1
  Si  Si10  1  0.662759  0.831106  0.500661  1
  Si  Si11  1  0.831414  0.168586  0.496820  1
  Si  Si12  1  0.831589  0.663439  0.497201  1
  Si  Si13  1  0.336561  0.168411  0.497201  1
  Si  Si14  1  0.831414  0.168586  0.003180  1
  Si  Si15  1  0.831589  0.663439  0.002799  1
  Si  Si16  1  0.336561  0.168411  0.002799  1
  Si  Si17  1  0.168635  0.831365  0.000559  1
  Si  Si18  1  0.168894  0.337241  0.999339  1
  Si  Si19  1  0.662759  0.831106  0.999339  1
  Rh  Rh20  1  0.333669  0.666331  0.460614  1
  Rh  Rh21  1  0.665950  0.334050  0.530867  1
  Rh  Rh22  1  0.665950  0.334050  0.969133  1
  Rh  Rh23  1  0.333669  0.666331  0.039386  1
