# generated using pymatgen
data_Tb12Er8CoBi8Ir3
_symmetry_space_group_name_H-M   'P 1'
_cell_length_a   7.97574920
_cell_length_b   8.98261900
_cell_length_c   12.53800166
_cell_angle_alpha   90.00000000
_cell_angle_beta   90.22385349
_cell_angle_gamma   90.00000000
_symmetry_Int_Tables_number   1
_chemical_formula_structural   Tb12Er8CoBi8Ir3
_chemical_formula_sum   'Tb12 Er8 Co1 Bi8 Ir3'
_cell_volume   898.25465550
_cell_formula_units_Z   1
loop_
 _symmetry_equiv_pos_site_id
 _symmetry_equiv_pos_as_xyz
  1  'x, y, z'
loop_
 _atom_site_type_symbol
 _atom_site_label
 _atom_site_symmetry_multiplicity
 _atom_site_fract_x
 _atom_site_fract_y
 _atom_site_fract_z
 _atom_site_occupancy
  Tb  Tb0  1  0.656798  0.750000  0.700335  1
  Tb  Tb1  1  0.339441  0.250000  0.292565  1
  Tb  Tb2  1  0.160201  0.250000  0.792702  1
  Tb  Tb3  1  0.840005  0.750000  0.207131  1
  Tb  Tb4  1  0.123704  0.750000  0.807727  1
  Tb  Tb5  1  0.874628  0.250000  0.191780  1
  Tb  Tb6  1  0.624899  0.250000  0.691808  1
  Tb  Tb7  1  0.379915  0.750000  0.313986  1
  Tb  Tb8  1  0.555438  0.750000  0.997255  1
  Tb  Tb9  1  0.447734  0.250000  0.001396  1
  Tb  Tb10  1  0.054366  0.250000  0.501617  1
  Tb  Tb11  1  0.947547  0.750000  0.498318  1
  Er  Er12  1  0.826585  0.457644  0.933334  1
  Er  Er13  1  0.174648  0.541842  0.066568  1
  Er  Er14  1  0.326168  0.543513  0.565382  1
  Er  Er15  1  0.174648  0.958158  0.066568  1
  Er  Er16  1  0.671791  0.464291  0.436086  1
  Er  Er17  1  0.826585  0.042356  0.933334  1
  Er  Er18  1  0.671791  0.035709  0.436086  1
  Er  Er19  1  0.326168  0.956487  0.565382  1
  Co  Co20  1  0.566721  0.750000  0.492357  1
  Bi  Bi21  1  0.932548  0.008575  0.672241  1
  Bi  Bi22  1  0.066403  0.990930  0.327531  1
  Bi  Bi23  1  0.433992  0.990610  0.826340  1
  Bi  Bi24  1  0.066403  0.509070  0.327531  1
  Bi  Bi25  1  0.565639  0.007859  0.173728  1
  Bi  Bi26  1  0.932548  0.491425  0.672241  1
  Bi  Bi27  1  0.565639  0.492141  0.173728  1
  Bi  Bi28  1  0.433992  0.509390  0.826340  1
  Ir  Ir29  1  0.930572  0.750000  0.991951  1
  Ir  Ir30  1  0.071256  0.250000  0.008725  1
  Ir  Ir31  1  0.431226  0.250000  0.507923  1
