# generated using pymatgen
data_Y15HoInAg3Rh4
_symmetry_space_group_name_H-M   'P 1'
_cell_length_a   9.63287434
_cell_length_b   9.59828085
_cell_length_c   9.63287526
_cell_angle_alpha   59.73529364
_cell_angle_beta   59.82602425
_cell_angle_gamma   59.73529067
_symmetry_Int_Tables_number   1
_chemical_formula_structural   Y15HoInAg3Rh4
_chemical_formula_sum   'Y15 Ho1 In1 Ag3 Rh4'
_cell_volume   626.42825796
_cell_formula_units_Z   1
loop_
 _symmetry_equiv_pos_site_id
 _symmetry_equiv_pos_as_xyz
  1  'x, y, z'
loop_
 _atom_site_type_symbol
 _atom_site_label
 _atom_site_symmetry_multiplicity
 _atom_site_fract_x
 _atom_site_fract_y
 _atom_site_fract_z
 _atom_site_occupancy
  Y  Y0  1  0.188010  0.182049  0.814530  1
  Y  Y1  1  0.601893  0.600832  0.196545  1
  Y  Y2  1  0.438168  0.061268  0.438168  1
  Y  Y3  1  0.441414  0.438791  0.059124  1
  Y  Y4  1  0.814229  0.182656  0.814229  1
  Y  Y5  1  0.186839  0.812072  0.186839  1
  Y  Y6  1  0.436748  0.062169  0.060820  1
  Y  Y7  1  0.188576  0.811147  0.813891  1
  Y  Y8  1  0.059338  0.439420  0.059338  1
  Y  Y9  1  0.813891  0.811147  0.188576  1
  Y  Y10  1  0.196545  0.600832  0.601893  1
  Y  Y11  1  0.059124  0.438791  0.441414  1
  Y  Y12  1  0.060820  0.062169  0.436748  1
  Y  Y13  1  0.814530  0.182049  0.188010  1
  Y  Y14  1  0.602216  0.195090  0.602216  1
  Ho  Ho15  1  0.600882  0.600526  0.600882  1
  In  In16  1  0.828844  0.512691  0.828844  1
  Ag  Ag17  1  0.831813  0.833971  0.831813  1
  Ag  Ag18  1  0.832160  0.834040  0.501989  1
  Ag  Ag19  1  0.501989  0.834040  0.832160  1
  Rh  Rh20  1  0.394389  0.820850  0.394389  1
  Rh  Rh21  1  0.392185  0.392397  0.392185  1
  Rh  Rh22  1  0.820808  0.395503  0.394589  1
  Rh  Rh23  1  0.394589  0.395503  0.820808  1
