# generated using pymatgen
data_Lu4Al3(Ga5Ir2)3
_symmetry_space_group_name_H-M   'P 1'
_cell_length_a   7.55044032
_cell_length_b   7.55044079
_cell_length_c   9.43150206
_cell_angle_alpha   89.97276431
_cell_angle_beta   89.97276587
_cell_angle_gamma   119.91025776
_symmetry_Int_Tables_number   1
_chemical_formula_structural   Lu4Al3(Ga5Ir2)3
_chemical_formula_sum   'Lu4 Al3 Ga15 Ir6'
_cell_volume   466.06652239
_cell_formula_units_Z   1
loop_
 _symmetry_equiv_pos_site_id
 _symmetry_equiv_pos_as_xyz
  1  'x, y, z'
loop_
 _atom_site_type_symbol
 _atom_site_label
 _atom_site_symmetry_multiplicity
 _atom_site_fract_x
 _atom_site_fract_y
 _atom_site_fract_z
 _atom_site_occupancy
  Lu  Lu0  1  0.000240  0.671360  0.250678  1
  Lu  Lu1  1  0.998698  0.330389  0.749513  1
  Lu  Lu2  1  0.671360  0.000240  0.250678  1
  Lu  Lu3  1  0.330389  0.998698  0.749513  1
  Al  Al4  1  0.663623  0.663623  0.448282  1
  Al  Al5  1  0.668748  0.668748  0.052020  1
  Al  Al6  1  0.330866  0.330866  0.944658  1
  Ga  Ga7  1  0.126960  0.126960  0.248701  1
  Ga  Ga8  1  0.875053  0.875053  0.748717  1
  Ga  Ga9  1  0.999254  0.335842  0.081629  1
  Ga  Ga10  1  0.001894  0.665398  0.918373  1
  Ga  Ga11  1  0.000782  0.664881  0.581963  1
  Ga  Ga12  1  0.336061  0.000993  0.416934  1
  Ga  Ga13  1  0.000993  0.336061  0.416934  1
  Ga  Ga14  1  0.664881  0.000782  0.581963  1
  Ga  Ga15  1  0.665398  0.001894  0.918373  1
  Ga  Ga16  1  0.335842  0.999254  0.081629  1
  Ga  Ga17  1  0.326117  0.326117  0.569715  1
  Ga  Ga18  1  0.349491  0.552304  0.249619  1
  Ga  Ga19  1  0.655044  0.449425  0.749770  1
  Ga  Ga20  1  0.552304  0.349491  0.249619  1
  Ga  Ga21  1  0.449425  0.655044  0.749770  1
  Ir  Ir22  1  0.669755  0.330147  0.999285  1
  Ir  Ir23  1  0.330147  0.669755  0.999285  1
  Ir  Ir24  1  0.329794  0.672631  0.498838  1
  Ir  Ir25  1  0.672631  0.329794  0.498838  1
  Ir  Ir26  1  0.000030  0.000030  0.998835  1
  Ir  Ir27  1  0.994219  0.994219  0.495867  1
