# generated using pymatgen
data_Dy14Ho5TmSn16
_symmetry_space_group_name_H-M   'P 1'
_cell_length_a   8.02171100
_cell_length_b   8.15947280
_cell_length_c   15.45150100
_cell_angle_alpha   90.00697986
_cell_angle_beta   90.00131424
_cell_angle_gamma   89.95305780
_symmetry_Int_Tables_number   1
_chemical_formula_structural   Dy14Ho5TmSn16
_chemical_formula_sum   'Dy14 Ho5 Tm1 Sn16'
_cell_volume   1011.34570823
_cell_formula_units_Z   1
loop_
 _symmetry_equiv_pos_site_id
 _symmetry_equiv_pos_as_xyz
  1  'x, y, z'
loop_
 _atom_site_type_symbol
 _atom_site_label
 _atom_site_symmetry_multiplicity
 _atom_site_fract_x
 _atom_site_fract_y
 _atom_site_fract_z
 _atom_site_occupancy
  Dy  Dy0  1  0.632059  0.162928  0.377902  1
  Dy  Dy1  1  0.132138  0.337145  0.121627  1
  Dy  Dy2  1  0.632071  0.163000  0.122200  1
  Dy  Dy3  1  0.132141  0.337129  0.378329  1
  Dy  Dy4  1  0.367742  0.837089  0.622397  1
  Dy  Dy5  1  0.867980  0.662688  0.877698  1
  Dy  Dy6  1  0.520785  0.321009  0.902489  1
  Dy  Dy7  1  0.021089  0.179519  0.597551  1
  Dy  Dy8  1  0.479297  0.679315  0.402893  1
  Dy  Dy9  1  0.979290  0.820632  0.097434  1
  Dy  Dy10  1  0.479303  0.679306  0.097047  1
  Dy  Dy11  1  0.979276  0.820638  0.402669  1
  Dy  Dy12  1  0.520826  0.321077  0.597520  1
  Dy  Dy13  1  0.021113  0.179424  0.902399  1
  Ho  Ho14  1  0.367579  0.837104  0.877517  1
  Ho  Ho15  1  0.867911  0.662629  0.622341  1
  Ho  Ho16  1  0.698795  0.997169  0.749955  1
  Ho  Ho17  1  0.800908  0.496822  0.250046  1
  Ho  Ho18  1  0.300892  0.002947  0.250014  1
  Tm  Tm19  1  0.198941  0.503518  0.749944  1
  Sn  Sn20  1  0.292654  0.035969  0.041457  1
  Sn  Sn21  1  0.792603  0.463663  0.458527  1
  Sn  Sn22  1  0.707885  0.963405  0.541973  1
  Sn  Sn23  1  0.207893  0.536350  0.957357  1
  Sn  Sn24  1  0.707287  0.963720  0.958057  1
  Sn  Sn25  1  0.207261  0.536063  0.542661  1
  Sn  Sn26  1  0.292598  0.036210  0.458315  1
  Sn  Sn27  1  0.792451  0.463480  0.041711  1
  Sn  Sn28  1  0.564432  0.617876  0.749956  1
  Sn  Sn29  1  0.065335  0.880930  0.749949  1
  Sn  Sn30  1  0.434186  0.381413  0.250028  1
  Sn  Sn31  1  0.934781  0.118634  0.250027  1
  Sn  Sn32  1  0.329792  0.149318  0.750048  1
  Sn  Sn33  1  0.830716  0.352383  0.749875  1
  Sn  Sn34  1  0.669819  0.851773  0.250036  1
  Sn  Sn35  1  0.170169  0.647731  0.250054  1
