# generated using pymatgen
data_Mg6CrReN8
_symmetry_space_group_name_H-M   'P 1'
_cell_length_a   6.70727200
_cell_length_b   5.79893605
_cell_length_c   5.27986705
_cell_angle_alpha   90.01587032
_cell_angle_beta   89.99874061
_cell_angle_gamma   90.00233761
_symmetry_Int_Tables_number   1
_chemical_formula_structural   Mg6CrReN8
_chemical_formula_sum   'Mg6 Cr1 Re1 N8'
_cell_volume   205.36063972
_cell_formula_units_Z   1
loop_
 _symmetry_equiv_pos_site_id
 _symmetry_equiv_pos_as_xyz
  1  'x, y, z'
loop_
 _atom_site_type_symbol
 _atom_site_label
 _atom_site_symmetry_multiplicity
 _atom_site_fract_x
 _atom_site_fract_y
 _atom_site_fract_z
 _atom_site_occupancy
  Mg  Mg0  1  0.241772  0.174093  0.852012  1
  Mg  Mg1  1  0.758179  0.174088  0.851988  1
  Mg  Mg2  1  0.237227  0.834622  0.360187  1
  Mg  Mg3  1  0.762829  0.834565  0.360238  1
  Mg  Mg4  1  0.000132  0.646305  0.854808  1
  Mg  Mg5  1  0.499914  0.332210  0.359506  1
  Cr  Cr6  1  0.999928  0.328747  0.350186  1
  Re  Re7  1  0.500061  0.672260  0.846382  1
  N  N8  1  0.000030  0.624881  0.456729  1
  N  N9  1  0.499980  0.369709  0.950873  1
  N  N10  1  0.999954  0.324947  0.013641  1
  N  N11  1  0.500026  0.677714  0.499722  1
  N  N12  1  0.774807  0.181704  0.455475  1
  N  N13  1  0.225030  0.181741  0.455490  1
  N  N14  1  0.727141  0.821159  0.955979  1
  N  N15  1  0.272990  0.821256  0.956025  1
