# generated using pymatgen
data_Dy7TmSc11Si16Os
_symmetry_space_group_name_H-M   'P 1'
_cell_length_a   7.00240040
_cell_length_b   7.34721420
_cell_length_c   13.85847266
_cell_angle_alpha   89.96543922
_cell_angle_beta   90.00769234
_cell_angle_gamma   90.10812408
_symmetry_Int_Tables_number   1
_chemical_formula_structural   Dy7TmSc11Si16Os
_chemical_formula_sum   'Dy7 Tm1 Sc11 Si16 Os1'
_cell_volume   712.99117661
_cell_formula_units_Z   1
loop_
 _symmetry_equiv_pos_site_id
 _symmetry_equiv_pos_as_xyz
  1  'x, y, z'
loop_
 _atom_site_type_symbol
 _atom_site_label
 _atom_site_symmetry_multiplicity
 _atom_site_fract_x
 _atom_site_fract_y
 _atom_site_fract_z
 _atom_site_occupancy
  Dy  Dy0  1  0.011954  0.178098  0.092496  1
  Dy  Dy1  1  0.993579  0.819325  0.900472  1
  Dy  Dy2  1  0.490216  0.672554  0.902895  1
  Dy  Dy3  1  0.993578  0.819225  0.599107  1
  Dy  Dy4  1  0.511418  0.323877  0.094263  1
  Dy  Dy5  1  0.012068  0.178057  0.407797  1
  Dy  Dy6  1  0.511320  0.323764  0.406161  1
  Tm  Tm7  1  0.490121  0.672987  0.597766  1
  Sc  Sc8  1  0.842588  0.496775  0.250096  1
  Sc  Sc9  1  0.342285  0.003491  0.250084  1
  Sc  Sc10  1  0.656650  0.994763  0.749789  1
  Sc  Sc11  1  0.325419  0.175833  0.627712  1
  Sc  Sc12  1  0.672247  0.824338  0.374415  1
  Sc  Sc13  1  0.172417  0.673541  0.377160  1
  Sc  Sc14  1  0.672273  0.824748  0.125841  1
  Sc  Sc15  1  0.824303  0.332522  0.628504  1
  Sc  Sc16  1  0.325181  0.175761  0.871930  1
  Sc  Sc17  1  0.824730  0.332184  0.870931  1
  Sc  Sc18  1  0.172465  0.673645  0.123008  1
  Si  Si19  1  0.027009  0.118359  0.749704  1
  Si  Si20  1  0.973299  0.886089  0.250085  1
  Si  Si21  1  0.469265  0.615312  0.250133  1
  Si  Si22  1  0.512822  0.396376  0.749534  1
  Si  Si23  1  0.287197  0.857740  0.749473  1
  Si  Si24  1  0.717009  0.129424  0.250090  1
  Si  Si25  1  0.215457  0.371362  0.250096  1
  Si  Si26  1  0.794670  0.630834  0.749525  1
  Si  Si27  1  0.158140  0.466529  0.550046  1
  Si  Si28  1  0.842735  0.536559  0.464017  1
  Si  Si29  1  0.346022  0.963235  0.463507  1
  Si  Si30  1  0.843072  0.536529  0.036133  1
  Si  Si31  1  0.658047  0.033522  0.540246  1
  Si  Si32  1  0.156284  0.465441  0.950306  1
  Si  Si33  1  0.658518  0.034923  0.960072  1
  Si  Si34  1  0.345818  0.964511  0.036916  1
  Os  Os35  1  0.149820  0.497773  0.749689  1
