# generated using pymatgen
data_Th5Ti3(Fe4P3)4
_symmetry_space_group_name_H-M   'P 1'
_cell_length_a   12.25468400
_cell_length_b   12.25468380
_cell_length_c   3.80644900
_cell_angle_alpha   90.00000000
_cell_angle_beta   90.00000000
_cell_angle_gamma   119.99999515
_symmetry_Int_Tables_number   1
_chemical_formula_structural   Th5Ti3(Fe4P3)4
_chemical_formula_sum   'Th5 Ti3 Fe16 P12'
_cell_volume   495.05664577
_cell_formula_units_Z   1
loop_
 _symmetry_equiv_pos_site_id
 _symmetry_equiv_pos_as_xyz
  1  'x, y, z'
loop_
 _atom_site_type_symbol
 _atom_site_label
 _atom_site_symmetry_multiplicity
 _atom_site_fract_x
 _atom_site_fract_y
 _atom_site_fract_z
 _atom_site_occupancy
  Th  Th0  1  0.666667  0.333333  0.000000  1
  Th  Th1  1  0.333333  0.666667  0.000000  1
  Th  Th2  1  0.819045  0.819045  0.500000  1
  Th  Th3  1  0.180955  0.000000  0.500000  1
  Th  Th4  1  0.000000  0.180955  0.500000  1
  Ti  Ti5  1  0.433017  0.433017  0.000000  1
  Ti  Ti6  1  0.566983  0.000000  0.000000  1
  Ti  Ti7  1  0.000000  0.566983  0.000000  1
  Fe  Fe8  1  0.197509  0.381567  0.000000  1
  Fe  Fe9  1  0.184057  0.802491  0.000000  1
  Fe  Fe10  1  0.815943  0.618433  0.000000  1
  Fe  Fe11  1  0.802491  0.184057  0.000000  1
  Fe  Fe12  1  0.381567  0.197509  0.000000  1
  Fe  Fe13  1  0.119309  0.478354  0.500000  1
  Fe  Fe14  1  0.359047  0.880691  0.500000  1
  Fe  Fe15  1  0.521646  0.640953  0.500000  1
  Fe  Fe16  1  0.640953  0.521646  0.500000  1
  Fe  Fe17  1  0.880691  0.359047  0.500000  1
  Fe  Fe18  1  0.478354  0.119309  0.500000  1
  Fe  Fe19  1  0.000000  0.000000  0.000000  1
  Fe  Fe20  1  0.717536  0.000000  0.500000  1
  Fe  Fe21  1  0.000000  0.717536  0.500000  1
  Fe  Fe22  1  0.618433  0.815943  0.000000  1
  Fe  Fe23  1  0.282464  0.282464  0.500000  1
  P  P24  1  0.637333  0.637333  0.000000  1
  P  P25  1  0.362667  0.000000  0.000000  1
  P  P26  1  0.000000  0.362667  0.000000  1
  P  P27  1  0.473802  0.308912  0.500000  1
  P  P28  1  0.691088  0.164889  0.500000  1
  P  P29  1  0.835111  0.526198  0.500000  1
  P  P30  1  0.526198  0.835111  0.500000  1
  P  P31  1  0.164889  0.691088  0.500000  1
  P  P32  1  0.811703  0.000000  0.000000  1
  P  P33  1  0.000000  0.811703  0.000000  1
  P  P34  1  0.308912  0.473802  0.500000  1
  P  P35  1  0.188297  0.188297  0.000000  1
