# generated using pymatgen
data_Sc4AlRh
_symmetry_space_group_name_H-M   'P 1'
_cell_length_a   8.93184993
_cell_length_b   8.93185000
_cell_length_c   8.93197100
_cell_angle_alpha   60.00169505
_cell_angle_beta   60.00170702
_cell_angle_gamma   60.00161998
_symmetry_Int_Tables_number   1
_chemical_formula_structural   Sc4AlRh
_chemical_formula_sum   'Sc16 Al4 Rh4'
_cell_volume   503.88522965
_cell_formula_units_Z   4
loop_
 _symmetry_equiv_pos_site_id
 _symmetry_equiv_pos_as_xyz
  1  'x, y, z'
loop_
 _atom_site_type_symbol
 _atom_site_label
 _atom_site_symmetry_multiplicity
 _atom_site_fract_x
 _atom_site_fract_y
 _atom_site_fract_z
 _atom_site_occupancy
  Sc  Sc0  1  0.355359  0.355374  0.355367  1
  Sc  Sc1  1  0.355349  0.355348  0.933908  1
  Sc  Sc2  1  0.355348  0.933906  0.355348  1
  Sc  Sc3  1  0.933920  0.355347  0.355345  1
  Sc  Sc4  1  0.804801  0.195207  0.195216  1
  Sc  Sc5  1  0.195184  0.804783  0.804790  1
  Sc  Sc6  1  0.195203  0.804825  0.195228  1
  Sc  Sc7  1  0.804755  0.195186  0.804821  1
  Sc  Sc8  1  0.195204  0.195223  0.804830  1
  Sc  Sc9  1  0.804758  0.804817  0.195196  1
  Sc  Sc10  1  0.936855  0.563163  0.563159  1
  Sc  Sc11  1  0.563137  0.936871  0.936869  1
  Sc  Sc12  1  0.563148  0.936868  0.563136  1
  Sc  Sc13  1  0.936853  0.563154  0.936842  1
  Sc  Sc14  1  0.563144  0.563131  0.936873  1
  Sc  Sc15  1  0.936848  0.936841  0.563158  1
  Al  Al16  1  0.580998  0.580955  0.580963  1
  Al  Al17  1  0.581008  0.580963  0.257066  1
  Al  Al18  1  0.581003  0.257075  0.580966  1
  Al  Al19  1  0.257024  0.580991  0.580998  1
  Rh  Rh20  1  0.143448  0.143403  0.143395  1
  Rh  Rh21  1  0.143463  0.143400  0.569718  1
  Rh  Rh22  1  0.143436  0.569769  0.143388  1
  Rh  Rh23  1  0.569754  0.143403  0.143421  1
