# generated using pymatgen
data_Ac2Y(SnIr)3
_symmetry_space_group_name_H-M   'P 1'
_cell_length_a   7.61584000
_cell_length_b   7.65021256
_cell_length_c   4.27849200
_cell_angle_alpha   90.00000000
_cell_angle_beta   90.00000000
_cell_angle_gamma   120.14941022
_symmetry_Int_Tables_number   1
_chemical_formula_structural   Ac2Y(SnIr)3
_chemical_formula_sum   'Ac2 Y1 Sn3 Ir3'
_cell_volume   215.55437584
_cell_formula_units_Z   1
loop_
 _symmetry_equiv_pos_site_id
 _symmetry_equiv_pos_as_xyz
  1  'x, y, z'
loop_
 _atom_site_type_symbol
 _atom_site_label
 _atom_site_symmetry_multiplicity
 _atom_site_fract_x
 _atom_site_fract_y
 _atom_site_fract_z
 _atom_site_occupancy
  Ac  Ac0  1  0.415136  0.416894  0.500000  1
  Ac  Ac1  1  0.584864  0.001759  0.500000  1
  Y  Y2  1  0.000000  0.594377  0.500000  1
  Sn  Sn3  1  0.759714  0.751948  0.000000  1
  Sn  Sn4  1  0.240286  0.992234  0.000000  1
  Sn  Sn5  1  0.000000  0.250575  0.000000  1
  Ir  Ir6  1  0.690141  0.348442  0.000000  1
  Ir  Ir7  1  0.309859  0.658302  0.000000  1
  Ir  Ir8  1  0.000000  0.985469  0.500000  1
