# generated using pymatgen
data_Tb2TmGa5
_symmetry_space_group_name_H-M   'P 1'
_cell_length_a   6.09906400
_cell_length_b   9.62983500
_cell_length_c   11.54522600
_cell_angle_alpha   90.00000000
_cell_angle_beta   90.00000000
_cell_angle_gamma   90.00000000
_symmetry_Int_Tables_number   1
_chemical_formula_structural   Tb2TmGa5
_chemical_formula_sum   'Tb8 Tm4 Ga20'
_cell_volume   678.08552746
_cell_formula_units_Z   4
loop_
 _symmetry_equiv_pos_site_id
 _symmetry_equiv_pos_as_xyz
  1  'x, y, z'
loop_
 _atom_site_type_symbol
 _atom_site_label
 _atom_site_symmetry_multiplicity
 _atom_site_fract_x
 _atom_site_fract_y
 _atom_site_fract_z
 _atom_site_occupancy
  Tb  Tb0  1  0.891111  0.509730  0.351317  1
  Tb  Tb1  1  0.608889  0.990270  0.851317  1
  Tb  Tb2  1  0.108889  0.009730  0.648683  1
  Tb  Tb3  1  0.391111  0.490270  0.148683  1
  Tb  Tb4  1  0.108889  0.490270  0.648683  1
  Tb  Tb5  1  0.391111  0.009730  0.148683  1
  Tb  Tb6  1  0.891111  0.990270  0.351317  1
  Tb  Tb7  1  0.608889  0.509730  0.851317  1
  Tm  Tm8  1  0.848876  0.750000  0.074899  1
  Tm  Tm9  1  0.651124  0.750000  0.574899  1
  Tm  Tm10  1  0.151124  0.250000  0.925101  1
  Tm  Tm11  1  0.348876  0.250000  0.425101  1
  Ga  Ga12  1  0.875849  0.053225  0.089879  1
  Ga  Ga13  1  0.624151  0.446775  0.589879  1
  Ga  Ga14  1  0.124151  0.553225  0.910121  1
  Ga  Ga15  1  0.375849  0.946775  0.410121  1
  Ga  Ga16  1  0.124151  0.946775  0.910121  1
  Ga  Ga17  1  0.375849  0.553225  0.410121  1
  Ga  Ga18  1  0.875849  0.446775  0.089879  1
  Ga  Ga19  1  0.624151  0.053225  0.589879  1
  Ga  Ga20  1  0.171728  0.750000  0.251657  1
  Ga  Ga21  1  0.328272  0.750000  0.751657  1
  Ga  Ga22  1  0.828272  0.250000  0.748343  1
  Ga  Ga23  1  0.671728  0.250000  0.248343  1
  Ga  Ga24  1  0.373057  0.750000  0.004124  1
  Ga  Ga25  1  0.126943  0.750000  0.504124  1
  Ga  Ga26  1  0.626943  0.250000  0.995876  1
  Ga  Ga27  1  0.873057  0.250000  0.495876  1
  Ga  Ga28  1  0.600729  0.750000  0.298980  1
  Ga  Ga29  1  0.899271  0.750000  0.798980  1
  Ga  Ga30  1  0.399271  0.250000  0.701020  1
  Ga  Ga31  1  0.100729  0.250000  0.201020  1
