# generated using pymatgen
data_Ca14SiSb11
_symmetry_space_group_name_H-M   'P 1'
_cell_length_a   16.27774188
_cell_length_b   16.27774221
_cell_length_c   16.27774200
_cell_angle_alpha   117.77639621
_cell_angle_beta   117.77639683
_cell_angle_gamma   93.89657149
_symmetry_Int_Tables_number   1
_chemical_formula_structural   Ca14SiSb11
_chemical_formula_sum   'Ca56 Si4 Sb44'
_cell_volume   3144.40874257
_cell_formula_units_Z   4
loop_
 _symmetry_equiv_pos_site_id
 _symmetry_equiv_pos_as_xyz
  1  'x, y, z'
loop_
 _atom_site_type_symbol
 _atom_site_label
 _atom_site_symmetry_multiplicity
 _atom_site_fract_x
 _atom_site_fract_y
 _atom_site_fract_z
 _atom_site_occupancy
  Ca  Ca0  1  0.746265  0.528488  0.867408  1
  Ca  Ca1  1  0.246265  0.378857  0.217776  1
  Ca  Ca2  1  0.778488  0.496265  0.367408  1
  Ca  Ca3  1  0.278488  0.911081  0.282224  1
  Ca  Ca4  1  0.003735  0.721512  0.632592  1
  Ca  Ca5  1  0.503735  0.871143  0.282224  1
  Ca  Ca6  1  0.971512  0.753735  0.132592  1
  Ca  Ca7  1  0.471512  0.338919  0.217776  1
  Ca  Ca8  1  0.161081  0.028488  0.782224  1
  Ca  Ca9  1  0.661081  0.878857  0.132592  1
  Ca  Ca10  1  0.628857  0.996265  0.717776  1
  Ca  Ca11  1  0.128857  0.411081  0.632592  1
  Ca  Ca12  1  0.588919  0.221512  0.717776  1
  Ca  Ca13  1  0.088919  0.371143  0.367408  1
  Ca  Ca14  1  0.121143  0.253735  0.782224  1
  Ca  Ca15  1  0.621143  0.838919  0.867408  1
  Ca  Ca16  1  0.893770  0.998531  0.150403  1
  Ca  Ca17  1  0.393770  0.243367  0.895238  1
  Ca  Ca18  1  0.248531  0.643770  0.650403  1
  Ca  Ca19  1  0.748531  0.098128  0.604762  1
  Ca  Ca20  1  0.856230  0.251469  0.349597  1
  Ca  Ca21  1  0.356230  0.006633  0.604762  1
  Ca  Ca22  1  0.501469  0.606230  0.849597  1
  Ca  Ca23  1  0.001469  0.151872  0.895238  1
  Ca  Ca24  1  0.348128  0.498531  0.104762  1
  Ca  Ca25  1  0.848128  0.743367  0.849597  1
  Ca  Ca26  1  0.493367  0.143770  0.395238  1
  Ca  Ca27  1  0.993367  0.598128  0.349597  1
  Ca  Ca28  1  0.401872  0.751469  0.395238  1
  Ca  Ca29  1  0.901872  0.506633  0.650403  1
  Ca  Ca30  1  0.256633  0.106230  0.104762  1
  Ca  Ca31  1  0.756633  0.651872  0.150403  1
  Ca  Ca32  1  0.978004  0.375000  0.103004  1
  Ca  Ca33  1  0.478004  0.375000  0.603004  1
  Ca  Ca34  1  0.625000  0.728004  0.603004  1
  Ca  Ca35  1  0.125000  0.521996  0.896996  1
  Ca  Ca36  1  0.771996  0.875000  0.396996  1
  Ca  Ca37  1  0.271996  0.875000  0.896996  1
  Ca  Ca38  1  0.625000  0.228004  0.103004  1
  Ca  Ca39  1  0.125000  0.021996  0.396996  1
  Ca  Ca40  1  0.122545  0.602493  0.160186  1
  Ca  Ca41  1  0.622545  0.462358  0.520053  1
  Ca  Ca42  1  0.852493  0.872545  0.660186  1
  Ca  Ca43  1  0.352493  0.692306  0.979947  1
  Ca  Ca44  1  0.627455  0.647507  0.339814  1
  Ca  Ca45  1  0.127455  0.787642  0.979947  1
  Ca  Ca46  1  0.897507  0.377455  0.839814  1
  Ca  Ca47  1  0.397507  0.557694  0.520053  1
  Ca  Ca48  1  0.942306  0.102493  0.479947  1
  Ca  Ca49  1  0.442306  0.962358  0.839814  1
  Ca  Ca50  1  0.712358  0.372545  0.020053  1
  Ca  Ca51  1  0.212358  0.192306  0.339814  1
  Ca  Ca52  1  0.807694  0.147507  0.020053  1
  Ca  Ca53  1  0.307694  0.287642  0.660186  1
  Ca  Ca54  1  0.037642  0.877455  0.479947  1
  Ca  Ca55  1  0.537642  0.057694  0.160186  1
  Si  Si56  1  0.500000  0.500000  0.000000  1
  Si  Si57  1  0.000000  0.000000  0.000000  1
  Si  Si58  1  0.750000  0.250000  0.500000  1
  Si  Si59  1  0.250000  0.750000  0.500000  1
  Sb  Sb60  1  0.885374  0.885374  0.270747  1
  Sb  Sb61  1  0.385374  0.114626  0.000000  1
  Sb  Sb62  1  0.135374  0.635374  0.770747  1
  Sb  Sb63  1  0.635374  0.864626  0.500000  1
  Sb  Sb64  1  0.864626  0.364626  0.229253  1
  Sb  Sb65  1  0.364626  0.135374  0.500000  1
  Sb  Sb66  1  0.614626  0.614626  0.729253  1
  Sb  Sb67  1  0.114626  0.385374  0.000000  1
  Sb  Sb68  1  0.175085  0.818975  0.366488  1
  Sb  Sb69  1  0.675085  0.308596  0.356109  1
  Sb  Sb70  1  0.068975  0.925085  0.866488  1
  Sb  Sb71  1  0.568975  0.702487  0.143891  1
  Sb  Sb72  1  0.574915  0.431025  0.133512  1
  Sb  Sb73  1  0.074915  0.941404  0.143891  1
  Sb  Sb74  1  0.681025  0.324915  0.633512  1
  Sb  Sb75  1  0.181025  0.547513  0.356109  1
  Sb  Sb76  1  0.952487  0.318975  0.643891  1
  Sb  Sb77  1  0.452487  0.808596  0.633512  1
  Sb  Sb78  1  0.558596  0.425085  0.856109  1
  Sb  Sb79  1  0.058596  0.202487  0.133512  1
  Sb  Sb80  1  0.797513  0.931025  0.856109  1
  Sb  Sb81  1  0.297513  0.441404  0.866488  1
  Sb  Sb82  1  0.191404  0.824915  0.643891  1
  Sb  Sb83  1  0.691404  0.047513  0.366488  1
  Sb  Sb84  1  0.958018  0.604462  0.906551  1
  Sb  Sb85  1  0.458018  0.551467  0.353555  1
  Sb  Sb86  1  0.854462  0.708018  0.406551  1
  Sb  Sb87  1  0.354462  0.947912  0.146445  1
  Sb  Sb88  1  0.791982  0.645538  0.593449  1
  Sb  Sb89  1  0.291982  0.698533  0.146445  1
  Sb  Sb90  1  0.895538  0.541982  0.093449  1
  Sb  Sb91  1  0.395538  0.302088  0.353555  1
  Sb  Sb92  1  0.197912  0.104462  0.646445  1
  Sb  Sb93  1  0.697912  0.051467  0.093449  1
  Sb  Sb94  1  0.801467  0.208018  0.853555  1
  Sb  Sb95  1  0.301467  0.447912  0.593449  1
  Sb  Sb96  1  0.552088  0.145538  0.853555  1
  Sb  Sb97  1  0.052088  0.198533  0.406551  1
  Sb  Sb98  1  0.948533  0.041982  0.646445  1
  Sb  Sb99  1  0.448533  0.802088  0.906551  1
  Sb  Sb100  1  0.750000  0.750000  0.000000  1
  Sb  Sb101  1  0.250000  0.250000  0.000000  1
  Sb  Sb102  1  0.000000  0.500000  0.500000  1
  Sb  Sb103  1  0.500000  0.000000  0.500000  1
