# generated using pymatgen
data_Lu3Ti2InIr3
_symmetry_space_group_name_H-M   'P 1'
_cell_length_a   7.03745300
_cell_length_b   6.91113392
_cell_length_c   4.27600800
_cell_angle_alpha   90.00000000
_cell_angle_beta   90.00000000
_cell_angle_gamma   120.60648813
_symmetry_Int_Tables_number   1
_chemical_formula_structural   Lu3Ti2InIr3
_chemical_formula_sum   'Lu3 Ti2 In1 Ir3'
_cell_volume   178.99761541
_cell_formula_units_Z   1
loop_
 _symmetry_equiv_pos_site_id
 _symmetry_equiv_pos_as_xyz
  1  'x, y, z'
loop_
 _atom_site_type_symbol
 _atom_site_label
 _atom_site_symmetry_multiplicity
 _atom_site_fract_x
 _atom_site_fract_y
 _atom_site_fract_z
 _atom_site_occupancy
  Lu  Lu0  1  0.998025  0.410037  0.500000  1
  Lu  Lu1  1  0.587989  0.589963  0.500000  1
  Lu  Lu2  1  0.421626  0.000000  0.500000  1
  Ti  Ti3  1  0.998988  0.751529  0.000000  1
  Ti  Ti4  1  0.247459  0.248471  0.000000  1
  In  In5  1  0.755870  0.000000  0.000000  1
  Ir  Ir6  1  0.305798  0.651107  0.000000  1
  Ir  Ir7  1  0.654693  0.348893  0.000000  1
  Ir  Ir8  1  0.029551  0.000000  0.500000  1
