# generated using pymatgen
data_HfZrGaB2Ru5
_symmetry_space_group_name_H-M   'P 1'
_cell_length_a   9.39381142
_cell_length_b   9.39381142
_cell_length_c   3.07377800
_cell_angle_alpha   90.00000000
_cell_angle_beta   90.00000000
_cell_angle_gamma   90.18635844
_symmetry_Int_Tables_number   1
_chemical_formula_structural   HfZrGaB2Ru5
_chemical_formula_sum   'Hf2 Zr2 Ga2 B4 Ru10'
_cell_volume   271.24008754
_cell_formula_units_Z   2
loop_
 _symmetry_equiv_pos_site_id
 _symmetry_equiv_pos_as_xyz
  1  'x, y, z'
loop_
 _atom_site_type_symbol
 _atom_site_label
 _atom_site_symmetry_multiplicity
 _atom_site_fract_x
 _atom_site_fract_y
 _atom_site_fract_z
 _atom_site_occupancy
  Hf  Hf0  1  0.674587  0.174587  0.000000  1
  Hf  Hf1  1  0.325413  0.825413  0.000000  1
  Zr  Zr2  1  0.175578  0.324422  0.000000  1
  Zr  Zr3  1  0.824422  0.675578  0.000000  1
  Ga  Ga4  1  0.000000  0.000000  0.000000  1
  Ga  Ga5  1  0.500000  0.500000  0.000000  1
  B  B6  1  0.125067  0.625067  0.000000  1
  B  B7  1  0.874933  0.374933  0.000000  1
  B  B8  1  0.624000  0.876000  0.000000  1
  B  B9  1  0.376000  0.124000  0.000000  1
  Ru  Ru10  1  0.215909  0.068561  0.500000  1
  Ru  Ru11  1  0.784091  0.931439  0.500000  1
  Ru  Ru12  1  0.071984  0.785425  0.500000  1
  Ru  Ru13  1  0.714575  0.428016  0.500000  1
  Ru  Ru14  1  0.928016  0.214575  0.500000  1
  Ru  Ru15  1  0.285425  0.571984  0.500000  1
  Ru  Ru16  1  0.568561  0.715909  0.500000  1
  Ru  Ru17  1  0.431439  0.284091  0.500000  1
  Ru  Ru18  1  0.500000  0.000000  0.500000  1
  Ru  Ru19  1  0.000000  0.500000  0.500000  1
