# generated using pymatgen
data_Zr3ZnGa2
_symmetry_space_group_name_H-M   'P 1'
_cell_length_a   5.69543400
_cell_length_b   8.58513600
_cell_length_c   9.39815800
_cell_angle_alpha   90.00000000
_cell_angle_beta   90.00000000
_cell_angle_gamma   90.00000000
_symmetry_Int_Tables_number   1
_chemical_formula_structural   Zr3ZnGa2
_chemical_formula_sum   'Zr12 Zn4 Ga8'
_cell_volume   459.53304284
_cell_formula_units_Z   4
loop_
 _symmetry_equiv_pos_site_id
 _symmetry_equiv_pos_as_xyz
  1  'x, y, z'
loop_
 _atom_site_type_symbol
 _atom_site_label
 _atom_site_symmetry_multiplicity
 _atom_site_fract_x
 _atom_site_fract_y
 _atom_site_fract_z
 _atom_site_occupancy
  Zr  Zr0  1  0.000000  0.750000  0.116468  1
  Zr  Zr1  1  0.500000  0.250000  0.883532  1
  Zr  Zr2  1  0.000000  0.250000  0.883532  1
  Zr  Zr3  1  0.500000  0.750000  0.116468  1
  Zr  Zr4  1  0.750000  0.469301  0.620245  1
  Zr  Zr5  1  0.250000  0.530699  0.379755  1
  Zr  Zr6  1  0.750000  0.969301  0.379755  1
  Zr  Zr7  1  0.250000  0.030699  0.620245  1
  Zr  Zr8  1  0.750000  0.364309  0.188765  1
  Zr  Zr9  1  0.250000  0.635691  0.811235  1
  Zr  Zr10  1  0.750000  0.864309  0.811235  1
  Zr  Zr11  1  0.250000  0.135691  0.188765  1
  Zn  Zn12  1  0.000000  0.750000  0.565859  1
  Zn  Zn13  1  0.500000  0.250000  0.434141  1
  Zn  Zn14  1  0.000000  0.250000  0.434141  1
  Zn  Zn15  1  0.500000  0.750000  0.565859  1
  Ga  Ga16  1  0.750000  0.051168  0.088441  1
  Ga  Ga17  1  0.250000  0.948832  0.911559  1
  Ga  Ga18  1  0.750000  0.551168  0.911559  1
  Ga  Ga19  1  0.250000  0.448832  0.088441  1
  Ga  Ga20  1  0.750000  0.123423  0.643923  1
  Ga  Ga21  1  0.250000  0.876577  0.356077  1
  Ga  Ga22  1  0.750000  0.623423  0.356077  1
  Ga  Ga23  1  0.250000  0.376577  0.643923  1
