# generated using pymatgen
data_DySn6(IrRu)2
_symmetry_space_group_name_H-M   'P 1'
_cell_length_a   6.95390548
_cell_length_b   6.97076590
_cell_length_c   6.95390475
_cell_angle_alpha   119.97732949
_cell_angle_beta   119.89653094
_cell_angle_gamma   90.03978434
_symmetry_Int_Tables_number   1
_chemical_formula_structural   DySn6(IrRu)2
_chemical_formula_sum   'Dy1 Sn6 Ir2 Ru2'
_cell_volume   238.72551331
_cell_formula_units_Z   1
loop_
 _symmetry_equiv_pos_site_id
 _symmetry_equiv_pos_as_xyz
  1  'x, y, z'
loop_
 _atom_site_type_symbol
 _atom_site_label
 _atom_site_symmetry_multiplicity
 _atom_site_fract_x
 _atom_site_fract_y
 _atom_site_fract_z
 _atom_site_occupancy
  Dy  Dy0  1  0.007547  0.000000  0.007547  1
  Sn  Sn1  1  0.873014  0.534999  0.001909  1
  Sn  Sn2  1  0.540061  0.878521  0.003193  1
  Sn  Sn3  1  0.124672  0.121479  0.661541  1
  Sn  Sn4  1  0.995275  0.500000  0.495275  1
  Sn  Sn5  1  0.466910  0.465001  0.338015  1
  Sn  Sn6  1  0.507956  0.000000  0.507956  1
  Ir  Ir7  1  0.239776  0.607666  0.998085  1
  Ir  Ir8  1  0.390420  0.392334  0.632110  1
  Ru  Ru9  1  0.600332  0.243757  0.997793  1
  Ru  Ru10  1  0.754036  0.756243  0.356576  1
