# generated using pymatgen
data_Rb(ScBr3)2
_symmetry_space_group_name_H-M   'P 1'
_cell_length_a   8.06910800
_cell_length_b   8.06910705
_cell_length_c   13.03319300
_cell_angle_alpha   90.00000000
_cell_angle_beta   90.00000000
_cell_angle_gamma   119.99999568
_symmetry_Int_Tables_number   1
_chemical_formula_structural   Rb(ScBr3)2
_chemical_formula_sum   'Rb2 Sc4 Br12'
_cell_volume   734.90716705
_cell_formula_units_Z   2
loop_
 _symmetry_equiv_pos_site_id
 _symmetry_equiv_pos_as_xyz
  1  'x, y, z'
loop_
 _atom_site_type_symbol
 _atom_site_label
 _atom_site_symmetry_multiplicity
 _atom_site_fract_x
 _atom_site_fract_y
 _atom_site_fract_z
 _atom_site_occupancy
  Rb  Rb0  1  0.333333  0.666667  0.872618  1
  Rb  Rb1  1  0.666667  0.333333  0.372618  1
  Sc  Sc2  1  0.000000  0.000000  0.125793  1
  Sc  Sc3  1  0.000000  0.000000  0.375981  1
  Sc  Sc4  1  0.000000  0.000000  0.625793  1
  Sc  Sc5  1  0.000000  0.000000  0.875981  1
  Br  Br6  1  0.977464  0.721338  0.001340  1
  Br  Br7  1  0.252820  0.971469  0.250439  1
  Br  Br8  1  0.028531  0.281350  0.250439  1
  Br  Br9  1  0.278662  0.256126  0.001340  1
  Br  Br10  1  0.256126  0.278662  0.501340  1
  Br  Br11  1  0.743874  0.022536  0.001340  1
  Br  Br12  1  0.281350  0.028531  0.750439  1
  Br  Br13  1  0.718650  0.747180  0.250439  1
  Br  Br14  1  0.747180  0.718650  0.750439  1
  Br  Br15  1  0.022536  0.743874  0.501340  1
  Br  Br16  1  0.721338  0.977464  0.501340  1
  Br  Br17  1  0.971469  0.252820  0.750439  1
