# generated using pymatgen
data_Dy5LuAl24ZnOs7
_symmetry_space_group_name_H-M   'P 1'
_cell_length_a   8.84326906
_cell_length_b   8.84794516
_cell_length_c   9.53049583
_cell_angle_alpha   89.96406029
_cell_angle_beta   90.08380826
_cell_angle_gamma   119.94025219
_symmetry_Int_Tables_number   1
_chemical_formula_structural   Dy5LuAl24ZnOs7
_chemical_formula_sum   'Dy5 Lu1 Al24 Zn1 Os7'
_cell_volume   646.19274354
_cell_formula_units_Z   1
loop_
 _symmetry_equiv_pos_site_id
 _symmetry_equiv_pos_as_xyz
  1  'x, y, z'
loop_
 _atom_site_type_symbol
 _atom_site_label
 _atom_site_symmetry_multiplicity
 _atom_site_fract_x
 _atom_site_fract_y
 _atom_site_fract_z
 _atom_site_occupancy
  Dy  Dy0  1  0.808651  0.614105  0.752170  1
  Dy  Dy1  1  0.613999  0.808391  0.247505  1
  Dy  Dy2  1  0.385983  0.191422  0.752530  1
  Dy  Dy3  1  0.194399  0.805321  0.253998  1
  Dy  Dy4  1  0.805394  0.193905  0.746145  1
  Lu  Lu5  1  0.192576  0.390661  0.249025  1
  Al  Al6  1  0.329692  0.669835  0.022118  1
  Al  Al7  1  0.670536  0.329422  0.978808  1
  Al  Al8  1  0.665836  0.333675  0.517430  1
  Al  Al9  1  0.333714  0.665695  0.481936  1
  Al  Al10  1  0.162542  0.325705  0.572813  1
  Al  Al11  1  0.837069  0.673977  0.425891  1
  Al  Al12  1  0.673875  0.837310  0.573335  1
  Al  Al13  1  0.848798  0.676991  0.081340  1
  Al  Al14  1  0.325442  0.162957  0.425961  1
  Al  Al15  1  0.151225  0.322684  0.919875  1
  Al  Al16  1  0.163123  0.837027  0.575558  1
  Al  Al17  1  0.322658  0.151702  0.081478  1
  Al  Al18  1  0.837504  0.163011  0.423962  1
  Al  Al19  1  0.676826  0.848516  0.919097  1
  Al  Al20  1  0.837483  0.163689  0.076564  1
  Al  Al21  1  0.163352  0.836345  0.924178  1
  Al  Al22  1  0.561919  0.121700  0.249283  1
  Al  Al23  1  0.438035  0.878291  0.750614  1
  Al  Al24  1  0.879059  0.437677  0.249337  1
  Al  Al25  1  0.121529  0.561653  0.750911  1
  Al  Al26  1  0.562358  0.435755  0.254057  1
  Al  Al27  1  0.436132  0.563656  0.745157  1
  Al  Al28  1  0.000518  0.003665  0.250528  1
  Al  Al29  1  0.001131  0.999104  0.749450  1
  Zn  Zn30  1  0.500095  0.499711  0.999889  1
  Os  Os31  1  0.499829  0.999673  0.000187  1
  Os  Os32  1  0.000570  0.499625  0.001004  1
  Os  Os33  1  0.499651  0.999498  0.499547  1
  Os  Os34  1  0.000127  0.499630  0.499313  1
  Os  Os35  1  0.499223  0.499510  0.499082  1
  Os  Os36  1  0.999584  0.999226  0.999848  1
  Os  Os37  1  0.999564  0.999281  0.500074  1
