# generated using pymatgen
data_Nd9ErC4I15
_symmetry_space_group_name_H-M   'P 1'
_cell_length_a   9.75743933
_cell_length_b   10.63300162
_cell_length_c   11.75268147
_cell_angle_alpha   93.94298389
_cell_angle_beta   114.13092753
_cell_angle_gamma   109.46422561
_symmetry_Int_Tables_number   1
_chemical_formula_structural   Nd9ErC4I15
_chemical_formula_sum   'Nd9 Er1 C4 I15'
_cell_volume   1018.99062320
_cell_formula_units_Z   1
loop_
 _symmetry_equiv_pos_site_id
 _symmetry_equiv_pos_as_xyz
  1  'x, y, z'
loop_
 _atom_site_type_symbol
 _atom_site_label
 _atom_site_symmetry_multiplicity
 _atom_site_fract_x
 _atom_site_fract_y
 _atom_site_fract_z
 _atom_site_occupancy
  Nd  Nd0  1  0.345393  0.745288  0.164052  1
  Nd  Nd1  1  0.775964  0.882215  0.257154  1
  Nd  Nd2  1  0.528526  0.185180  0.102266  1
  Nd  Nd3  1  0.224026  0.116672  0.743265  1
  Nd  Nd4  1  0.403476  0.458485  0.658227  1
  Nd  Nd5  1  0.472782  0.813828  0.899354  1
  Nd  Nd6  1  0.703804  0.567456  0.044133  1
  Nd  Nd7  1  0.296144  0.432752  0.955541  1
  Nd  Nd8  1  0.654856  0.255319  0.833450  1
  Er  Er9  1  0.593707  0.545339  0.334682  1
  C  C10  1  0.482650  0.300872  0.938741  1
  C  C11  1  0.518324  0.697806  0.062220  1
  C  C12  1  0.453249  0.363493  0.834908  1
  C  C13  1  0.546755  0.635177  0.166470  1
  I  I14  1  0.206546  0.906516  0.937694  1
  I  I15  1  0.103643  0.187104  0.467864  1
  I  I16  1  0.151250  0.554964  0.703390  1
  I  I17  1  0.404815  0.968626  0.647025  1
  I  I18  1  0.714949  0.734507  0.821900  1
  I  I19  1  0.296261  0.273982  0.185900  1
  I  I20  1  0.840424  0.448113  0.301743  1
  I  I21  1  0.884392  0.800401  0.527165  1
  I  I22  1  0.368015  0.627753  0.411958  1
  I  I23  1  0.053889  0.833163  0.221465  1
  I  I24  1  0.794303  0.095557  0.062858  1
  I  I25  1  0.641107  0.373696  0.583173  1
  I  I26  1  0.946820  0.165978  0.779620  1
  I  I27  1  0.594097  0.030102  0.353005  1
  I  I28  1  0.999833  0.499655  0.000777  1
