# generated using pymatgen
data_Sc3Al3SiNi2
_symmetry_space_group_name_H-M   'P 1'
_cell_length_a   6.68510300
_cell_length_b   6.68510359
_cell_length_c   3.78358600
_cell_angle_alpha   90.00000000
_cell_angle_beta   90.00000000
_cell_angle_gamma   119.99999211
_symmetry_Int_Tables_number   1
_chemical_formula_structural   Sc3Al3SiNi2
_chemical_formula_sum   'Sc3 Al3 Si1 Ni2'
_cell_volume   146.43689803
_cell_formula_units_Z   1
loop_
 _symmetry_equiv_pos_site_id
 _symmetry_equiv_pos_as_xyz
  1  'x, y, z'
loop_
 _atom_site_type_symbol
 _atom_site_label
 _atom_site_symmetry_multiplicity
 _atom_site_fract_x
 _atom_site_fract_y
 _atom_site_fract_z
 _atom_site_occupancy
  Sc  Sc0  1  0.990693  0.410796  0.500000  1
  Sc  Sc1  1  0.589204  0.579897  0.500000  1
  Sc  Sc2  1  0.420103  0.009307  0.500000  1
  Al  Al3  1  0.990927  0.751517  0.000000  1
  Al  Al4  1  0.248483  0.239411  0.000000  1
  Al  Al5  1  0.760589  0.009073  0.000000  1
  Si  Si6  1  0.333333  0.666667  0.000000  1
  Ni  Ni7  1  0.666667  0.333333  0.000000  1
  Ni  Ni8  1  0.000000  0.000000  0.500000  1
