# generated using pymatgen
data_Dy2Er8In8Pt3Rh
_symmetry_space_group_name_H-M   'P 1'
_cell_length_a   3.59690900
_cell_length_b   8.10691310
_cell_length_c   18.18681848
_cell_angle_alpha   90.05982605
_cell_angle_beta   90.00000000
_cell_angle_gamma   90.00000000
_symmetry_Int_Tables_number   1
_chemical_formula_structural   Dy2Er8In8Pt3Rh
_chemical_formula_sum   'Dy2 Er8 In8 Pt3 Rh1'
_cell_volume   530.32422250
_cell_formula_units_Z   1
loop_
 _symmetry_equiv_pos_site_id
 _symmetry_equiv_pos_as_xyz
  1  'x, y, z'
loop_
 _atom_site_type_symbol
 _atom_site_label
 _atom_site_symmetry_multiplicity
 _atom_site_fract_x
 _atom_site_fract_y
 _atom_site_fract_z
 _atom_site_occupancy
  Dy  Dy0  1  0.000000  0.999843  0.999963  1
  Dy  Dy1  1  0.000000  0.500041  0.500033  1
  Er  Er2  1  0.000000  0.114829  0.412167  1
  Er  Er3  1  0.000000  0.882759  0.585426  1
  Er  Er4  1  0.000000  0.383152  0.914744  1
  Er  Er5  1  0.000000  0.616784  0.085534  1
  Er  Er6  1  0.000000  0.239607  0.221576  1
  Er  Er7  1  0.000000  0.757376  0.779487  1
  Er  Er8  1  0.000000  0.257229  0.720881  1
  Er  Er9  1  0.000000  0.748774  0.279596  1
  In  In10  1  0.500000  0.422271  0.350942  1
  In  In11  1  0.500000  0.576741  0.649099  1
  In  In12  1  0.500000  0.076779  0.850999  1
  In  In13  1  0.500000  0.925149  0.149919  1
  In  In14  1  0.500000  0.292882  0.066790  1
  In  In15  1  0.500000  0.706877  0.933179  1
  In  In16  1  0.500000  0.206779  0.566769  1
  In  In17  1  0.500000  0.794016  0.432009  1
  Pt  Pt18  1  0.500000  0.975193  0.696421  1
  Pt  Pt19  1  0.500000  0.475277  0.803608  1
  Pt  Pt20  1  0.500000  0.524060  0.196423  1
  Rh  Rh21  1  0.500000  0.023584  0.304435  1
