# generated using pymatgen
data_Sr3P2PtRh6
_symmetry_space_group_name_H-M   'P 1'
_cell_length_a   8.52322245
_cell_length_b   8.52322239
_cell_length_c   8.52322200
_cell_angle_alpha   39.13058225
_cell_angle_beta   39.13058269
_cell_angle_gamma   39.13058644
_symmetry_Int_Tables_number   1
_chemical_formula_structural   Sr3P2PtRh6
_chemical_formula_sum   'Sr3 P2 Pt1 Rh6'
_cell_volume   221.82625741
_cell_formula_units_Z   1
loop_
 _symmetry_equiv_pos_site_id
 _symmetry_equiv_pos_as_xyz
  1  'x, y, z'
loop_
 _atom_site_type_symbol
 _atom_site_label
 _atom_site_symmetry_multiplicity
 _atom_site_fract_x
 _atom_site_fract_y
 _atom_site_fract_z
 _atom_site_occupancy
  Sr  Sr0  1  0.357285  0.357285  0.357285  1
  Sr  Sr1  1  0.500000  0.500000  0.500000  1
  Sr  Sr2  1  0.642715  0.642715  0.642715  1
  P  P3  1  0.169480  0.169480  0.169480  1
  P  P4  1  0.830520  0.830520  0.830520  1
  Pt  Pt5  1  0.000000  0.000000  0.000000  1
  Rh  Rh6  1  0.577543  0.063738  0.063737  1
  Rh  Rh7  1  0.063738  0.577543  0.063737  1
  Rh  Rh8  1  0.936262  0.936262  0.422458  1
  Rh  Rh9  1  0.063738  0.063738  0.577542  1
  Rh  Rh10  1  0.936262  0.422457  0.936263  1
  Rh  Rh11  1  0.422457  0.936262  0.936263  1
