# generated using pymatgen
data_Tb3PaCdHgPd4
_symmetry_space_group_name_H-M   'P 1'
_cell_length_a   3.70975600
_cell_length_b   7.79277911
_cell_length_c   7.79218002
_cell_angle_alpha   91.69398104
_cell_angle_beta   90.00000000
_cell_angle_gamma   90.00000000
_symmetry_Int_Tables_number   1
_chemical_formula_structural   Tb3PaCdHgPd4
_chemical_formula_sum   'Tb3 Pa1 Cd1 Hg1 Pd4'
_cell_volume   225.16809258
_cell_formula_units_Z   1
loop_
 _symmetry_equiv_pos_site_id
 _symmetry_equiv_pos_as_xyz
  1  'x, y, z'
loop_
 _atom_site_type_symbol
 _atom_site_label
 _atom_site_symmetry_multiplicity
 _atom_site_fract_x
 _atom_site_fract_y
 _atom_site_fract_z
 _atom_site_occupancy
  Tb  Tb0  1  0.500000  0.827769  0.321295  1
  Tb  Tb1  1  0.500000  0.325960  0.171527  1
  Tb  Tb2  1  0.500000  0.676360  0.832085  1
  Pa  Pa3  1  0.500000  0.168034  0.672500  1
  Cd  Cd4  1  0.000000  0.504682  0.499785  1
  Hg  Hg5  1  0.000000  0.000342  0.005265  1
  Pd  Pd6  1  0.000000  0.617039  0.124555  1
  Pd  Pd7  1  0.000000  0.364278  0.857252  1
  Pd  Pd8  1  0.000000  0.880031  0.628834  1
  Pd  Pd9  1  0.000000  0.135505  0.386901  1
