# generated using pymatgen
data_Zn2GaRh3
_symmetry_space_group_name_H-M   'P 1'
_cell_length_a   7.41918500
_cell_length_b   7.41918552
_cell_length_c   5.24399700
_cell_angle_alpha   90.00000000
_cell_angle_beta   90.00000000
_cell_angle_gamma   120.00000213
_symmetry_Int_Tables_number   1
_chemical_formula_structural   Zn2GaRh3
_chemical_formula_sum   'Zn6 Ga3 Rh9'
_cell_volume   249.98012940
_cell_formula_units_Z   3
loop_
 _symmetry_equiv_pos_site_id
 _symmetry_equiv_pos_as_xyz
  1  'x, y, z'
loop_
 _atom_site_type_symbol
 _atom_site_label
 _atom_site_symmetry_multiplicity
 _atom_site_fract_x
 _atom_site_fract_y
 _atom_site_fract_z
 _atom_site_occupancy
  Zn  Zn0  1  0.666795  0.000000  0.233846  1
  Zn  Zn1  1  0.333204  0.333205  0.233846  1
  Zn  Zn2  1  0.000000  0.666795  0.233846  1
  Zn  Zn3  1  0.000000  0.000000  0.549888  1
  Zn  Zn4  1  0.666666  0.333333  0.550553  1
  Zn  Zn5  1  0.333334  0.666667  0.550553  1
  Ga  Ga6  1  0.333413  0.000000  0.892105  1
  Ga  Ga7  1  0.000000  0.333413  0.892105  1
  Ga  Ga8  1  0.666587  0.666587  0.892105  1
  Rh  Rh9  1  0.000000  0.000000  0.052185  1
  Rh  Rh10  1  0.666666  0.333333  0.052752  1
  Rh  Rh11  1  0.333334  0.666667  0.052752  1
  Rh  Rh12  1  0.333473  0.000000  0.392119  1
  Rh  Rh13  1  0.000000  0.333473  0.392119  1
  Rh  Rh14  1  0.666528  0.666527  0.392119  1
  Rh  Rh15  1  0.666733  0.000000  0.731655  1
  Rh  Rh16  1  0.333268  0.333268  0.731655  1
  Rh  Rh17  1  0.000000  0.666732  0.731655  1
