# generated using pymatgen
data_Pr16Cd4CuOs3
_symmetry_space_group_name_H-M   'P 1'
_cell_length_a   9.95330786
_cell_length_b   10.10427926
_cell_length_c   10.10427800
_cell_angle_alpha   59.99999759
_cell_angle_beta   59.49696400
_cell_angle_gamma   59.49697084
_symmetry_Int_Tables_number   1
_chemical_formula_structural   Pr16Cd4CuOs3
_chemical_formula_sum   'Pr16 Cd4 Cu1 Os3'
_cell_volume   713.04802924
_cell_formula_units_Z   1
loop_
 _symmetry_equiv_pos_site_id
 _symmetry_equiv_pos_as_xyz
  1  'x, y, z'
loop_
 _atom_site_type_symbol
 _atom_site_label
 _atom_site_symmetry_multiplicity
 _atom_site_fract_x
 _atom_site_fract_y
 _atom_site_fract_z
 _atom_site_occupancy
  Pr  Pr0  1  0.345815  0.350130  0.350130  1
  Pr  Pr1  1  0.345815  0.350130  0.953925  1
  Pr  Pr2  1  0.345815  0.953925  0.350130  1
  Pr  Pr3  1  0.967331  0.344223  0.344223  1
  Pr  Pr4  1  0.815106  0.191369  0.191369  1
  Pr  Pr5  1  0.188692  0.810728  0.810728  1
  Pr  Pr6  1  0.188692  0.810728  0.189851  1
  Pr  Pr7  1  0.815106  0.191369  0.802156  1
  Pr  Pr8  1  0.188692  0.189851  0.810728  1
  Pr  Pr9  1  0.815106  0.802156  0.191369  1
  Pr  Pr10  1  0.935999  0.562242  0.562242  1
  Pr  Pr11  1  0.552411  0.940112  0.940112  1
  Pr  Pr12  1  0.552411  0.940112  0.567367  1
  Pr  Pr13  1  0.935999  0.562242  0.939516  1
  Pr  Pr14  1  0.552411  0.567367  0.940112  1
  Pr  Pr15  1  0.935999  0.939516  0.562242  1
  Cd  Cd16  1  0.578996  0.579602  0.579602  1
  Cd  Cd17  1  0.578996  0.579602  0.261798  1
  Cd  Cd18  1  0.578996  0.261798  0.579602  1
  Cd  Cd19  1  0.262962  0.579013  0.579013  1
  Cu  Cu20  1  0.577366  0.140878  0.140878  1
  Os  Os21  1  0.147094  0.137227  0.137227  1
  Os  Os22  1  0.147094  0.137227  0.578451  1
  Os  Os23  1  0.147094  0.578451  0.137227  1
