# generated using pymatgen
data_La5Nd11Cd4(CoIr)2
_symmetry_space_group_name_H-M   'P 1'
_cell_length_a   9.90577103
_cell_length_b   9.94756389
_cell_length_c   9.89447997
_cell_angle_alpha   60.01645971
_cell_angle_beta   60.28212246
_cell_angle_gamma   60.47732830
_symmetry_Int_Tables_number   1
_chemical_formula_structural   La5Nd11Cd4(CoIr)2
_chemical_formula_sum   'La5 Nd11 Cd4 Co2 Ir2'
_cell_volume   693.43225380
_cell_formula_units_Z   1
loop_
 _symmetry_equiv_pos_site_id
 _symmetry_equiv_pos_as_xyz
  1  'x, y, z'
loop_
 _atom_site_type_symbol
 _atom_site_label
 _atom_site_symmetry_multiplicity
 _atom_site_fract_x
 _atom_site_fract_y
 _atom_site_fract_z
 _atom_site_occupancy
  La  La0  1  0.342854  0.343922  0.354617  1
  La  La1  1  0.344834  0.344058  0.957830  1
  La  La2  1  0.340702  0.960281  0.350259  1
  La  La3  1  0.958137  0.342651  0.352997  1
  La  La4  1  0.821483  0.188448  0.184681  1
  Nd  Nd5  1  0.189276  0.816143  0.805657  1
  Nd  Nd6  1  0.193231  0.813154  0.187201  1
  Nd  Nd7  1  0.815571  0.189603  0.803318  1
  Nd  Nd8  1  0.191267  0.188875  0.807673  1
  Nd  Nd9  1  0.810082  0.808454  0.187431  1
  Nd  Nd10  1  0.937508  0.565732  0.560408  1
  Nd  Nd11  1  0.563166  0.936925  0.937129  1
  Nd  Nd12  1  0.564271  0.937499  0.559749  1
  Nd  Nd13  1  0.938982  0.562788  0.938074  1
  Nd  Nd14  1  0.560267  0.560944  0.939536  1
  Nd  Nd15  1  0.936802  0.935839  0.562674  1
  Cd  Cd16  1  0.579832  0.580558  0.579524  1
  Cd  Cd17  1  0.579591  0.582438  0.258831  1
  Cd  Cd18  1  0.580783  0.256992  0.582873  1
  Cd  Cd19  1  0.257299  0.581603  0.581127  1
  Co  Co20  1  0.131201  0.143428  0.146329  1
  Co  Co21  1  0.143192  0.142515  0.574934  1
  Ir  Ir22  1  0.142442  0.574600  0.142973  1
  Ir  Ir23  1  0.577224  0.142548  0.144174  1
