# generated using pymatgen
data_Ti3Ga3(Ru2Rh)2
_symmetry_space_group_name_H-M   'P 1'
_cell_length_a   4.32611100
_cell_length_b   6.11745500
_cell_length_c   12.93286900
_cell_angle_alpha   90.00000000
_cell_angle_beta   89.99921281
_cell_angle_gamma   90.00000000
_symmetry_Int_Tables_number   1
_chemical_formula_structural   Ti3Ga3(Ru2Rh)2
_chemical_formula_sum   'Ti6 Ga6 Ru8 Rh4'
_cell_volume   342.26565399
_cell_formula_units_Z   2
loop_
 _symmetry_equiv_pos_site_id
 _symmetry_equiv_pos_as_xyz
  1  'x, y, z'
loop_
 _atom_site_type_symbol
 _atom_site_label
 _atom_site_symmetry_multiplicity
 _atom_site_fract_x
 _atom_site_fract_y
 _atom_site_fract_z
 _atom_site_occupancy
  Ti  Ti0  1  0.000016  0.500000  0.995331  1
  Ti  Ti1  1  0.499781  0.000000  0.171345  1
  Ti  Ti2  1  0.999804  0.500000  0.338202  1
  Ti  Ti3  1  0.500001  0.000000  0.500628  1
  Ti  Ti4  1  0.000203  0.500000  0.666035  1
  Ti  Ti5  1  0.500210  0.000000  0.828460  1
  Ga  Ga6  1  0.000005  0.000000  0.998438  1
  Ga  Ga7  1  0.499759  0.500000  0.168227  1
  Ga  Ga8  1  0.999774  0.000000  0.335229  1
  Ga  Ga9  1  0.499999  0.500000  0.499985  1
  Ga  Ga10  1  0.000233  0.000000  0.666684  1
  Ga  Ga11  1  0.500229  0.500000  0.831439  1
  Ru  Ru12  1  0.499790  0.249589  0.330663  1
  Ru  Ru13  1  0.499790  0.750411  0.330663  1
  Ru  Ru14  1  0.999999  0.250348  0.499348  1
  Ru  Ru15  1  0.999999  0.749652  0.499348  1
  Ru  Ru16  1  0.500186  0.249649  0.667311  1
  Ru  Ru17  1  0.500186  0.750351  0.667311  1
  Ru  Ru18  1  0.000211  0.250426  0.836012  1
  Ru  Ru19  1  0.000211  0.749574  0.836012  1
  Rh  Rh20  1  0.500013  0.251531  0.001499  1
  Rh  Rh21  1  0.500013  0.748469  0.001499  1
  Rh  Rh22  1  0.999795  0.248468  0.165167  1
  Rh  Rh23  1  0.999795  0.751532  0.165167  1
