# generated using pymatgen
data_CsRb7Na4Al8(PO4)12
_symmetry_space_group_name_H-M   'P 1'
_cell_length_a   8.33589800
_cell_length_b   4.91172382
_cell_length_c   28.72906300
_cell_angle_alpha   89.50295526
_cell_angle_beta   90.00000000
_cell_angle_gamma   90.00000000
_symmetry_Int_Tables_number   1
_chemical_formula_structural   CsRb7Na4Al8(PO4)12
_chemical_formula_sum   'Cs1 Rb7 Na4 Al8 P12 O48'
_cell_volume   1176.22782915
_cell_formula_units_Z   1
loop_
 _symmetry_equiv_pos_site_id
 _symmetry_equiv_pos_as_xyz
  1  'x, y, z'
loop_
 _atom_site_type_symbol
 _atom_site_label
 _atom_site_symmetry_multiplicity
 _atom_site_fract_x
 _atom_site_fract_y
 _atom_site_fract_z
 _atom_site_occupancy
  Cs  Cs0  1  0.480573  0.255556  0.829510  1
  Rb  Rb1  1  0.142942  0.271166  0.952822  1
  Rb  Rb2  1  0.521692  0.736237  0.170924  1
  Rb  Rb3  1  0.021688  0.263793  0.329105  1
  Rb  Rb4  1  0.356782  0.271118  0.452600  1
  Rb  Rb5  1  0.856971  0.729532  0.047613  1
  Rb  Rb6  1  0.978462  0.737014  0.670655  1
  Rb  Rb7  1  0.643338  0.729157  0.547332  1
  Na  Na8  1  0.552066  0.222401  0.046996  1
  Na  Na9  1  0.446897  0.776756  0.953644  1
  Na  Na10  1  0.052259  0.777526  0.453198  1
  Na  Na11  1  0.947807  0.222462  0.546616  1
  Al  Al12  1  0.030646  0.266880  0.792481  1
  Al  Al13  1  0.186591  0.189758  0.104798  1
  Al  Al14  1  0.686611  0.810241  0.395243  1
  Al  Al15  1  0.532015  0.734672  0.706913  1
  Al  Al16  1  0.469038  0.266852  0.292537  1
  Al  Al17  1  0.969054  0.733172  0.207486  1
  Al  Al18  1  0.813326  0.810520  0.895700  1
  Al  Al19  1  0.312942  0.189288  0.604526  1
  P  P20  1  0.840125  0.243175  0.143104  1
  P  P21  1  0.156847  0.754610  0.857727  1
  P  P22  1  0.692194  0.301485  0.952153  1
  P  P23  1  0.340121  0.756865  0.356931  1
  P  P24  1  0.660331  0.244233  0.642793  1
  P  P25  1  0.714361  0.773362  0.290734  1
  P  P26  1  0.285694  0.227821  0.708762  1
  P  P27  1  0.307931  0.698911  0.048472  1
  P  P28  1  0.807972  0.301081  0.451596  1
  P  P29  1  0.787592  0.774301  0.790044  1
  P  P30  1  0.192063  0.698554  0.548234  1
  P  P31  1  0.214368  0.226678  0.209284  1
  O  O32  1  0.754334  0.146077  0.907845  1
  O  O33  1  0.372136  0.245528  0.236787  1
  O  O34  1  0.588280  0.577322  0.271801  1
  O  O35  1  0.709724  0.223904  0.494551  1
  O  O36  1  0.130021  0.245832  0.737177  1
  O  O37  1  0.252082  0.853575  0.592879  1
  O  O38  1  0.179295  0.767113  0.381779  1
  O  O39  1  0.913495  0.577869  0.771291  1
  O  O40  1  0.345346  0.930113  0.708228  1
  O  O41  1  0.488967  0.736891  0.042120  1
  O  O42  1  0.630396  0.536838  0.661512  1
  O  O43  1  0.748366  0.145365  0.406973  1
  O  O44  1  0.989008  0.262993  0.457912  1
  O  O45  1  0.722624  0.613639  0.939842  1
  O  O46  1  0.248438  0.854643  0.093103  1
  O  O47  1  0.740915  0.700673  0.841651  1
  O  O48  1  0.263056  0.305525  0.158043  1
  O  O49  1  0.872134  0.754492  0.263229  1
  O  O50  1  0.629538  0.751384  0.762746  1
  O  O51  1  0.354137  0.969221  0.317686  1
  O  O52  1  0.411758  0.426413  0.726648  1
  O  O53  1  0.763024  0.694575  0.341978  1
  O  O54  1  0.371388  0.465312  0.337920  1
  O  O55  1  0.679269  0.232883  0.118280  1
  O  O56  1  0.275379  0.386794  0.060288  1
  O  O57  1  0.646534  0.033040  0.682229  1
  O  O58  1  0.790194  0.227430  0.995286  1
  O  O59  1  0.820697  0.231850  0.617758  1
  O  O60  1  0.209618  0.776186  0.005545  1
  O  O61  1  0.476230  0.806171  0.395070  1
  O  O62  1  0.155888  0.928071  0.208474  1
  O  O63  1  0.655873  0.071971  0.291528  1
  O  O64  1  0.023054  0.805856  0.896309  1
  O  O65  1  0.317752  0.762073  0.882516  1
  O  O66  1  0.234062  0.303246  0.657621  1
  O  O67  1  0.011013  0.736940  0.542019  1
  O  O68  1  0.224620  0.386230  0.559918  1
  O  O69  1  0.290140  0.776331  0.505280  1
  O  O70  1  0.871399  0.534774  0.162093  1
  O  O71  1  0.775388  0.613191  0.439763  1
  O  O72  1  0.088278  0.422700  0.228208  1
  O  O73  1  0.844539  0.073430  0.789837  1
  O  O74  1  0.976231  0.193891  0.104966  1
  O  O75  1  0.523305  0.194706  0.604941  1
  O  O76  1  0.511356  0.260337  0.958225  1
  O  O77  1  0.122851  0.463863  0.838806  1
  O  O78  1  0.854160  0.030811  0.182341  1
  O  O79  1  0.142410  0.966752  0.818465  1
