# generated using pymatgen
data_Ba3MgB5PO14
_symmetry_space_group_name_H-M   'P 1'
_cell_length_a   7.15867600
_cell_length_b   8.31131800
_cell_length_c   10.54004500
_cell_angle_alpha   90.00000000
_cell_angle_beta   90.00000000
_cell_angle_gamma   90.00000000
_symmetry_Int_Tables_number   1
_chemical_formula_structural   Ba3MgB5PO14
_chemical_formula_sum   'Ba6 Mg2 B10 P2 O28'
_cell_volume   627.11194202
_cell_formula_units_Z   2
loop_
 _symmetry_equiv_pos_site_id
 _symmetry_equiv_pos_as_xyz
  1  'x, y, z'
loop_
 _atom_site_type_symbol
 _atom_site_label
 _atom_site_symmetry_multiplicity
 _atom_site_fract_x
 _atom_site_fract_y
 _atom_site_fract_z
 _atom_site_occupancy
  Ba  Ba0  1  0.563511  0.438918  0.728263  1
  Ba  Ba1  1  0.563511  0.438918  0.271737  1
  Ba  Ba2  1  0.436489  0.938918  0.771737  1
  Ba  Ba3  1  0.436489  0.938918  0.228263  1
  Ba  Ba4  1  0.975466  0.229728  0.500000  1
  Ba  Ba5  1  0.024534  0.729728  0.000000  1
  Mg  Mg6  1  0.245663  0.336968  0.000000  1
  Mg  Mg7  1  0.754337  0.836968  0.500000  1
  B  B8  1  0.050678  0.426323  0.763058  1
  B  B9  1  0.050678  0.426323  0.236942  1
  B  B10  1  0.949322  0.926323  0.736942  1
  B  B11  1  0.949322  0.926323  0.263058  1
  B  B12  1  0.901399  0.175548  0.878323  1
  B  B13  1  0.901399  0.175548  0.121677  1
  B  B14  1  0.098601  0.675548  0.621677  1
  B  B15  1  0.098601  0.675548  0.378323  1
  B  B16  1  0.596285  0.159572  0.000000  1
  B  B17  1  0.403715  0.659572  0.500000  1
  P  P18  1  0.440581  0.158366  0.500000  1
  P  P19  1  0.559419  0.658366  0.000000  1
  O  O20  1  0.323691  0.195242  0.621690  1
  O  O21  1  0.323691  0.195242  0.378310  1
  O  O22  1  0.676309  0.695242  0.878310  1
  O  O23  1  0.676309  0.695242  0.121690  1
  O  O24  1  0.977683  0.232403  0.000000  1
  O  O25  1  0.022317  0.732403  0.500000  1
  O  O26  1  0.307395  0.658788  0.614586  1
  O  O27  1  0.307395  0.658788  0.385414  1
  O  O28  1  0.692605  0.158788  0.885414  1
  O  O29  1  0.692605  0.158788  0.114586  1
  O  O30  1  0.612977  0.272392  0.500000  1
  O  O31  1  0.387023  0.772392  0.000000  1
  O  O32  1  0.407388  0.143724  0.000000  1
  O  O33  1  0.592612  0.643724  0.500000  1
  O  O34  1  0.494423  0.977746  0.500000  1
  O  O35  1  0.505577  0.477746  0.000000  1
  O  O36  1  0.187409  0.461351  0.846099  1
  O  O37  1  0.187409  0.461351  0.153901  1
  O  O38  1  0.812591  0.961351  0.653901  1
  O  O39  1  0.812591  0.961351  0.346099  1
  O  O40  1  0.928862  0.294453  0.773199  1
  O  O41  1  0.928862  0.294453  0.226801  1
  O  O42  1  0.071138  0.794453  0.726801  1
  O  O43  1  0.071138  0.794453  0.273199  1
  O  O44  1  0.010142  0.518293  0.655007  1
  O  O45  1  0.010142  0.518293  0.344993  1
  O  O46  1  0.989858  0.018293  0.844993  1
  O  O47  1  0.989858  0.018293  0.155007  1
