# generated using pymatgen
data_Tb4Er12CdNi4Hg3
_symmetry_space_group_name_H-M   'P 1'
_cell_length_a   9.51085921
_cell_length_b   9.50963894
_cell_length_c   9.50964000
_cell_angle_alpha   60.00000327
_cell_angle_beta   60.00424741
_cell_angle_gamma   60.00424814
_symmetry_Int_Tables_number   1
_chemical_formula_structural   Tb4Er12CdNi4Hg3
_chemical_formula_sum   'Tb4 Er12 Cd1 Ni4 Hg3'
_cell_volume   608.22007632
_cell_formula_units_Z   1
loop_
 _symmetry_equiv_pos_site_id
 _symmetry_equiv_pos_as_xyz
  1  'x, y, z'
loop_
 _atom_site_type_symbol
 _atom_site_label
 _atom_site_symmetry_multiplicity
 _atom_site_fract_x
 _atom_site_fract_y
 _atom_site_fract_z
 _atom_site_occupancy
  Tb  Tb0  1  0.350683  0.349950  0.349950  1
  Tb  Tb1  1  0.350683  0.349950  0.949417  1
  Tb  Tb2  1  0.350683  0.949417  0.349950  1
  Tb  Tb3  1  0.947984  0.350672  0.350672  1
  Er  Er4  1  0.811503  0.187994  0.187994  1
  Er  Er5  1  0.186148  0.813161  0.813161  1
  Er  Er6  1  0.186148  0.813161  0.187532  1
  Er  Er7  1  0.811503  0.187994  0.812510  1
  Er  Er8  1  0.186148  0.187532  0.813161  1
  Er  Er9  1  0.811503  0.812510  0.187994  1
  Er  Er10  1  0.934598  0.564865  0.564865  1
  Er  Er11  1  0.563277  0.936003  0.936003  1
  Er  Er12  1  0.563277  0.936003  0.564716  1
  Er  Er13  1  0.934598  0.564865  0.935671  1
  Er  Er14  1  0.563277  0.564716  0.936003  1
  Er  Er15  1  0.934598  0.935671  0.564865  1
  Cd  Cd16  1  0.258772  0.580409  0.580409  1
  Ni  Ni17  1  0.142399  0.142091  0.142091  1
  Ni  Ni18  1  0.142399  0.142091  0.573419  1
  Ni  Ni19  1  0.142399  0.573419  0.142091  1
  Ni  Ni20  1  0.572794  0.142402  0.142402  1
  Hg  Hg21  1  0.584875  0.586136  0.586136  1
  Hg  Hg22  1  0.584875  0.586136  0.242851  1
  Hg  Hg23  1  0.584875  0.242851  0.586136  1
