# generated using pymatgen
data_Er3Lu13(InRu)4
_symmetry_space_group_name_H-M   'P 1'
_cell_length_a   9.48091627
_cell_length_b   9.49408711
_cell_length_c   9.46236892
_cell_angle_alpha   60.01848816
_cell_angle_beta   59.79031873
_cell_angle_gamma   59.82476871
_symmetry_Int_Tables_number   1
_chemical_formula_structural   Er3Lu13(InRu)4
_chemical_formula_sum   'Er3 Lu13 In4 Ru4'
_cell_volume   600.59140969
_cell_formula_units_Z   1
loop_
 _symmetry_equiv_pos_site_id
 _symmetry_equiv_pos_as_xyz
  1  'x, y, z'
loop_
 _atom_site_type_symbol
 _atom_site_label
 _atom_site_symmetry_multiplicity
 _atom_site_fract_x
 _atom_site_fract_y
 _atom_site_fract_z
 _atom_site_occupancy
  Er  Er0  1  0.193423  0.806577  0.193423  1
  Er  Er1  1  0.809552  0.810338  0.189339  1
  Er  Er2  1  0.189339  0.190771  0.809552  1
  Lu  Lu3  1  0.600493  0.597511  0.596388  1
  Lu  Lu4  1  0.599383  0.600054  0.204743  1
  Lu  Lu5  1  0.596388  0.205608  0.600493  1
  Lu  Lu6  1  0.204743  0.595818  0.599383  1
  Lu  Lu7  1  0.059027  0.440717  0.440454  1
  Lu  Lu8  1  0.440454  0.059803  0.059027  1
  Lu  Lu9  1  0.440909  0.059091  0.440909  1
  Lu  Lu10  1  0.058847  0.441153  0.058847  1
  Lu  Lu11  1  0.441911  0.441645  0.057936  1
  Lu  Lu12  1  0.057936  0.058509  0.441911  1
  Lu  Lu13  1  0.195043  0.804529  0.804350  1
  Lu  Lu14  1  0.804350  0.196077  0.195043  1
  Lu  Lu15  1  0.806745  0.193255  0.806745  1
  In  In16  1  0.833202  0.833532  0.832925  1
  In  In17  1  0.832173  0.833369  0.501962  1
  In  In18  1  0.832925  0.500340  0.833202  1
  In  In19  1  0.501962  0.832497  0.832173  1
  Ru  Ru20  1  0.392374  0.389503  0.387737  1
  Ru  Ru21  1  0.390625  0.391983  0.830461  1
  Ru  Ru22  1  0.387737  0.830388  0.392374  1
  Ru  Ru23  1  0.830461  0.386933  0.390625  1
