# generated using pymatgen
data_Tb8Si12RhAu3
_symmetry_space_group_name_H-M   'P 1'
_cell_length_a   8.21092500
_cell_length_b   8.21092520
_cell_length_c   8.21990000
_cell_angle_alpha   90.00000000
_cell_angle_beta   90.00000000
_cell_angle_gamma   120.00001129
_symmetry_Int_Tables_number   1
_chemical_formula_structural   Tb8Si12RhAu3
_chemical_formula_sum   'Tb8 Si12 Rh1 Au3'
_cell_volume   479.93375632
_cell_formula_units_Z   1
loop_
 _symmetry_equiv_pos_site_id
 _symmetry_equiv_pos_as_xyz
  1  'x, y, z'
loop_
 _atom_site_type_symbol
 _atom_site_label
 _atom_site_symmetry_multiplicity
 _atom_site_fract_x
 _atom_site_fract_y
 _atom_site_fract_z
 _atom_site_occupancy
  Tb  Tb0  1  0.497673  0.995343  0.254472  1
  Tb  Tb1  1  0.496520  0.993043  0.745325  1
  Tb  Tb2  1  0.004657  0.502327  0.254472  1
  Tb  Tb3  1  0.006957  0.503480  0.745325  1
  Tb  Tb4  1  0.497673  0.502327  0.254472  1
  Tb  Tb5  1  0.496520  0.503480  0.745325  1
  Tb  Tb6  1  0.000000  0.000000  0.251391  1
  Tb  Tb7  1  0.000000  0.000000  0.748665  1
  Si  Si8  1  0.162991  0.325982  0.996862  1
  Si  Si9  1  0.836407  0.672814  0.003094  1
  Si  Si10  1  0.674018  0.837009  0.996862  1
  Si  Si11  1  0.838539  0.677076  0.501696  1
  Si  Si12  1  0.327186  0.163593  0.003094  1
  Si  Si13  1  0.168963  0.337925  0.498266  1
  Si  Si14  1  0.162991  0.837009  0.996862  1
  Si  Si15  1  0.322924  0.161461  0.501696  1
  Si  Si16  1  0.836407  0.163593  0.003094  1
  Si  Si17  1  0.662075  0.831037  0.498266  1
  Si  Si18  1  0.838539  0.161461  0.501696  1
  Si  Si19  1  0.168963  0.831037  0.498266  1
  Rh  Rh20  1  0.333333  0.666667  0.498824  1
  Au  Au21  1  0.333333  0.666667  0.002647  1
  Au  Au22  1  0.666667  0.333333  0.998053  1
  Au  Au23  1  0.666667  0.333333  0.501275  1
