# generated using pymatgen
data_Pa2SnIrRh
_symmetry_space_group_name_H-M   'P 1'
_cell_length_a   7.72208379
_cell_length_b   7.72208273
_cell_length_c   3.61479900
_cell_angle_alpha   90.00000000
_cell_angle_beta   90.00000000
_cell_angle_gamma   89.98764614
_symmetry_Int_Tables_number   1
_chemical_formula_structural   Pa2SnIrRh
_chemical_formula_sum   'Pa4 Sn2 Ir2 Rh2'
_cell_volume   215.55251948
_cell_formula_units_Z   2
loop_
 _symmetry_equiv_pos_site_id
 _symmetry_equiv_pos_as_xyz
  1  'x, y, z'
loop_
 _atom_site_type_symbol
 _atom_site_label
 _atom_site_symmetry_multiplicity
 _atom_site_fract_x
 _atom_site_fract_y
 _atom_site_fract_z
 _atom_site_occupancy
  Pa  Pa0  1  0.170872  0.329128  0.000000  1
  Pa  Pa1  1  0.829128  0.670872  0.000000  1
  Pa  Pa2  1  0.671658  0.171658  0.000000  1
  Pa  Pa3  1  0.328342  0.828342  0.000000  1
  Sn  Sn4  1  0.000000  0.000000  0.500000  1
  Sn  Sn5  1  0.500000  0.500000  0.500000  1
  Ir  Ir6  1  0.867241  0.367241  0.500000  1
  Ir  Ir7  1  0.132759  0.632759  0.500000  1
  Rh  Rh8  1  0.367390  0.132610  0.500000  1
  Rh  Rh9  1  0.632610  0.867390  0.500000  1
