# generated using pymatgen
data_Y14Tm2MgAg3Rh4
_symmetry_space_group_name_H-M   'P 1'
_cell_length_a   9.59600076
_cell_length_b   9.61770815
_cell_length_c   9.63404500
_cell_angle_alpha   59.94354734
_cell_angle_beta   59.86882076
_cell_angle_gamma   59.78615716
_symmetry_Int_Tables_number   1
_chemical_formula_structural   Y14Tm2MgAg3Rh4
_chemical_formula_sum   'Y14 Tm2 Mg1 Ag3 Rh4'
_cell_volume   626.80589125
_cell_formula_units_Z   1
loop_
 _symmetry_equiv_pos_site_id
 _symmetry_equiv_pos_as_xyz
  1  'x, y, z'
loop_
 _atom_site_type_symbol
 _atom_site_label
 _atom_site_symmetry_multiplicity
 _atom_site_fract_x
 _atom_site_fract_y
 _atom_site_fract_z
 _atom_site_occupancy
  Y  Y0  1  0.599447  0.203800  0.598380  1
  Y  Y1  1  0.185655  0.604436  0.604956  1
  Y  Y2  1  0.058980  0.438944  0.440580  1
  Y  Y3  1  0.436357  0.062369  0.063354  1
  Y  Y4  1  0.436356  0.062374  0.437918  1
  Y  Y5  1  0.058974  0.438938  0.061498  1
  Y  Y6  1  0.437332  0.437542  0.062561  1
  Y  Y7  1  0.059786  0.061203  0.439506  1
  Y  Y8  1  0.185694  0.812961  0.814217  1
  Y  Y9  1  0.814366  0.186119  0.185037  1
  Y  Y10  1  0.814374  0.186118  0.814479  1
  Y  Y11  1  0.185699  0.812966  0.187116  1
  Y  Y12  1  0.812875  0.813210  0.186961  1
  Y  Y13  1  0.184586  0.185190  0.815112  1
  Tm  Tm14  1  0.599511  0.597910  0.597357  1
  Tm  Tm15  1  0.599517  0.597924  0.205208  1
  Mg  Mg16  1  0.540081  0.819174  0.820369  1
  Ag  Ag17  1  0.831516  0.834473  0.835270  1
  Ag  Ag18  1  0.831530  0.834471  0.498735  1
  Ag  Ag19  1  0.831550  0.499245  0.834601  1
  Rh  Rh20  1  0.391229  0.397961  0.390834  1
  Rh  Rh21  1  0.391223  0.397951  0.819991  1
  Rh  Rh22  1  0.394136  0.817416  0.394226  1
  Rh  Rh23  1  0.819224  0.397308  0.391733  1
