# generated using pymatgen
data_YEr9Cd4(InPd)4
_symmetry_space_group_name_H-M   'P 1'
_cell_length_a   3.58558200
_cell_length_b   8.05905038
_cell_length_c   18.29932779
_cell_angle_alpha   89.83525014
_cell_angle_beta   90.00000000
_cell_angle_gamma   90.00000000
_symmetry_Int_Tables_number   1
_chemical_formula_structural   YEr9Cd4(InPd)4
_chemical_formula_sum   'Y1 Er9 Cd4 In4 Pd4'
_cell_volume   528.78225319
_cell_formula_units_Z   1
loop_
 _symmetry_equiv_pos_site_id
 _symmetry_equiv_pos_as_xyz
  1  'x, y, z'
loop_
 _atom_site_type_symbol
 _atom_site_label
 _atom_site_symmetry_multiplicity
 _atom_site_fract_x
 _atom_site_fract_y
 _atom_site_fract_z
 _atom_site_occupancy
  Y  Y0  1  0.000000  0.500000  0.500000  1
  Er  Er1  1  0.000000  0.000000  0.000000  1
  Er  Er2  1  0.000000  0.747707  0.281057  1
  Er  Er3  1  0.000000  0.252293  0.718943  1
  Er  Er4  1  0.000000  0.752592  0.781629  1
  Er  Er5  1  0.000000  0.247408  0.218371  1
  Er  Er6  1  0.000000  0.614874  0.083988  1
  Er  Er7  1  0.000000  0.385126  0.916012  1
  Er  Er8  1  0.000000  0.884890  0.584322  1
  Er  Er9  1  0.000000  0.115110  0.415678  1
  Cd  Cd10  1  0.500000  0.708704  0.932252  1
  Cd  Cd11  1  0.500000  0.291296  0.067748  1
  Cd  Cd12  1  0.500000  0.792712  0.431463  1
  Cd  Cd13  1  0.500000  0.207288  0.568537  1
  In  In14  1  0.500000  0.571454  0.647730  1
  In  In15  1  0.500000  0.428546  0.352270  1
  In  In16  1  0.500000  0.928571  0.147495  1
  In  In17  1  0.500000  0.071429  0.852505  1
  Pd  Pd18  1  0.500000  0.530703  0.196716  1
  Pd  Pd19  1  0.500000  0.469297  0.803284  1
  Pd  Pd20  1  0.500000  0.969351  0.697637  1
  Pd  Pd21  1  0.500000  0.030649  0.302363  1
