# generated using pymatgen
data_Y2Th(CdPd)3
_symmetry_space_group_name_H-M   'P 1'
_cell_length_a   7.77571798
_cell_length_b   7.77571772
_cell_length_c   3.86330700
_cell_angle_alpha   90.00000000
_cell_angle_beta   90.00000000
_cell_angle_gamma   119.74742180
_symmetry_Int_Tables_number   1
_chemical_formula_structural   Y2Th(CdPd)3
_chemical_formula_sum   'Y2 Th1 Cd3 Pd3'
_cell_volume   202.80122091
_cell_formula_units_Z   1
loop_
 _symmetry_equiv_pos_site_id
 _symmetry_equiv_pos_as_xyz
  1  'x, y, z'
loop_
 _atom_site_type_symbol
 _atom_site_label
 _atom_site_symmetry_multiplicity
 _atom_site_fract_x
 _atom_site_fract_y
 _atom_site_fract_z
 _atom_site_occupancy
  Y  Y0  1  0.404713  0.002939  0.000000  1
  Y  Y1  1  0.002939  0.404713  0.000000  1
  Th  Th2  1  0.593416  0.593416  0.000000  1
  Cd  Cd3  1  0.246240  0.246240  0.500000  1
  Cd  Cd4  1  0.742029  0.011784  0.500000  1
  Cd  Cd5  1  0.011784  0.742029  0.500000  1
  Pd  Pd6  1  0.990443  0.990443  0.000000  1
  Pd  Pd7  1  0.342953  0.665482  0.500000  1
  Pd  Pd8  1  0.665482  0.342953  0.500000  1
