# generated using pymatgen
data_SrNi(P4Os)3
_symmetry_space_group_name_H-M   'P 1'
_cell_length_a   7.01309171
_cell_length_b   7.01309194
_cell_length_c   7.04834300
_cell_angle_alpha   109.57307729
_cell_angle_beta   109.57307793
_cell_angle_gamma   109.36917908
_symmetry_Int_Tables_number   1
_chemical_formula_structural   SrNi(P4Os)3
_chemical_formula_sum   'Sr1 Ni1 P12 Os3'
_cell_volume   266.52421701
_cell_formula_units_Z   1
loop_
 _symmetry_equiv_pos_site_id
 _symmetry_equiv_pos_as_xyz
  1  'x, y, z'
loop_
 _atom_site_type_symbol
 _atom_site_label
 _atom_site_symmetry_multiplicity
 _atom_site_fract_x
 _atom_site_fract_y
 _atom_site_fract_z
 _atom_site_occupancy
  Sr  Sr0  1  0.000000  0.000000  0.000000  1
  Ni  Ni1  1  0.000000  0.000000  0.500000  1
  P  P2  1  0.354691  0.211740  0.854379  1
  P  P3  1  0.645309  0.788260  0.145621  1
  P  P4  1  0.642107  0.499316  0.855956  1
  P  P5  1  0.357893  0.500684  0.144044  1
  P  P6  1  0.211740  0.857048  0.357361  1
  P  P7  1  0.788260  0.142952  0.642639  1
  P  P8  1  0.499316  0.857210  0.643360  1
  P  P9  1  0.500684  0.142790  0.356640  1
  P  P10  1  0.857210  0.357893  0.213849  1
  P  P11  1  0.142790  0.642107  0.786151  1
  P  P12  1  0.857048  0.645309  0.499687  1
  P  P13  1  0.142952  0.354691  0.500313  1
  Os  Os14  1  0.500000  0.000000  0.000000  1
  Os  Os15  1  0.000000  0.500000  0.000000  1
  Os  Os16  1  0.500000  0.500000  0.500000  1
