# generated using pymatgen
data_Th8ScS17
_symmetry_space_group_name_H-M   'P 1'
_cell_length_a   8.09437338
_cell_length_b   8.09437237
_cell_length_c   10.81544085
_cell_angle_alpha   80.51067746
_cell_angle_beta   80.51067942
_cell_angle_gamma   65.26371609
_symmetry_Int_Tables_number   1
_chemical_formula_structural   Th8ScS17
_chemical_formula_sum   'Th8 Sc1 S17'
_cell_volume   631.14232523
_cell_formula_units_Z   1
loop_
 _symmetry_equiv_pos_site_id
 _symmetry_equiv_pos_as_xyz
  1  'x, y, z'
loop_
 _atom_site_type_symbol
 _atom_site_label
 _atom_site_symmetry_multiplicity
 _atom_site_fract_x
 _atom_site_fract_y
 _atom_site_fract_z
 _atom_site_occupancy
  Th  Th0  1  0.793457  0.793457  0.457227  1
  Th  Th1  1  0.206543  0.206543  0.542773  1
  Th  Th2  1  0.697018  0.185569  0.702804  1
  Th  Th3  1  0.185569  0.697018  0.702804  1
  Th  Th4  1  0.814431  0.302982  0.297196  1
  Th  Th5  1  0.681286  0.681286  0.980435  1
  Th  Th6  1  0.318714  0.318714  0.019565  1
  Th  Th7  1  0.302982  0.814431  0.297196  1
  Sc  Sc8  1  0.000000  0.000000  0.000000  1
  S  S9  1  0.480765  0.480765  0.167558  1
  S  S10  1  0.695335  0.695335  0.246659  1
  S  S11  1  0.570704  0.176054  0.467561  1
  S  S12  1  0.056893  0.672772  0.964233  1
  S  S13  1  0.208890  0.208890  0.279140  1
  S  S14  1  0.429296  0.823946  0.532439  1
  S  S15  1  0.519235  0.519235  0.832442  1
  S  S16  1  0.672772  0.056893  0.964233  1
  S  S17  1  0.940095  0.940095  0.232142  1
  S  S18  1  0.059905  0.059905  0.767858  1
  S  S19  1  0.304665  0.304665  0.753341  1
  S  S20  1  0.327228  0.943107  0.035767  1
  S  S21  1  0.823946  0.429296  0.532439  1
  S  S22  1  0.943107  0.327228  0.035767  1
  S  S23  1  0.176054  0.570704  0.467561  1
  S  S24  1  0.000000  0.000000  0.500000  1
  S  S25  1  0.791110  0.791110  0.720860  1
