# generated using pymatgen
data_DyZr2Fe8Os
_symmetry_space_group_name_H-M   'P 1'
_cell_length_a   5.00562835
_cell_length_b   5.00562815
_cell_length_c   8.66098306
_cell_angle_alpha   73.20336654
_cell_angle_beta   73.20336334
_cell_angle_gamma   60.00000538
_symmetry_Int_Tables_number   1
_chemical_formula_structural   DyZr2Fe8Os
_chemical_formula_sum   'Dy1 Zr2 Fe8 Os1'
_cell_volume   177.16675529
_cell_formula_units_Z   1
loop_
 _symmetry_equiv_pos_site_id
 _symmetry_equiv_pos_as_xyz
  1  'x, y, z'
loop_
 _atom_site_type_symbol
 _atom_site_label
 _atom_site_symmetry_multiplicity
 _atom_site_fract_x
 _atom_site_fract_y
 _atom_site_fract_z
 _atom_site_occupancy
  Dy  Dy0  1  0.000000  0.000000  0.000000  1
  Zr  Zr1  1  0.142587  0.142587  0.572240  1
  Zr  Zr2  1  0.857413  0.857413  0.427760  1
  Fe  Fe3  1  0.077996  0.584655  0.752694  1
  Fe  Fe4  1  0.584655  0.584655  0.752694  1
  Fe  Fe5  1  0.584655  0.077996  0.752694  1
  Fe  Fe6  1  0.922004  0.415345  0.247306  1
  Fe  Fe7  1  0.415345  0.415345  0.247306  1
  Fe  Fe8  1  0.415345  0.922004  0.247306  1
  Fe  Fe9  1  0.333068  0.333068  0.000797  1
  Fe  Fe10  1  0.666931  0.666931  0.999203  1
  Os  Os11  1  0.500000  0.500000  0.500000  1
