# generated using pymatgen
data_Re2Br8N
_symmetry_space_group_name_H-M   'P 1'
_cell_length_a   7.14097230
_cell_length_b   7.17798451
_cell_length_c   7.04517299
_cell_angle_alpha   91.06273795
_cell_angle_beta   96.74020432
_cell_angle_gamma   96.42720176
_symmetry_Int_Tables_number   1
_chemical_formula_structural   Re2Br8N
_chemical_formula_sum   'Re2 Br8 N1'
_cell_volume   356.18638737
_cell_formula_units_Z   1
loop_
 _symmetry_equiv_pos_site_id
 _symmetry_equiv_pos_as_xyz
  1  'x, y, z'
loop_
 _atom_site_type_symbol
 _atom_site_label
 _atom_site_symmetry_multiplicity
 _atom_site_fract_x
 _atom_site_fract_y
 _atom_site_fract_z
 _atom_site_occupancy
  Re  Re0  1  0.049978  0.413772  0.771422  1
  Re  Re1  1  0.950022  0.586228  0.228578  1
  Br  Br2  1  0.645176  0.386975  0.218126  1
  Br  Br3  1  0.892767  0.683212  0.596165  1
  Br  Br4  1  0.258713  0.779624  0.299336  1
  Br  Br5  1  0.791973  0.857422  0.125597  1
  Br  Br6  1  0.208027  0.142578  0.874403  1
  Br  Br7  1  0.354824  0.613025  0.781874  1
  Br  Br8  1  0.107233  0.316788  0.403835  1
  Br  Br9  1  0.741287  0.220376  0.700664  1
  N  N10  1  0.000000  0.500000  0.000000  1
