# generated using pymatgen
data_PrNd3(Ga5Pt3)2
_symmetry_space_group_name_H-M   'P 1'
_cell_length_a   8.67020628
_cell_length_b   8.67251554
_cell_length_c   8.67251583
_cell_angle_alpha   139.60669165
_cell_angle_beta   106.72684543
_cell_angle_gamma   87.17074189
_symmetry_Int_Tables_number   1
_chemical_formula_structural   PrNd3(Ga5Pt3)2
_chemical_formula_sum   'Pr1 Nd3 Ga10 Pt6'
_cell_volume   389.25604078
_cell_formula_units_Z   1
loop_
 _symmetry_equiv_pos_site_id
 _symmetry_equiv_pos_as_xyz
  1  'x, y, z'
loop_
 _atom_site_type_symbol
 _atom_site_label
 _atom_site_symmetry_multiplicity
 _atom_site_fract_x
 _atom_site_fract_y
 _atom_site_fract_z
 _atom_site_occupancy
  Pr  Pr0  1  0.593212  0.866311  0.726901  1
  Nd  Nd1  1  0.860471  0.634012  0.226459  1
  Nd  Nd2  1  0.139405  0.365843  0.773561  1
  Nd  Nd3  1  0.407487  0.134009  0.273479  1
  Ga  Ga4  1  0.499714  0.750137  0.249505  1
  Ga  Ga5  1  0.499714  0.250208  0.749576  1
  Ga  Ga6  1  0.218238  0.968197  0.749790  1
  Ga  Ga7  1  0.781659  0.531038  0.749866  1
  Ga  Ga8  1  0.781659  0.031793  0.250621  1
  Ga  Ga9  1  0.218238  0.468447  0.250040  1
  Ga  Ga10  1  0.055968  0.898203  0.157765  1
  Ga  Ga11  1  0.944494  0.102118  0.842376  1
  Ga  Ga12  1  0.740420  0.398176  0.342244  1
  Ga  Ga13  1  0.259580  0.601567  0.658012  1
  Pt  Pt14  1  0.000107  0.749962  0.750052  1
  Pt  Pt15  1  0.000107  0.250055  0.250145  1
  Pt  Pt16  1  0.250631  0.858554  0.392078  1
  Pt  Pt17  1  0.749142  0.141264  0.607877  1
  Pt  Pt18  1  0.466045  0.358748  0.107297  1
  Pt  Pt19  1  0.533712  0.641354  0.892357  1
