# generated using pymatgen
data_Tb2Eu2Al18Pd5Pt
_symmetry_space_group_name_H-M   'P 1'
_cell_length_a   7.65574102
_cell_length_b   7.65740519
_cell_length_c   9.52923200
_cell_angle_alpha   89.99923531
_cell_angle_beta   89.99795996
_cell_angle_gamma   119.62857505
_symmetry_Int_Tables_number   1
_chemical_formula_structural   Tb2Eu2Al18Pd5Pt
_chemical_formula_sum   'Tb2 Eu2 Al18 Pd5 Pt1'
_cell_volume   485.59108027
_cell_formula_units_Z   1
loop_
 _symmetry_equiv_pos_site_id
 _symmetry_equiv_pos_as_xyz
  1  'x, y, z'
loop_
 _atom_site_type_symbol
 _atom_site_label
 _atom_site_symmetry_multiplicity
 _atom_site_fract_x
 _atom_site_fract_y
 _atom_site_fract_z
 _atom_site_occupancy
  Tb  Tb0  1  0.669363  0.995146  0.249992  1
  Tb  Tb1  1  0.330641  0.004830  0.749999  1
  Eu  Eu2  1  0.994867  0.667974  0.249994  1
  Eu  Eu3  1  0.005142  0.332013  0.750011  1
  Al  Al4  1  0.129766  0.130745  0.249996  1
  Al  Al5  1  0.870220  0.869269  0.750002  1
  Al  Al6  1  0.001511  0.334523  0.075820  1
  Al  Al7  1  0.998481  0.665469  0.924175  1
  Al  Al8  1  0.998461  0.665464  0.575845  1
  Al  Al9  1  0.334625  0.000543  0.424598  1
  Al  Al10  1  0.001536  0.334512  0.424166  1
  Al  Al11  1  0.665395  0.999459  0.575395  1
  Al  Al12  1  0.665404  0.999480  0.924607  1
  Al  Al13  1  0.334603  0.000513  0.075393  1
  Al  Al14  1  0.333589  0.333299  0.556417  1
  Al  Al15  1  0.666406  0.666698  0.443591  1
  Al  Al16  1  0.666415  0.666725  0.056395  1
  Al  Al17  1  0.333556  0.333301  0.943598  1
  Al  Al18  1  0.342886  0.548162  0.249998  1
  Al  Al19  1  0.657118  0.451874  0.749980  1
  Al  Al20  1  0.543845  0.336498  0.250022  1
  Al  Al21  1  0.456126  0.663507  0.750005  1
  Pd  Pd22  1  0.330513  0.672856  0.999748  1
  Pd  Pd23  1  0.330526  0.672846  0.500255  1
  Pd  Pd24  1  0.669488  0.327138  0.499765  1
  Pd  Pd25  1  0.000004  0.000007  0.999990  1
  Pd  Pd26  1  0.000013  0.000004  0.500009  1
  Pt  Pt27  1  0.669502  0.327147  0.000233  1
