# generated using pymatgen
data_NaDy(Si7Ir3)2
_symmetry_space_group_name_H-M   'P 1'
_cell_length_a   8.00899362
_cell_length_b   8.00899431
_cell_length_c   8.00899303
_cell_angle_alpha   56.86768664
_cell_angle_beta   56.86768350
_cell_angle_gamma   56.86768486
_symmetry_Int_Tables_number   1
_chemical_formula_structural   NaDy(Si7Ir3)2
_chemical_formula_sum   'Na1 Dy1 Si14 Ir6'
_cell_volume   337.00781609
_cell_formula_units_Z   1
loop_
 _symmetry_equiv_pos_site_id
 _symmetry_equiv_pos_as_xyz
  1  'x, y, z'
loop_
 _atom_site_type_symbol
 _atom_site_label
 _atom_site_symmetry_multiplicity
 _atom_site_fract_x
 _atom_site_fract_y
 _atom_site_fract_z
 _atom_site_occupancy
  Na  Na0  1  0.500000  0.500000  0.500000  1
  Dy  Dy1  1  0.000000  0.000000  0.000000  1
  Si  Si2  1  0.750456  0.750456  0.750456  1
  Si  Si3  1  0.249544  0.249544  0.249544  1
  Si  Si4  1  0.847617  0.067564  0.671291  1
  Si  Si5  1  0.671291  0.847617  0.067564  1
  Si  Si6  1  0.067564  0.671291  0.847617  1
  Si  Si7  1  0.647627  0.824310  0.435971  1
  Si  Si8  1  0.435971  0.647627  0.824310  1
  Si  Si9  1  0.824310  0.435971  0.647627  1
  Si  Si10  1  0.175690  0.564029  0.352373  1
  Si  Si11  1  0.564029  0.352373  0.175690  1
  Si  Si12  1  0.352373  0.175690  0.564029  1
  Si  Si13  1  0.932436  0.328709  0.152383  1
  Si  Si14  1  0.328709  0.152383  0.932436  1
  Si  Si15  1  0.152383  0.932436  0.328709  1
  Ir  Ir16  1  0.067943  0.425952  0.753228  1
  Ir  Ir17  1  0.246772  0.932057  0.574048  1
  Ir  Ir18  1  0.574048  0.246772  0.932057  1
  Ir  Ir19  1  0.932057  0.574048  0.246772  1
  Ir  Ir20  1  0.425952  0.753228  0.067943  1
  Ir  Ir21  1  0.753228  0.067943  0.425952  1
