# generated using pymatgen
data_Yb3Pr4Dy3Ge8
_symmetry_space_group_name_H-M   'P 1'
_cell_length_a   7.89538464
_cell_length_b   7.89733789
_cell_length_c   14.56317700
_cell_angle_alpha   90.11783701
_cell_angle_beta   89.79478254
_cell_angle_gamma   89.98802321
_symmetry_Int_Tables_number   1
_chemical_formula_structural   Yb3Pr4Dy3Ge8
_chemical_formula_sum   'Yb6 Pr8 Dy6 Ge16'
_cell_volume   908.04302299
_cell_formula_units_Z   2
loop_
 _symmetry_equiv_pos_site_id
 _symmetry_equiv_pos_as_xyz
  1  'x, y, z'
loop_
 _atom_site_type_symbol
 _atom_site_label
 _atom_site_symmetry_multiplicity
 _atom_site_fract_x
 _atom_site_fract_y
 _atom_site_fract_z
 _atom_site_occupancy
  Yb  Yb0  1  0.509229  0.639731  0.123544  1
  Yb  Yb1  1  0.138953  0.990838  0.872064  1
  Yb  Yb2  1  0.685895  0.686970  0.500494  1
  Yb  Yb3  1  0.816594  0.184312  0.750924  1
  Yb  Yb4  1  0.191514  0.812417  0.249651  1
  Yb  Yb5  1  0.314024  0.312847  0.000138  1
  Pr  Pr6  1  0.992468  0.634286  0.042588  1
  Pr  Pr7  1  0.008399  0.362749  0.540930  1
  Pr  Pr8  1  0.632367  0.991765  0.957912  1
  Pr  Pr9  1  0.135737  0.509408  0.791234  1
  Pr  Pr10  1  0.864229  0.493362  0.292368  1
  Pr  Pr11  1  0.508331  0.135390  0.208540  1
  Pr  Pr12  1  0.491359  0.865202  0.708210  1
  Pr  Pr13  1  0.362867  0.010342  0.459043  1
  Dy  Dy14  1  0.362248  0.493178  0.378156  1
  Dy  Dy15  1  0.862129  0.006143  0.374134  1
  Dy  Dy16  1  0.991812  0.137629  0.127751  1
  Dy  Dy17  1  0.005898  0.862898  0.625774  1
  Dy  Dy18  1  0.636354  0.506798  0.875259  1
  Dy  Dy19  1  0.492945  0.362384  0.622276  1
  Ge  Ge20  1  0.067094  0.713916  0.437918  1
  Ge  Ge21  1  0.930395  0.286158  0.939091  1
  Ge  Ge22  1  0.712552  0.066834  0.562732  1
  Ge  Ge23  1  0.212892  0.430078  0.190056  1
  Ge  Ge24  1  0.785703  0.567064  0.687437  1
  Ge  Ge25  1  0.434992  0.215727  0.810246  1
  Ge  Ge26  1  0.567368  0.789685  0.314295  1
  Ge  Ge27  1  0.286484  0.934816  0.062224  1
  Ge  Ge28  1  0.842472  0.797376  0.812140  1
  Ge  Ge29  1  0.151550  0.203021  0.315708  1
  Ge  Ge30  1  0.801993  0.846513  0.188068  1
  Ge  Ge31  1  0.297650  0.653982  0.565298  1
  Ge  Ge32  1  0.702431  0.345079  0.062532  1
  Ge  Ge33  1  0.652751  0.298199  0.434379  1
  Ge  Ge34  1  0.346109  0.700352  0.935347  1
  Ge  Ge35  1  0.204214  0.152549  0.681538  1
