# generated using pymatgen
data_Tb10Nd6Cd4Ir3Pt
_symmetry_space_group_name_H-M   'P 1'
_cell_length_a   9.76770033
_cell_length_b   9.76770015
_cell_length_c   9.76770013
_cell_angle_alpha   60.15909046
_cell_angle_beta   60.15909215
_cell_angle_gamma   60.15909197
_symmetry_Int_Tables_number   1
_chemical_formula_structural   Tb10Nd6Cd4Ir3Pt
_chemical_formula_sum   'Tb10 Nd6 Cd4 Ir3 Pt1'
_cell_volume   661.33891152
_cell_formula_units_Z   1
loop_
 _symmetry_equiv_pos_site_id
 _symmetry_equiv_pos_as_xyz
  1  'x, y, z'
loop_
 _atom_site_type_symbol
 _atom_site_label
 _atom_site_symmetry_multiplicity
 _atom_site_fract_x
 _atom_site_fract_y
 _atom_site_fract_z
 _atom_site_occupancy
  Tb  Tb0  1  0.347206  0.347206  0.347206  1
  Tb  Tb1  1  0.350887  0.350887  0.952702  1
  Tb  Tb2  1  0.350887  0.952702  0.350887  1
  Tb  Tb3  1  0.952702  0.350887  0.350887  1
  Tb  Tb4  1  0.807391  0.188954  0.188954  1
  Tb  Tb5  1  0.186023  0.811917  0.811917  1
  Tb  Tb6  1  0.188954  0.807391  0.188954  1
  Tb  Tb7  1  0.811917  0.186023  0.811917  1
  Tb  Tb8  1  0.188954  0.188954  0.807391  1
  Tb  Tb9  1  0.811917  0.811917  0.186023  1
  Nd  Nd10  1  0.940855  0.560023  0.560023  1
  Nd  Nd11  1  0.560569  0.940447  0.940447  1
  Nd  Nd12  1  0.560023  0.940855  0.560023  1
  Nd  Nd13  1  0.940447  0.560569  0.940447  1
  Nd  Nd14  1  0.560023  0.560023  0.940855  1
  Nd  Nd15  1  0.940447  0.940447  0.560569  1
  Cd  Cd16  1  0.579604  0.579604  0.579604  1
  Cd  Cd17  1  0.579824  0.579824  0.260526  1
  Cd  Cd18  1  0.579824  0.260526  0.579824  1
  Cd  Cd19  1  0.260526  0.579824  0.579824  1
  Ir  Ir20  1  0.141964  0.141964  0.574835  1
  Ir  Ir21  1  0.141964  0.574835  0.141964  1
  Ir  Ir22  1  0.574835  0.141964  0.141964  1
  Pt  Pt23  1  0.142261  0.142261  0.142261  1
