# generated using pymatgen
data_Hf18Re6AsRhW2
_symmetry_space_group_name_H-M   'P 1'
_cell_length_a   8.66359400
_cell_length_b   8.66359527
_cell_length_c   8.58525700
_cell_angle_alpha   90.00000000
_cell_angle_beta   90.00000000
_cell_angle_gamma   119.99814276
_symmetry_Int_Tables_number   1
_chemical_formula_structural   Hf18Re6AsRhW2
_chemical_formula_sum   'Hf18 Re6 As1 Rh1 W2'
_cell_volume   558.06952435
_cell_formula_units_Z   1
loop_
 _symmetry_equiv_pos_site_id
 _symmetry_equiv_pos_as_xyz
  1  'x, y, z'
loop_
 _atom_site_type_symbol
 _atom_site_label
 _atom_site_symmetry_multiplicity
 _atom_site_fract_x
 _atom_site_fract_y
 _atom_site_fract_z
 _atom_site_occupancy
  Hf  Hf0  1  0.802528  0.605071  0.552047  1
  Hf  Hf1  1  0.802495  0.197505  0.552010  1
  Hf  Hf2  1  0.394929  0.197472  0.552047  1
  Hf  Hf3  1  0.193365  0.386762  0.453855  1
  Hf  Hf4  1  0.193433  0.806567  0.453899  1
  Hf  Hf5  1  0.613238  0.806635  0.453855  1
  Hf  Hf6  1  0.193365  0.386762  0.046145  1
  Hf  Hf7  1  0.193433  0.806567  0.046101  1
  Hf  Hf8  1  0.613238  0.806635  0.046145  1
  Hf  Hf9  1  0.802528  0.605071  0.947953  1
  Hf  Hf10  1  0.802495  0.197505  0.947990  1
  Hf  Hf11  1  0.394929  0.197472  0.947953  1
  Hf  Hf12  1  0.458361  0.916688  0.750000  1
  Hf  Hf13  1  0.458301  0.541699  0.750000  1
  Hf  Hf14  1  0.083312  0.541639  0.750000  1
  Hf  Hf15  1  0.542301  0.084638  0.250000  1
  Hf  Hf16  1  0.542331  0.457669  0.250000  1
  Hf  Hf17  1  0.915362  0.457699  0.250000  1
  Re  Re18  1  0.110916  0.221875  0.750000  1
  Re  Re19  1  0.110945  0.889055  0.750000  1
  Re  Re20  1  0.778125  0.889084  0.750000  1
  Re  Re21  1  0.889499  0.778937  0.250000  1
  Re  Re22  1  0.889470  0.110530  0.250000  1
  Re  Re23  1  0.221063  0.110501  0.250000  1
  As  As24  1  0.333371  0.666629  0.250000  1
  Rh  Rh25  1  0.666643  0.333357  0.750000  1
  W  W26  1  0.000009  0.999991  0.500635  1
  W  W27  1  0.000009  0.999991  0.999365  1
