# generated using pymatgen
data_ScI35
_symmetry_space_group_name_H-M   'P 1'
_cell_length_a   17.58017498
_cell_length_b   12.54030950
_cell_length_c   11.87107100
_cell_angle_alpha   88.81408644
_cell_angle_beta   66.02770740
_cell_angle_gamma   92.31545562
_symmetry_Int_Tables_number   1
_chemical_formula_structural   ScI35
_chemical_formula_sum   'Sc1 I35'
_cell_volume   2387.43274716
_cell_formula_units_Z   1
loop_
 _symmetry_equiv_pos_site_id
 _symmetry_equiv_pos_as_xyz
  1  'x, y, z'
loop_
 _atom_site_type_symbol
 _atom_site_label
 _atom_site_symmetry_multiplicity
 _atom_site_fract_x
 _atom_site_fract_y
 _atom_site_fract_z
 _atom_site_occupancy
  Sc  Sc0  1  0.217041  0.407186  0.457505  1
  I  I1  1  0.508045  0.303419  0.553312  1
  I  I2  1  0.729549  0.581932  0.604808  1
  I  I3  1  0.459566  0.705270  0.774546  1
  I  I4  1  0.077115  0.896551  0.794229  1
  I  I5  1  0.891447  0.142101  0.023433  1
  I  I6  1  0.633411  0.338108  0.297029  1
  I  I7  1  0.598508  0.317911  0.860019  1
  I  I8  1  0.332569  0.809621  0.717355  1
  I  I9  1  0.340071  0.558135  0.225322  1
  I  I10  1  0.650623  0.109388  0.832318  1
  I  I11  1  0.877258  0.564957  0.380564  1
  I  I12  1  0.072855  0.924203  0.553993  1
  I  I13  1  0.892001  0.112148  0.270717  1
  I  I14  1  0.885200  0.177108  0.786119  1
  I  I15  1  0.648929  0.071119  0.264496  1
  I  I16  1  0.055587  0.845268  0.051507  1
  I  I17  1  0.355192  0.031846  0.767463  1
  I  I18  1  0.882170  0.336922  0.331277  1
  I  I19  1  0.884220  0.896585  0.667321  1
  I  I20  1  0.987624  0.627286  0.741121  1
  I  I21  1  0.323723  0.040582  0.240300  1
  I  I22  1  0.329386  0.305804  0.230739  1
  I  I23  1  0.580522  0.595383  0.840270  1
  I  I24  1  0.093585  0.448620  0.387551  1
  I  I25  1  0.707179  0.874340  0.793217  1
  I  I26  1  0.925335  0.405448  0.767808  1
  I  I27  1  0.491681  0.048317  0.254861  1
  I  I28  1  0.170560  0.224060  0.593890  1
  I  I29  1  0.690533  0.803111  0.248665  1
  I  I30  1  0.873649  0.819151  0.149937  1
  I  I31  1  0.381820  0.258714  0.802454  1
  I  I32  1  0.331089  0.486714  0.572625  1
  I  I33  1  0.653241  0.569981  0.267594  1
  I  I34  1  0.163889  0.569109  0.659419  1
  I  I35  1  0.304827  0.793603  0.236220  1
