# generated using pymatgen
data_YbPa7(TlPt2)4
_symmetry_space_group_name_H-M   'P 1'
_cell_length_a   7.93490707
_cell_length_b   7.94722195
_cell_length_c   7.22628900
_cell_angle_alpha   89.95172494
_cell_angle_beta   90.00755288
_cell_angle_gamma   90.47676403
_symmetry_Int_Tables_number   1
_chemical_formula_structural   YbPa7(TlPt2)4
_chemical_formula_sum   'Yb1 Pa7 Tl4 Pt8'
_cell_volume   455.67722197
_cell_formula_units_Z   1
loop_
 _symmetry_equiv_pos_site_id
 _symmetry_equiv_pos_as_xyz
  1  'x, y, z'
loop_
 _atom_site_type_symbol
 _atom_site_label
 _atom_site_symmetry_multiplicity
 _atom_site_fract_x
 _atom_site_fract_y
 _atom_site_fract_z
 _atom_site_occupancy
  Yb  Yb0  1  0.168919  0.830377  0.499559  1
  Pa  Pa1  1  0.668250  0.664716  0.999880  1
  Pa  Pa2  1  0.321474  0.323567  0.500302  1
  Pa  Pa3  1  0.837859  0.161263  0.500279  1
  Pa  Pa4  1  0.677118  0.678788  0.499846  1
  Pa  Pa5  1  0.334495  0.331471  0.000138  1
  Pa  Pa6  1  0.822113  0.178524  0.000067  1
  Pa  Pa7  1  0.176167  0.823745  0.999700  1
  Tl  Tl8  1  0.493297  0.996612  0.744277  1
  Tl  Tl9  1  0.493184  0.997036  0.255578  1
  Tl  Tl10  1  0.003234  0.506634  0.743831  1
  Tl  Tl11  1  0.003344  0.507099  0.256358  1
  Pt  Pt12  1  0.865763  0.874510  0.766302  1
  Pt  Pt13  1  0.125032  0.134037  0.765874  1
  Pt  Pt14  1  0.631996  0.368410  0.734557  1
  Pt  Pt15  1  0.632423  0.368904  0.265993  1
  Pt  Pt16  1  0.377318  0.622318  0.251309  1
  Pt  Pt17  1  0.124814  0.134679  0.234753  1
  Pt  Pt18  1  0.865691  0.874972  0.233181  1
  Pt  Pt19  1  0.377511  0.622338  0.748217  1
