# generated using pymatgen
data_DyMnSbO6
_symmetry_space_group_name_H-M   'P 1'
_cell_length_a   5.14324875
_cell_length_b   5.14326319
_cell_length_c   4.92349129
_cell_angle_alpha   90.01271311
_cell_angle_beta   90.01299130
_cell_angle_gamma   119.92304050
_symmetry_Int_Tables_number   1
_chemical_formula_structural   DyMnSbO6
_chemical_formula_sum   'Dy1 Mn1 Sb1 O6'
_cell_volume   112.87982082
_cell_formula_units_Z   1
loop_
 _symmetry_equiv_pos_site_id
 _symmetry_equiv_pos_as_xyz
  1  'x, y, z'
loop_
 _atom_site_type_symbol
 _atom_site_label
 _atom_site_symmetry_multiplicity
 _atom_site_fract_x
 _atom_site_fract_y
 _atom_site_fract_z
 _atom_site_occupancy
  Dy  Dy0  1  0.517552  0.482447  0.500003  1
  Mn  Mn1  1  0.850620  0.149392  0.999999  1
  Sb  Sb2  1  0.184188  0.815817  0.000011  1
  O  O3  1  0.150814  0.125865  0.220600  1
  O  O4  1  0.527933  0.850828  0.221357  1
  O  O5  1  0.875782  0.473482  0.221221  1
  O  O6  1  0.526516  0.124218  0.778783  1
  O  O7  1  0.149172  0.472070  0.778651  1
  O  O8  1  0.874137  0.849188  0.779405  1
