# generated using pymatgen
data_K4LiGaS4
_symmetry_space_group_name_H-M   'P 1'
_cell_length_a   7.84458814
_cell_length_b   7.84458851
_cell_length_c   7.84458900
_cell_angle_alpha   133.23133524
_cell_angle_beta   131.29009142
_cell_angle_gamma   69.82934864
_symmetry_Int_Tables_number   1
_chemical_formula_structural   K4LiGaS4
_chemical_formula_sum   'K4 Li1 Ga1 S4'
_cell_volume   259.16195831
_cell_formula_units_Z   1
loop_
 _symmetry_equiv_pos_site_id
 _symmetry_equiv_pos_as_xyz
  1  'x, y, z'
loop_
 _atom_site_type_symbol
 _atom_site_label
 _atom_site_symmetry_multiplicity
 _atom_site_fract_x
 _atom_site_fract_y
 _atom_site_fract_z
 _atom_site_occupancy
  K  K0  1  0.475146  0.157858  0.339565  1
  K  K1  1  0.524854  0.864420  0.682714  1
  K  K2  1  0.181706  0.342142  0.817286  1
  K  K3  1  0.818294  0.635580  0.160435  1
  Li  Li4  1  0.000000  0.250000  0.250000  1
  Ga  Ga5  1  0.000000  0.750000  0.750000  1
  S  S6  1  0.084818  0.877105  0.169810  1
  S  S7  1  0.915182  0.084993  0.792288  1
  S  S8  1  0.292704  0.622895  0.707712  1
  S  S9  1  0.707296  0.415007  0.330190  1
