# generated using pymatgen
data_Dy3YNiB16Ir3
_symmetry_space_group_name_H-M   'P 1'
_cell_length_a   6.97462995
_cell_length_b   6.97523618
_cell_length_c   6.97462948
_cell_angle_alpha   111.33416210
_cell_angle_beta   112.30110158
_cell_angle_gamma   104.87229212
_symmetry_Int_Tables_number   1
_chemical_formula_structural   Dy3YNiB16Ir3
_chemical_formula_sum   'Dy3 Y1 Ni1 B16 Ir3'
_cell_volume   259.94588890
_cell_formula_units_Z   1
loop_
 _symmetry_equiv_pos_site_id
 _symmetry_equiv_pos_as_xyz
  1  'x, y, z'
loop_
 _atom_site_type_symbol
 _atom_site_label
 _atom_site_symmetry_multiplicity
 _atom_site_fract_x
 _atom_site_fract_y
 _atom_site_fract_z
 _atom_site_occupancy
  Dy  Dy0  1  0.212979  0.216062  0.003082  1
  Dy  Dy1  1  0.751451  0.252071  0.500620  1
  Dy  Dy2  1  0.248311  0.749018  0.500706  1
  Y  Y3  1  0.787686  0.790682  0.002996  1
  Ni  Ni4  1  0.500232  0.256808  0.756577  1
  B  B5  1  0.270079  0.108646  0.378720  1
  B  B6  1  0.735540  0.893904  0.629406  1
  B  B7  1  0.264498  0.893904  0.158364  1
  B  B8  1  0.729924  0.108646  0.838567  1
  B  B9  1  0.108079  0.731573  0.839732  1
  B  B10  1  0.891029  0.264722  0.155769  1
  B  B11  1  0.108953  0.264722  0.373694  1
  B  B12  1  0.891840  0.731573  0.623493  1
  B  B13  1  0.118175  0.112837  0.531973  1
  B  B14  1  0.584464  0.584026  0.474417  1
  B  B15  1  0.109611  0.584026  0.999564  1
  B  B16  1  0.580862  0.112837  0.994661  1
  B  B17  1  0.890696  0.890129  0.475030  1
  B  B18  1  0.418739  0.413558  0.531383  1
  B  B19  1  0.882174  0.413558  0.994819  1
  B  B20  1  0.415100  0.890129  0.999433  1
  Ir  Ir21  1  0.266695  0.496665  0.763672  1
  Ir  Ir22  1  0.732993  0.496665  0.229971  1
  Ir  Ir23  1  0.499889  0.743240  0.243352  1
