# generated using pymatgen
data_YbHoPdPtO7
_symmetry_space_group_name_H-M   'P 1'
_cell_length_a   7.24552961
_cell_length_b   7.23989972
_cell_length_c   7.24552785
_cell_angle_alpha   60.02569225
_cell_angle_beta   59.97593605
_cell_angle_gamma   60.02569869
_symmetry_Int_Tables_number   1
_chemical_formula_structural   YbHoPdPtO7
_chemical_formula_sum   'Yb2 Ho2 Pd2 Pt2 O14'
_cell_volume   268.81108785
_cell_formula_units_Z   2
loop_
 _symmetry_equiv_pos_site_id
 _symmetry_equiv_pos_as_xyz
  1  'x, y, z'
loop_
 _atom_site_type_symbol
 _atom_site_label
 _atom_site_symmetry_multiplicity
 _atom_site_fract_x
 _atom_site_fract_y
 _atom_site_fract_z
 _atom_site_occupancy
  Yb  Yb0  1  0.625000  0.625000  0.625000  1
  Yb  Yb1  1  0.625000  0.125000  0.625000  1
  Ho  Ho2  1  0.625000  0.625000  0.125000  1
  Ho  Ho3  1  0.125000  0.625000  0.625000  1
  Pd  Pd4  1  0.125000  0.125000  0.125000  1
  Pd  Pd5  1  0.125000  0.625000  0.125000  1
  Pt  Pt6  1  0.625000  0.125000  0.125000  1
  Pt  Pt7  1  0.125000  0.125000  0.625000  1
  O  O8  1  0.042061  0.459897  0.461624  1
  O  O9  1  0.788376  0.790103  0.207939  1
  O  O10  1  0.788376  0.213581  0.207939  1
  O  O11  1  0.457192  0.042808  0.457192  1
  O  O12  1  0.754955  0.745045  0.754955  1
  O  O13  1  0.042061  0.036419  0.461624  1
  O  O14  1  0.035549  0.464451  0.035549  1
  O  O15  1  0.792808  0.207192  0.792808  1
  O  O16  1  0.214451  0.785549  0.214451  1
  O  O17  1  0.207939  0.213581  0.788376  1
  O  O18  1  0.495045  0.504955  0.495045  1
  O  O19  1  0.461624  0.036419  0.042061  1
  O  O20  1  0.461624  0.459897  0.042061  1
  O  O21  1  0.207939  0.790103  0.788376  1
