# generated using pymatgen
data_Pr16Ho4Ru5Pt7
_symmetry_space_group_name_H-M   'P 1'
_cell_length_a   11.43874520
_cell_length_b   11.43874531
_cell_length_c   6.53340200
_cell_angle_alpha   90.06426949
_cell_angle_beta   90.06426949
_cell_angle_gamma   90.04222823
_symmetry_Int_Tables_number   1
_chemical_formula_structural   Pr16Ho4Ru5Pt7
_chemical_formula_sum   'Pr16 Ho4 Ru5 Pt7'
_cell_volume   854.86097708
_cell_formula_units_Z   1
loop_
 _symmetry_equiv_pos_site_id
 _symmetry_equiv_pos_as_xyz
  1  'x, y, z'
loop_
 _atom_site_type_symbol
 _atom_site_label
 _atom_site_symmetry_multiplicity
 _atom_site_fract_x
 _atom_site_fract_y
 _atom_site_fract_z
 _atom_site_occupancy
  Pr  Pr0  1  0.295306  0.085398  0.375625  1
  Pr  Pr1  1  0.294345  0.909005  0.875849  1
  Pr  Pr2  1  0.704823  0.085395  0.875324  1
  Pr  Pr3  1  0.704294  0.913157  0.374373  1
  Pr  Pr4  1  0.581984  0.791499  0.875461  1
  Pr  Pr5  1  0.585951  0.206781  0.376634  1
  Pr  Pr6  1  0.411024  0.790090  0.382516  1
  Pr  Pr7  1  0.413323  0.204237  0.876170  1
  Pr  Pr8  1  0.208501  0.418016  0.624539  1
  Pr  Pr9  1  0.209910  0.588976  0.117484  1
  Pr  Pr10  1  0.793219  0.414049  0.123366  1
  Pr  Pr11  1  0.795763  0.586677  0.623830  1
  Pr  Pr12  1  0.914602  0.704694  0.124375  1
  Pr  Pr13  1  0.914605  0.295177  0.624676  1
  Pr  Pr14  1  0.090995  0.705655  0.624151  1
  Pr  Pr15  1  0.086843  0.295706  0.125627  1
  Ho  Ho16  1  0.999799  0.999838  0.500565  1
  Ho  Ho17  1  0.000162  0.000201  0.999435  1
  Ho  Ho18  1  0.497385  0.501307  0.998592  1
  Ho  Ho19  1  0.498693  0.502615  0.501408  1
  Ru  Ru20  1  0.353643  0.646357  0.750000  1
  Ru  Ru21  1  0.500496  0.000735  0.120801  1
  Ru  Ru22  1  0.500254  0.001336  0.618441  1
  Ru  Ru23  1  0.998664  0.499746  0.881559  1
  Ru  Ru24  1  0.999265  0.499504  0.379199  1
  Pt  Pt25  1  0.854067  0.145933  0.250000  1
  Pt  Pt26  1  0.853378  0.854129  0.750127  1
  Pt  Pt27  1  0.145871  0.146622  0.749873  1
  Pt  Pt28  1  0.145681  0.854319  0.250000  1
  Pt  Pt29  1  0.646271  0.353729  0.750000  1
  Pt  Pt30  1  0.648028  0.647145  0.250075  1
  Pt  Pt31  1  0.352855  0.351972  0.249925  1
