# generated using pymatgen
data_Zr10CuGeBiPb5
_symmetry_space_group_name_H-M   'P 1'
_cell_length_a   8.81717926
_cell_length_b   8.81717962
_cell_length_c   5.96308654
_cell_angle_alpha   89.97551238
_cell_angle_beta   89.97550875
_cell_angle_gamma   119.94383738
_symmetry_Int_Tables_number   1
_chemical_formula_structural   Zr10CuGeBiPb5
_chemical_formula_sum   'Zr10 Cu1 Ge1 Bi1 Pb5'
_cell_volume   401.70426914
_cell_formula_units_Z   1
loop_
 _symmetry_equiv_pos_site_id
 _symmetry_equiv_pos_as_xyz
  1  'x, y, z'
loop_
 _atom_site_type_symbol
 _atom_site_label
 _atom_site_symmetry_multiplicity
 _atom_site_fract_x
 _atom_site_fract_y
 _atom_site_fract_z
 _atom_site_occupancy
  Zr  Zr0  1  0.740322  0.000665  0.249082  1
  Zr  Zr1  1  0.000665  0.740322  0.249082  1
  Zr  Zr2  1  0.260070  0.260070  0.247142  1
  Zr  Zr3  1  0.258271  0.998089  0.751291  1
  Zr  Zr4  1  0.998089  0.258271  0.751291  1
  Zr  Zr5  1  0.740410  0.740410  0.751219  1
  Zr  Zr6  1  0.333678  0.667307  0.499316  1
  Zr  Zr7  1  0.667307  0.333678  0.499316  1
  Zr  Zr8  1  0.667010  0.333327  0.000588  1
  Zr  Zr9  1  0.333327  0.667010  0.000588  1
  Cu  Cu10  1  0.998383  0.998383  0.002103  1
  Ge  Ge11  1  0.999779  0.999779  0.499098  1
  Bi  Bi12  1  0.389562  0.389562  0.752254  1
  Pb  Pb13  1  0.389379  0.000075  0.247723  1
  Pb  Pb14  1  0.000075  0.389379  0.247723  1
  Pb  Pb15  1  0.613012  0.613012  0.248561  1
  Pb  Pb16  1  0.610665  0.999995  0.751812  1
  Pb  Pb17  1  0.999995  0.610665  0.751812  1
