# generated using pymatgen
data_Rb4Li2DyYAs4
_symmetry_space_group_name_H-M   'P 1'
_cell_length_a   10.59462187
_cell_length_b   10.59462377
_cell_length_c   6.85611200
_cell_angle_alpha   90.00000000
_cell_angle_beta   90.00000000
_cell_angle_gamma   99.24742789
_symmetry_Int_Tables_number   1
_chemical_formula_structural   Rb4Li2DyYAs4
_chemical_formula_sum   'Rb8 Li4 Dy2 Y2 As8'
_cell_volume   759.56969994
_cell_formula_units_Z   2
loop_
 _symmetry_equiv_pos_site_id
 _symmetry_equiv_pos_as_xyz
  1  'x, y, z'
loop_
 _atom_site_type_symbol
 _atom_site_label
 _atom_site_symmetry_multiplicity
 _atom_site_fract_x
 _atom_site_fract_y
 _atom_site_fract_z
 _atom_site_occupancy
  Rb  Rb0  1  0.567274  0.932726  0.750000  1
  Rb  Rb1  1  0.932726  0.567274  0.250000  1
  Rb  Rb2  1  0.432640  0.067360  0.250000  1
  Rb  Rb3  1  0.067360  0.432640  0.750000  1
  Rb  Rb4  1  0.678409  0.321549  0.790055  1
  Rb  Rb5  1  0.821591  0.178451  0.290055  1
  Rb  Rb6  1  0.321549  0.678409  0.209945  1
  Rb  Rb7  1  0.178451  0.821591  0.709945  1
  Li  Li8  1  0.617665  0.617665  0.000000  1
  Li  Li9  1  0.882335  0.882335  0.500000  1
  Li  Li10  1  0.382306  0.382306  0.000000  1
  Li  Li11  1  0.117694  0.117694  0.500000  1
  Dy  Dy12  1  0.132108  0.132108  0.000000  1
  Dy  Dy13  1  0.367892  0.367892  0.500000  1
  Y  Y14  1  0.867848  0.867848  0.000000  1
  Y  Y15  1  0.632152  0.632152  0.500000  1
  As  As16  1  0.344368  0.155632  0.750000  1
  As  As17  1  0.155632  0.344368  0.250000  1
  As  As18  1  0.655516  0.844484  0.250000  1
  As  As19  1  0.844484  0.655516  0.750000  1
  As  As20  1  0.910101  0.090254  0.762967  1
  As  As21  1  0.589899  0.409746  0.262967  1
  As  As22  1  0.090254  0.910101  0.237033  1
  As  As23  1  0.409746  0.589899  0.737033  1
