# generated using pymatgen
data_Tm6TlTe2
_symmetry_space_group_name_H-M   'P 1'
_cell_length_a   4.17642600
_cell_length_b   21.31376800
_cell_length_c   11.42012800
_cell_angle_alpha   90.00000000
_cell_angle_beta   90.00000000
_cell_angle_gamma   90.00000000
_symmetry_Int_Tables_number   1
_chemical_formula_structural   Tm6TlTe2
_chemical_formula_sum   'Tm24 Tl4 Te8'
_cell_volume   1016.56697456
_cell_formula_units_Z   4
loop_
 _symmetry_equiv_pos_site_id
 _symmetry_equiv_pos_as_xyz
  1  'x, y, z'
loop_
 _atom_site_type_symbol
 _atom_site_label
 _atom_site_symmetry_multiplicity
 _atom_site_fract_x
 _atom_site_fract_y
 _atom_site_fract_z
 _atom_site_occupancy
  Tm  Tm0  1  0.750000  0.641545  0.931458  1
  Tm  Tm1  1  0.250000  0.358455  0.068542  1
  Tm  Tm2  1  0.250000  0.858455  0.431458  1
  Tm  Tm3  1  0.750000  0.141545  0.568542  1
  Tm  Tm4  1  0.750000  0.990167  0.392628  1
  Tm  Tm5  1  0.250000  0.009833  0.607372  1
  Tm  Tm6  1  0.250000  0.509833  0.892628  1
  Tm  Tm7  1  0.750000  0.490167  0.107372  1
  Tm  Tm8  1  0.750000  0.530176  0.631143  1
  Tm  Tm9  1  0.250000  0.469824  0.368857  1
  Tm  Tm10  1  0.250000  0.969824  0.131143  1
  Tm  Tm11  1  0.750000  0.030176  0.868857  1
  Tm  Tm12  1  0.750000  0.729632  0.249781  1
  Tm  Tm13  1  0.250000  0.270368  0.750219  1
  Tm  Tm14  1  0.250000  0.770368  0.749781  1
  Tm  Tm15  1  0.750000  0.229632  0.250219  1
  Tm  Tm16  1  0.750000  0.892004  0.666514  1
  Tm  Tm17  1  0.250000  0.107996  0.333486  1
  Tm  Tm18  1  0.250000  0.607996  0.166514  1
  Tm  Tm19  1  0.750000  0.392004  0.833486  1
  Tm  Tm20  1  0.750000  0.837355  0.968128  1
  Tm  Tm21  1  0.250000  0.162645  0.031872  1
  Tm  Tm22  1  0.250000  0.662645  0.468128  1
  Tm  Tm23  1  0.750000  0.337355  0.531872  1
  Tl  Tl24  1  0.750000  0.575412  0.365898  1
  Tl  Tl25  1  0.250000  0.424588  0.634102  1
  Tl  Tl26  1  0.250000  0.924588  0.865898  1
  Tl  Tl27  1  0.750000  0.075412  0.134102  1
  Te  Te28  1  0.750000  0.873049  0.226705  1
  Te  Te29  1  0.250000  0.126951  0.773295  1
  Te  Te30  1  0.250000  0.626951  0.726705  1
  Te  Te31  1  0.750000  0.373049  0.273295  1
  Te  Te32  1  0.750000  0.762977  0.537302  1
  Te  Te33  1  0.250000  0.237023  0.462698  1
  Te  Te34  1  0.250000  0.737023  0.037302  1
  Te  Te35  1  0.750000  0.262977  0.962698  1
