# generated using pymatgen
data_La4Pr6Si5Sn
_symmetry_space_group_name_H-M   'P 1'
_cell_length_a   7.98005368
_cell_length_b   7.97526890
_cell_length_c   9.10563862
_cell_angle_alpha   115.96456029
_cell_angle_beta   115.98130404
_cell_angle_gamma   90.01507827
_symmetry_Int_Tables_number   1
_chemical_formula_structural   La4Pr6Si5Sn
_chemical_formula_sum   'La4 Pr6 Si5 Sn1'
_cell_volume   454.94542245
_cell_formula_units_Z   1
loop_
 _symmetry_equiv_pos_site_id
 _symmetry_equiv_pos_as_xyz
  1  'x, y, z'
loop_
 _atom_site_type_symbol
 _atom_site_label
 _atom_site_symmetry_multiplicity
 _atom_site_fract_x
 _atom_site_fract_y
 _atom_site_fract_z
 _atom_site_occupancy
  La  La0  1  0.503634  0.503634  0.007269  1
  La  La1  1  0.996911  0.996911  0.993822  1
  La  La2  1  0.972708  0.827078  0.286574  1
  La  La3  1  0.313866  0.459496  0.286574  1
  Pr  Pr4  1  0.824750  0.312471  0.284927  1
  Pr  Pr5  1  0.460177  0.972456  0.284927  1
  Pr  Pr6  1  0.039713  0.186524  0.713734  1
  Pr  Pr7  1  0.674021  0.527209  0.713734  1
  Pr  Pr8  1  0.186890  0.674317  0.715659  1
  Pr  Pr9  1  0.528769  0.041342  0.715659  1
  Si  Si10  1  0.250601  0.250601  0.501202  1
  Si  Si11  1  0.612605  0.886411  0.999092  1
  Si  Si12  1  0.386487  0.112681  0.999092  1
  Si  Si13  1  0.884959  0.385084  0.998190  1
  Si  Si14  1  0.113230  0.613105  0.998190  1
  Sn  Sn15  1  0.750679  0.750679  0.501357  1
