# generated using pymatgen
data_Eu3MnP6Rh5
_symmetry_space_group_name_H-M   'P 1'
_cell_length_a   6.71013141
_cell_length_b   6.73585577
_cell_length_c   6.97686895
_cell_angle_alpha   89.97759890
_cell_angle_beta   90.89617513
_cell_angle_gamma   120.11345659
_symmetry_Int_Tables_number   1
_chemical_formula_structural   Eu3MnP6Rh5
_chemical_formula_sum   'Eu3 Mn1 P6 Rh5'
_cell_volume   272.73953010
_cell_formula_units_Z   1
loop_
 _symmetry_equiv_pos_site_id
 _symmetry_equiv_pos_as_xyz
  1  'x, y, z'
loop_
 _atom_site_type_symbol
 _atom_site_label
 _atom_site_symmetry_multiplicity
 _atom_site_fract_x
 _atom_site_fract_y
 _atom_site_fract_z
 _atom_site_occupancy
  Eu  Eu0  1  0.399567  0.401978  0.499404  1
  Eu  Eu1  1  0.600284  0.002234  0.167243  1
  Eu  Eu2  1  0.999929  0.599344  0.833384  1
  Mn  Mn3  1  0.999739  0.122867  0.833096  1
  P  P4  1  0.899931  0.232679  0.549884  1
  P  P5  1  0.231083  0.890850  0.459237  1
  P  P6  1  0.100126  0.332910  0.116932  1
  P  P7  1  0.768921  0.659859  0.207427  1
  P  P8  1  0.329721  0.107210  0.865829  1
  P  P9  1  0.670554  0.777674  0.800779  1
  Rh  Rh10  1  0.878331  0.875677  0.504686  1
  Rh  Rh11  1  0.121714  0.997371  0.162089  1
  Rh  Rh12  1  0.465843  0.470283  0.998047  1
  Rh  Rh13  1  0.000091  0.524525  0.333271  1
  Rh  Rh14  1  0.534166  0.004541  0.668695  1
