# generated using pymatgen
data_Nd8Nb12Si15Ge
_symmetry_space_group_name_H-M   'P 1'
_cell_length_a   7.00769801
_cell_length_b   7.23247693
_cell_length_c   13.64764926
_cell_angle_alpha   90.04336330
_cell_angle_beta   89.94272533
_cell_angle_gamma   90.03092980
_symmetry_Int_Tables_number   1
_chemical_formula_structural   Nd8Nb12Si15Ge
_chemical_formula_sum   'Nd8 Nb12 Si15 Ge1'
_cell_volume   691.70335679
_cell_formula_units_Z   1
loop_
 _symmetry_equiv_pos_site_id
 _symmetry_equiv_pos_as_xyz
  1  'x, y, z'
loop_
 _atom_site_type_symbol
 _atom_site_label
 _atom_site_symmetry_multiplicity
 _atom_site_fract_x
 _atom_site_fract_y
 _atom_site_fract_z
 _atom_site_occupancy
  Nd  Nd0  1  0.504541  0.330880  0.096018  1
  Nd  Nd1  1  0.003673  0.168920  0.403592  1
  Nd  Nd2  1  0.498275  0.670954  0.596689  1
  Nd  Nd3  1  0.995305  0.830770  0.904460  1
  Nd  Nd4  1  0.495326  0.669027  0.904320  1
  Nd  Nd5  1  0.995440  0.831118  0.596218  1
  Nd  Nd6  1  0.504839  0.329735  0.403179  1
  Nd  Nd7  1  0.004454  0.169515  0.095792  1
  Nb  Nb8  1  0.663106  0.012287  0.750204  1
  Nb  Nb9  1  0.163081  0.486880  0.751965  1
  Nb  Nb10  1  0.336550  0.987734  0.249751  1
  Nb  Nb11  1  0.836852  0.512676  0.249782  1
  Nb  Nb12  1  0.836088  0.323799  0.626792  1
  Nb  Nb13  1  0.337790  0.175550  0.873958  1
  Nb  Nb14  1  0.162000  0.675738  0.126104  1
  Nb  Nb15  1  0.661646  0.824811  0.373292  1
  Nb  Nb16  1  0.160831  0.677943  0.372195  1
  Nb  Nb17  1  0.661337  0.824212  0.126089  1
  Nb  Nb18  1  0.838007  0.324203  0.873935  1
  Nb  Nb19  1  0.340630  0.172191  0.627452  1
  Si  Si20  1  0.798408  0.615403  0.750307  1
  Si  Si21  1  0.297274  0.883318  0.750654  1
  Si  Si22  1  0.202039  0.384556  0.249687  1
  Si  Si23  1  0.702241  0.115559  0.249556  1
  Si  Si24  1  0.542968  0.370324  0.750453  1
  Si  Si25  1  0.042971  0.129741  0.750046  1
  Si  Si26  1  0.456660  0.629780  0.249805  1
  Si  Si27  1  0.956100  0.870857  0.249106  1
  Si  Si28  1  0.659080  0.040826  0.541807  1
  Si  Si29  1  0.158205  0.459643  0.957829  1
  Si  Si30  1  0.341388  0.959848  0.042259  1
  Si  Si31  1  0.837905  0.541503  0.456704  1
  Si  Si32  1  0.341199  0.959166  0.457890  1
  Si  Si33  1  0.841761  0.540381  0.042442  1
  Si  Si34  1  0.658170  0.040426  0.957786  1
  Ge  Ge35  1  0.163863  0.459727  0.541880  1
