# generated using pymatgen
data_Tm20Ni3Bi8Ru
_symmetry_space_group_name_H-M   'P 1'
_cell_length_a   7.91194143
_cell_length_b   8.89851300
_cell_length_c   12.22799964
_cell_angle_alpha   90.00000000
_cell_angle_beta   90.26872750
_cell_angle_gamma   90.00000000
_symmetry_Int_Tables_number   1
_chemical_formula_structural   Tm20Ni3Bi8Ru
_chemical_formula_sum   'Tm20 Ni3 Bi8 Ru1'
_cell_volume   860.89689866
_cell_formula_units_Z   1
loop_
 _symmetry_equiv_pos_site_id
 _symmetry_equiv_pos_as_xyz
  1  'x, y, z'
loop_
 _atom_site_type_symbol
 _atom_site_label
 _atom_site_symmetry_multiplicity
 _atom_site_fract_x
 _atom_site_fract_y
 _atom_site_fract_z
 _atom_site_occupancy
  Tm  Tm0  1  0.838601  0.750000  0.791290  1
  Tm  Tm1  1  0.158458  0.250000  0.204876  1
  Tm  Tm2  1  0.345355  0.250000  0.702192  1
  Tm  Tm3  1  0.655174  0.750000  0.295920  1
  Tm  Tm4  1  0.378794  0.750000  0.695462  1
  Tm  Tm5  1  0.618460  0.250000  0.307735  1
  Tm  Tm6  1  0.881201  0.250000  0.809761  1
  Tm  Tm7  1  0.117810  0.750000  0.188622  1
  Tm  Tm8  1  0.948014  0.750000  0.501750  1
  Tm  Tm9  1  0.053682  0.250000  0.497888  1
  Tm  Tm10  1  0.448715  0.250000  0.000200  1
  Tm  Tm11  1  0.551737  0.750000  0.000566  1
  Tm  Tm12  1  0.676432  0.041916  0.564826  1
  Tm  Tm13  1  0.325669  0.956906  0.436878  1
  Tm  Tm14  1  0.175033  0.958733  0.935062  1
  Tm  Tm15  1  0.325669  0.543094  0.436878  1
  Tm  Tm16  1  0.824356  0.042085  0.064054  1
  Tm  Tm17  1  0.676432  0.458084  0.564826  1
  Tm  Tm18  1  0.824356  0.457915  0.064054  1
  Tm  Tm19  1  0.175033  0.541267  0.935062  1
  Ni  Ni20  1  0.426182  0.250000  0.488443  1
  Ni  Ni21  1  0.070788  0.250000  0.991375  1
  Ni  Ni22  1  0.928104  0.750000  0.006617  1
  Bi  Bi23  1  0.570625  0.488686  0.828880  1
  Bi  Bi24  1  0.428687  0.510350  0.172408  1
  Bi  Bi25  1  0.070043  0.507920  0.673633  1
  Bi  Bi26  1  0.428687  0.989650  0.172408  1
  Bi  Bi27  1  0.931271  0.490813  0.326271  1
  Bi  Bi28  1  0.570625  0.011314  0.828880  1
  Bi  Bi29  1  0.931271  0.009187  0.326271  1
  Bi  Bi30  1  0.070043  0.992080  0.673633  1
  Ru  Ru31  1  0.574690  0.750000  0.513276  1
