# generated using pymatgen
data_Yb2Eu2Cu5Ni9
_symmetry_space_group_name_H-M   'P 1'
_cell_length_a   4.98853348
_cell_length_b   5.00603435
_cell_length_c   12.37098999
_cell_angle_alpha   78.34526703
_cell_angle_beta   78.36816045
_cell_angle_gamma   60.11558856
_symmetry_Int_Tables_number   1
_chemical_formula_structural   Yb2Eu2Cu5Ni9
_chemical_formula_sum   'Yb2 Eu2 Cu5 Ni9'
_cell_volume   260.47551409
_cell_formula_units_Z   1
loop_
 _symmetry_equiv_pos_site_id
 _symmetry_equiv_pos_as_xyz
  1  'x, y, z'
loop_
 _atom_site_type_symbol
 _atom_site_label
 _atom_site_symmetry_multiplicity
 _atom_site_fract_x
 _atom_site_fract_y
 _atom_site_fract_z
 _atom_site_occupancy
  Yb  Yb0  1  0.851905  0.851071  0.445118  1
  Yb  Yb1  1  0.148095  0.148929  0.554882  1
  Eu  Eu2  1  0.947077  0.947459  0.158388  1
  Eu  Eu3  1  0.052923  0.052541  0.841612  1
  Cu  Cu4  1  0.726727  0.714844  0.831699  1
  Cu  Cu5  1  0.273273  0.285156  0.168301  1
  Cu  Cu6  1  0.614231  0.603279  0.168258  1
  Cu  Cu7  1  0.385769  0.396721  0.831742  1
  Cu  Cu8  1  0.500000  0.000000  0.000000  1
  Ni  Ni9  1  0.500000  0.500000  0.500000  1
  Ni  Ni10  1  0.000000  0.500000  0.000000  1
  Ni  Ni11  1  0.500000  0.500000  0.000000  1
  Ni  Ni12  1  0.387885  0.387138  0.335555  1
  Ni  Ni13  1  0.889423  0.387138  0.335555  1
  Ni  Ni14  1  0.387838  0.890055  0.334270  1
  Ni  Ni15  1  0.612115  0.612862  0.664445  1
  Ni  Ni16  1  0.110577  0.612862  0.664445  1
  Ni  Ni17  1  0.612162  0.109945  0.665730  1
