# generated using pymatgen
data_Nd2GePd14
_symmetry_space_group_name_H-M   'P 1'
_cell_length_a   9.00448900
_cell_length_b   9.00448900
_cell_length_c   7.22898100
_cell_angle_alpha   90.00000000
_cell_angle_beta   90.00000000
_cell_angle_gamma   90.00000000
_symmetry_Int_Tables_number   1
_chemical_formula_structural   Nd2GePd14
_chemical_formula_sum   'Nd4 Ge2 Pd28'
_cell_volume   586.13172279
_cell_formula_units_Z   2
loop_
 _symmetry_equiv_pos_site_id
 _symmetry_equiv_pos_as_xyz
  1  'x, y, z'
loop_
 _atom_site_type_symbol
 _atom_site_label
 _atom_site_symmetry_multiplicity
 _atom_site_fract_x
 _atom_site_fract_y
 _atom_site_fract_z
 _atom_site_occupancy
  Nd  Nd0  1  0.500000  0.000000  0.936608  1
  Nd  Nd1  1  0.000000  0.500000  0.063392  1
  Nd  Nd2  1  0.000000  0.000000  0.500000  1
  Nd  Nd3  1  0.500000  0.500000  0.500000  1
  Ge  Ge4  1  0.500000  0.000000  0.449050  1
  Ge  Ge5  1  0.000000  0.500000  0.550950  1
  Pd  Pd6  1  0.330784  0.830784  0.621024  1
  Pd  Pd7  1  0.330784  0.169216  0.621024  1
  Pd  Pd8  1  0.669216  0.830784  0.621024  1
  Pd  Pd9  1  0.669216  0.169216  0.621024  1
  Pd  Pd10  1  0.169216  0.669216  0.378976  1
  Pd  Pd11  1  0.169216  0.330784  0.378976  1
  Pd  Pd12  1  0.830784  0.669216  0.378976  1
  Pd  Pd13  1  0.830784  0.330784  0.378976  1
  Pd  Pd14  1  0.500000  0.766434  0.253405  1
  Pd  Pd15  1  0.500000  0.233566  0.253405  1
  Pd  Pd16  1  0.266434  0.000000  0.253405  1
  Pd  Pd17  1  0.733566  0.000000  0.253405  1
  Pd  Pd18  1  0.000000  0.733566  0.746595  1
  Pd  Pd19  1  0.000000  0.266434  0.746595  1
  Pd  Pd20  1  0.233566  0.500000  0.746595  1
  Pd  Pd21  1  0.766434  0.500000  0.746595  1
  Pd  Pd22  1  0.500000  0.348821  0.857062  1
  Pd  Pd23  1  0.500000  0.651179  0.857062  1
  Pd  Pd24  1  0.848821  0.000000  0.857062  1
  Pd  Pd25  1  0.151179  0.000000  0.857062  1
  Pd  Pd26  1  0.000000  0.151179  0.142938  1
  Pd  Pd27  1  0.000000  0.848821  0.142938  1
  Pd  Pd28  1  0.651179  0.500000  0.142938  1
  Pd  Pd29  1  0.348821  0.500000  0.142938  1
  Pd  Pd30  1  0.250000  0.750000  0.000000  1
  Pd  Pd31  1  0.250000  0.250000  0.000000  1
  Pd  Pd32  1  0.750000  0.750000  0.000000  1
  Pd  Pd33  1  0.750000  0.250000  0.000000  1
