# generated using pymatgen
data_Lu10Al4Bi3Te
_symmetry_space_group_name_H-M   'P 1'
_cell_length_a   8.62745636
_cell_length_b   8.62745724
_cell_length_c   7.89241496
_cell_angle_alpha   89.94141233
_cell_angle_beta   89.94140702
_cell_angle_gamma   125.70149494
_symmetry_Int_Tables_number   1
_chemical_formula_structural   Lu10Al4Bi3Te
_chemical_formula_sum   'Lu10 Al4 Bi3 Te1'
_cell_volume   477.05336704
_cell_formula_units_Z   1
loop_
 _symmetry_equiv_pos_site_id
 _symmetry_equiv_pos_as_xyz
  1  'x, y, z'
loop_
 _atom_site_type_symbol
 _atom_site_label
 _atom_site_symmetry_multiplicity
 _atom_site_fract_x
 _atom_site_fract_y
 _atom_site_fract_z
 _atom_site_occupancy
  Lu  Lu0  1  0.999337  0.000663  0.000000  1
  Lu  Lu1  1  0.501480  0.498520  0.500000  1
  Lu  Lu2  1  0.791469  0.540176  0.166587  1
  Lu  Lu3  1  0.459824  0.208531  0.833413  1
  Lu  Lu4  1  0.958630  0.705648  0.668600  1
  Lu  Lu5  1  0.294352  0.041370  0.331400  1
  Lu  Lu6  1  0.205130  0.458481  0.831684  1
  Lu  Lu7  1  0.541519  0.794870  0.168316  1
  Lu  Lu8  1  0.042322  0.295974  0.331659  1
  Lu  Lu9  1  0.704026  0.957678  0.668341  1
  Al  Al10  1  0.873897  0.874667  0.375386  1
  Al  Al11  1  0.125333  0.126103  0.624614  1
  Al  Al12  1  0.624347  0.626045  0.873688  1
  Al  Al13  1  0.373955  0.375653  0.126312  1
  Bi  Bi14  1  0.208182  0.791818  0.000000  1
  Bi  Bi15  1  0.708738  0.291262  0.500000  1
  Bi  Bi16  1  0.792544  0.207456  0.000000  1
  Te  Te17  1  0.294914  0.705086  0.500000  1
