# generated using pymatgen
data_K5BaPaAs4
_symmetry_space_group_name_H-M   'P 1'
_cell_length_a   10.82723336
_cell_length_b   10.82723367
_cell_length_c   8.30896226
_cell_angle_alpha   89.28141329
_cell_angle_beta   89.28140742
_cell_angle_gamma   120.02154623
_symmetry_Int_Tables_number   1
_chemical_formula_structural   K5BaPaAs4
_chemical_formula_sum   'K10 Ba2 Pa2 As8'
_cell_volume   843.10437477
_cell_formula_units_Z   2
loop_
 _symmetry_equiv_pos_site_id
 _symmetry_equiv_pos_as_xyz
  1  'x, y, z'
loop_
 _atom_site_type_symbol
 _atom_site_label
 _atom_site_symmetry_multiplicity
 _atom_site_fract_x
 _atom_site_fract_y
 _atom_site_fract_z
 _atom_site_occupancy
  K  K0  1  0.462730  0.529990  0.608156  1
  K  K1  1  0.062641  0.529790  0.607883  1
  K  K2  1  0.529990  0.462730  0.108156  1
  K  K3  1  0.529790  0.062641  0.107883  1
  K  K4  1  0.864337  0.140142  0.784908  1
  K  K5  1  0.282041  0.147267  0.807854  1
  K  K6  1  0.856254  0.719862  0.773950  1
  K  K7  1  0.140142  0.864337  0.284908  1
  K  K8  1  0.719862  0.856254  0.273950  1
  K  K9  1  0.147267  0.282041  0.307854  1
  Ba  Ba10  1  0.464291  0.934972  0.600740  1
  Ba  Ba11  1  0.934972  0.464291  0.100740  1
  Pa  Pa12  1  0.667759  0.335577  0.503880  1
  Pa  Pa13  1  0.335577  0.667759  0.003880  1
  As  As14  1  0.679350  0.336422  0.833431  1
  As  As15  1  0.336422  0.679350  0.333431  1
  As  As16  1  0.193678  0.801633  0.891753  1
  As  As17  1  0.607139  0.810310  0.879067  1
  As  As18  1  0.185195  0.388621  0.915577  1
  As  As19  1  0.801633  0.193678  0.391753  1
  As  As20  1  0.388621  0.185195  0.415577  1
  As  As21  1  0.810310  0.607139  0.379067  1
