# generated using pymatgen
data_Ti10Zn2(SnBi)3
_symmetry_space_group_name_H-M   'P 1'
_cell_length_a   8.34080200
_cell_length_b   8.34080350
_cell_length_c   5.60067800
_cell_angle_alpha   90.00000000
_cell_angle_beta   90.00000000
_cell_angle_gamma   120.00000991
_symmetry_Int_Tables_number   1
_chemical_formula_structural   Ti10Zn2(SnBi)3
_chemical_formula_sum   'Ti10 Zn2 Sn3 Bi3'
_cell_volume   337.43248827
_cell_formula_units_Z   1
loop_
 _symmetry_equiv_pos_site_id
 _symmetry_equiv_pos_as_xyz
  1  'x, y, z'
loop_
 _atom_site_type_symbol
 _atom_site_label
 _atom_site_symmetry_multiplicity
 _atom_site_fract_x
 _atom_site_fract_y
 _atom_site_fract_z
 _atom_site_occupancy
  Ti  Ti0  1  0.666667  0.333333  0.493416  1
  Ti  Ti1  1  0.333333  0.666667  0.493416  1
  Ti  Ti2  1  0.333333  0.666667  0.006584  1
  Ti  Ti3  1  0.666667  0.333333  0.006584  1
  Ti  Ti4  1  0.728546  0.728546  0.250000  1
  Ti  Ti5  1  0.271454  0.000000  0.250000  1
  Ti  Ti6  1  0.000000  0.271454  0.250000  1
  Ti  Ti7  1  0.267038  0.267038  0.750000  1
  Ti  Ti8  1  0.732962  0.000000  0.750000  1
  Ti  Ti9  1  0.000000  0.732962  0.750000  1
  Zn  Zn10  1  0.000000  0.000000  0.004855  1
  Zn  Zn11  1  0.000000  0.000000  0.495145  1
  Sn  Sn12  1  0.380978  0.380978  0.250000  1
  Sn  Sn13  1  0.619022  0.000000  0.250000  1
  Sn  Sn14  1  0.000000  0.619022  0.250000  1
  Bi  Bi15  1  0.613679  0.613679  0.750000  1
  Bi  Bi16  1  0.386321  0.000000  0.750000  1
  Bi  Bi17  1  0.000000  0.386321  0.750000  1
