# generated using pymatgen
data_Zr4ScCo16Si7W
_symmetry_space_group_name_H-M   'P 1'
_cell_length_a   8.01894343
_cell_length_b   8.01679669
_cell_length_c   7.98454333
_cell_angle_alpha   60.15077017
_cell_angle_beta   60.14228432
_cell_angle_gamma   59.72519376
_symmetry_Int_Tables_number   1
_chemical_formula_structural   Zr4ScCo16Si7W
_chemical_formula_sum   'Zr4 Sc1 Co16 Si7 W1'
_cell_volume   362.99227027
_cell_formula_units_Z   1
loop_
 _symmetry_equiv_pos_site_id
 _symmetry_equiv_pos_as_xyz
  1  'x, y, z'
loop_
 _atom_site_type_symbol
 _atom_site_label
 _atom_site_symmetry_multiplicity
 _atom_site_fract_x
 _atom_site_fract_y
 _atom_site_fract_z
 _atom_site_occupancy
  Zr  Zr0  1  0.294838  0.702958  0.705162  1
  Zr  Zr1  1  0.710405  0.709191  0.289595  1
  Zr  Zr2  1  0.296834  0.700662  0.298107  1
  Zr  Zr3  1  0.701893  0.295602  0.703166  1
  Sc  Sc4  1  0.702626  0.295560  0.297374  1
  Co  Co5  1  0.121710  0.122035  0.644749  1
  Co  Co6  1  0.665211  0.994379  0.670570  1
  Co  Co7  1  0.355251  0.888493  0.878290  1
  Co  Co8  1  0.016039  0.327993  0.328554  1
  Co  Co9  1  0.995543  0.665834  0.669985  1
  Co  Co10  1  0.330015  0.331362  0.004457  1
  Co  Co11  1  0.671446  0.672585  0.983961  1
  Co  Co12  1  0.636789  0.121933  0.120406  1
  Co  Co13  1  0.669968  0.671358  0.671887  1
  Co  Co14  1  0.879594  0.879128  0.363211  1
  Co  Co15  1  0.122136  0.121473  0.112257  1
  Co  Co16  1  0.887743  0.355867  0.877864  1
  Co  Co17  1  0.879511  0.880214  0.877705  1
  Co  Co18  1  0.329430  0.330163  0.334789  1
  Co  Co19  1  0.122295  0.637431  0.120489  1
  Co  Co20  1  0.328113  0.013214  0.330032  1
  Si  Si21  1  0.999836  0.493715  0.000164  1
  Si  Si22  1  0.997723  0.000644  0.498512  1
  Si  Si23  1  0.995191  0.995472  0.004809  1
  Si  Si24  1  0.501488  0.496878  0.002277  1
  Si  Si25  1  0.497849  0.002597  0.502151  1
  Si  Si26  1  0.494865  0.001861  0.999923  1
  Si  Si27  1  0.000077  0.496648  0.505135  1
  W  W28  1  0.295582  0.294754  0.704418  1
