# generated using pymatgen
data_Ho3TmIn4
_symmetry_space_group_name_H-M   'P 1'
_cell_length_a   6.47397272
_cell_length_b   6.47397234
_cell_length_c   10.25103400
_cell_angle_alpha   90.00000000
_cell_angle_beta   90.00000000
_cell_angle_gamma   103.14511197
_symmetry_Int_Tables_number   1
_chemical_formula_structural   Ho3TmIn4
_chemical_formula_sum   'Ho6 Tm2 In8'
_cell_volume   418.38673326
_cell_formula_units_Z   2
loop_
 _symmetry_equiv_pos_site_id
 _symmetry_equiv_pos_as_xyz
  1  'x, y, z'
loop_
 _atom_site_type_symbol
 _atom_site_label
 _atom_site_symmetry_multiplicity
 _atom_site_fract_x
 _atom_site_fract_y
 _atom_site_fract_z
 _atom_site_occupancy
  Ho  Ho0  1  0.523164  0.523164  0.250000  1
  Ho  Ho1  1  0.476836  0.476836  0.750000  1
  Ho  Ho2  1  0.247026  0.752974  0.500000  1
  Ho  Ho3  1  0.247026  0.752974  0.000000  1
  Ho  Ho4  1  0.752974  0.247026  0.500000  1
  Ho  Ho5  1  0.752974  0.247026  0.000000  1
  Tm  Tm6  1  0.988970  0.988970  0.250000  1
  Tm  Tm7  1  0.011030  0.011030  0.750000  1
  In  In8  1  0.252455  0.252455  0.011916  1
  In  In9  1  0.747545  0.747545  0.988084  1
  In  In10  1  0.252455  0.252455  0.488084  1
  In  In11  1  0.747545  0.747545  0.511916  1
  In  In12  1  0.493951  0.014891  0.250000  1
  In  In13  1  0.985109  0.506049  0.750000  1
  In  In14  1  0.506049  0.985109  0.750000  1
  In  In15  1  0.014891  0.493951  0.250000  1
