# generated using pymatgen
data_Cd2Ag5CO11
_symmetry_space_group_name_H-M   'P 1'
_cell_length_a   7.17900221
_cell_length_b   7.09941891
_cell_length_c   7.09941852
_cell_angle_alpha   59.51844762
_cell_angle_beta   60.30103188
_cell_angle_gamma   60.30102793
_symmetry_Int_Tables_number   1
_chemical_formula_structural   Cd2Ag5CO11
_chemical_formula_sum   'Cd2 Ag5 C1 O11'
_cell_volume   256.05676066
_cell_formula_units_Z   1
loop_
 _symmetry_equiv_pos_site_id
 _symmetry_equiv_pos_as_xyz
  1  'x, y, z'
loop_
 _atom_site_type_symbol
 _atom_site_label
 _atom_site_symmetry_multiplicity
 _atom_site_fract_x
 _atom_site_fract_y
 _atom_site_fract_z
 _atom_site_occupancy
  Cd  Cd0  1  0.999649  0.000075  0.000075  1
  Cd  Cd1  1  0.502387  0.999055  0.999055  1
  Ag  Ag2  1  0.500519  0.500230  0.001087  1
  Ag  Ag3  1  0.500519  0.001087  0.500230  1
  Ag  Ag4  1  0.001071  0.000989  0.500176  1
  Ag  Ag5  1  0.001251  0.500920  0.500920  1
  Ag  Ag6  1  0.001071  0.500176  0.000989  1
  C  C7  1  0.497412  0.498829  0.498829  1
  O  O8  1  0.586770  0.148091  0.148091  1
  O  O9  1  0.148302  0.572623  0.146435  1
  O  O10  1  0.120766  0.145496  0.145496  1
  O  O11  1  0.148302  0.146435  0.572623  1
  O  O12  1  0.601294  0.609615  0.289380  1
  O  O13  1  0.601294  0.289380  0.609615  1
  O  O14  1  0.287258  0.598275  0.598275  1
  O  O15  1  0.852945  0.855829  0.426420  1
  O  O16  1  0.852945  0.426420  0.855829  1
  O  O17  1  0.884136  0.853951  0.853951  1
  O  O18  1  0.412108  0.852524  0.852524  1
