# generated using pymatgen
data_TbY4Lu7InCo5
_symmetry_space_group_name_H-M   'P 1'
_cell_length_a   8.18978083
_cell_length_b   8.19362168
_cell_length_c   8.19362219
_cell_angle_alpha   110.56737956
_cell_angle_beta   110.99860744
_cell_angle_gamma   106.89690344
_symmetry_Int_Tables_number   1
_chemical_formula_structural   TbY4Lu7InCo5
_chemical_formula_sum   'Tb1 Y4 Lu7 In1 Co5'
_cell_volume   422.51193192
_cell_formula_units_Z   1
loop_
 _symmetry_equiv_pos_site_id
 _symmetry_equiv_pos_as_xyz
  1  'x, y, z'
loop_
 _atom_site_type_symbol
 _atom_site_label
 _atom_site_symmetry_multiplicity
 _atom_site_fract_x
 _atom_site_fract_y
 _atom_site_fract_z
 _atom_site_occupancy
  Tb  Tb0  1  0.020556  0.210248  0.810309  1
  Y  Y1  1  0.809937  0.708375  0.519544  1
  Y  Y2  1  0.188370  0.288531  0.475503  1
  Y  Y3  1  0.188370  0.712867  0.899839  1
  Y  Y4  1  0.809937  0.290393  0.101561  1
  Lu  Lu5  1  0.684653  0.379117  0.692304  1
  Lu  Lu6  1  0.316328  0.623262  0.309695  1
  Lu  Lu7  1  0.684653  0.992348  0.305535  1
  Lu  Lu8  1  0.316328  0.006633  0.693066  1
  Lu  Lu9  1  0.598750  0.789047  0.809704  1
  Lu  Lu10  1  0.406104  0.212326  0.193778  1
  Lu  Lu11  1  0.980593  0.787895  0.192699  1
  In  In12  1  0.500195  0.500782  0.999413  1
  Co  Co13  1  0.619597  0.999414  0.620182  1
  Co  Co14  1  0.376621  0.000819  0.375803  1
  Co  Co15  1  0.112948  0.613889  0.499058  1
  Co  Co16  1  0.883157  0.386207  0.496952  1
  Co  Co17  1  0.002900  0.997845  0.005054  1
