# generated using pymatgen
data_YHo(Si7Rh3)2
_symmetry_space_group_name_H-M   'P 1'
_cell_length_a   7.99231647
_cell_length_b   7.99231689
_cell_length_c   7.99231725
_cell_angle_alpha   57.11990901
_cell_angle_beta   57.11991133
_cell_angle_gamma   57.11989991
_symmetry_Int_Tables_number   1
_chemical_formula_structural   YHo(Si7Rh3)2
_chemical_formula_sum   'Y1 Ho1 Si14 Rh6'
_cell_volume   337.03768884
_cell_formula_units_Z   1
loop_
 _symmetry_equiv_pos_site_id
 _symmetry_equiv_pos_as_xyz
  1  'x, y, z'
loop_
 _atom_site_type_symbol
 _atom_site_label
 _atom_site_symmetry_multiplicity
 _atom_site_fract_x
 _atom_site_fract_y
 _atom_site_fract_z
 _atom_site_occupancy
  Y  Y0  1  0.500000  0.500000  0.500000  1
  Ho  Ho1  1  0.000000  0.000000  0.000000  1
  Si  Si2  1  0.750141  0.750141  0.750141  1
  Si  Si3  1  0.249859  0.249859  0.249859  1
  Si  Si4  1  0.851680  0.065564  0.672030  1
  Si  Si5  1  0.672030  0.851680  0.065564  1
  Si  Si6  1  0.065564  0.672030  0.851680  1
  Si  Si7  1  0.648131  0.828083  0.434748  1
  Si  Si8  1  0.434748  0.648131  0.828083  1
  Si  Si9  1  0.828083  0.434748  0.648131  1
  Si  Si10  1  0.171917  0.565252  0.351869  1
  Si  Si11  1  0.565252  0.351869  0.171917  1
  Si  Si12  1  0.351869  0.171917  0.565252  1
  Si  Si13  1  0.934436  0.327970  0.148320  1
  Si  Si14  1  0.327970  0.148320  0.934436  1
  Si  Si15  1  0.148320  0.934436  0.327970  1
  Rh  Rh16  1  0.069625  0.429797  0.750041  1
  Rh  Rh17  1  0.249959  0.930375  0.570203  1
  Rh  Rh18  1  0.570203  0.249959  0.930375  1
  Rh  Rh19  1  0.930375  0.570203  0.249959  1
  Rh  Rh20  1  0.429797  0.750041  0.069625  1
  Rh  Rh21  1  0.750041  0.069625  0.429797  1
