# generated using pymatgen
data_TmLu2Ga5Pd
_symmetry_space_group_name_H-M   'P 1'
_cell_length_a   6.81495500
_cell_length_b   6.82587947
_cell_length_c   4.27575800
_cell_angle_alpha   90.00000000
_cell_angle_beta   90.00000000
_cell_angle_gamma   119.94707652
_symmetry_Int_Tables_number   1
_chemical_formula_structural   TmLu2Ga5Pd
_chemical_formula_sum   'Tm1 Lu2 Ga5 Pd1'
_cell_volume   172.34421712
_cell_formula_units_Z   1
loop_
 _symmetry_equiv_pos_site_id
 _symmetry_equiv_pos_as_xyz
  1  'x, y, z'
loop_
 _atom_site_type_symbol
 _atom_site_label
 _atom_site_symmetry_multiplicity
 _atom_site_fract_x
 _atom_site_fract_y
 _atom_site_fract_z
 _atom_site_occupancy
  Tm  Tm0  1  0.580618  0.000000  0.500000  1
  Lu  Lu1  1  0.418252  0.418548  0.500000  1
  Lu  Lu2  1  0.999704  0.581452  0.500000  1
  Ga  Ga3  1  0.243103  0.000000  0.000000  1
  Ga  Ga4  1  0.000213  0.243064  0.000000  1
  Ga  Ga5  1  0.667306  0.334541  0.000000  1
  Ga  Ga6  1  0.332763  0.665459  0.000000  1
  Ga  Ga7  1  0.757149  0.756936  0.000000  1
  Pd  Pd8  1  0.000892  0.000000  0.500000  1
