# generated using pymatgen
data_Y3Tm6ScCd3Ru
_symmetry_space_group_name_H-M   'P 1'
_cell_length_a   9.46773200
_cell_length_b   9.46773163
_cell_length_c   9.69626100
_cell_angle_alpha   90.00000000
_cell_angle_beta   90.00000000
_cell_angle_gamma   120.00000130
_symmetry_Int_Tables_number   1
_chemical_formula_structural   Y3Tm6ScCd3Ru
_chemical_formula_sum   'Y6 Tm12 Sc2 Cd6 Ru2'
_cell_volume   752.70849618
_cell_formula_units_Z   2
loop_
 _symmetry_equiv_pos_site_id
 _symmetry_equiv_pos_as_xyz
  1  'x, y, z'
loop_
 _atom_site_type_symbol
 _atom_site_label
 _atom_site_symmetry_multiplicity
 _atom_site_fract_x
 _atom_site_fract_y
 _atom_site_fract_z
 _atom_site_occupancy
  Y  Y0  1  0.540184  0.459816  0.250000  1
  Y  Y1  1  0.540184  0.080369  0.250000  1
  Y  Y2  1  0.919631  0.459816  0.250000  1
  Y  Y3  1  0.459816  0.540184  0.750000  1
  Y  Y4  1  0.459816  0.919631  0.750000  1
  Y  Y5  1  0.080369  0.540184  0.750000  1
  Tm  Tm6  1  0.209109  0.790891  0.441024  1
  Tm  Tm7  1  0.209109  0.418220  0.441024  1
  Tm  Tm8  1  0.581780  0.790891  0.441024  1
  Tm  Tm9  1  0.790891  0.209109  0.558976  1
  Tm  Tm10  1  0.790891  0.581780  0.558976  1
  Tm  Tm11  1  0.418220  0.209109  0.558976  1
  Tm  Tm12  1  0.790891  0.209109  0.941024  1
  Tm  Tm13  1  0.790891  0.581780  0.941024  1
  Tm  Tm14  1  0.418220  0.209109  0.941024  1
  Tm  Tm15  1  0.209109  0.790891  0.058976  1
  Tm  Tm16  1  0.209109  0.418220  0.058976  1
  Tm  Tm17  1  0.581780  0.790891  0.058976  1
  Sc  Sc18  1  0.000000  0.000000  0.500000  1
  Sc  Sc19  1  0.000000  0.000000  0.000000  1
  Cd  Cd20  1  0.888990  0.111010  0.250000  1
  Cd  Cd21  1  0.888990  0.777981  0.250000  1
  Cd  Cd22  1  0.222019  0.111010  0.250000  1
  Cd  Cd23  1  0.111010  0.888990  0.750000  1
  Cd  Cd24  1  0.111010  0.222019  0.750000  1
  Cd  Cd25  1  0.777981  0.888990  0.750000  1
  Ru  Ru26  1  0.333333  0.666667  0.250000  1
  Ru  Ru27  1  0.666667  0.333333  0.750000  1
