# generated using pymatgen
data_Er2Tm2Ru7W
_symmetry_space_group_name_H-M   'P 1'
_cell_length_a   5.46721007
_cell_length_b   5.17224262
_cell_length_c   8.97378201
_cell_angle_alpha   89.99691909
_cell_angle_beta   89.99882538
_cell_angle_gamma   121.96990984
_symmetry_Int_Tables_number   1
_chemical_formula_structural   Er2Tm2Ru7W
_chemical_formula_sum   'Er2 Tm2 Ru7 W1'
_cell_volume   215.26978821
_cell_formula_units_Z   1
loop_
 _symmetry_equiv_pos_site_id
 _symmetry_equiv_pos_as_xyz
  1  'x, y, z'
loop_
 _atom_site_type_symbol
 _atom_site_label
 _atom_site_symmetry_multiplicity
 _atom_site_fract_x
 _atom_site_fract_y
 _atom_site_fract_z
 _atom_site_occupancy
  Er  Er0  1  0.672289  0.344903  0.563156  1
  Er  Er1  1  0.333647  0.667786  0.431561  1
  Tm  Tm2  1  0.333475  0.667550  0.068279  1
  Tm  Tm3  1  0.672481  0.345393  0.937041  1
  Ru  Ru4  1  0.008300  0.017214  0.498481  1
  Ru  Ru5  1  0.008352  0.017353  0.001523  1
  Ru  Ru6  1  0.170587  0.819186  0.750513  1
  Ru  Ru7  1  0.649701  0.819370  0.750504  1
  Ru  Ru8  1  0.824514  0.649169  0.249494  1
  Ru  Ru9  1  0.830396  0.164805  0.249502  1
  Ru  Ru10  1  0.335921  0.166053  0.249500  1
  W  W11  1  0.160339  0.321218  0.750447  1
