# generated using pymatgen
data_DyHo(Si2Rh3)2
_symmetry_space_group_name_H-M   'P 1'
_cell_length_a   6.62924539
_cell_length_b   6.62953746
_cell_length_c   6.62924552
_cell_angle_alpha   130.42167012
_cell_angle_beta   114.03825317
_cell_angle_gamma   86.80235875
_symmetry_Int_Tables_number   1
_chemical_formula_structural   DyHo(Si2Rh3)2
_chemical_formula_sum   'Dy1 Ho1 Si4 Rh6'
_cell_volume   193.25610677
_cell_formula_units_Z   1
loop_
 _symmetry_equiv_pos_site_id
 _symmetry_equiv_pos_as_xyz
  1  'x, y, z'
loop_
 _atom_site_type_symbol
 _atom_site_label
 _atom_site_symmetry_multiplicity
 _atom_site_fract_x
 _atom_site_fract_y
 _atom_site_fract_z
 _atom_site_occupancy
  Dy  Dy0  1  0.249999  0.953406  0.703407  1
  Ho  Ho1  1  0.750006  0.047212  0.297207  1
  Si  Si2  1  0.578684  0.385310  0.806626  1
  Si  Si3  1  0.921318  0.727953  0.806635  1
  Si  Si4  1  0.421439  0.614925  0.193486  1
  Si  Si5  1  0.078559  0.272034  0.193475  1
  Rh  Rh6  1  0.213594  0.499692  0.713562  1
  Rh  Rh7  1  0.786130  0.499692  0.286098  1
  Rh  Rh8  1  0.500138  0.499915  0.500058  1
  Rh  Rh9  1  0.999856  0.499915  0.999777  1
  Rh  Rh10  1  0.713879  0.999973  0.713575  1
  Rh  Rh11  1  0.286398  0.999973  0.286093  1
