# generated using pymatgen
data_Nd2Th2Zn10SiSn
_symmetry_space_group_name_H-M   'P 1'
_cell_length_a   8.43859452
_cell_length_b   8.43859357
_cell_length_c   8.97813200
_cell_angle_alpha   90.00000000
_cell_angle_beta   90.00000000
_cell_angle_gamma   149.46381808
_symmetry_Int_Tables_number   1
_chemical_formula_structural   Nd2Th2Zn10SiSn
_chemical_formula_sum   'Nd2 Th2 Zn10 Si1 Sn1'
_cell_volume   324.83312173
_cell_formula_units_Z   1
loop_
 _symmetry_equiv_pos_site_id
 _symmetry_equiv_pos_as_xyz
  1  'x, y, z'
loop_
 _atom_site_type_symbol
 _atom_site_label
 _atom_site_symmetry_multiplicity
 _atom_site_fract_x
 _atom_site_fract_y
 _atom_site_fract_z
 _atom_site_occupancy
  Nd  Nd0  1  0.000369  0.999631  0.483817  1
  Nd  Nd1  1  0.000369  0.999631  0.016183  1
  Th  Th2  1  0.201188  0.798812  0.250000  1
  Th  Th3  1  0.796025  0.203975  0.750000  1
  Zn  Zn4  1  0.814288  0.185712  0.390485  1
  Zn  Zn5  1  0.184429  0.815571  0.606531  1
  Zn  Zn6  1  0.814288  0.185712  0.109515  1
  Zn  Zn7  1  0.184429  0.815571  0.893469  1
  Zn  Zn8  1  0.650761  0.349239  0.475283  1
  Zn  Zn9  1  0.343318  0.656682  0.514831  1
  Zn  Zn10  1  0.650761  0.349239  0.024717  1
  Zn  Zn11  1  0.343318  0.656682  0.985169  1
  Zn  Zn12  1  0.405129  0.594871  0.250000  1
  Zn  Zn13  1  0.606421  0.393579  0.750000  1
  Si  Si14  1  0.558306  0.441694  0.250000  1
  Sn  Sn15  1  0.446600  0.553400  0.750000  1
