# generated using pymatgen
data_Cr2Fe(BW)3
_symmetry_space_group_name_H-M   'P 1'
_cell_length_a   6.03793147
_cell_length_b   6.03793085
_cell_length_c   3.06873200
_cell_angle_alpha   90.00000000
_cell_angle_beta   90.00000000
_cell_angle_gamma   120.33932066
_symmetry_Int_Tables_number   1
_chemical_formula_structural   Cr2Fe(BW)3
_chemical_formula_sum   'Cr2 Fe1 B3 W3'
_cell_volume   96.55411382
_cell_formula_units_Z   1
loop_
 _symmetry_equiv_pos_site_id
 _symmetry_equiv_pos_as_xyz
  1  'x, y, z'
loop_
 _atom_site_type_symbol
 _atom_site_label
 _atom_site_symmetry_multiplicity
 _atom_site_fract_x
 _atom_site_fract_y
 _atom_site_fract_z
 _atom_site_occupancy
  Cr  Cr0  1  0.245974  0.999846  0.000000  1
  Cr  Cr1  1  0.999846  0.245973  0.000000  1
  Fe  Fe2  1  0.753916  0.753917  0.000000  1
  B  B3  1  0.667467  0.336398  0.000000  1
  B  B4  1  0.336399  0.667467  0.000000  1
  B  B5  1  0.992863  0.992863  0.499999  1
  W  W6  1  0.591708  0.004162  0.499999  1
  W  W7  1  0.407667  0.407667  0.499999  1
  W  W8  1  0.004162  0.591708  0.499999  1
