# generated using pymatgen
data_La17Nd3Si15Ge
_symmetry_space_group_name_H-M   'P 1'
_cell_length_a   8.00823719
_cell_length_b   8.00787391
_cell_length_c   15.55683457
_cell_angle_alpha   90.12627132
_cell_angle_beta   90.03630958
_cell_angle_gamma   89.99006910
_symmetry_Int_Tables_number   1
_chemical_formula_structural   La17Nd3Si15Ge
_chemical_formula_sum   'La17 Nd3 Si15 Ge1'
_cell_volume   997.64088502
_cell_formula_units_Z   1
loop_
 _symmetry_equiv_pos_site_id
 _symmetry_equiv_pos_as_xyz
  1  'x, y, z'
loop_
 _atom_site_type_symbol
 _atom_site_label
 _atom_site_symmetry_multiplicity
 _atom_site_fract_x
 _atom_site_fract_y
 _atom_site_fract_z
 _atom_site_occupancy
  La  La0  1  0.019761  0.873940  0.622196  1
  La  La1  1  0.626723  0.519685  0.874587  1
  La  La2  1  0.480312  0.372618  0.625705  1
  La  La3  1  0.519351  0.626124  0.128355  1
  La  La4  1  0.125034  0.980278  0.877406  1
  La  La5  1  0.987526  0.618510  0.054128  1
  La  La6  1  0.012238  0.378239  0.552244  1
  La  La7  1  0.619785  0.988353  0.947166  1
  La  La8  1  0.119149  0.511449  0.804035  1
  La  La9  1  0.877976  0.486274  0.301501  1
  La  La10  1  0.512736  0.120689  0.197896  1
  La  La11  1  0.488227  0.881429  0.696240  1
  La  La12  1  0.381914  0.012736  0.445657  1
  La  La13  1  0.688873  0.692474  0.501469  1
  La  La14  1  0.807927  0.193245  0.749065  1
  La  La15  1  0.194000  0.806725  0.246985  1
  La  La16  1  0.308841  0.308296  0.001026  1
  Nd  Nd17  1  0.374297  0.480647  0.372825  1
  Nd  Nd18  1  0.872973  0.020880  0.375085  1
  Nd  Nd19  1  0.981172  0.127022  0.125007  1
  Si  Si20  1  0.919449  0.286725  0.942262  1
  Si  Si21  1  0.714190  0.081926  0.556888  1
  Si  Si22  1  0.211869  0.417058  0.192095  1
  Si  Si23  1  0.788749  0.579989  0.690843  1
  Si  Si24  1  0.419296  0.211118  0.809872  1
  Si  Si25  1  0.582361  0.788818  0.310679  1
  Si  Si26  1  0.286303  0.921891  0.059708  1
  Si  Si27  1  0.829497  0.805567  0.795110  1
  Si  Si28  1  0.168337  0.195344  0.297875  1
  Si  Si29  1  0.806409  0.833746  0.204689  1
  Si  Si30  1  0.307325  0.668050  0.545094  1
  Si  Si31  1  0.697125  0.329141  0.047867  1
  Si  Si32  1  0.669548  0.304735  0.451025  1
  Si  Si33  1  0.329087  0.694930  0.955710  1
  Si  Si34  1  0.194502  0.169150  0.704836  1
  Ge  Ge35  1  0.077137  0.712202  0.436867  1
