# generated using pymatgen
data_K2NiAgO4
_symmetry_space_group_name_H-M   'P 1'
_cell_length_a   6.41256385
_cell_length_b   6.41256393
_cell_length_c   5.74466800
_cell_angle_alpha   90.00000000
_cell_angle_beta   90.00000000
_cell_angle_gamma   139.82378492
_symmetry_Int_Tables_number   1
_chemical_formula_structural   K2NiAgO4
_chemical_formula_sum   'K2 Ni1 Ag1 O4'
_cell_volume   152.39920184
_cell_formula_units_Z   1
loop_
 _symmetry_equiv_pos_site_id
 _symmetry_equiv_pos_as_xyz
  1  'x, y, z'
loop_
 _atom_site_type_symbol
 _atom_site_label
 _atom_site_symmetry_multiplicity
 _atom_site_fract_x
 _atom_site_fract_y
 _atom_site_fract_z
 _atom_site_occupancy
  K  K0  1  0.296544  0.703456  0.750000  1
  K  K1  1  0.705759  0.294241  0.250000  1
  Ni  Ni2  1  0.001967  0.998033  0.750000  1
  Ag  Ag3  1  0.996966  0.003034  0.250000  1
  O  O4  1  0.107320  0.892680  0.984446  1
  O  O5  1  0.892062  0.107938  0.526063  1
  O  O6  1  0.107320  0.892680  0.515554  1
  O  O7  1  0.892062  0.107938  0.973937  1
