# generated using pymatgen
data_LuSc3ReB12Os
_symmetry_space_group_name_H-M   'P 1'
_cell_length_a   3.53426500
_cell_length_b   8.91608690
_cell_length_c   11.25632201
_cell_angle_alpha   90.11094518
_cell_angle_beta   90.00000000
_cell_angle_gamma   90.00000000
_symmetry_Int_Tables_number   1
_chemical_formula_structural   LuSc3ReB12Os
_chemical_formula_sum   'Lu2 Sc6 Re2 B24 Os2'
_cell_volume   354.70645902
_cell_formula_units_Z   2
loop_
 _symmetry_equiv_pos_site_id
 _symmetry_equiv_pos_as_xyz
  1  'x, y, z'
loop_
 _atom_site_type_symbol
 _atom_site_label
 _atom_site_symmetry_multiplicity
 _atom_site_fract_x
 _atom_site_fract_y
 _atom_site_fract_z
 _atom_site_occupancy
  Lu  Lu0  1  0.000000  0.318652  0.412719  1
  Lu  Lu1  1  0.000000  0.681348  0.587281  1
  Sc  Sc2  1  0.000000  0.824154  0.083966  1
  Sc  Sc3  1  0.000000  0.175846  0.916034  1
  Sc  Sc4  1  0.000000  0.944590  0.371117  1
  Sc  Sc5  1  0.000000  0.055410  0.628883  1
  Sc  Sc6  1  0.000000  0.442990  0.126991  1
  Sc  Sc7  1  0.000000  0.557010  0.873009  1
  Re  Re8  1  0.000000  0.137649  0.178806  1
  Re  Re9  1  0.000000  0.862351  0.821194  1
  B  B10  1  0.500000  0.553864  0.433487  1
  B  B11  1  0.500000  0.446136  0.566513  1
  B  B12  1  0.500000  0.052632  0.064831  1
  B  B13  1  0.500000  0.947368  0.935169  1
  B  B14  1  0.500000  0.752993  0.418916  1
  B  B15  1  0.500000  0.247007  0.581084  1
  B  B16  1  0.500000  0.252327  0.078269  1
  B  B17  1  0.500000  0.747673  0.921731  1
  B  B18  1  0.500000  0.793720  0.263289  1
  B  B19  1  0.500000  0.206280  0.736711  1
  B  B20  1  0.500000  0.294042  0.234693  1
  B  B21  1  0.500000  0.705958  0.765307  1
  B  B22  1  0.500000  0.629677  0.181839  1
  B  B23  1  0.500000  0.370323  0.818161  1
  B  B24  1  0.500000  0.128824  0.316721  1
  B  B25  1  0.500000  0.871176  0.683279  1
  B  B26  1  0.500000  0.978720  0.212144  1
  B  B27  1  0.500000  0.021280  0.787856  1
  B  B28  1  0.500000  0.480296  0.285842  1
  B  B29  1  0.500000  0.519704  0.714158  1
  B  B30  1  0.500000  0.599319  0.027324  1
  B  B31  1  0.500000  0.400681  0.972676  1
  B  B32  1  0.500000  0.098735  0.473071  1
  B  B33  1  0.500000  0.901265  0.526929  1
  Os  Os34  1  0.000000  0.638675  0.318879  1
  Os  Os35  1  0.000000  0.361325  0.681121  1
