# generated using pymatgen
data_Ta5Fe3GeB4Ru7
_symmetry_space_group_name_H-M   'P 1'
_cell_length_a   9.17500122
_cell_length_b   9.15690623
_cell_length_c   2.99919200
_cell_angle_alpha   90.00000000
_cell_angle_beta   90.00000000
_cell_angle_gamma   90.02534779
_symmetry_Int_Tables_number   1
_chemical_formula_structural   Ta5Fe3GeB4Ru7
_chemical_formula_sum   'Ta5 Fe3 Ge1 B4 Ru7'
_cell_volume   251.97596898
_cell_formula_units_Z   1
loop_
 _symmetry_equiv_pos_site_id
 _symmetry_equiv_pos_as_xyz
  1  'x, y, z'
loop_
 _atom_site_type_symbol
 _atom_site_label
 _atom_site_symmetry_multiplicity
 _atom_site_fract_x
 _atom_site_fract_y
 _atom_site_fract_z
 _atom_site_occupancy
  Ta  Ta0  1  0.822024  0.672936  0.000000  1
  Ta  Ta1  1  0.173420  0.328266  0.000000  1
  Ta  Ta2  1  0.333312  0.825348  0.000000  1
  Ta  Ta3  1  0.670359  0.171914  0.000000  1
  Ta  Ta4  1  0.999391  0.999069  0.000000  1
  Fe  Fe5  1  0.567008  0.719541  0.500000  1
  Fe  Fe6  1  0.499991  0.996028  0.500000  1
  Fe  Fe7  1  0.000559  0.500217  0.500000  1
  Ge  Ge8  1  0.503237  0.510508  0.000000  1
  B  B9  1  0.606546  0.870228  0.000000  1
  B  B10  1  0.392345  0.118836  0.000000  1
  B  B11  1  0.118143  0.609159  0.000000  1
  B  B12  1  0.881898  0.391916  0.000000  1
  Ru  Ru13  1  0.434596  0.284707  0.500000  1
  Ru  Ru14  1  0.069021  0.776557  0.500000  1
  Ru  Ru15  1  0.929320  0.223206  0.500000  1
  Ru  Ru16  1  0.286035  0.568586  0.500000  1
  Ru  Ru17  1  0.715724  0.436605  0.500000  1
  Ru  Ru18  1  0.223425  0.068485  0.500000  1
  Ru  Ru19  1  0.773646  0.927887  0.500000  1
