# generated using pymatgen
data_Er5Sn2Ru
_symmetry_space_group_name_H-M   'P 1'
_cell_length_a   7.71578700
_cell_length_b   9.03318000
_cell_length_c   12.08764100
_cell_angle_alpha   90.00000000
_cell_angle_beta   90.00000000
_cell_angle_gamma   90.00000000
_symmetry_Int_Tables_number   1
_chemical_formula_structural   Er5Sn2Ru
_chemical_formula_sum   'Er20 Sn8 Ru4'
_cell_volume   842.48552430
_cell_formula_units_Z   4
loop_
 _symmetry_equiv_pos_site_id
 _symmetry_equiv_pos_as_xyz
  1  'x, y, z'
loop_
 _atom_site_type_symbol
 _atom_site_label
 _atom_site_symmetry_multiplicity
 _atom_site_fract_x
 _atom_site_fract_y
 _atom_site_fract_z
 _atom_site_occupancy
  Er  Er0  1  0.656920  0.750000  0.713711  1
  Er  Er1  1  0.343080  0.250000  0.286289  1
  Er  Er2  1  0.156920  0.250000  0.786289  1
  Er  Er3  1  0.843080  0.750000  0.213711  1
  Er  Er4  1  0.126861  0.750000  0.804639  1
  Er  Er5  1  0.873139  0.250000  0.195361  1
  Er  Er6  1  0.626861  0.250000  0.695361  1
  Er  Er7  1  0.373139  0.750000  0.304639  1
  Er  Er8  1  0.543107  0.750000  0.996685  1
  Er  Er9  1  0.456893  0.250000  0.003315  1
  Er  Er10  1  0.043107  0.250000  0.503315  1
  Er  Er11  1  0.956893  0.750000  0.496685  1
  Er  Er12  1  0.822536  0.463743  0.929275  1
  Er  Er13  1  0.177464  0.536257  0.070725  1
  Er  Er14  1  0.322536  0.536257  0.570725  1
  Er  Er15  1  0.177464  0.963743  0.070725  1
  Er  Er16  1  0.677464  0.463743  0.429275  1
  Er  Er17  1  0.822536  0.036257  0.929275  1
  Er  Er18  1  0.677464  0.036257  0.429275  1
  Er  Er19  1  0.322536  0.963743  0.570725  1
  Sn  Sn20  1  0.929583  0.003746  0.670086  1
  Sn  Sn21  1  0.070417  0.996254  0.329914  1
  Sn  Sn22  1  0.429583  0.996254  0.829914  1
  Sn  Sn23  1  0.070417  0.503746  0.329914  1
  Sn  Sn24  1  0.570417  0.003746  0.170086  1
  Sn  Sn25  1  0.929583  0.496254  0.670086  1
  Sn  Sn26  1  0.570417  0.496254  0.170086  1
  Sn  Sn27  1  0.429583  0.503746  0.829914  1
  Ru  Ru28  1  0.925808  0.750000  0.991414  1
  Ru  Ru29  1  0.074192  0.250000  0.008586  1
  Ru  Ru30  1  0.425808  0.250000  0.508586  1
  Ru  Ru31  1  0.574192  0.750000  0.491414  1
