# generated using pymatgen
data_Tm4Sc6Sn7Pt
_symmetry_space_group_name_H-M   'P 1'
_cell_length_a   7.51898592
_cell_length_b   7.94555133
_cell_length_c   14.73222700
_cell_angle_alpha   90.00000000
_cell_angle_beta   90.00000000
_cell_angle_gamma   89.29663663
_symmetry_Int_Tables_number   1
_chemical_formula_structural   Tm4Sc6Sn7Pt
_chemical_formula_sum   'Tm8 Sc12 Sn14 Pt2'
_cell_volume   880.07358500
_cell_formula_units_Z   2
loop_
 _symmetry_equiv_pos_site_id
 _symmetry_equiv_pos_as_xyz
  1  'x, y, z'
loop_
 _atom_site_type_symbol
 _atom_site_label
 _atom_site_symmetry_multiplicity
 _atom_site_fract_x
 _atom_site_fract_y
 _atom_site_fract_z
 _atom_site_occupancy
  Tm  Tm0  1  0.993000  0.175453  0.093761  1
  Tm  Tm1  1  0.007000  0.824547  0.906239  1
  Tm  Tm2  1  0.506020  0.683298  0.907253  1
  Tm  Tm3  1  0.007000  0.824547  0.593761  1
  Tm  Tm4  1  0.493980  0.316702  0.092747  1
  Tm  Tm5  1  0.993000  0.175453  0.406239  1
  Tm  Tm6  1  0.493980  0.316702  0.407253  1
  Tm  Tm7  1  0.506020  0.683298  0.592747  1
  Sc  Sc8  1  0.171177  0.494076  0.750000  1
  Sc  Sc9  1  0.828823  0.505924  0.250000  1
  Sc  Sc10  1  0.311293  0.992916  0.250000  1
  Sc  Sc11  1  0.688707  0.007084  0.750000  1
  Sc  Sc12  1  0.314686  0.159101  0.630144  1
  Sc  Sc13  1  0.685314  0.840899  0.369856  1
  Sc  Sc14  1  0.141402  0.676914  0.367548  1
  Sc  Sc15  1  0.685314  0.840899  0.130144  1
  Sc  Sc16  1  0.858598  0.323086  0.632452  1
  Sc  Sc17  1  0.314686  0.159101  0.869856  1
  Sc  Sc18  1  0.858598  0.323086  0.867548  1
  Sc  Sc19  1  0.141402  0.676914  0.132452  1
  Sn  Sn20  1  0.466578  0.621707  0.250000  1
  Sn  Sn21  1  0.533422  0.378293  0.750000  1
  Sn  Sn22  1  0.301563  0.853562  0.750000  1
  Sn  Sn23  1  0.698437  0.146438  0.250000  1
  Sn  Sn24  1  0.193837  0.353779  0.250000  1
  Sn  Sn25  1  0.806163  0.646221  0.750000  1
  Sn  Sn26  1  0.186109  0.463334  0.538225  1
  Sn  Sn27  1  0.813891  0.536666  0.461775  1
  Sn  Sn28  1  0.320687  0.957917  0.457128  1
  Sn  Sn29  1  0.813891  0.536666  0.038225  1
  Sn  Sn30  1  0.679313  0.042083  0.542872  1
  Sn  Sn31  1  0.186109  0.463334  0.961775  1
  Sn  Sn32  1  0.679313  0.042083  0.957128  1
  Sn  Sn33  1  0.320687  0.957917  0.042872  1
  Pt  Pt34  1  0.032983  0.114602  0.750000  1
  Pt  Pt35  1  0.967017  0.885398  0.250000  1
