# generated using pymatgen
data_Y3Th(CoB10)2
_symmetry_space_group_name_H-M   'P 1'
_cell_length_a   4.16020900
_cell_length_b   5.57903572
_cell_length_c   11.13094946
_cell_angle_alpha   90.13248292
_cell_angle_beta   90.00000000
_cell_angle_gamma   90.00000000
_symmetry_Int_Tables_number   1
_chemical_formula_structural   Y3Th(CoB10)2
_chemical_formula_sum   'Y3 Th1 Co2 B20'
_cell_volume   258.34814105
_cell_formula_units_Z   1
loop_
 _symmetry_equiv_pos_site_id
 _symmetry_equiv_pos_as_xyz
  1  'x, y, z'
loop_
 _atom_site_type_symbol
 _atom_site_label
 _atom_site_symmetry_multiplicity
 _atom_site_fract_x
 _atom_site_fract_y
 _atom_site_fract_z
 _atom_site_occupancy
  Y  Y0  1  0.500000  0.300578  0.866820  1
  Y  Y1  1  0.500000  0.700058  0.130219  1
  Y  Y2  1  0.500000  0.801841  0.636933  1
  Th  Th3  1  0.500000  0.197678  0.366084  1
  Co  Co4  1  0.000000  0.498576  0.500035  1
  Co  Co5  1  0.000000  0.999551  0.999900  1
  B  B6  1  0.000000  0.126254  0.541732  1
  B  B7  1  0.000000  0.870906  0.461102  1
  B  B8  1  0.000000  0.627542  0.959399  1
  B  B9  1  0.000000  0.372806  0.038947  1
  B  B10  1  0.000000  0.157865  0.699586  1
  B  B11  1  0.000000  0.845251  0.302478  1
  B  B12  1  0.299820  0.201805  0.111634  1
  B  B13  1  0.300109  0.798095  0.886833  1
  B  B14  1  0.700133  0.700027  0.386215  1
  B  B15  1  0.699808  0.297376  0.614624  1
  B  B16  1  0.699891  0.798095  0.886833  1
  B  B17  1  0.700180  0.201805  0.111634  1
  B  B18  1  0.300192  0.297376  0.614624  1
  B  B19  1  0.299867  0.700027  0.386215  1
  B  B20  1  0.000000  0.032294  0.186124  1
  B  B21  1  0.000000  0.969436  0.814461  1
  B  B22  1  0.000000  0.533114  0.312646  1
  B  B23  1  0.000000  0.469652  0.686516  1
  B  B24  1  0.000000  0.344304  0.196420  1
  B  B25  1  0.000000  0.657687  0.801985  1
