# generated using pymatgen
data_TbHoNiIrPb
_symmetry_space_group_name_H-M   'P 1'
_cell_length_a   7.47089516
_cell_length_b   7.47089568
_cell_length_c   3.83538600
_cell_angle_alpha   90.00000000
_cell_angle_beta   90.00000000
_cell_angle_gamma   148.97972359
_symmetry_Int_Tables_number   1
_chemical_formula_structural   TbHoNiIrPb
_chemical_formula_sum   'Tb1 Ho1 Ni1 Ir1 Pb1'
_cell_volume   110.31877061
_cell_formula_units_Z   1
loop_
 _symmetry_equiv_pos_site_id
 _symmetry_equiv_pos_as_xyz
  1  'x, y, z'
loop_
 _atom_site_type_symbol
 _atom_site_label
 _atom_site_symmetry_multiplicity
 _atom_site_fract_x
 _atom_site_fract_y
 _atom_site_fract_z
 _atom_site_occupancy
  Tb  Tb0  1  0.361870  0.638130  0.500000  1
  Ho  Ho1  1  0.642370  0.357630  0.500000  1
  Ni  Ni2  1  0.193525  0.806475  0.000000  1
  Ir  Ir3  1  0.798440  0.201560  0.000000  1
  Pb  Pb4  1  0.003794  0.996206  0.000000  1
