# generated using pymatgen
data_DyNp2ScGe6Ru7
_symmetry_space_group_name_H-M   'P 1'
_cell_length_a   7.15831832
_cell_length_b   7.13453435
_cell_length_c   7.21716221
_cell_angle_alpha   109.34258216
_cell_angle_beta   109.47559106
_cell_angle_gamma   109.19599308
_symmetry_Int_Tables_number   1
_chemical_formula_structural   DyNp2ScGe6Ru7
_chemical_formula_sum   'Dy1 Np2 Sc1 Ge6 Ru7'
_cell_volume   285.12949817
_cell_formula_units_Z   1
loop_
 _symmetry_equiv_pos_site_id
 _symmetry_equiv_pos_as_xyz
  1  'x, y, z'
loop_
 _atom_site_type_symbol
 _atom_site_label
 _atom_site_symmetry_multiplicity
 _atom_site_fract_x
 _atom_site_fract_y
 _atom_site_fract_z
 _atom_site_occupancy
  Dy  Dy0  1  0.000000  0.500000  0.000000  1
  Np  Np1  1  0.000000  0.000000  0.500000  1
  Np  Np2  1  0.500000  0.500000  0.500000  1
  Sc  Sc3  1  0.500000  0.000000  0.000000  1
  Ge  Ge4  1  0.685990  0.691867  0.000000  1
  Ge  Ge5  1  0.312336  0.997695  0.304697  1
  Ge  Ge6  1  0.992361  0.307002  0.304697  1
  Ge  Ge7  1  0.314010  0.308133  0.000000  1
  Ge  Ge8  1  0.687663  0.002305  0.695303  1
  Ge  Ge9  1  0.007639  0.692998  0.695303  1
  Ru  Ru10  1  0.746384  0.246384  0.492768  1
  Ru  Ru11  1  0.746933  0.502483  0.256926  1
  Ru  Ru12  1  0.490007  0.245557  0.743074  1
  Ru  Ru13  1  0.253067  0.497517  0.743074  1
  Ru  Ru14  1  0.253616  0.753616  0.507232  1
  Ru  Ru15  1  0.509993  0.754443  0.256926  1
  Ru  Ru16  1  0.000000  0.000000  0.000000  1
