# generated using pymatgen
data_DyErMn3P7Ru9
_symmetry_space_group_name_H-M   'P 1'
_cell_length_a   9.33310900
_cell_length_b   9.33310883
_cell_length_c   3.83184400
_cell_angle_alpha   90.00000000
_cell_angle_beta   90.00000000
_cell_angle_gamma   120.00000416
_symmetry_Int_Tables_number   1
_chemical_formula_structural   DyErMn3P7Ru9
_chemical_formula_sum   'Dy1 Er1 Mn3 P7 Ru9'
_cell_volume   289.06206522
_cell_formula_units_Z   1
loop_
 _symmetry_equiv_pos_site_id
 _symmetry_equiv_pos_as_xyz
  1  'x, y, z'
loop_
 _atom_site_type_symbol
 _atom_site_label
 _atom_site_symmetry_multiplicity
 _atom_site_fract_x
 _atom_site_fract_y
 _atom_site_fract_z
 _atom_site_occupancy
  Dy  Dy0  1  0.333333  0.666667  0.000000  1
  Er  Er1  1  0.666667  0.333333  0.500000  1
  Mn  Mn2  1  0.156349  0.886000  0.000000  1
  Mn  Mn3  1  0.114000  0.270349  0.000000  1
  Mn  Mn4  1  0.729651  0.843651  0.000000  1
  P  P5  1  0.413624  0.112659  0.000000  1
  P  P6  1  0.887341  0.300964  0.000000  1
  P  P7  1  0.699036  0.586376  0.000000  1
  P  P8  1  0.115578  0.714985  0.500000  1
  P  P9  1  0.285015  0.400593  0.500000  1
  P  P10  1  0.599407  0.884422  0.500000  1
  P  P11  1  0.000000  0.000000  0.000000  1
  Ru  Ru12  1  0.423047  0.362884  0.000000  1
  Ru  Ru13  1  0.637116  0.060163  0.000000  1
  Ru  Ru14  1  0.939837  0.576953  0.000000  1
  Ru  Ru15  1  0.383576  0.949052  0.500000  1
  Ru  Ru16  1  0.050948  0.434523  0.500000  1
  Ru  Ru17  1  0.565477  0.616424  0.500000  1
  Ru  Ru18  1  0.205136  0.117992  0.500000  1
  Ru  Ru19  1  0.882008  0.087144  0.500000  1
  Ru  Ru20  1  0.912856  0.794864  0.500000  1
