# generated using pymatgen
data_Dy9HoIrRu3
_symmetry_space_group_name_H-M   'P 1'
_cell_length_a   6.35604384
_cell_length_b   7.31192851
_cell_length_c   8.48431855
_cell_angle_alpha   96.76808459
_cell_angle_beta   112.05306093
_cell_angle_gamma   90.01372939
_symmetry_Int_Tables_number   1
_chemical_formula_structural   Dy9HoIrRu3
_chemical_formula_sum   'Dy9 Ho1 Ir1 Ru3'
_cell_volume   362.48823828
_cell_formula_units_Z   1
loop_
 _symmetry_equiv_pos_site_id
 _symmetry_equiv_pos_as_xyz
  1  'x, y, z'
loop_
 _atom_site_type_symbol
 _atom_site_label
 _atom_site_symmetry_multiplicity
 _atom_site_fract_x
 _atom_site_fract_y
 _atom_site_fract_z
 _atom_site_occupancy
  Dy  Dy0  1  0.978467  0.917441  0.185615  1
  Dy  Dy1  1  0.791590  0.584964  0.812894  1
  Dy  Dy2  1  0.021732  0.084859  0.813915  1
  Dy  Dy3  1  0.209187  0.414370  0.185482  1
  Dy  Dy4  1  0.641257  0.815762  0.435453  1
  Dy  Dy5  1  0.207561  0.684913  0.565993  1
  Dy  Dy6  1  0.358288  0.185313  0.565377  1
  Dy  Dy7  1  0.793245  0.313805  0.435962  1
  Dy  Dy8  1  0.420167  0.750188  0.000003  1
  Ho  Ho9  1  0.578611  0.248721  0.998893  1
  Ir  Ir10  1  0.822489  0.575887  0.221142  1
  Ru  Ru11  1  0.604159  0.923341  0.779700  1
  Ru  Ru12  1  0.175677  0.424500  0.779119  1
  Ru  Ru13  1  0.397570  0.075937  0.220454  1
