# generated using pymatgen
data_Tb18Y2GaCo4Sb7
_symmetry_space_group_name_H-M   'P 1'
_cell_length_a   7.90913208
_cell_length_b   8.77872762
_cell_length_c   12.19788014
_cell_angle_alpha   90.06869337
_cell_angle_beta   90.05262592
_cell_angle_gamma   89.97444881
_symmetry_Int_Tables_number   1
_chemical_formula_structural   Tb18Y2GaCo4Sb7
_chemical_formula_sum   'Tb18 Y2 Ga1 Co4 Sb7'
_cell_volume   846.92358225
_cell_formula_units_Z   1
loop_
 _symmetry_equiv_pos_site_id
 _symmetry_equiv_pos_as_xyz
  1  'x, y, z'
loop_
 _atom_site_type_symbol
 _atom_site_label
 _atom_site_symmetry_multiplicity
 _atom_site_fract_x
 _atom_site_fract_y
 _atom_site_fract_z
 _atom_site_occupancy
  Tb  Tb0  1  0.847252  0.251225  0.796684  1
  Tb  Tb1  1  0.345987  0.750467  0.701517  1
  Tb  Tb2  1  0.453282  0.748983  0.997708  1
  Tb  Tb3  1  0.952296  0.241245  0.497216  1
  Tb  Tb4  1  0.542944  0.251336  0.002412  1
  Tb  Tb5  1  0.038001  0.759289  0.492623  1
  Tb  Tb6  1  0.631955  0.755061  0.306556  1
  Tb  Tb7  1  0.116479  0.243831  0.197913  1
  Tb  Tb8  1  0.377711  0.249893  0.694028  1
  Tb  Tb9  1  0.878027  0.749785  0.805482  1
  Tb  Tb10  1  0.822875  0.966651  0.071094  1
  Tb  Tb11  1  0.317855  0.034689  0.432652  1
  Tb  Tb12  1  0.178848  0.464108  0.935535  1
  Tb  Tb13  1  0.682270  0.531873  0.565367  1
  Tb  Tb14  1  0.178742  0.033144  0.935066  1
  Tb  Tb15  1  0.678538  0.963357  0.565008  1
  Tb  Tb16  1  0.819755  0.535748  0.065532  1
  Tb  Tb17  1  0.321029  0.468111  0.433984  1
  Y  Y18  1  0.150545  0.755004  0.207741  1
  Y  Y19  1  0.660572  0.244692  0.293060  1
  Ga  Ga20  1  0.928480  0.994964  0.329485  1
  Co  Co21  1  0.437239  0.749258  0.489777  1
  Co  Co22  1  0.932243  0.249453  0.010662  1
  Co  Co23  1  0.566165  0.249857  0.509826  1
  Co  Co24  1  0.066930  0.749092  0.989797  1
  Sb  Sb25  1  0.426413  0.007063  0.172386  1
  Sb  Sb26  1  0.073722  0.492357  0.669355  1
  Sb  Sb27  1  0.572244  0.508237  0.826695  1
  Sb  Sb28  1  0.073563  0.008282  0.673872  1
  Sb  Sb29  1  0.573155  0.992535  0.828374  1
  Sb  Sb30  1  0.927541  0.507117  0.327653  1
  Sb  Sb31  1  0.427343  0.493295  0.174941  1
