# generated using pymatgen
data_Dy2Y6Ti12Si15P
_symmetry_space_group_name_H-M   'P 1'
_cell_length_a   7.04581628
_cell_length_b   7.05302505
_cell_length_c   12.94805300
_cell_angle_alpha   90.00762878
_cell_angle_beta   89.90106347
_cell_angle_gamma   90.03437084
_symmetry_Int_Tables_number   1
_chemical_formula_structural   Dy2Y6Ti12Si15P
_chemical_formula_sum   'Dy2 Y6 Ti12 Si15 P1'
_cell_volume   643.44359181
_cell_formula_units_Z   1
loop_
 _symmetry_equiv_pos_site_id
 _symmetry_equiv_pos_as_xyz
  1  'x, y, z'
loop_
 _atom_site_type_symbol
 _atom_site_label
 _atom_site_symmetry_multiplicity
 _atom_site_fract_x
 _atom_site_fract_y
 _atom_site_fract_z
 _atom_site_occupancy
  Dy  Dy0  1  0.497776  0.841501  0.716455  1
  Dy  Dy1  1  0.338793  0.999695  0.467054  1
  Y  Y2  1  0.997351  0.659561  0.033619  1
  Y  Y3  1  0.003087  0.344668  0.532161  1
  Y  Y4  1  0.659682  0.997420  0.966575  1
  Y  Y5  1  0.159722  0.502953  0.782641  1
  Y  Y6  1  0.842166  0.498869  0.284638  1
  Y  Y7  1  0.502614  0.159928  0.217240  1
  Ti  Ti8  1  0.343584  0.510916  0.374949  1
  Ti  Ti9  1  0.850143  0.987855  0.377298  1
  Ti  Ti10  1  0.008350  0.152164  0.124066  1
  Ti  Ti11  1  0.992745  0.845723  0.620502  1
  Ti  Ti12  1  0.509028  0.346338  0.625678  1
  Ti  Ti13  1  0.151829  0.008328  0.876218  1
  Ti  Ti14  1  0.674494  0.673836  0.499464  1
  Ti  Ti15  1  0.826861  0.173223  0.749579  1
  Ti  Ti16  1  0.172075  0.825844  0.251867  1
  Ti  Ti17  1  0.326796  0.326680  0.000109  1
  Ti  Ti18  1  0.491533  0.652068  0.126564  1
  Ti  Ti19  1  0.652280  0.491579  0.873656  1
  Si  Si20  1  0.952957  0.290850  0.935175  1
  Si  Si21  1  0.709652  0.047616  0.564623  1
  Si  Si22  1  0.209220  0.452513  0.185375  1
  Si  Si23  1  0.790606  0.547312  0.685199  1
  Si  Si24  1  0.452568  0.209288  0.814585  1
  Si  Si25  1  0.546663  0.790965  0.314827  1
  Si  Si26  1  0.290759  0.952640  0.065234  1
  Si  Si27  1  0.796995  0.870682  0.184731  1
  Si  Si28  1  0.302353  0.628982  0.567517  1
  Si  Si29  1  0.702468  0.370004  0.065595  1
  Si  Si30  1  0.628590  0.297358  0.434193  1
  Si  Si31  1  0.370180  0.702632  0.934552  1
  Si  Si32  1  0.130151  0.201887  0.315639  1
  Si  Si33  1  0.201029  0.129953  0.683877  1
  Si  Si34  1  0.870289  0.797812  0.814387  1
  P  P35  1  0.044609  0.710359  0.434160  1
