# generated using pymatgen
data_SmZrReB6
_symmetry_space_group_name_H-M   'P 1'
_cell_length_a   3.64314300
_cell_length_b   9.09681500
_cell_length_c   11.52534000
_cell_angle_alpha   90.00000000
_cell_angle_beta   90.00000000
_cell_angle_gamma   90.00000000
_symmetry_Int_Tables_number   1
_chemical_formula_structural   SmZrReB6
_chemical_formula_sum   'Sm4 Zr4 Re4 B24'
_cell_volume   381.96126862
_cell_formula_units_Z   4
loop_
 _symmetry_equiv_pos_site_id
 _symmetry_equiv_pos_as_xyz
  1  'x, y, z'
loop_
 _atom_site_type_symbol
 _atom_site_label
 _atom_site_symmetry_multiplicity
 _atom_site_fract_x
 _atom_site_fract_y
 _atom_site_fract_z
 _atom_site_occupancy
  Sm  Sm0  1  0.000000  0.322642  0.414329  1
  Sm  Sm1  1  0.000000  0.677358  0.585671  1
  Sm  Sm2  1  0.000000  0.822642  0.085671  1
  Sm  Sm3  1  0.000000  0.177358  0.914329  1
  Zr  Zr4  1  0.000000  0.944970  0.372057  1
  Zr  Zr5  1  0.000000  0.055030  0.627943  1
  Zr  Zr6  1  0.000000  0.444970  0.127943  1
  Zr  Zr7  1  0.000000  0.555030  0.872057  1
  Re  Re8  1  0.000000  0.640408  0.317504  1
  Re  Re9  1  0.000000  0.359592  0.682496  1
  Re  Re10  1  0.000000  0.140408  0.182496  1
  Re  Re11  1  0.000000  0.859592  0.817504  1
  B  B12  1  0.500000  0.555184  0.431848  1
  B  B13  1  0.500000  0.444816  0.568152  1
  B  B14  1  0.500000  0.055184  0.068152  1
  B  B15  1  0.500000  0.944816  0.931848  1
  B  B16  1  0.500000  0.752220  0.416724  1
  B  B17  1  0.500000  0.247780  0.583276  1
  B  B18  1  0.500000  0.252220  0.083276  1
  B  B19  1  0.500000  0.747780  0.916724  1
  B  B20  1  0.500000  0.794312  0.264784  1
  B  B21  1  0.500000  0.205688  0.735216  1
  B  B22  1  0.500000  0.294312  0.235216  1
  B  B23  1  0.500000  0.705688  0.764784  1
  B  B24  1  0.500000  0.629878  0.183944  1
  B  B25  1  0.500000  0.370122  0.816056  1
  B  B26  1  0.500000  0.129878  0.316056  1
  B  B27  1  0.500000  0.870122  0.683944  1
  B  B28  1  0.500000  0.982993  0.214071  1
  B  B29  1  0.500000  0.017007  0.785929  1
  B  B30  1  0.500000  0.482993  0.285929  1
  B  B31  1  0.500000  0.517007  0.714071  1
  B  B32  1  0.500000  0.599259  0.026442  1
  B  B33  1  0.500000  0.400741  0.973558  1
  B  B34  1  0.500000  0.099259  0.473558  1
  B  B35  1  0.500000  0.900741  0.526442  1
