# generated using pymatgen
data_Tb2DyPa(ReB6)2
_symmetry_space_group_name_H-M   'P 1'
_cell_length_a   3.71209400
_cell_length_b   9.20355004
_cell_length_c   11.56307318
_cell_angle_alpha   90.41751844
_cell_angle_beta   90.00000000
_cell_angle_gamma   90.00000000
_symmetry_Int_Tables_number   1
_chemical_formula_structural   Tb2DyPa(ReB6)2
_chemical_formula_sum   'Tb4 Dy2 Pa2 Re4 B24'
_cell_volume   395.03546429
_cell_formula_units_Z   2
loop_
 _symmetry_equiv_pos_site_id
 _symmetry_equiv_pos_as_xyz
  1  'x, y, z'
loop_
 _atom_site_type_symbol
 _atom_site_label
 _atom_site_symmetry_multiplicity
 _atom_site_fract_x
 _atom_site_fract_y
 _atom_site_fract_z
 _atom_site_occupancy
  Tb  Tb0  1  0.000000  0.824325  0.086013  1
  Tb  Tb1  1  0.000000  0.175675  0.913987  1
  Tb  Tb2  1  0.000000  0.945177  0.373252  1
  Tb  Tb3  1  0.000000  0.054823  0.626748  1
  Dy  Dy4  1  0.000000  0.444009  0.126512  1
  Dy  Dy5  1  0.000000  0.555991  0.873488  1
  Pa  Pa6  1  0.000000  0.322586  0.412886  1
  Pa  Pa7  1  0.000000  0.677414  0.587114  1
  Re  Re8  1  0.000000  0.634730  0.325228  1
  Re  Re9  1  0.000000  0.365270  0.674772  1
  Re  Re10  1  0.000000  0.141187  0.181902  1
  Re  Re11  1  0.000000  0.858813  0.818098  1
  B  B12  1  0.500000  0.552931  0.432956  1
  B  B13  1  0.500000  0.447069  0.567044  1
  B  B14  1  0.500000  0.053721  0.067712  1
  B  B15  1  0.500000  0.946279  0.932288  1
  B  B16  1  0.500000  0.746528  0.420000  1
  B  B17  1  0.500000  0.253472  0.580000  1
  B  B18  1  0.500000  0.247791  0.080489  1
  B  B19  1  0.500000  0.752209  0.919511  1
  B  B20  1  0.500000  0.790904  0.266432  1
  B  B21  1  0.500000  0.209096  0.733568  1
  B  B22  1  0.500000  0.292679  0.233462  1
  B  B23  1  0.500000  0.707321  0.766538  1
  B  B24  1  0.500000  0.631550  0.186115  1
  B  B25  1  0.500000  0.368450  0.813885  1
  B  B26  1  0.500000  0.133838  0.313549  1
  B  B27  1  0.500000  0.866162  0.686451  1
  B  B28  1  0.500000  0.983406  0.212544  1
  B  B29  1  0.500000  0.016594  0.787456  1
  B  B30  1  0.500000  0.483269  0.286770  1
  B  B31  1  0.500000  0.516731  0.713230  1
  B  B32  1  0.500000  0.605394  0.029670  1
  B  B33  1  0.500000  0.394606  0.970330  1
  B  B34  1  0.500000  0.116671  0.467809  1
  B  B35  1  0.500000  0.883329  0.532191  1
