# generated using pymatgen
data_Y4Be4AlIr9
_symmetry_space_group_name_H-M   'P 1'
_cell_length_a   5.48368300
_cell_length_b   5.48368294
_cell_length_c   21.81636900
_cell_angle_alpha   90.00000000
_cell_angle_beta   90.00000000
_cell_angle_gamma   119.99999435
_symmetry_Int_Tables_number   1
_chemical_formula_structural   Y4Be4AlIr9
_chemical_formula_sum   'Y8 Be8 Al2 Ir18'
_cell_volume   568.14318874
_cell_formula_units_Z   2
loop_
 _symmetry_equiv_pos_site_id
 _symmetry_equiv_pos_as_xyz
  1  'x, y, z'
loop_
 _atom_site_type_symbol
 _atom_site_label
 _atom_site_symmetry_multiplicity
 _atom_site_fract_x
 _atom_site_fract_y
 _atom_site_fract_z
 _atom_site_occupancy
  Y  Y0  1  0.333333  0.666667  0.526926  1
  Y  Y1  1  0.666667  0.333333  0.473074  1
  Y  Y2  1  0.666667  0.333333  0.026926  1
  Y  Y3  1  0.333333  0.666667  0.973074  1
  Y  Y4  1  0.333333  0.666667  0.674696  1
  Y  Y5  1  0.666667  0.333333  0.325304  1
  Y  Y6  1  0.666667  0.333333  0.174696  1
  Y  Y7  1  0.333333  0.666667  0.825304  1
  Be  Be8  1  0.333333  0.666667  0.171490  1
  Be  Be9  1  0.666667  0.333333  0.828510  1
  Be  Be10  1  0.666667  0.333333  0.671490  1
  Be  Be11  1  0.333333  0.666667  0.328510  1
  Be  Be12  1  0.000000  0.000000  0.169950  1
  Be  Be13  1  0.000000  0.000000  0.830050  1
  Be  Be14  1  0.000000  0.000000  0.669950  1
  Be  Be15  1  0.000000  0.000000  0.330050  1
  Al  Al16  1  0.000000  0.000000  0.000000  1
  Al  Al17  1  0.000000  0.000000  0.500000  1
  Ir  Ir18  1  0.168262  0.336523  0.092587  1
  Ir  Ir19  1  0.831738  0.663477  0.907413  1
  Ir  Ir20  1  0.663477  0.831738  0.092587  1
  Ir  Ir21  1  0.831738  0.663477  0.592587  1
  Ir  Ir22  1  0.336523  0.168262  0.907413  1
  Ir  Ir23  1  0.168262  0.336523  0.407413  1
  Ir  Ir24  1  0.168262  0.831738  0.092587  1
  Ir  Ir25  1  0.336523  0.168262  0.592587  1
  Ir  Ir26  1  0.831738  0.168262  0.907413  1
  Ir  Ir27  1  0.663477  0.831738  0.407413  1
  Ir  Ir28  1  0.831738  0.168262  0.592587  1
  Ir  Ir29  1  0.168262  0.831738  0.407413  1
  Ir  Ir30  1  0.165827  0.331654  0.250000  1
  Ir  Ir31  1  0.834173  0.668346  0.750000  1
  Ir  Ir32  1  0.668346  0.834173  0.250000  1
  Ir  Ir33  1  0.331654  0.165827  0.750000  1
  Ir  Ir34  1  0.165827  0.834173  0.250000  1
  Ir  Ir35  1  0.834173  0.165827  0.750000  1
