# generated using pymatgen
data_HoZnCu2PtAu
_symmetry_space_group_name_H-M   'P 1'
_cell_length_a   5.19084115
_cell_length_b   5.19084162
_cell_length_c   5.12538747
_cell_angle_alpha   59.77062083
_cell_angle_beta   59.77063645
_cell_angle_gamma   59.56362826
_symmetry_Int_Tables_number   1
_chemical_formula_structural   HoZnCu2PtAu
_chemical_formula_sum   'Ho1 Zn1 Cu2 Pt1 Au1'
_cell_volume   96.99067988
_cell_formula_units_Z   1
loop_
 _symmetry_equiv_pos_site_id
 _symmetry_equiv_pos_as_xyz
  1  'x, y, z'
loop_
 _atom_site_type_symbol
 _atom_site_label
 _atom_site_symmetry_multiplicity
 _atom_site_fract_x
 _atom_site_fract_y
 _atom_site_fract_z
 _atom_site_occupancy
  Ho  Ho0  1  0.248387  0.248387  0.256919  1
  Zn  Zn1  1  0.625131  0.625131  0.116677  1
  Cu  Cu2  1  0.624273  0.119925  0.622253  1
  Cu  Cu3  1  0.119925  0.624273  0.622253  1
  Pt  Pt4  1  0.623033  0.623033  0.619172  1
  Au  Au5  1  0.009250  0.009250  0.012725  1
