# generated using pymatgen
data_Na2Sc3Tc4(P4Ir5)3
_symmetry_space_group_name_H-M   'P 1'
_cell_length_a   12.64936897
_cell_length_b   12.50450441
_cell_length_c   3.95076900
_cell_angle_alpha   90.00000000
_cell_angle_beta   90.00000000
_cell_angle_gamma   119.89170795
_symmetry_Int_Tables_number   1
_chemical_formula_structural   Na2Sc3Tc4(P4Ir5)3
_chemical_formula_sum   'Na2 Sc3 Tc4 P12 Ir15'
_cell_volume   541.77691048
_cell_formula_units_Z   1
loop_
 _symmetry_equiv_pos_site_id
 _symmetry_equiv_pos_as_xyz
  1  'x, y, z'
loop_
 _atom_site_type_symbol
 _atom_site_label
 _atom_site_symmetry_multiplicity
 _atom_site_fract_x
 _atom_site_fract_y
 _atom_site_fract_z
 _atom_site_occupancy
  Na  Na0  1  0.818992  0.001592  0.500000  1
  Na  Na1  1  0.000537  0.819163  0.500000  1
  Sc  Sc2  1  0.330746  0.662016  0.000000  1
  Sc  Sc3  1  0.664594  0.332513  0.000000  1
  Sc  Sc4  1  0.181366  0.182774  0.500000  1
  Tc  Tc5  1  0.455530  0.002991  0.000000  1
  Tc  Tc6  1  0.999717  0.455455  0.000000  1
  Tc  Tc7  1  0.548098  0.542305  0.000000  1
  Tc  Tc8  1  0.179214  0.377495  0.000000  1
  P  P9  1  0.178561  0.000810  0.000000  1
  P  P10  1  0.003013  0.183694  0.000000  1
  P  P11  1  0.822814  0.824449  0.000000  1
  P  P12  1  0.172985  0.479910  0.500000  1
  P  P13  1  0.517782  0.685779  0.500000  1
  P  P14  1  0.311087  0.827594  0.500000  1
  P  P15  1  0.688417  0.518045  0.500000  1
  P  P16  1  0.828563  0.311913  0.500000  1
  P  P17  1  0.483539  0.167508  0.500000  1
  P  P18  1  0.637618  0.999263  0.000000  1
  P  P19  1  0.000953  0.640715  0.000000  1
  P  P20  1  0.357587  0.363005  0.000000  1
  Ir  Ir21  1  0.363628  0.491221  0.500000  1
  Ir  Ir22  1  0.503156  0.864381  0.500000  1
  Ir  Ir23  1  0.132886  0.637139  0.500000  1
  Ir  Ir24  1  0.866270  0.506031  0.500000  1
  Ir  Ir25  1  0.639596  0.131716  0.500000  1
  Ir  Ir26  1  0.497755  0.357824  0.500000  1
  Ir  Ir27  1  0.619035  0.801319  0.000000  1
  Ir  Ir28  1  0.199716  0.818502  0.000000  1
  Ir  Ir29  1  0.804399  0.622388  0.000000  1
  Ir  Ir30  1  0.815027  0.198542  0.000000  1
  Ir  Ir31  1  0.372222  0.182743  0.000000  1
  Ir  Ir32  1  0.286586  0.002569  0.500000  1
  Ir  Ir33  1  0.997087  0.284389  0.500000  1
  Ir  Ir34  1  0.715447  0.715958  0.500000  1
  Ir  Ir35  1  0.005475  0.006290  0.000000  1
