# generated using pymatgen
data_Yb7Tm2LuPt8
_symmetry_space_group_name_H-M   'P 1'
_cell_length_a   7.46137300
_cell_length_b   7.55453901
_cell_length_c   14.48102200
_cell_angle_alpha   90.11326686
_cell_angle_beta   90.00000000
_cell_angle_gamma   90.00000000
_symmetry_Int_Tables_number   1
_chemical_formula_structural   Yb7Tm2LuPt8
_chemical_formula_sum   'Yb14 Tm4 Lu2 Pt16'
_cell_volume   816.25355149
_cell_formula_units_Z   2
loop_
 _symmetry_equiv_pos_site_id
 _symmetry_equiv_pos_as_xyz
  1  'x, y, z'
loop_
 _atom_site_type_symbol
 _atom_site_label
 _atom_site_symmetry_multiplicity
 _atom_site_fract_x
 _atom_site_fract_y
 _atom_site_fract_z
 _atom_site_occupancy
  Yb  Yb0  1  0.649735  0.166621  0.878299  1
  Yb  Yb1  1  0.149735  0.333379  0.621701  1
  Yb  Yb2  1  0.492428  0.676760  0.594763  1
  Yb  Yb3  1  0.992428  0.823240  0.905237  1
  Yb  Yb4  1  0.506368  0.320698  0.093404  1
  Yb  Yb5  1  0.006368  0.179302  0.406596  1
  Yb  Yb6  1  0.505978  0.321445  0.406021  1
  Yb  Yb7  1  0.005978  0.178555  0.093979  1
  Yb  Yb8  1  0.493062  0.680127  0.903990  1
  Yb  Yb9  1  0.993062  0.819873  0.596010  1
  Yb  Yb10  1  0.810623  0.507429  0.749854  1
  Yb  Yb11  1  0.310623  0.992571  0.750146  1
  Yb  Yb12  1  0.191130  0.487748  0.249971  1
  Yb  Yb13  1  0.691130  0.012252  0.250029  1
  Tm  Tm14  1  0.650672  0.163238  0.623307  1
  Tm  Tm15  1  0.150672  0.336762  0.876693  1
  Tm  Tm16  1  0.350997  0.834243  0.123552  1
  Tm  Tm17  1  0.850997  0.665757  0.376448  1
  Lu  Lu18  1  0.349753  0.833936  0.376115  1
  Lu  Lu19  1  0.849753  0.666064  0.123885  1
  Pt  Pt20  1  0.680710  0.958780  0.458148  1
  Pt  Pt21  1  0.180710  0.541220  0.041852  1
  Pt  Pt22  1  0.314493  0.041125  0.961053  1
  Pt  Pt23  1  0.814493  0.458875  0.538947  1
  Pt  Pt24  1  0.324218  0.030878  0.539503  1
  Pt  Pt25  1  0.824218  0.469122  0.960497  1
  Pt  Pt26  1  0.677386  0.955413  0.043691  1
  Pt  Pt27  1  0.177386  0.544587  0.456309  1
  Pt  Pt28  1  0.445353  0.379769  0.747629  1
  Pt  Pt29  1  0.945353  0.120231  0.752371  1
  Pt  Pt30  1  0.554735  0.623996  0.250371  1
  Pt  Pt31  1  0.054735  0.876004  0.249629  1
  Pt  Pt32  1  0.683101  0.864681  0.746729  1
  Pt  Pt33  1  0.183101  0.635319  0.753271  1
  Pt  Pt34  1  0.319259  0.130189  0.250441  1
  Pt  Pt35  1  0.819259  0.369811  0.249559  1
