# generated using pymatgen
data_LiTm3(B6Os)2
_symmetry_space_group_name_H-M   'P 1'
_cell_length_a   3.56242000
_cell_length_b   8.94393168
_cell_length_c   11.30789757
_cell_angle_alpha   89.88910992
_cell_angle_beta   90.00000000
_cell_angle_gamma   90.00000000
_symmetry_Int_Tables_number   1
_chemical_formula_structural   LiTm3(B6Os)2
_chemical_formula_sum   'Li2 Tm6 B24 Os4'
_cell_volume   360.29202241
_cell_formula_units_Z   2
loop_
 _symmetry_equiv_pos_site_id
 _symmetry_equiv_pos_as_xyz
  1  'x, y, z'
loop_
 _atom_site_type_symbol
 _atom_site_label
 _atom_site_symmetry_multiplicity
 _atom_site_fract_x
 _atom_site_fract_y
 _atom_site_fract_z
 _atom_site_occupancy
  Li  Li0  1  0.000000  0.945131  0.375493  1
  Li  Li1  1  0.000000  0.054869  0.624508  1
  Tm  Tm2  1  0.000000  0.317588  0.415624  1
  Tm  Tm3  1  0.000000  0.682412  0.584376  1
  Tm  Tm4  1  0.000000  0.824098  0.088090  1
  Tm  Tm5  1  0.000000  0.175902  0.911910  1
  Tm  Tm6  1  0.000000  0.442742  0.130800  1
  Tm  Tm7  1  0.000000  0.557258  0.869199  1
  B  B8  1  0.500000  0.555588  0.434198  1
  B  B9  1  0.500000  0.444412  0.565802  1
  B  B10  1  0.500000  0.052453  0.067881  1
  B  B11  1  0.500000  0.947547  0.932119  1
  B  B12  1  0.500000  0.759687  0.419137  1
  B  B13  1  0.500000  0.240313  0.580863  1
  B  B14  1  0.500000  0.248097  0.082274  1
  B  B15  1  0.500000  0.751903  0.917726  1
  B  B16  1  0.500000  0.796453  0.266100  1
  B  B17  1  0.500000  0.203547  0.733900  1
  B  B18  1  0.500000  0.288790  0.237706  1
  B  B19  1  0.500000  0.711209  0.762294  1
  B  B20  1  0.500000  0.632559  0.186164  1
  B  B21  1  0.500000  0.367441  0.813836  1
  B  B22  1  0.500000  0.122834  0.320307  1
  B  B23  1  0.500000  0.877166  0.679693  1
  B  B24  1  0.500000  0.978306  0.215153  1
  B  B25  1  0.500000  0.021694  0.784847  1
  B  B26  1  0.500000  0.482036  0.289793  1
  B  B27  1  0.500000  0.517964  0.710207  1
  B  B28  1  0.500000  0.603358  0.028078  1
  B  B29  1  0.500000  0.396642  0.971922  1
  B  B30  1  0.500000  0.091654  0.474197  1
  B  B31  1  0.500000  0.908346  0.525803  1
  Os  Os32  1  0.000000  0.643152  0.323414  1
  Os  Os33  1  0.000000  0.356848  0.676586  1
  Os  Os34  1  0.000000  0.134380  0.184125  1
  Os  Os35  1  0.000000  0.865620  0.815875  1
