# generated using pymatgen
data_NdSmSi2(SnRh3)2
_symmetry_space_group_name_H-M   'P 1'
_cell_length_a   6.93000294
_cell_length_b   6.92835293
_cell_length_c   6.93000150
_cell_angle_alpha   130.80381411
_cell_angle_beta   112.90573123
_cell_angle_gamma   87.56180875
_symmetry_Int_Tables_number   1
_chemical_formula_structural   NdSmSi2(SnRh3)2
_chemical_formula_sum   'Nd1 Sm1 Si2 Sn2 Rh6'
_cell_volume   221.04058815
_cell_formula_units_Z   1
loop_
 _symmetry_equiv_pos_site_id
 _symmetry_equiv_pos_as_xyz
  1  'x, y, z'
loop_
 _atom_site_type_symbol
 _atom_site_label
 _atom_site_symmetry_multiplicity
 _atom_site_fract_x
 _atom_site_fract_y
 _atom_site_fract_z
 _atom_site_occupancy
  Nd  Nd0  1  0.229992  0.980882  0.750889  1
  Sm  Sm1  1  0.773291  0.022404  0.249114  1
  Si  Si2  1  0.103447  0.354247  0.250800  1
  Si  Si3  1  0.895591  0.644753  0.749162  1
  Sn  Sn4  1  0.566666  0.316019  0.749353  1
  Sn  Sn5  1  0.434895  0.685528  0.250633  1
  Rh  Rh6  1  0.207456  0.498798  0.707915  1
  Rh  Rh7  1  0.791881  0.999539  0.793109  1
  Rh  Rh8  1  0.790884  0.498798  0.291342  1
  Rh  Rh9  1  0.206430  0.999539  0.207658  1
  Rh  Rh10  1  0.499777  0.499747  0.500056  1
  Rh  Rh11  1  0.999691  0.499747  0.999969  1
