# generated using pymatgen
data_Tb2Pa2TlInPd4
_symmetry_space_group_name_H-M   'P 1'
_cell_length_a   7.93163107
_cell_length_b   7.80932806
_cell_length_c   3.65940500
_cell_angle_alpha   90.00000000
_cell_angle_beta   90.00000000
_cell_angle_gamma   89.98525096
_symmetry_Int_Tables_number   1
_chemical_formula_structural   Tb2Pa2TlInPd4
_chemical_formula_sum   'Tb2 Pa2 Tl1 In1 Pd4'
_cell_volume   226.66613300
_cell_formula_units_Z   1
loop_
 _symmetry_equiv_pos_site_id
 _symmetry_equiv_pos_as_xyz
  1  'x, y, z'
loop_
 _atom_site_type_symbol
 _atom_site_label
 _atom_site_symmetry_multiplicity
 _atom_site_fract_x
 _atom_site_fract_y
 _atom_site_fract_z
 _atom_site_occupancy
  Tb  Tb0  1  0.176027  0.327487  0.500000  1
  Tb  Tb1  1  0.672898  0.174910  0.500000  1
  Pa  Pa2  1  0.329396  0.829675  0.500000  1
  Pa  Pa3  1  0.826802  0.668021  0.500000  1
  Tl  Tl4  1  0.996627  0.008009  0.000000  1
  In  In5  1  0.496901  0.492668  0.000000  1
  Pd  Pd6  1  0.375396  0.112927  0.000000  1
  Pd  Pd7  1  0.870108  0.391774  0.000000  1
  Pd  Pd8  1  0.130290  0.641407  0.000000  1
  Pd  Pd9  1  0.625556  0.853122  0.000000  1
