# generated using pymatgen
data_Tm3Ag(Rh2O7)2
_symmetry_space_group_name_H-M   'P 1'
_cell_length_a   7.24995992
_cell_length_b   7.24996031
_cell_length_c   7.08486809
_cell_angle_alpha   59.22613168
_cell_angle_beta   59.22612861
_cell_angle_gamma   60.00000740
_symmetry_Int_Tables_number   1
_chemical_formula_structural   Tm3Ag(Rh2O7)2
_chemical_formula_sum   'Tm3 Ag1 Rh4 O14'
_cell_volume   260.20028925
_cell_formula_units_Z   1
loop_
 _symmetry_equiv_pos_site_id
 _symmetry_equiv_pos_as_xyz
  1  'x, y, z'
loop_
 _atom_site_type_symbol
 _atom_site_label
 _atom_site_symmetry_multiplicity
 _atom_site_fract_x
 _atom_site_fract_y
 _atom_site_fract_z
 _atom_site_occupancy
  Tm  Tm0  1  0.625000  0.625000  0.625000  1
  Tm  Tm1  1  0.625000  0.125000  0.625000  1
  Tm  Tm2  1  0.125000  0.625000  0.625000  1
  Ag  Ag3  1  0.625000  0.625000  0.125000  1
  Rh  Rh4  1  0.125000  0.125000  0.125000  1
  Rh  Rh5  1  0.625000  0.125000  0.125000  1
  Rh  Rh6  1  0.125000  0.625000  0.125000  1
  Rh  Rh7  1  0.125000  0.125000  0.625000  1
  O  O8  1  0.034696  0.462419  0.468188  1
  O  O9  1  0.795882  0.795882  0.212032  1
  O  O10  1  0.795882  0.196205  0.212032  1
  O  O11  1  0.462419  0.034696  0.468188  1
  O  O12  1  0.034696  0.034696  0.468188  1
  O  O13  1  0.053795  0.454118  0.037968  1
  O  O14  1  0.748896  0.748896  0.753312  1
  O  O15  1  0.501104  0.501104  0.496688  1
  O  O16  1  0.787581  0.215304  0.781812  1
  O  O17  1  0.196205  0.795882  0.212032  1
  O  O18  1  0.215304  0.215304  0.781812  1
  O  O19  1  0.454118  0.053795  0.037968  1
  O  O20  1  0.454118  0.454118  0.037968  1
  O  O21  1  0.215304  0.787581  0.781812  1
