# generated using pymatgen
data_LuNi3AsP
_symmetry_space_group_name_H-M   'P 1'
_cell_length_a   3.79773600
_cell_length_b   10.52261300
_cell_length_c   12.47944200
_cell_angle_alpha   90.00000000
_cell_angle_beta   90.00000000
_cell_angle_gamma   90.00000000
_symmetry_Int_Tables_number   1
_chemical_formula_structural   LuNi3AsP
_chemical_formula_sum   'Lu6 Ni18 As6 P6'
_cell_volume   498.70478657
_cell_formula_units_Z   6
loop_
 _symmetry_equiv_pos_site_id
 _symmetry_equiv_pos_as_xyz
  1  'x, y, z'
loop_
 _atom_site_type_symbol
 _atom_site_label
 _atom_site_symmetry_multiplicity
 _atom_site_fract_x
 _atom_site_fract_y
 _atom_site_fract_z
 _atom_site_occupancy
  Lu  Lu0  1  0.000000  0.500000  0.527294  1
  Lu  Lu1  1  0.500000  0.000000  0.472706  1
  Lu  Lu2  1  0.500000  0.822172  0.210281  1
  Lu  Lu3  1  0.500000  0.177828  0.210281  1
  Lu  Lu4  1  0.000000  0.677828  0.789719  1
  Lu  Lu5  1  0.000000  0.322172  0.789719  1
  Ni  Ni6  1  0.500000  0.500000  0.156795  1
  Ni  Ni7  1  0.000000  0.000000  0.843205  1
  Ni  Ni8  1  0.500000  0.500000  0.698973  1
  Ni  Ni9  1  0.000000  0.000000  0.301027  1
  Ni  Ni10  1  0.000000  0.500000  0.972731  1
  Ni  Ni11  1  0.500000  0.000000  0.027269  1
  Ni  Ni12  1  0.500000  0.336814  0.991880  1
  Ni  Ni13  1  0.500000  0.663186  0.991880  1
  Ni  Ni14  1  0.000000  0.163186  0.008120  1
  Ni  Ni15  1  0.000000  0.836814  0.008120  1
  Ni  Ni16  1  0.500000  0.291196  0.435216  1
  Ni  Ni17  1  0.500000  0.708804  0.435216  1
  Ni  Ni18  1  0.000000  0.208804  0.564784  1
  Ni  Ni19  1  0.000000  0.791196  0.564784  1
  Ni  Ni20  1  0.500000  0.872644  0.701514  1
  Ni  Ni21  1  0.500000  0.127356  0.701514  1
  Ni  Ni22  1  0.000000  0.627356  0.298486  1
  Ni  Ni23  1  0.000000  0.372644  0.298486  1
  As  As24  1  0.500000  0.500000  0.350752  1
  As  As25  1  0.000000  0.000000  0.649248  1
  As  As26  1  0.500000  0.848614  0.887490  1
  As  As27  1  0.500000  0.151386  0.887490  1
  As  As28  1  0.000000  0.651386  0.112510  1
  As  As29  1  0.000000  0.348614  0.112510  1
  P  P30  1  0.500000  0.500000  0.873000  1
  P  P31  1  0.000000  0.000000  0.127000  1
  P  P32  1  0.500000  0.316663  0.614832  1
  P  P33  1  0.500000  0.683337  0.614832  1
  P  P34  1  0.000000  0.183337  0.385168  1
  P  P35  1  0.000000  0.816663  0.385168  1
