# generated using pymatgen
data_Zr6Ti4Al12Fe2PdPt4
_symmetry_space_group_name_H-M   'P 1'
_cell_length_a   8.77032970
_cell_length_b   8.77032971
_cell_length_c   8.74712200
_cell_angle_alpha   60.08749579
_cell_angle_beta   60.08749576
_cell_angle_gamma   59.98746015
_symmetry_Int_Tables_number   1
_chemical_formula_structural   Zr6Ti4Al12Fe2PdPt4
_chemical_formula_sum   'Zr6 Ti4 Al12 Fe2 Pd1 Pt4'
_cell_volume   476.33646865
_cell_formula_units_Z   1
loop_
 _symmetry_equiv_pos_site_id
 _symmetry_equiv_pos_as_xyz
  1  'x, y, z'
loop_
 _atom_site_type_symbol
 _atom_site_label
 _atom_site_symmetry_multiplicity
 _atom_site_fract_x
 _atom_site_fract_y
 _atom_site_fract_z
 _atom_site_occupancy
  Zr  Zr0  1  0.693851  0.692519  0.307260  1
  Zr  Zr1  1  0.309320  0.689587  0.313650  1
  Zr  Zr2  1  0.690963  0.309283  0.312665  1
  Zr  Zr3  1  0.305813  0.306713  0.693015  1
  Zr  Zr4  1  0.691231  0.310202  0.685843  1
  Zr  Zr5  1  0.309289  0.691097  0.687082  1
  Ti  Ti6  1  0.888820  0.889305  0.349899  1
  Ti  Ti7  1  0.885982  0.345611  0.884363  1
  Ti  Ti8  1  0.344680  0.885995  0.883876  1
  Ti  Ti9  1  0.890631  0.888951  0.871581  1
  Al  Al10  1  0.114267  0.114490  0.645074  1
  Al  Al11  1  0.113669  0.649335  0.118537  1
  Al  Al12  1  0.650230  0.113394  0.118168  1
  Al  Al13  1  0.113998  0.113940  0.126049  1
  Al  Al14  1  0.665113  0.668073  0.002780  1
  Al  Al15  1  0.672176  0.002649  0.663768  1
  Al  Al16  1  0.002723  0.673164  0.662117  1
  Al  Al17  1  0.665984  0.666018  0.665116  1
  Al  Al18  1  0.334905  0.334048  0.996109  1
  Al  Al19  1  0.324933  0.996581  0.338958  1
  Al  Al20  1  0.997178  0.324350  0.338949  1
  Al  Al21  1  0.334760  0.334199  0.334083  1
  Fe  Fe22  1  0.002855  0.002034  0.997510  1
  Fe  Fe23  1  0.996208  0.996333  0.503875  1
  Pd  Pd24  1  0.499745  0.000530  0.000047  1
  Pt  Pt25  1  0.500778  0.999720  0.500549  1
  Pt  Pt26  1  0.999744  0.500589  0.500463  1
  Pt  Pt27  1  0.500677  0.500723  0.999404  1
  Pt  Pt28  1  0.999473  0.500564  0.999207  1
