# generated using pymatgen
data_Ta5Tc3Se16
_symmetry_space_group_name_H-M   'P 1'
_cell_length_a   6.79849600
_cell_length_b   6.79116164
_cell_length_c   13.94339300
_cell_angle_alpha   90.00039505
_cell_angle_beta   90.00043246
_cell_angle_gamma   120.03530611
_symmetry_Int_Tables_number   1
_chemical_formula_structural   Ta5Tc3Se16
_chemical_formula_sum   'Ta5 Tc3 Se16'
_cell_volume   557.31585176
_cell_formula_units_Z   1
loop_
 _symmetry_equiv_pos_site_id
 _symmetry_equiv_pos_as_xyz
  1  'x, y, z'
loop_
 _atom_site_type_symbol
 _atom_site_label
 _atom_site_symmetry_multiplicity
 _atom_site_fract_x
 _atom_site_fract_y
 _atom_site_fract_z
 _atom_site_occupancy
  Ta  Ta0  1  0.494217  0.988442  0.750002  1
  Ta  Ta1  1  0.999694  0.499380  0.249998  1
  Ta  Ta2  1  0.499691  0.499368  0.249998  1
  Ta  Ta3  1  0.493969  0.506056  0.750000  1
  Ta  Ta4  1  0.012087  0.506060  0.750001  1
  Tc  Tc5  1  0.001826  0.003678  0.249999  1
  Tc  Tc6  1  0.000229  0.000484  0.750001  1
  Tc  Tc7  1  0.501695  0.003403  0.249999  1
  Se  Se8  1  0.663250  0.326464  0.128879  1
  Se  Se9  1  0.333387  0.666716  0.623816  1
  Se  Se10  1  0.333394  0.666721  0.876185  1
  Se  Se11  1  0.663255  0.326469  0.371120  1
  Se  Se12  1  0.163315  0.326655  0.128939  1
  Se  Se13  1  0.834609  0.669245  0.631632  1
  Se  Se14  1  0.669090  0.838228  0.132914  1
  Se  Se15  1  0.169191  0.838241  0.132908  1
  Se  Se16  1  0.834810  0.165535  0.631722  1
  Se  Se17  1  0.330672  0.165450  0.631705  1
  Se  Se18  1  0.834612  0.669249  0.868370  1
  Se  Se19  1  0.834816  0.165544  0.868282  1
  Se  Se20  1  0.330677  0.165456  0.868297  1
  Se  Se21  1  0.669095  0.838233  0.367085  1
  Se  Se22  1  0.169195  0.838253  0.367088  1
  Se  Se23  1  0.163322  0.326668  0.371060  1
