# generated using pymatgen
data_AcBN2
_symmetry_space_group_name_H-M   'P 1'
_cell_length_a   6.74021832
_cell_length_b   7.30269336
_cell_length_c   8.05642894
_cell_angle_alpha   105.64381251
_cell_angle_beta   90.33366037
_cell_angle_gamma   116.50992678
_symmetry_Int_Tables_number   1
_chemical_formula_structural   AcBN2
_chemical_formula_sum   'Ac6 B6 N12'
_cell_volume   338.02821338
_cell_formula_units_Z   6
loop_
 _symmetry_equiv_pos_site_id
 _symmetry_equiv_pos_as_xyz
  1  'x, y, z'
loop_
 _atom_site_type_symbol
 _atom_site_label
 _atom_site_symmetry_multiplicity
 _atom_site_fract_x
 _atom_site_fract_y
 _atom_site_fract_z
 _atom_site_occupancy
  Ac  Ac0  1  0.548748  0.789983  0.064061  1
  Ac  Ac1  1  0.451252  0.210017  0.935939  1
  Ac  Ac2  1  0.453624  0.211301  0.419837  1
  Ac  Ac3  1  0.546376  0.788699  0.580163  1
  Ac  Ac4  1  0.946346  0.644779  0.292061  1
  Ac  Ac5  1  0.053654  0.355221  0.707939  1
  B  B6  1  0.897302  0.212026  0.327376  1
  B  B7  1  0.099267  0.775193  0.980412  1
  B  B8  1  0.900733  0.224807  0.019588  1
  B  B9  1  0.102698  0.787974  0.672624  1
  B  B10  1  0.266159  0.422296  0.227875  1
  B  B11  1  0.733841  0.577704  0.772125  1
  N  N12  1  0.146073  0.368165  0.051789  1
  N  N13  1  0.853927  0.631835  0.948211  1
  N  N14  1  0.227037  0.788314  0.828093  1
  N  N15  1  0.765872  0.066999  0.423321  1
  N  N16  1  0.234128  0.933001  0.576679  1
  N  N17  1  0.772963  0.211686  0.171907  1
  N  N18  1  0.488462  0.481310  0.747117  1
  N  N19  1  0.511538  0.518690  0.252883  1
  N  N20  1  0.769506  0.095988  0.849373  1
  N  N21  1  0.230494  0.904012  0.150627  1
  N  N22  1  0.141754  0.365718  0.375003  1
  N  N23  1  0.858246  0.634282  0.624997  1
