# generated using pymatgen
data_CaTbHoGa8Ag3
_symmetry_space_group_name_H-M   'P 1'
_cell_length_a   4.36228058
_cell_length_b   8.40339419
_cell_length_c   8.40339437
_cell_angle_alpha   69.91097405
_cell_angle_beta   74.95634858
_cell_angle_gamma   74.95634999
_symmetry_Int_Tables_number   1
_chemical_formula_structural   CaTbHoGa8Ag3
_chemical_formula_sum   'Ca1 Tb1 Ho1 Ga8 Ag3'
_cell_volume   274.41888136
_cell_formula_units_Z   1
loop_
 _symmetry_equiv_pos_site_id
 _symmetry_equiv_pos_as_xyz
  1  'x, y, z'
loop_
 _atom_site_type_symbol
 _atom_site_label
 _atom_site_symmetry_multiplicity
 _atom_site_fract_x
 _atom_site_fract_y
 _atom_site_fract_z
 _atom_site_occupancy
  Ca  Ca0  1  0.500153  0.499847  0.499847  1
  Tb  Tb1  1  0.202050  0.797950  0.797950  1
  Ho  Ho2  1  0.798165  0.201835  0.201835  1
  Ga  Ga3  1  0.355398  0.362018  0.927185  1
  Ga  Ga4  1  0.644594  0.637465  0.073348  1
  Ga  Ga5  1  0.355398  0.927185  0.362018  1
  Ga  Ga6  1  0.644594  0.073348  0.637465  1
  Ga  Ga7  1  0.160135  0.471751  0.207979  1
  Ga  Ga8  1  0.840068  0.527827  0.792039  1
  Ga  Ga9  1  0.160135  0.207979  0.471751  1
  Ga  Ga10  1  0.840068  0.792039  0.527827  1
  Ag  Ag11  1  0.499737  0.000263  0.000263  1
  Ag  Ag12  1  0.999753  0.809676  0.190818  1
  Ag  Ag13  1  0.999753  0.190818  0.809676  1
