# generated using pymatgen
data_Y3Al3ZnSiPt
_symmetry_space_group_name_H-M   'P 1'
_cell_length_a   7.00238600
_cell_length_b   7.00238586
_cell_length_c   4.21701600
_cell_angle_alpha   90.00000000
_cell_angle_beta   90.00000000
_cell_angle_gamma   120.00000067
_symmetry_Int_Tables_number   1
_chemical_formula_structural   Y3Al3ZnSiPt
_chemical_formula_sum   'Y3 Al3 Zn1 Si1 Pt1'
_cell_volume   179.07211504
_cell_formula_units_Z   1
loop_
 _symmetry_equiv_pos_site_id
 _symmetry_equiv_pos_as_xyz
  1  'x, y, z'
loop_
 _atom_site_type_symbol
 _atom_site_label
 _atom_site_symmetry_multiplicity
 _atom_site_fract_x
 _atom_site_fract_y
 _atom_site_fract_z
 _atom_site_occupancy
  Y  Y0  1  0.416973  0.996819  0.000000  1
  Y  Y1  1  0.003181  0.420155  0.000000  1
  Y  Y2  1  0.579845  0.583027  0.000000  1
  Al  Al3  1  0.767106  0.006087  0.500000  1
  Al  Al4  1  0.238982  0.232894  0.500000  1
  Al  Al5  1  0.993913  0.761019  0.500000  1
  Zn  Zn6  1  0.666667  0.333333  0.500000  1
  Si  Si7  1  0.333333  0.666667  0.500000  1
  Pt  Pt8  1  0.000000  0.000000  0.000000  1
