# generated using pymatgen
data_DyTh7(Sc3Ge4)4
_symmetry_space_group_name_H-M   'P 1'
_cell_length_a   7.46366505
_cell_length_b   7.55729143
_cell_length_c   14.22880761
_cell_angle_alpha   90.01392630
_cell_angle_beta   90.05278288
_cell_angle_gamma   89.87716111
_symmetry_Int_Tables_number   1
_chemical_formula_structural   DyTh7(Sc3Ge4)4
_chemical_formula_sum   'Dy1 Th7 Sc12 Ge16'
_cell_volume   802.57499269
_cell_formula_units_Z   1
loop_
 _symmetry_equiv_pos_site_id
 _symmetry_equiv_pos_as_xyz
  1  'x, y, z'
loop_
 _atom_site_type_symbol
 _atom_site_label
 _atom_site_symmetry_multiplicity
 _atom_site_fract_x
 _atom_site_fract_y
 _atom_site_fract_z
 _atom_site_occupancy
  Dy  Dy0  1  0.990586  0.176687  0.098273  1
  Th  Th1  1  0.006524  0.824827  0.904263  1
  Th  Th2  1  0.507358  0.675679  0.905397  1
  Th  Th3  1  0.007932  0.823760  0.596221  1
  Th  Th4  1  0.492601  0.323860  0.095837  1
  Th  Th5  1  0.993098  0.175821  0.403964  1
  Th  Th6  1  0.491233  0.323724  0.402300  1
  Th  Th7  1  0.508436  0.675828  0.595783  1
  Sc  Sc8  1  0.178003  0.498117  0.750157  1
  Sc  Sc9  1  0.822093  0.501899  0.249324  1
  Sc  Sc10  1  0.322371  0.998411  0.248905  1
  Sc  Sc11  1  0.677206  0.002236  0.750045  1
  Sc  Sc12  1  0.345340  0.163441  0.624971  1
  Sc  Sc13  1  0.655128  0.836991  0.374375  1
  Sc  Sc14  1  0.154379  0.663303  0.373522  1
  Sc  Sc15  1  0.653976  0.836766  0.124813  1
  Sc  Sc16  1  0.846368  0.335815  0.625031  1
  Sc  Sc17  1  0.346619  0.164637  0.875844  1
  Sc  Sc18  1  0.846087  0.334587  0.875495  1
  Sc  Sc19  1  0.154270  0.664840  0.125656  1
  Ge  Ge20  1  0.187222  0.455755  0.543144  1
  Ge  Ge21  1  0.813295  0.543543  0.455952  1
  Ge  Ge22  1  0.314342  0.954196  0.456355  1
  Ge  Ge23  1  0.816157  0.542208  0.044126  1
  Ge  Ge24  1  0.686352  0.044830  0.543522  1
  Ge  Ge25  1  0.183930  0.456211  0.957229  1
  Ge  Ge26  1  0.688953  0.044998  0.957094  1
  Ge  Ge27  1  0.307968  0.959149  0.044798  1
  Ge  Ge28  1  0.042879  0.132425  0.750339  1
  Ge  Ge29  1  0.957232  0.869724  0.250063  1
  Ge  Ge30  1  0.458571  0.632124  0.249546  1
  Ge  Ge31  1  0.542380  0.367871  0.750262  1
  Ge  Ge32  1  0.315364  0.865094  0.750570  1
  Ge  Ge33  1  0.688954  0.134593  0.248647  1
  Ge  Ge34  1  0.182509  0.361867  0.247768  1
  Ge  Ge35  1  0.814285  0.634185  0.750409  1
