# generated using pymatgen
data_YbThAlIr3
_symmetry_space_group_name_H-M   'P 1'
_cell_length_a   5.16484333
_cell_length_b   5.16484292
_cell_length_c   5.16484369
_cell_angle_alpha   66.48158471
_cell_angle_beta   66.48158880
_cell_angle_gamma   66.48158259
_symmetry_Int_Tables_number   1
_chemical_formula_structural   YbThAlIr3
_chemical_formula_sum   'Yb1 Th1 Al1 Ir3'
_cell_volume   111.02472393
_cell_formula_units_Z   1
loop_
 _symmetry_equiv_pos_site_id
 _symmetry_equiv_pos_as_xyz
  1  'x, y, z'
loop_
 _atom_site_type_symbol
 _atom_site_label
 _atom_site_symmetry_multiplicity
 _atom_site_fract_x
 _atom_site_fract_y
 _atom_site_fract_z
 _atom_site_occupancy
  Yb  Yb0  1  0.996778  0.996778  0.996778  1
  Th  Th1  1  0.252838  0.252838  0.252838  1
  Al  Al2  1  0.624716  0.624716  0.624716  1
  Ir  Ir3  1  0.626324  0.626324  0.123020  1
  Ir  Ir4  1  0.626324  0.123020  0.626324  1
  Ir  Ir5  1  0.123020  0.626324  0.626324  1
