# generated using pymatgen
data_La4DyIn3
_symmetry_space_group_name_H-M   'P 1'
_cell_length_a   9.54356310
_cell_length_b   9.54356288
_cell_length_c   9.54356408
_cell_angle_alpha   96.22980505
_cell_angle_beta   96.22980111
_cell_angle_gamma   141.53305792
_symmetry_Int_Tables_number   1
_chemical_formula_structural   La4DyIn3
_chemical_formula_sum   'La8 Dy2 In6'
_cell_volume   510.53168058
_cell_formula_units_Z   2
loop_
 _symmetry_equiv_pos_site_id
 _symmetry_equiv_pos_as_xyz
  1  'x, y, z'
loop_
 _atom_site_type_symbol
 _atom_site_label
 _atom_site_symmetry_multiplicity
 _atom_site_fract_x
 _atom_site_fract_y
 _atom_site_fract_z
 _atom_site_occupancy
  La  La0  1  0.911713  0.222778  0.134491  1
  La  La1  1  0.222778  0.088287  0.311065  1
  La  La2  1  0.777222  0.911713  0.688935  1
  La  La3  1  0.088287  0.777222  0.865509  1
  La  La4  1  0.722778  0.411713  0.134491  1
  La  La5  1  0.277222  0.588287  0.865509  1
  La  La6  1  0.588287  0.722778  0.311065  1
  La  La7  1  0.411713  0.277222  0.688935  1
  Dy  Dy8  1  0.750000  0.250000  0.500000  1
  Dy  Dy9  1  0.250000  0.750000  0.500000  1
  In  In10  1  0.750000  0.750000  0.000000  1
  In  In11  1  0.250000  0.250000  0.000000  1
  In  In12  1  0.844531  0.655469  0.500000  1
  In  In13  1  0.655469  0.155469  0.810937  1
  In  In14  1  0.344531  0.844531  0.189063  1
  In  In15  1  0.155469  0.344531  0.500000  1
