# generated using pymatgen
data_Hf4GaP
_symmetry_space_group_name_H-M   'P 1'
_cell_length_a   5.32226292
_cell_length_b   5.32226235
_cell_length_c   5.32226234
_cell_angle_alpha   103.96141952
_cell_angle_beta   103.96142137
_cell_angle_gamma   121.16221881
_symmetry_Int_Tables_number   1
_chemical_formula_structural   Hf4GaP
_chemical_formula_sum   'Hf4 Ga1 P1'
_cell_volume   112.37180658
_cell_formula_units_Z   1
loop_
 _symmetry_equiv_pos_site_id
 _symmetry_equiv_pos_as_xyz
  1  'x, y, z'
loop_
 _atom_site_type_symbol
 _atom_site_label
 _atom_site_symmetry_multiplicity
 _atom_site_fract_x
 _atom_site_fract_y
 _atom_site_fract_z
 _atom_site_occupancy
  Hf  Hf0  1  0.406161  0.906161  0.812321  1
  Hf  Hf1  1  0.093839  0.593839  0.187679  1
  Hf  Hf2  1  0.593839  0.406161  0.500000  1
  Hf  Hf3  1  0.906161  0.093839  0.500000  1
  Ga  Ga4  1  0.500000  0.500000  0.000000  1
  P  P5  1  0.000000  0.000000  0.000000  1
