# generated using pymatgen
data_Dy3Tm(ScSb5)4
_symmetry_space_group_name_H-M   'P 1'
_cell_length_a   4.20042000
_cell_length_b   13.04316866
_cell_length_c   14.21519872
_cell_angle_alpha   78.84977453
_cell_angle_beta   90.00000000
_cell_angle_gamma   90.00000000
_symmetry_Int_Tables_number   1
_chemical_formula_structural   Dy3Tm(ScSb5)4
_chemical_formula_sum   'Dy3 Tm1 Sc4 Sb20'
_cell_volume   764.10396129
_cell_formula_units_Z   1
loop_
 _symmetry_equiv_pos_site_id
 _symmetry_equiv_pos_as_xyz
  1  'x, y, z'
loop_
 _atom_site_type_symbol
 _atom_site_label
 _atom_site_symmetry_multiplicity
 _atom_site_fract_x
 _atom_site_fract_y
 _atom_site_fract_z
 _atom_site_occupancy
  Dy  Dy0  1  0.750000  0.330821  0.423840  1
  Dy  Dy1  1  0.250000  0.953407  0.354614  1
  Dy  Dy2  1  0.750000  0.046439  0.645314  1
  Tm  Tm3  1  0.250000  0.669417  0.576357  1
  Sc  Sc4  1  0.250000  0.396946  0.772897  1
  Sc  Sc5  1  0.750000  0.603124  0.227265  1
  Sc  Sc6  1  0.250000  0.657319  0.858553  1
  Sc  Sc7  1  0.750000  0.342689  0.141178  1
  Sb  Sb8  1  0.250000  0.148038  0.780608  1
  Sb  Sb9  1  0.750000  0.851968  0.219314  1
  Sb  Sb10  1  0.250000  0.142861  0.482914  1
  Sb  Sb11  1  0.750000  0.856174  0.517286  1
  Sb  Sb12  1  0.250000  0.163108  0.160681  1
  Sb  Sb13  1  0.750000  0.836879  0.839333  1
  Sb  Sb14  1  0.250000  0.422096  0.975147  1
  Sb  Sb15  1  0.750000  0.577820  0.024889  1
  Sb  Sb16  1  0.750000  0.028465  0.913563  1
  Sb  Sb17  1  0.250000  0.971566  0.086495  1
  Sb  Sb18  1  0.750000  0.142863  0.315470  1
  Sb  Sb19  1  0.250000  0.856567  0.684259  1
  Sb  Sb20  1  0.750000  0.279969  0.936564  1
  Sb  Sb21  1  0.250000  0.720034  0.063473  1
  Sb  Sb22  1  0.750000  0.289424  0.659130  1
  Sb  Sb23  1  0.250000  0.710660  0.341134  1
  Sb  Sb24  1  0.750000  0.573742  0.740632  1
  Sb  Sb25  1  0.250000  0.426729  0.258546  1
  Sb  Sb26  1  0.750000  0.570836  0.444171  1
  Sb  Sb27  1  0.250000  0.430040  0.556370  1
