# generated using pymatgen
data_Rb2Cu(Se4O13)2
_symmetry_space_group_name_H-M   'P 1'
_cell_length_a   8.16025075
_cell_length_b   9.09904933
_cell_length_c   10.02868690
_cell_angle_alpha   107.89232826
_cell_angle_beta   89.97346949
_cell_angle_gamma   107.22755525
_symmetry_Int_Tables_number   1
_chemical_formula_structural   Rb2Cu(Se4O13)2
_chemical_formula_sum   'Rb2 Cu1 Se8 O26'
_cell_volume   673.46449490
_cell_formula_units_Z   1
loop_
 _symmetry_equiv_pos_site_id
 _symmetry_equiv_pos_as_xyz
  1  'x, y, z'
loop_
 _atom_site_type_symbol
 _atom_site_label
 _atom_site_symmetry_multiplicity
 _atom_site_fract_x
 _atom_site_fract_y
 _atom_site_fract_z
 _atom_site_occupancy
  Rb  Rb0  1  0.131997  0.265880  0.883188  1
  Rb  Rb1  1  0.868003  0.734120  0.116812  1
  Cu  Cu2  1  0.500000  0.500000  0.500000  1
  Se  Se3  1  0.660548  0.364584  0.710786  1
  Se  Se4  1  0.339452  0.635416  0.289214  1
  Se  Se5  1  0.881192  0.187632  0.486350  1
  Se  Se6  1  0.118808  0.812368  0.513650  1
  Se  Se7  1  0.384715  0.158644  0.226843  1
  Se  Se8  1  0.615285  0.841356  0.773157  1
  Se  Se9  1  0.791546  0.227689  0.190414  1
  Se  Se10  1  0.208454  0.772311  0.809586  1
  O  O11  1  0.690623  0.176257  0.572862  1
  O  O12  1  0.309377  0.823743  0.427138  1
  O  O13  1  0.686039  0.493053  0.615975  1
  O  O14  1  0.313961  0.506947  0.384025  1
  O  O15  1  0.819161  0.430491  0.834345  1
  O  O16  1  0.180839  0.569509  0.165655  1
  O  O17  1  0.860577  0.313955  0.379096  1
  O  O18  1  0.139423  0.686045  0.620904  1
  O  O19  1  0.050994  0.299414  0.594488  1
  O  O20  1  0.949006  0.700586  0.405512  1
  O  O21  1  0.464198  0.287891  0.742829  1
  O  O22  1  0.535802  0.712109  0.257171  1
  O  O23  1  0.859178  0.005555  0.383612  1
  O  O24  1  0.140822  0.994445  0.616388  1
  O  O25  1  0.442905  0.267242  0.398495  1
  O  O26  1  0.557095  0.732758  0.601505  1
  O  O27  1  0.585801  0.087083  0.182344  1
  O  O28  1  0.414199  0.912917  0.817656  1
  O  O29  1  0.778367  0.383325  0.150653  1
  O  O30  1  0.221633  0.616675  0.849347  1
  O  O31  1  0.914775  0.121871  0.115214  1
  O  O32  1  0.085225  0.878129  0.884786  1
  O  O33  1  0.369881  0.258717  0.120236  1
  O  O34  1  0.630119  0.741283  0.879764  1
  O  O35  1  0.246499  0.980678  0.204709  1
  O  O36  1  0.753501  0.019322  0.795291  1
