# generated using pymatgen
data_Ba4Pr7Si12CN27
_symmetry_space_group_name_H-M   'P 1'
_cell_length_a   12.37780000
_cell_length_b   12.37779929
_cell_length_c   5.48110100
_cell_angle_alpha   90.00000000
_cell_angle_beta   90.00000000
_cell_angle_gamma   119.99999655
_symmetry_Int_Tables_number   1
_chemical_formula_structural   Ba4Pr7Si12CN27
_chemical_formula_sum   'Ba4 Pr7 Si12 C1 N27'
_cell_volume   727.25271112
_cell_formula_units_Z   1
loop_
 _symmetry_equiv_pos_site_id
 _symmetry_equiv_pos_as_xyz
  1  'x, y, z'
loop_
 _atom_site_type_symbol
 _atom_site_label
 _atom_site_symmetry_multiplicity
 _atom_site_fract_x
 _atom_site_fract_y
 _atom_site_fract_z
 _atom_site_occupancy
  Ba  Ba0  1  0.917703  0.486414  0.500000  1
  Ba  Ba1  1  0.513586  0.431288  0.500000  1
  Ba  Ba2  1  0.333333  0.666667  0.500000  1
  Ba  Ba3  1  0.568712  0.082297  0.500000  1
  Pr  Pr4  1  0.774584  0.028543  0.000000  1
  Pr  Pr5  1  0.677357  0.711564  0.000000  1
  Pr  Pr6  1  0.034207  0.322643  0.000000  1
  Pr  Pr7  1  0.000000  0.000000  0.500000  1
  Pr  Pr8  1  0.971457  0.746041  0.000000  1
  Pr  Pr9  1  0.253959  0.225416  0.000000  1
  Pr  Pr10  1  0.288436  0.965793  0.000000  1
  Si  Si11  1  0.492641  0.797559  0.000000  1
  Si  Si12  1  0.763649  0.270820  0.000000  1
  Si  Si13  1  0.677867  0.874829  0.500000  1
  Si  Si14  1  0.878941  0.190887  0.500000  1
  Si  Si15  1  0.809113  0.688053  0.500000  1
  Si  Si16  1  0.729180  0.492830  0.000000  1
  Si  Si17  1  0.196962  0.322133  0.500000  1
  Si  Si18  1  0.304917  0.507359  0.000000  1
  Si  Si19  1  0.125171  0.803038  0.500000  1
  Si  Si20  1  0.311947  0.121059  0.500000  1
  Si  Si21  1  0.202441  0.695083  0.000000  1
  Si  Si22  1  0.507170  0.236351  0.000000  1
  C  C23  1  0.000000  0.000000  0.000000  1
  N  N24  1  0.238541  0.959617  0.500000  1
  N  N25  1  0.132337  0.725902  0.244394  1
  N  N26  1  0.132337  0.725902  0.755606  1
  N  N27  1  0.040383  0.278924  0.500000  1
  N  N28  1  0.188084  0.549730  0.000000  1
  N  N29  1  0.882172  0.897270  0.000000  1
  N  N30  1  0.015097  0.117828  0.000000  1
  N  N31  1  0.361646  0.811916  0.000000  1
  N  N32  1  0.274098  0.406435  0.244394  1
  N  N33  1  0.274098  0.406435  0.755606  1
  N  N34  1  0.102730  0.984903  0.000000  1
  N  N35  1  0.211534  0.184893  0.500000  1
  N  N36  1  0.450270  0.638354  0.000000  1
  N  N37  1  0.593565  0.867663  0.244394  1
  N  N38  1  0.593565  0.867663  0.755606  1
  N  N39  1  0.401951  0.171512  0.241587  1
  N  N40  1  0.401951  0.171512  0.758413  1
  N  N41  1  0.721076  0.761459  0.500000  1
  N  N42  1  0.570932  0.395010  0.000000  1
  N  N43  1  0.769561  0.598049  0.241587  1
  N  N44  1  0.769561  0.598049  0.758413  1
  N  N45  1  0.604990  0.175922  0.000000  1
  N  N46  1  0.973359  0.788466  0.500000  1
  N  N47  1  0.824078  0.429068  0.000000  1
  N  N48  1  0.828488  0.230439  0.758413  1
  N  N49  1  0.828488  0.230439  0.241587  1
  N  N50  1  0.815107  0.026641  0.500000  1
