# generated using pymatgen
data_LiPr3FeC6
_symmetry_space_group_name_H-M   'P 1'
_cell_length_a   8.50187100
_cell_length_b   8.50187102
_cell_length_c   5.30109300
_cell_angle_alpha   90.00000000
_cell_angle_beta   90.00000000
_cell_angle_gamma   119.99999707
_symmetry_Int_Tables_number   1
_chemical_formula_structural   LiPr3FeC6
_chemical_formula_sum   'Li2 Pr6 Fe2 C12'
_cell_volume   331.83721591
_cell_formula_units_Z   2
loop_
 _symmetry_equiv_pos_site_id
 _symmetry_equiv_pos_as_xyz
  1  'x, y, z'
loop_
 _atom_site_type_symbol
 _atom_site_label
 _atom_site_symmetry_multiplicity
 _atom_site_fract_x
 _atom_site_fract_y
 _atom_site_fract_z
 _atom_site_occupancy
  Li  Li0  1  0.000000  0.000000  0.500000  1
  Li  Li1  1  0.000000  0.000000  0.000000  1
  Pr  Pr2  1  0.614755  0.676729  0.750000  1
  Pr  Pr3  1  0.938026  0.614755  0.250000  1
  Pr  Pr4  1  0.676729  0.061974  0.250000  1
  Pr  Pr5  1  0.323271  0.938026  0.750000  1
  Pr  Pr6  1  0.061974  0.385245  0.750000  1
  Pr  Pr7  1  0.385245  0.323271  0.250000  1
  Fe  Fe8  1  0.666667  0.333333  0.750000  1
  Fe  Fe9  1  0.333333  0.666667  0.250000  1
  C  C10  1  0.976585  0.737575  0.750000  1
  C  C11  1  0.239010  0.976585  0.250000  1
  C  C12  1  0.737575  0.760990  0.250000  1
  C  C13  1  0.262425  0.239010  0.750000  1
  C  C14  1  0.760990  0.023415  0.750000  1
  C  C15  1  0.023415  0.262425  0.250000  1
  C  C16  1  0.853175  0.562365  0.750000  1
  C  C17  1  0.290809  0.853175  0.250000  1
  C  C18  1  0.562365  0.709191  0.250000  1
  C  C19  1  0.437635  0.290809  0.750000  1
  C  C20  1  0.146825  0.437635  0.250000  1
  C  C21  1  0.709191  0.146825  0.750000  1
