# generated using pymatgen
data_BaAl4Ga2Au
_symmetry_space_group_name_H-M   'P 1'
_cell_length_a   4.49804800
_cell_length_b   4.49804800
_cell_length_c   8.33622300
_cell_angle_alpha   90.00000000
_cell_angle_beta   90.00000000
_cell_angle_gamma   90.00000000
_symmetry_Int_Tables_number   1
_chemical_formula_structural   BaAl4Ga2Au
_chemical_formula_sum   'Ba1 Al4 Ga2 Au1'
_cell_volume   168.66209675
_cell_formula_units_Z   1
loop_
 _symmetry_equiv_pos_site_id
 _symmetry_equiv_pos_as_xyz
  1  'x, y, z'
loop_
 _atom_site_type_symbol
 _atom_site_label
 _atom_site_symmetry_multiplicity
 _atom_site_fract_x
 _atom_site_fract_y
 _atom_site_fract_z
 _atom_site_occupancy
  Ba  Ba0  1  0.000000  0.000000  0.000000  1
  Al  Al1  1  0.500000  0.000000  0.328824  1
  Al  Al2  1  0.000000  0.500000  0.328824  1
  Al  Al3  1  0.500000  0.000000  0.671176  1
  Al  Al4  1  0.000000  0.500000  0.671176  1
  Ga  Ga5  1  0.500000  0.500000  0.155299  1
  Ga  Ga6  1  0.500000  0.500000  0.844700  1
  Au  Au7  1  0.000000  0.000000  0.500000  1
