# generated using pymatgen
data_Er10Al5SbC8
_symmetry_space_group_name_H-M   'P 1'
_cell_length_a   10.83862000
_cell_length_b   10.83862000
_cell_length_c   3.50148900
_cell_angle_alpha   90.00000000
_cell_angle_beta   90.00000000
_cell_angle_gamma   90.00000000
_symmetry_Int_Tables_number   1
_chemical_formula_structural   Er10Al5SbC8
_chemical_formula_sum   'Er10 Al5 Sb1 C8'
_cell_volume   411.33981356
_cell_formula_units_Z   1
loop_
 _symmetry_equiv_pos_site_id
 _symmetry_equiv_pos_as_xyz
  1  'x, y, z'
loop_
 _atom_site_type_symbol
 _atom_site_label
 _atom_site_symmetry_multiplicity
 _atom_site_fract_x
 _atom_site_fract_y
 _atom_site_fract_z
 _atom_site_occupancy
  Er  Er0  1  0.550157  0.734391  0.500000  1
  Er  Er1  1  0.449843  0.265609  0.500000  1
  Er  Er2  1  0.049857  0.769578  0.500000  1
  Er  Er3  1  0.950143  0.230422  0.500000  1
  Er  Er4  1  0.265609  0.550157  0.500000  1
  Er  Er5  1  0.734391  0.449843  0.500000  1
  Er  Er6  1  0.230422  0.049857  0.500000  1
  Er  Er7  1  0.769578  0.950143  0.500000  1
  Er  Er8  1  0.500000  0.000000  0.000000  1
  Er  Er9  1  0.000000  0.500000  0.000000  1
  Al  Al10  1  0.709098  0.197039  0.000000  1
  Al  Al11  1  0.290902  0.802961  0.000000  1
  Al  Al12  1  0.197039  0.290902  0.000000  1
  Al  Al13  1  0.802961  0.709098  0.000000  1
  Al  Al14  1  0.000000  0.000000  0.000000  1
  Sb  Sb15  1  0.500000  0.500000  0.000000  1
  C  C16  1  0.629094  0.129992  0.500000  1
  C  C17  1  0.370906  0.870008  0.500000  1
  C  C18  1  0.129992  0.370906  0.500000  1
  C  C19  1  0.870008  0.629094  0.500000  1
  C  C20  1  0.163737  0.660993  0.000000  1
  C  C21  1  0.836263  0.339007  0.000000  1
  C  C22  1  0.660993  0.836263  0.000000  1
  C  C23  1  0.339007  0.163737  0.000000  1
