# generated using pymatgen
data_Nd5Y3(TmBi)12
_symmetry_space_group_name_H-M   'P 1'
_cell_length_a   8.32143424
_cell_length_b   9.50600900
_cell_length_c   12.19515200
_cell_angle_alpha   90.00000000
_cell_angle_beta   89.96872685
_cell_angle_gamma   90.00000000
_symmetry_Int_Tables_number   1
_chemical_formula_structural   Nd5Y3(TmBi)12
_chemical_formula_sum   'Nd5 Y3 Tm12 Bi12'
_cell_volume   964.68063295
_cell_formula_units_Z   1
loop_
 _symmetry_equiv_pos_site_id
 _symmetry_equiv_pos_as_xyz
  1  'x, y, z'
loop_
 _atom_site_type_symbol
 _atom_site_label
 _atom_site_symmetry_multiplicity
 _atom_site_fract_x
 _atom_site_fract_y
 _atom_site_fract_z
 _atom_site_occupancy
  Nd  Nd0  1  0.183857  0.750000  0.719487  1
  Nd  Nd1  1  0.685479  0.750000  0.779152  1
  Nd  Nd2  1  0.816829  0.250000  0.280150  1
  Nd  Nd3  1  0.315644  0.250000  0.220140  1
  Nd  Nd4  1  0.353125  0.750000  0.216266  1
  Y  Y5  1  0.851888  0.750000  0.283153  1
  Y  Y6  1  0.647774  0.250000  0.783320  1
  Y  Y7  1  0.147153  0.250000  0.717060  1
  Tm  Tm8  1  0.023915  0.750000  0.988309  1
  Tm  Tm9  1  0.524240  0.750000  0.512633  1
  Tm  Tm10  1  0.975493  0.250000  0.010813  1
  Tm  Tm11  1  0.476218  0.250000  0.489444  1
  Tm  Tm12  1  0.307457  0.434737  0.939962  1
  Tm  Tm13  1  0.807699  0.065377  0.560330  1
  Tm  Tm14  1  0.692024  0.934466  0.059263  1
  Tm  Tm15  1  0.192354  0.565075  0.440794  1
  Tm  Tm16  1  0.692024  0.565534  0.059263  1
  Tm  Tm17  1  0.192354  0.934925  0.440794  1
  Tm  Tm18  1  0.307457  0.065263  0.939962  1
  Tm  Tm19  1  0.807699  0.434623  0.560330  1
  Bi  Bi20  1  0.434476  0.007995  0.670621  1
  Bi  Bi21  1  0.934381  0.492216  0.829341  1
  Bi  Bi22  1  0.568000  0.505558  0.332093  1
  Bi  Bi23  1  0.063065  0.993659  0.170035  1
  Bi  Bi24  1  0.568000  0.994442  0.332093  1
  Bi  Bi25  1  0.063065  0.506341  0.170035  1
  Bi  Bi26  1  0.434476  0.492005  0.670621  1
  Bi  Bi27  1  0.934381  0.007784  0.829341  1
  Bi  Bi28  1  0.405266  0.750000  0.957196  1
  Bi  Bi29  1  0.905178  0.750000  0.537676  1
  Bi  Bi30  1  0.594304  0.250000  0.038122  1
  Bi  Bi31  1  0.094726  0.250000  0.462207  1
