# generated using pymatgen
data_Hf16TaTc3Ni4
_symmetry_space_group_name_H-M   'P 1'
_cell_length_a   8.66798847
_cell_length_b   8.66798862
_cell_length_c   8.66798932
_cell_angle_alpha   60.11269536
_cell_angle_beta   60.11269535
_cell_angle_gamma   60.11269224
_symmetry_Int_Tables_number   1
_chemical_formula_structural   Hf16TaTc3Ni4
_chemical_formula_sum   'Hf16 Ta1 Tc3 Ni4'
_cell_volume   461.68681530
_cell_formula_units_Z   1
loop_
 _symmetry_equiv_pos_site_id
 _symmetry_equiv_pos_as_xyz
  1  'x, y, z'
loop_
 _atom_site_type_symbol
 _atom_site_label
 _atom_site_symmetry_multiplicity
 _atom_site_fract_x
 _atom_site_fract_y
 _atom_site_fract_z
 _atom_site_occupancy
  Hf  Hf0  1  0.690473  0.102981  0.102981  1
  Hf  Hf1  1  0.102981  0.690473  0.102981  1
  Hf  Hf2  1  0.102981  0.102981  0.690473  1
  Hf  Hf3  1  0.103430  0.103430  0.103430  1
  Hf  Hf4  1  0.315046  0.315046  0.688927  1
  Hf  Hf5  1  0.684968  0.684968  0.314896  1
  Hf  Hf6  1  0.315046  0.688927  0.315046  1
  Hf  Hf7  1  0.684968  0.314896  0.684968  1
  Hf  Hf8  1  0.688927  0.315046  0.315046  1
  Hf  Hf9  1  0.314896  0.684968  0.684968  1
  Hf  Hf10  1  0.952664  0.952664  0.547018  1
  Hf  Hf11  1  0.549561  0.549561  0.951003  1
  Hf  Hf12  1  0.952664  0.547018  0.952664  1
  Hf  Hf13  1  0.549561  0.951003  0.549561  1
  Hf  Hf14  1  0.547018  0.952664  0.952664  1
  Hf  Hf15  1  0.951003  0.549561  0.549561  1
  Ta  Ta16  1  0.328880  0.328880  0.328880  1
  Tc  Tc17  1  0.995379  0.334570  0.334570  1
  Tc  Tc18  1  0.334570  0.995379  0.334570  1
  Tc  Tc19  1  0.334570  0.334570  0.995379  1
  Ni  Ni20  1  0.323712  0.892296  0.892296  1
  Ni  Ni21  1  0.892296  0.323712  0.892296  1
  Ni  Ni22  1  0.892296  0.892296  0.323712  1
  Ni  Ni23  1  0.892107  0.892107  0.892107  1
