# generated using pymatgen
data_Dy10Tl7InPtRh3
_symmetry_space_group_name_H-M   'P 1'
_cell_length_a   3.63969300
_cell_length_b   8.16252900
_cell_length_c   18.46485216
_cell_angle_alpha   89.97073156
_cell_angle_beta   90.00000000
_cell_angle_gamma   90.00000000
_symmetry_Int_Tables_number   1
_chemical_formula_structural   Dy10Tl7InPtRh3
_chemical_formula_sum   'Dy10 Tl7 In1 Pt1 Rh3'
_cell_volume   548.57406180
_cell_formula_units_Z   1
loop_
 _symmetry_equiv_pos_site_id
 _symmetry_equiv_pos_as_xyz
  1  'x, y, z'
loop_
 _atom_site_type_symbol
 _atom_site_label
 _atom_site_symmetry_multiplicity
 _atom_site_fract_x
 _atom_site_fract_y
 _atom_site_fract_z
 _atom_site_occupancy
  Dy  Dy0  1  0.000000  0.114446  0.410794  1
  Dy  Dy1  1  0.000000  0.884487  0.590257  1
  Dy  Dy2  1  0.000000  0.385608  0.908336  1
  Dy  Dy3  1  0.000000  0.616065  0.088380  1
  Dy  Dy4  1  0.000000  0.240476  0.222050  1
  Dy  Dy5  1  0.000000  0.754265  0.778679  1
  Dy  Dy6  1  0.000000  0.252887  0.721160  1
  Dy  Dy7  1  0.000000  0.750875  0.279815  1
  Dy  Dy8  1  0.000000  0.999785  0.999527  1
  Dy  Dy9  1  0.000000  0.501801  0.500168  1
  Tl  Tl10  1  0.500000  0.423471  0.353123  1
  Tl  Tl11  1  0.500000  0.574607  0.649663  1
  Tl  Tl12  1  0.500000  0.074824  0.850004  1
  Tl  Tl13  1  0.500000  0.927119  0.149208  1
  Tl  Tl14  1  0.500000  0.292474  0.063854  1
  Tl  Tl15  1  0.500000  0.705927  0.933409  1
  Tl  Tl16  1  0.500000  0.205047  0.566036  1
  In  In17  1  0.500000  0.795193  0.432930  1
  Pt  Pt18  1  0.500000  0.524757  0.197104  1
  Rh  Rh19  1  0.500000  0.019441  0.306100  1
  Rh  Rh20  1  0.500000  0.978427  0.695141  1
  Rh  Rh21  1  0.500000  0.478016  0.804264  1
