# generated using pymatgen
data_DyY2Er3(ReB7)2
_symmetry_space_group_name_H-M   'P 1'
_cell_length_a   8.05191684
_cell_length_b   8.05191739
_cell_length_c   9.34631801
_cell_angle_alpha   89.92804133
_cell_angle_beta   90.07195791
_cell_angle_gamma   154.69097119
_symmetry_Int_Tables_number   1
_chemical_formula_structural   DyY2Er3(ReB7)2
_chemical_formula_sum   'Dy1 Y2 Er3 Re2 B14'
_cell_volume   259.04501289
_cell_formula_units_Z   1
loop_
 _symmetry_equiv_pos_site_id
 _symmetry_equiv_pos_as_xyz
  1  'x, y, z'
loop_
 _atom_site_type_symbol
 _atom_site_label
 _atom_site_symmetry_multiplicity
 _atom_site_fract_x
 _atom_site_fract_y
 _atom_site_fract_z
 _atom_site_occupancy
  Dy  Dy0  1  0.894509  0.105491  0.439950  1
  Y  Y1  1  0.243054  0.756946  0.249910  1
  Y  Y2  1  0.756532  0.243468  0.750092  1
  Er  Er3  1  0.104909  0.895091  0.559367  1
  Er  Er4  1  0.895032  0.104968  0.059044  1
  Er  Er5  1  0.105156  0.894844  0.940758  1
  Re  Re6  1  0.052398  0.947602  0.249577  1
  Re  Re7  1  0.947881  0.052119  0.750352  1
  B  B8  1  0.726456  0.273544  0.467148  1
  B  B9  1  0.272254  0.727746  0.533776  1
  B  B10  1  0.727205  0.272795  0.033220  1
  B  B11  1  0.272875  0.727125  0.966807  1
  B  B12  1  0.631883  0.368117  0.150132  1
  B  B13  1  0.368239  0.631761  0.849795  1
  B  B14  1  0.631797  0.368203  0.349699  1
  B  B15  1  0.368165  0.631835  0.651171  1
  B  B16  1  0.520522  0.479478  0.094397  1
  B  B17  1  0.479863  0.520137  0.905199  1
  B  B18  1  0.520605  0.479395  0.404658  1
  B  B19  1  0.479867  0.520133  0.595448  1
  B  B20  1  0.456288  0.543712  0.249159  1
  B  B21  1  0.544509  0.455491  0.750340  1
