# generated using pymatgen
data_Dy2PaSn3Pt2Rh
_symmetry_space_group_name_H-M   'P 1'
_cell_length_a   7.49097880
_cell_length_b   7.49097800
_cell_length_c   4.06805700
_cell_angle_alpha   90.00000000
_cell_angle_beta   90.00000000
_cell_angle_gamma   120.22889564
_symmetry_Int_Tables_number   1
_chemical_formula_structural   Dy2PaSn3Pt2Rh
_chemical_formula_sum   'Dy2 Pa1 Sn3 Pt2 Rh1'
_cell_volume   197.23701490
_cell_formula_units_Z   1
loop_
 _symmetry_equiv_pos_site_id
 _symmetry_equiv_pos_as_xyz
  1  'x, y, z'
loop_
 _atom_site_type_symbol
 _atom_site_label
 _atom_site_symmetry_multiplicity
 _atom_site_fract_x
 _atom_site_fract_y
 _atom_site_fract_z
 _atom_site_occupancy
  Dy  Dy0  1  0.593013  0.998144  0.500000  1
  Dy  Dy1  1  0.998144  0.593013  0.500000  1
  Pa  Pa2  1  0.407620  0.407620  0.500000  1
  Sn  Sn3  1  0.756011  0.756011  0.000000  1
  Sn  Sn4  1  0.252986  0.987168  0.000000  1
  Sn  Sn5  1  0.987168  0.252986  0.000000  1
  Pt  Pt6  1  0.650547  0.335882  0.000000  1
  Pt  Pt7  1  0.335882  0.650547  0.000000  1
  Rh  Rh8  1  0.018628  0.018628  0.500000  1
