# generated using pymatgen
data_Ca3Ni4Sb5Pd2
_symmetry_space_group_name_H-M   'P 1'
_cell_length_a   4.33682100
_cell_length_b   9.81543100
_cell_length_c   13.25787400
_cell_angle_alpha   90.00000000
_cell_angle_beta   90.00000000
_cell_angle_gamma   90.00000000
_symmetry_Int_Tables_number   1
_chemical_formula_structural   Ca3Ni4Sb5Pd2
_chemical_formula_sum   'Ca6 Ni8 Sb10 Pd4'
_cell_volume   564.35809512
_cell_formula_units_Z   2
loop_
 _symmetry_equiv_pos_site_id
 _symmetry_equiv_pos_as_xyz
  1  'x, y, z'
loop_
 _atom_site_type_symbol
 _atom_site_label
 _atom_site_symmetry_multiplicity
 _atom_site_fract_x
 _atom_site_fract_y
 _atom_site_fract_z
 _atom_site_occupancy
  Ca  Ca0  1  0.000000  0.238611  0.000000  1
  Ca  Ca1  1  0.500000  0.761389  0.500000  1
  Ca  Ca2  1  0.000000  0.250024  0.324944  1
  Ca  Ca3  1  0.500000  0.749976  0.175056  1
  Ca  Ca4  1  0.000000  0.250024  0.675056  1
  Ca  Ca5  1  0.500000  0.749976  0.824944  1
  Ni  Ni6  1  0.000000  0.993630  0.147321  1
  Ni  Ni7  1  0.500000  0.006370  0.352679  1
  Ni  Ni8  1  0.000000  0.993630  0.852679  1
  Ni  Ni9  1  0.500000  0.006370  0.647321  1
  Ni  Ni10  1  0.000000  0.613614  0.316889  1
  Ni  Ni11  1  0.500000  0.386386  0.183111  1
  Ni  Ni12  1  0.000000  0.613614  0.683111  1
  Ni  Ni13  1  0.500000  0.386386  0.816889  1
  Sb  Sb14  1  0.000000  0.509970  0.136955  1
  Sb  Sb15  1  0.500000  0.490030  0.363045  1
  Sb  Sb16  1  0.000000  0.509970  0.863045  1
  Sb  Sb17  1  0.500000  0.490030  0.636955  1
  Sb  Sb18  1  0.000000  0.873976  0.322047  1
  Sb  Sb19  1  0.500000  0.126024  0.177953  1
  Sb  Sb20  1  0.000000  0.873976  0.677953  1
  Sb  Sb21  1  0.500000  0.126024  0.822047  1
  Sb  Sb22  1  0.000000  0.826735  0.000000  1
  Sb  Sb23  1  0.500000  0.173265  0.500000  1
  Pd  Pd24  1  0.500000  0.992315  0.000000  1
  Pd  Pd25  1  0.000000  0.007685  0.500000  1
  Pd  Pd26  1  0.500000  0.499170  0.000000  1
  Pd  Pd27  1  0.000000  0.500830  0.500000  1
