# generated using pymatgen
data_UZn3Rh4
_symmetry_space_group_name_H-M   'P 1'
_cell_length_a   7.55110379
_cell_length_b   7.55110325
_cell_length_c   7.55110230
_cell_angle_alpha   34.62897457
_cell_angle_beta   34.62896668
_cell_angle_gamma   34.62897166
_symmetry_Int_Tables_number   1
_chemical_formula_structural   UZn3Rh4
_chemical_formula_sum   'U1 Zn3 Rh4'
_cell_volume   124.06367056
_cell_formula_units_Z   1
loop_
 _symmetry_equiv_pos_site_id
 _symmetry_equiv_pos_as_xyz
  1  'x, y, z'
loop_
 _atom_site_type_symbol
 _atom_site_label
 _atom_site_symmetry_multiplicity
 _atom_site_fract_x
 _atom_site_fract_y
 _atom_site_fract_z
 _atom_site_occupancy
  U  U0  1  0.000000  0.000000  0.000000  1
  Zn  Zn1  1  0.246445  0.246445  0.246445  1
  Zn  Zn2  1  0.753555  0.753555  0.753555  1
  Zn  Zn3  1  0.500000  0.500000  0.500000  1
  Rh  Rh4  1  0.620429  0.620429  0.620429  1
  Rh  Rh5  1  0.121355  0.121355  0.121355  1
  Rh  Rh6  1  0.878645  0.878645  0.878645  1
  Rh  Rh7  1  0.379571  0.379571  0.379571  1
