# generated using pymatgen
data_Nd4Y3Tm3Si8
_symmetry_space_group_name_H-M   'P 1'
_cell_length_a   7.75914197
_cell_length_b   7.75871913
_cell_length_c   14.30800383
_cell_angle_alpha   90.02075706
_cell_angle_beta   89.91855075
_cell_angle_gamma   89.99616008
_symmetry_Int_Tables_number   1
_chemical_formula_structural   Nd4Y3Tm3Si8
_chemical_formula_sum   'Nd8 Y6 Tm6 Si16'
_cell_volume   861.35525675
_cell_formula_units_Z   2
loop_
 _symmetry_equiv_pos_site_id
 _symmetry_equiv_pos_as_xyz
  1  'x, y, z'
loop_
 _atom_site_type_symbol
 _atom_site_label
 _atom_site_symmetry_multiplicity
 _atom_site_fract_x
 _atom_site_fract_y
 _atom_site_fract_z
 _atom_site_occupancy
  Nd  Nd0  1  0.641703  0.992320  0.457973  1
  Nd  Nd1  1  0.358167  0.007349  0.958935  1
  Nd  Nd2  1  0.993388  0.641700  0.541393  1
  Nd  Nd3  1  0.492195  0.858161  0.208913  1
  Nd  Nd4  1  0.507045  0.141688  0.708011  1
  Nd  Nd5  1  0.858555  0.493553  0.792016  1
  Nd  Nd6  1  0.142304  0.506576  0.291261  1
  Nd  Nd7  1  0.006481  0.357963  0.041910  1
  Y  Y8  1  0.492086  0.361125  0.124831  1
  Y  Y9  1  0.991994  0.139460  0.625105  1
  Y  Y10  1  0.861107  0.008126  0.874644  1
  Y  Y11  1  0.139003  0.992111  0.374274  1
  Y  Y12  1  0.508113  0.638866  0.624154  1
  Y  Y13  1  0.360714  0.492497  0.876075  1
  Tm  Tm14  1  0.639603  0.507230  0.375162  1
  Tm  Tm15  1  0.006660  0.860455  0.126006  1
  Tm  Tm16  1  0.318331  0.317780  0.499584  1
  Tm  Tm17  1  0.182772  0.817368  0.750113  1
  Tm  Tm18  1  0.817384  0.182069  0.249877  1
  Tm  Tm19  1  0.683055  0.683138  0.000377  1
  Si  Si20  1  0.291021  0.937087  0.561781  1
  Si  Si21  1  0.710162  0.061797  0.062541  1
  Si  Si22  1  0.935890  0.291381  0.437395  1
  Si  Si23  1  0.438182  0.210197  0.312380  1
  Si  Si24  1  0.562812  0.791012  0.811940  1
  Si  Si25  1  0.209464  0.437235  0.688112  1
  Si  Si26  1  0.790365  0.563737  0.188621  1
  Si  Si27  1  0.062411  0.710466  0.939294  1
  Si  Si28  1  0.796786  0.846863  0.688984  1
  Si  Si29  1  0.202157  0.151056  0.187890  1
  Si  Si30  1  0.846690  0.795151  0.310755  1
  Si  Si31  1  0.348958  0.702416  0.437854  1
  Si  Si32  1  0.653350  0.297072  0.939153  1
  Si  Si33  1  0.702964  0.347286  0.559589  1
  Si  Si34  1  0.294638  0.654218  0.062126  1
  Si  Si35  1  0.153493  0.203495  0.810971  1
