# generated using pymatgen
data_Y3Sc(Co4P3)2
_symmetry_space_group_name_H-M   'P 1'
_cell_length_a   3.72336300
_cell_length_b   10.66824700
_cell_length_c   12.36928300
_cell_angle_alpha   90.00000000
_cell_angle_beta   90.00000000
_cell_angle_gamma   90.00000000
_symmetry_Int_Tables_number   1
_chemical_formula_structural   Y3Sc(Co4P3)2
_chemical_formula_sum   'Y6 Sc2 Co16 P12'
_cell_volume   491.32964313
_cell_formula_units_Z   2
loop_
 _symmetry_equiv_pos_site_id
 _symmetry_equiv_pos_as_xyz
  1  'x, y, z'
loop_
 _atom_site_type_symbol
 _atom_site_label
 _atom_site_symmetry_multiplicity
 _atom_site_fract_x
 _atom_site_fract_y
 _atom_site_fract_z
 _atom_site_occupancy
  Y  Y0  1  0.000000  0.500000  0.527343  1
  Y  Y1  1  0.500000  0.000000  0.472657  1
  Y  Y2  1  0.500000  0.822465  0.205839  1
  Y  Y3  1  0.500000  0.177535  0.205839  1
  Y  Y4  1  0.000000  0.677535  0.794161  1
  Y  Y5  1  0.000000  0.322465  0.794161  1
  Sc  Sc6  1  0.500000  0.500000  0.156793  1
  Sc  Sc7  1  0.000000  0.000000  0.843207  1
  Co  Co8  1  0.500000  0.500000  0.704235  1
  Co  Co9  1  0.000000  0.000000  0.295765  1
  Co  Co10  1  0.000000  0.500000  0.987525  1
  Co  Co11  1  0.500000  0.000000  0.012475  1
  Co  Co12  1  0.500000  0.331224  0.994164  1
  Co  Co13  1  0.500000  0.668776  0.994164  1
  Co  Co14  1  0.000000  0.168776  0.005836  1
  Co  Co15  1  0.000000  0.831224  0.005836  1
  Co  Co16  1  0.500000  0.295467  0.433010  1
  Co  Co17  1  0.500000  0.704533  0.433010  1
  Co  Co18  1  0.000000  0.204533  0.566990  1
  Co  Co19  1  0.000000  0.795467  0.566990  1
  Co  Co20  1  0.500000  0.878007  0.702510  1
  Co  Co21  1  0.500000  0.121993  0.702510  1
  Co  Co22  1  0.000000  0.621993  0.297490  1
  Co  Co23  1  0.000000  0.378007  0.297490  1
  P  P24  1  0.500000  0.500000  0.885186  1
  P  P25  1  0.000000  0.000000  0.114814  1
  P  P26  1  0.500000  0.500000  0.359679  1
  P  P27  1  0.000000  0.000000  0.640321  1
  P  P28  1  0.500000  0.309231  0.615146  1
  P  P29  1  0.500000  0.690769  0.615146  1
  P  P30  1  0.000000  0.190769  0.384854  1
  P  P31  1  0.000000  0.809231  0.384854  1
  P  P32  1  0.500000  0.839529  0.893259  1
  P  P33  1  0.500000  0.160471  0.893259  1
  P  P34  1  0.000000  0.660471  0.106741  1
  P  P35  1  0.000000  0.339529  0.106741  1
