# generated using pymatgen
data_Nd3Ni2Ir6Pt
_symmetry_space_group_name_H-M   'P 1'
_cell_length_a   9.09597708
_cell_length_b   9.09597762
_cell_length_c   9.09597752
_cell_angle_alpha   34.29950431
_cell_angle_beta   34.29949559
_cell_angle_gamma   34.29950674
_symmetry_Int_Tables_number   1
_chemical_formula_structural   Nd3Ni2Ir6Pt
_chemical_formula_sum   'Nd3 Ni2 Ir6 Pt1'
_cell_volume   213.12941419
_cell_formula_units_Z   1
loop_
 _symmetry_equiv_pos_site_id
 _symmetry_equiv_pos_as_xyz
  1  'x, y, z'
loop_
 _atom_site_type_symbol
 _atom_site_label
 _atom_site_symmetry_multiplicity
 _atom_site_fract_x
 _atom_site_fract_y
 _atom_site_fract_z
 _atom_site_occupancy
  Nd  Nd0  1  0.860884  0.860884  0.860884  1
  Nd  Nd1  1  0.139116  0.139116  0.139116  1
  Nd  Nd2  1  0.000000  0.000000  0.000000  1
  Ni  Ni3  1  0.666826  0.666826  0.666826  1
  Ni  Ni4  1  0.333174  0.333174  0.333174  1
  Ir  Ir5  1  0.420526  0.923747  0.420526  1
  Ir  Ir6  1  0.420526  0.420526  0.923747  1
  Ir  Ir7  1  0.923747  0.420526  0.420526  1
  Ir  Ir8  1  0.579474  0.076253  0.579474  1
  Ir  Ir9  1  0.579474  0.579474  0.076253  1
  Ir  Ir10  1  0.076253  0.579474  0.579474  1
  Pt  Pt11  1  0.500000  0.500000  0.500000  1
