# generated using pymatgen
data_Tb3VFeCo7P6
_symmetry_space_group_name_H-M   'P 1'
_cell_length_a   3.70939500
_cell_length_b   10.58864900
_cell_length_c   12.19888400
_cell_angle_alpha   90.00000000
_cell_angle_beta   90.00000000
_cell_angle_gamma   90.00000000
_symmetry_Int_Tables_number   1
_chemical_formula_structural   Tb3VFeCo7P6
_chemical_formula_sum   'Tb6 V2 Fe2 Co14 P12'
_cell_volume   479.14144255
_cell_formula_units_Z   2
loop_
 _symmetry_equiv_pos_site_id
 _symmetry_equiv_pos_as_xyz
  1  'x, y, z'
loop_
 _atom_site_type_symbol
 _atom_site_label
 _atom_site_symmetry_multiplicity
 _atom_site_fract_x
 _atom_site_fract_y
 _atom_site_fract_z
 _atom_site_occupancy
  Tb  Tb0  1  0.000000  0.500000  0.523167  1
  Tb  Tb1  1  0.500000  0.000000  0.476833  1
  Tb  Tb2  1  0.500000  0.819702  0.203425  1
  Tb  Tb3  1  0.500000  0.180298  0.203425  1
  Tb  Tb4  1  0.000000  0.680298  0.796575  1
  Tb  Tb5  1  0.000000  0.319702  0.796575  1
  V  V6  1  0.500000  0.500000  0.151716  1
  V  V7  1  0.000000  0.000000  0.848284  1
  Fe  Fe8  1  0.000000  0.500000  0.988048  1
  Fe  Fe9  1  0.500000  0.000000  0.011952  1
  Co  Co10  1  0.500000  0.500000  0.700765  1
  Co  Co11  1  0.000000  0.000000  0.299235  1
  Co  Co12  1  0.500000  0.331328  0.994197  1
  Co  Co13  1  0.500000  0.668672  0.994197  1
  Co  Co14  1  0.000000  0.168672  0.005803  1
  Co  Co15  1  0.000000  0.831328  0.005803  1
  Co  Co16  1  0.500000  0.295827  0.430930  1
  Co  Co17  1  0.500000  0.704173  0.430930  1
  Co  Co18  1  0.000000  0.204173  0.569070  1
  Co  Co19  1  0.000000  0.795827  0.569070  1
  Co  Co20  1  0.500000  0.879305  0.707741  1
  Co  Co21  1  0.500000  0.120695  0.707741  1
  Co  Co22  1  0.000000  0.620695  0.292259  1
  Co  Co23  1  0.000000  0.379305  0.292259  1
  P  P24  1  0.500000  0.500000  0.885114  1
  P  P25  1  0.000000  0.000000  0.114886  1
  P  P26  1  0.500000  0.500000  0.345498  1
  P  P27  1  0.000000  0.000000  0.654502  1
  P  P28  1  0.500000  0.309467  0.616056  1
  P  P29  1  0.500000  0.690533  0.616056  1
  P  P30  1  0.000000  0.190533  0.383944  1
  P  P31  1  0.000000  0.809467  0.383944  1
  P  P32  1  0.500000  0.846491  0.893661  1
  P  P33  1  0.500000  0.153509  0.893661  1
  P  P34  1  0.000000  0.653509  0.106339  1
  P  P35  1  0.000000  0.346491  0.106339  1
