# generated using pymatgen
data_Na6TmInCl12
_symmetry_space_group_name_H-M   'P 1'
_cell_length_a   6.98987400
_cell_length_b   6.98987361
_cell_length_c   12.55789800
_cell_angle_alpha   90.00000000
_cell_angle_beta   90.00000000
_cell_angle_gamma   120.00000186
_symmetry_Int_Tables_number   1
_chemical_formula_structural   Na6TmInCl12
_chemical_formula_sum   'Na6 Tm1 In1 Cl12'
_cell_volume   531.35680243
_cell_formula_units_Z   1
loop_
 _symmetry_equiv_pos_site_id
 _symmetry_equiv_pos_as_xyz
  1  'x, y, z'
loop_
 _atom_site_type_symbol
 _atom_site_label
 _atom_site_symmetry_multiplicity
 _atom_site_fract_x
 _atom_site_fract_y
 _atom_site_fract_z
 _atom_site_occupancy
  Na  Na0  1  0.333333  0.666667  0.040725  1
  Na  Na1  1  0.333333  0.666667  0.459275  1
  Na  Na2  1  0.000000  0.000000  0.750000  1
  Na  Na3  1  0.000000  0.000000  0.250000  1
  Na  Na4  1  0.666667  0.333333  0.959257  1
  Na  Na5  1  0.666667  0.333333  0.540743  1
  Tm  Tm6  1  0.333333  0.666667  0.750000  1
  In  In7  1  0.666667  0.333333  0.250000  1
  Cl  Cl8  1  0.364811  0.047841  0.128674  1
  Cl  Cl9  1  0.952159  0.316972  0.128674  1
  Cl  Cl10  1  0.683028  0.635189  0.128674  1
  Cl  Cl11  1  0.639690  0.681463  0.627375  1
  Cl  Cl12  1  0.318537  0.958226  0.627375  1
  Cl  Cl13  1  0.639690  0.958226  0.872625  1
  Cl  Cl14  1  0.318537  0.360310  0.872625  1
  Cl  Cl15  1  0.041774  0.681463  0.872625  1
  Cl  Cl16  1  0.364811  0.316972  0.371326  1
  Cl  Cl17  1  0.952159  0.635189  0.371326  1
  Cl  Cl18  1  0.041774  0.360310  0.627375  1
  Cl  Cl19  1  0.683028  0.047841  0.371326  1
