# generated using pymatgen
data_Sr4Si10RuPt5
_symmetry_space_group_name_H-M   'P 1'
_cell_length_a   8.42725796
_cell_length_b   8.42725724
_cell_length_c   8.42725714
_cell_angle_alpha   138.64247460
_cell_angle_beta   105.10187880
_cell_angle_gamma   89.36186811
_symmetry_Int_Tables_number   1
_chemical_formula_structural   Sr4Si10RuPt5
_chemical_formula_sum   'Sr4 Si10 Ru1 Pt5'
_cell_volume   365.49763423
_cell_formula_units_Z   1
loop_
 _symmetry_equiv_pos_site_id
 _symmetry_equiv_pos_as_xyz
  1  'x, y, z'
loop_
 _atom_site_type_symbol
 _atom_site_label
 _atom_site_symmetry_multiplicity
 _atom_site_fract_x
 _atom_site_fract_y
 _atom_site_fract_z
 _atom_site_occupancy
  Sr  Sr0  1  0.104031  0.870579  0.233808  1
  Sr  Sr1  1  0.895969  0.129777  0.766548  1
  Sr  Sr2  1  0.636771  0.370223  0.266192  1
  Sr  Sr3  1  0.363229  0.629421  0.733452  1
  Si  Si4  1  0.000000  0.750000  0.750000  1
  Si  Si5  1  0.000000  0.250000  0.250000  1
  Si  Si6  1  0.270454  0.020454  0.750000  1
  Si  Si7  1  0.729546  0.479546  0.750000  1
  Si  Si8  1  0.726112  0.976112  0.250000  1
  Si  Si9  1  0.273888  0.523888  0.250000  1
  Si  Si10  1  0.755174  0.614961  0.152266  1
  Si  Si11  1  0.244826  0.397092  0.859787  1
  Si  Si12  1  0.462695  0.102908  0.347734  1
  Si  Si13  1  0.537305  0.885039  0.640213  1
  Ru  Ru14  1  0.500000  0.750000  0.250000  1
  Pt  Pt15  1  0.500000  0.250000  0.750000  1
  Pt  Pt16  1  0.024538  0.635053  0.386379  1
  Pt  Pt17  1  0.975462  0.361841  0.610514  1
  Pt  Pt18  1  0.248673  0.138159  0.113621  1
  Pt  Pt19  1  0.751327  0.864947  0.889486  1
