# generated using pymatgen
data_Dy20Si15Rh
_symmetry_space_group_name_H-M   'P 1'
_cell_length_a   7.45208402
_cell_length_b   7.68165270
_cell_length_c   14.59413854
_cell_angle_alpha   89.70777669
_cell_angle_beta   89.66698177
_cell_angle_gamma   90.18025320
_symmetry_Int_Tables_number   1
_chemical_formula_structural   Dy20Si15Rh
_chemical_formula_sum   'Dy20 Si15 Rh1'
_cell_volume   835.40236595
_cell_formula_units_Z   1
loop_
 _symmetry_equiv_pos_site_id
 _symmetry_equiv_pos_as_xyz
  1  'x, y, z'
loop_
 _atom_site_type_symbol
 _atom_site_label
 _atom_site_symmetry_multiplicity
 _atom_site_fract_x
 _atom_site_fract_y
 _atom_site_fract_z
 _atom_site_occupancy
  Dy  Dy0  1  0.648723  0.992427  0.248587  1
  Dy  Dy1  1  0.148086  0.510622  0.247613  1
  Dy  Dy2  1  0.847761  0.488488  0.757971  1
  Dy  Dy3  1  0.352291  0.010500  0.752077  1
  Dy  Dy4  1  0.973613  0.816484  0.097753  1
  Dy  Dy5  1  0.470989  0.682898  0.401252  1
  Dy  Dy6  1  0.529074  0.321931  0.900629  1
  Dy  Dy7  1  0.029508  0.184256  0.599532  1
  Dy  Dy8  1  0.028161  0.185218  0.902008  1
  Dy  Dy9  1  0.529901  0.317513  0.598886  1
  Dy  Dy10  1  0.473703  0.682139  0.099116  1
  Dy  Dy11  1  0.970043  0.817225  0.400606  1
  Dy  Dy12  1  0.683374  0.812104  0.882344  1
  Dy  Dy13  1  0.179257  0.681402  0.621944  1
  Dy  Dy14  1  0.817522  0.333212  0.118182  1
  Dy  Dy15  1  0.316274  0.178239  0.376266  1
  Dy  Dy16  1  0.321015  0.179025  0.123374  1
  Dy  Dy17  1  0.819361  0.319012  0.377332  1
  Dy  Dy18  1  0.176235  0.675880  0.878474  1
  Dy  Dy19  1  0.682923  0.818999  0.622496  1
  Si  Si20  1  0.764311  0.628548  0.251789  1
  Si  Si21  1  0.265549  0.872605  0.250795  1
  Si  Si22  1  0.733262  0.123756  0.748502  1
  Si  Si23  1  0.235106  0.373428  0.746688  1
  Si  Si24  1  0.020529  0.105938  0.249064  1
  Si  Si25  1  0.523382  0.396599  0.251435  1
  Si  Si26  1  0.472388  0.605624  0.746688  1
  Si  Si27  1  0.976706  0.897439  0.748524  1
  Si  Si28  1  0.354587  0.971795  0.539873  1
  Si  Si29  1  0.646409  0.027414  0.041836  1
  Si  Si30  1  0.147012  0.470469  0.459936  1
  Si  Si31  1  0.155198  0.472262  0.041334  1
  Si  Si32  1  0.643895  0.028281  0.459578  1
  Si  Si33  1  0.353112  0.969392  0.961002  1
  Si  Si34  1  0.855156  0.528638  0.538849  1
  Rh  Rh35  1  0.855582  0.520236  0.957668  1
