# generated using pymatgen
data_Ga3Ni4Ir
_symmetry_space_group_name_H-M   'P 1'
_cell_length_a   5.12959388
_cell_length_b   5.22045209
_cell_length_c   3.78121800
_cell_angle_alpha   90.00000000
_cell_angle_beta   90.00000000
_cell_angle_gamma   96.71067262
_symmetry_Int_Tables_number   1
_chemical_formula_structural   Ga3Ni4Ir
_chemical_formula_sum   'Ga3 Ni4 Ir1'
_cell_volume   100.56275884
_cell_formula_units_Z   1
loop_
 _symmetry_equiv_pos_site_id
 _symmetry_equiv_pos_as_xyz
  1  'x, y, z'
loop_
 _atom_site_type_symbol
 _atom_site_label
 _atom_site_symmetry_multiplicity
 _atom_site_fract_x
 _atom_site_fract_y
 _atom_site_fract_z
 _atom_site_occupancy
  Ga  Ga0  1  0.000000  0.000000  0.000000  1
  Ga  Ga1  1  0.724512  0.289231  0.500000  1
  Ga  Ga2  1  0.275488  0.710769  0.500000  1
  Ni  Ni3  1  0.500000  0.500000  0.000000  1
  Ni  Ni4  1  0.000000  0.500000  0.000000  1
  Ni  Ni5  1  0.778404  0.765620  0.500000  1
  Ni  Ni6  1  0.221596  0.234380  0.500000  1
  Ir  Ir7  1  0.500000  0.000000  0.000000  1
