# generated using pymatgen
data_YbPr6IrI12
_symmetry_space_group_name_H-M   'P 1'
_cell_length_a   10.17015344
_cell_length_b   10.17015414
_cell_length_c   10.17015438
_cell_angle_alpha   107.20121176
_cell_angle_beta   107.20120576
_cell_angle_gamma   107.20120747
_symmetry_Int_Tables_number   1
_chemical_formula_structural   YbPr6IrI12
_chemical_formula_sum   'Yb1 Pr6 Ir1 I12'
_cell_volume   871.19566376
_cell_formula_units_Z   1
loop_
 _symmetry_equiv_pos_site_id
 _symmetry_equiv_pos_as_xyz
  1  'x, y, z'
loop_
 _atom_site_type_symbol
 _atom_site_label
 _atom_site_symmetry_multiplicity
 _atom_site_fract_x
 _atom_site_fract_y
 _atom_site_fract_z
 _atom_site_occupancy
  Yb  Yb0  1  0.500000  0.500000  0.500000  1
  Pr  Pr1  1  0.975491  0.900738  0.696103  1
  Pr  Pr2  1  0.024509  0.099262  0.303897  1
  Pr  Pr3  1  0.099262  0.303897  0.024509  1
  Pr  Pr4  1  0.303897  0.024509  0.099262  1
  Pr  Pr5  1  0.900738  0.696103  0.975491  1
  Pr  Pr6  1  0.696103  0.975491  0.900738  1
  Ir  Ir7  1  0.000000  0.000000  0.000000  1
  I  I8  1  0.538963  0.617175  0.837584  1
  I  I9  1  0.461037  0.382825  0.162416  1
  I  I10  1  0.319007  0.927536  0.775070  1
  I  I11  1  0.382825  0.162416  0.461037  1
  I  I12  1  0.927536  0.775070  0.319007  1
  I  I13  1  0.680993  0.072464  0.224930  1
  I  I14  1  0.072464  0.224930  0.680993  1
  I  I15  1  0.775070  0.319007  0.927536  1
  I  I16  1  0.224930  0.680993  0.072464  1
  I  I17  1  0.837584  0.538963  0.617175  1
  I  I18  1  0.162416  0.461037  0.382825  1
  I  I19  1  0.617175  0.837584  0.538963  1
