# generated using pymatgen
data_Zr2Mn2Fe10P7
_symmetry_space_group_name_H-M   'P 1'
_cell_length_a   8.91329752
_cell_length_b   8.92013352
_cell_length_c   3.58687800
_cell_angle_alpha   90.00000000
_cell_angle_beta   90.00000000
_cell_angle_gamma   119.94870934
_symmetry_Int_Tables_number   1
_chemical_formula_structural   Zr2Mn2Fe10P7
_chemical_formula_sum   'Zr2 Mn2 Fe10 P7'
_cell_volume   247.10482391
_cell_formula_units_Z   1
loop_
 _symmetry_equiv_pos_site_id
 _symmetry_equiv_pos_as_xyz
  1  'x, y, z'
loop_
 _atom_site_type_symbol
 _atom_site_label
 _atom_site_symmetry_multiplicity
 _atom_site_fract_x
 _atom_site_fract_y
 _atom_site_fract_z
 _atom_site_occupancy
  Zr  Zr0  1  0.002868  0.001661  0.000000  1
  Zr  Zr1  1  0.665267  0.332718  0.500000  1
  Mn  Mn2  1  0.111933  0.561552  0.500000  1
  Mn  Mn3  1  0.453276  0.887295  0.500000  1
  Fe  Fe4  1  0.394643  0.300497  0.000000  1
  Fe  Fe5  1  0.903303  0.605189  0.000000  1
  Fe  Fe6  1  0.700971  0.095601  0.000000  1
  Fe  Fe7  1  0.609412  0.786513  0.000000  1
  Fe  Fe8  1  0.176346  0.389894  0.000000  1
  Fe  Fe9  1  0.213829  0.822191  0.000000  1
  Fe  Fe10  1  0.770210  0.718217  0.500000  1
  Fe  Fe11  1  0.948772  0.228582  0.500000  1
  Fe  Fe12  1  0.281611  0.053591  0.500000  1
  Fe  Fe13  1  0.430546  0.547229  0.500000  1
  P  P14  1  0.632617  0.552571  0.000000  1
  P  P15  1  0.916513  0.364802  0.000000  1
  P  P16  1  0.446811  0.082643  0.000000  1
  P  P17  1  0.744810  0.956383  0.500000  1
  P  P18  1  0.218734  0.263320  0.500000  1
  P  P19  1  0.043953  0.785611  0.500000  1
  P  P20  1  0.333574  0.663937  0.000000  1
