# generated using pymatgen
data_AlIn(SeBr7)2
_symmetry_space_group_name_H-M   'P 1'
_cell_length_a   6.91707791
_cell_length_b   7.21633994
_cell_length_c   15.40175553
_cell_angle_alpha   74.50012622
_cell_angle_beta   90.07927760
_cell_angle_gamma   90.78017995
_symmetry_Int_Tables_number   1
_chemical_formula_structural   AlIn(SeBr7)2
_chemical_formula_sum   'Al1 In1 Se2 Br14'
_cell_volume   740.76286931
_cell_formula_units_Z   1
loop_
 _symmetry_equiv_pos_site_id
 _symmetry_equiv_pos_as_xyz
  1  'x, y, z'
loop_
 _atom_site_type_symbol
 _atom_site_label
 _atom_site_symmetry_multiplicity
 _atom_site_fract_x
 _atom_site_fract_y
 _atom_site_fract_z
 _atom_site_occupancy
  Al  Al0  1  0.003495  0.696560  0.163261  1
  In  In1  1  0.002956  0.698043  0.664104  1
  Se  Se2  1  0.600186  0.999728  0.501343  1
  Se  Se3  1  0.398879  0.997450  0.005407  1
  Br  Br4  1  0.401971  0.898645  0.396450  1
  Br  Br5  1  0.400154  0.238548  0.533667  1
  Br  Br6  1  0.174125  0.198205  0.905867  1
  Br  Br7  1  0.820182  0.206485  0.399083  1
  Br  Br8  1  0.123434  0.001687  0.164603  1
  Br  Br9  1  0.598265  0.240951  0.037377  1
  Br  Br10  1  0.129616  0.644028  0.030264  1
  Br  Br11  1  0.859152  0.650804  0.517244  1
  Br  Br12  1  0.670280  0.673552  0.165640  1
  Br  Br13  1  0.366492  0.670467  0.665934  1
  Br  Br14  1  0.130659  0.472959  0.287738  1
  Br  Br15  1  0.862685  0.452045  0.801135  1
  Br  Br16  1  0.591687  0.903374  0.897723  1
  Br  Br17  1  0.865781  0.027066  0.662958  1
