# generated using pymatgen
data_Ni5Sn8Rh7
_symmetry_space_group_name_H-M   'P 1'
_cell_length_a   5.58111508
_cell_length_b   7.20029796
_cell_length_c   8.33740694
_cell_angle_alpha   90.27504245
_cell_angle_beta   90.27751895
_cell_angle_gamma   89.97792130
_symmetry_Int_Tables_number   1
_chemical_formula_structural   Ni5Sn8Rh7
_chemical_formula_sum   'Ni5 Sn8 Rh7'
_cell_volume   335.03665056
_cell_formula_units_Z   1
loop_
 _symmetry_equiv_pos_site_id
 _symmetry_equiv_pos_as_xyz
  1  'x, y, z'
loop_
 _atom_site_type_symbol
 _atom_site_label
 _atom_site_symmetry_multiplicity
 _atom_site_fract_x
 _atom_site_fract_y
 _atom_site_fract_z
 _atom_site_occupancy
  Ni  Ni0  1  0.242765  0.907803  0.369175  1
  Ni  Ni1  1  0.746427  0.089766  0.626674  1
  Ni  Ni2  1  0.242591  0.413593  0.127177  1
  Ni  Ni3  1  0.005532  0.738267  0.122825  1
  Ni  Ni4  1  0.758564  0.590673  0.876396  1
  Sn  Sn5  1  0.251815  0.561791  0.402151  1
  Sn  Sn6  1  0.250917  0.096693  0.639689  1
  Sn  Sn7  1  0.754333  0.901575  0.357747  1
  Sn  Sn8  1  0.751642  0.405025  0.141763  1
  Sn  Sn9  1  0.249274  0.597357  0.859457  1
  Sn  Sn10  1  0.248181  0.062770  0.098560  1
  Sn  Sn11  1  0.749110  0.437485  0.600263  1
  Sn  Sn12  1  0.751817  0.936747  0.901764  1
  Rh  Rh13  1  0.496429  0.236457  0.373183  1
  Rh  Rh14  1  0.997757  0.761419  0.623067  1
  Rh  Rh15  1  0.502683  0.263493  0.878961  1
  Rh  Rh16  1  0.997423  0.257707  0.876395  1
  Rh  Rh17  1  0.502913  0.760860  0.623606  1
  Rh  Rh18  1  0.001276  0.240388  0.378509  1
  Rh  Rh19  1  0.498552  0.740131  0.122636  1
