# generated using pymatgen
data_Ga3CuRh
_symmetry_space_group_name_H-M   'P 1'
_cell_length_a   4.26572500
_cell_length_b   4.26572506
_cell_length_c   5.06963900
_cell_angle_alpha   90.00000000
_cell_angle_beta   90.00000000
_cell_angle_gamma   120.00000726
_symmetry_Int_Tables_number   1
_chemical_formula_structural   Ga3CuRh
_chemical_formula_sum   'Ga3 Cu1 Rh1'
_cell_volume   79.89017084
_cell_formula_units_Z   1
loop_
 _symmetry_equiv_pos_site_id
 _symmetry_equiv_pos_as_xyz
  1  'x, y, z'
loop_
 _atom_site_type_symbol
 _atom_site_label
 _atom_site_symmetry_multiplicity
 _atom_site_fract_x
 _atom_site_fract_y
 _atom_site_fract_z
 _atom_site_occupancy
  Ga  Ga0  1  0.000000  0.000000  0.962882  1
  Ga  Ga1  1  0.333333  0.666667  0.373140  1
  Ga  Ga2  1  0.666667  0.333333  0.639394  1
  Cu  Cu3  1  0.666667  0.333333  0.150473  1
  Rh  Rh4  1  0.333333  0.666667  0.874111  1
