# generated using pymatgen
data_TbHf(NbSe2)8
_symmetry_space_group_name_H-M   'P 1'
_cell_length_a   7.01668200
_cell_length_b   7.01668212
_cell_length_c   13.95282400
_cell_angle_alpha   90.00000000
_cell_angle_beta   90.00000000
_cell_angle_gamma   119.99999944
_symmetry_Int_Tables_number   1
_chemical_formula_structural   TbHf(NbSe2)8
_chemical_formula_sum   'Tb1 Hf1 Nb8 Se16'
_cell_volume   594.91695535
_cell_formula_units_Z   1
loop_
 _symmetry_equiv_pos_site_id
 _symmetry_equiv_pos_as_xyz
  1  'x, y, z'
loop_
 _atom_site_type_symbol
 _atom_site_label
 _atom_site_symmetry_multiplicity
 _atom_site_fract_x
 _atom_site_fract_y
 _atom_site_fract_z
 _atom_site_occupancy
  Tb  Tb0  1  0.000000  0.000000  0.500000  1
  Hf  Hf1  1  0.000000  0.000000  0.000000  1
  Nb  Nb2  1  0.000000  0.000000  0.239578  1
  Nb  Nb3  1  0.000000  0.000000  0.760422  1
  Nb  Nb4  1  0.506543  0.013085  0.239503  1
  Nb  Nb5  1  0.986915  0.493457  0.239503  1
  Nb  Nb6  1  0.506543  0.493457  0.239503  1
  Nb  Nb7  1  0.493457  0.986915  0.760497  1
  Nb  Nb8  1  0.013085  0.506543  0.760497  1
  Nb  Nb9  1  0.493457  0.506543  0.760497  1
  Se  Se10  1  0.333333  0.666667  0.883300  1
  Se  Se11  1  0.666667  0.333333  0.116700  1
  Se  Se12  1  0.666667  0.333333  0.363397  1
  Se  Se13  1  0.333333  0.666667  0.636603  1
  Se  Se14  1  0.169541  0.830459  0.359002  1
  Se  Se15  1  0.169541  0.339081  0.359002  1
  Se  Se16  1  0.660919  0.830459  0.359002  1
  Se  Se17  1  0.830459  0.169541  0.640998  1
  Se  Se18  1  0.830459  0.660919  0.640998  1
  Se  Se19  1  0.339081  0.169541  0.640998  1
  Se  Se20  1  0.830384  0.169616  0.880478  1
  Se  Se21  1  0.830384  0.660768  0.880478  1
  Se  Se22  1  0.339232  0.169616  0.880478  1
  Se  Se23  1  0.169616  0.830384  0.119522  1
  Se  Se24  1  0.169616  0.339232  0.119522  1
  Se  Se25  1  0.660768  0.830384  0.119522  1
