# generated using pymatgen
data_Ta11NbB12Os5Ru7
_symmetry_space_group_name_H-M   'P 1'
_cell_length_a   3.12554000
_cell_length_b   9.04048935
_cell_length_c   15.76635822
_cell_angle_alpha   90.10453408
_cell_angle_beta   90.00000000
_cell_angle_gamma   90.00000000
_symmetry_Int_Tables_number   1
_chemical_formula_structural   Ta11NbB12Os5Ru7
_chemical_formula_sum   'Ta11 Nb1 B12 Os5 Ru7'
_cell_volume   445.49995777
_cell_formula_units_Z   1
loop_
 _symmetry_equiv_pos_site_id
 _symmetry_equiv_pos_as_xyz
  1  'x, y, z'
loop_
 _atom_site_type_symbol
 _atom_site_label
 _atom_site_symmetry_multiplicity
 _atom_site_fract_x
 _atom_site_fract_y
 _atom_site_fract_z
 _atom_site_occupancy
  Ta  Ta0  1  0.000000  0.799773  0.495045  1
  Ta  Ta1  1  0.000000  0.199834  0.504186  1
  Ta  Ta2  1  0.000000  0.300733  0.004433  1
  Ta  Ta3  1  0.000000  0.699376  0.995865  1
  Ta  Ta4  1  0.000000  0.515023  0.594159  1
  Ta  Ta5  1  0.000000  0.485568  0.405769  1
  Ta  Ta6  1  0.000000  0.013944  0.905963  1
  Ta  Ta7  1  0.000000  0.985945  0.094203  1
  Ta  Ta8  1  0.000000  0.686422  0.202381  1
  Ta  Ta9  1  0.000000  0.314016  0.797695  1
  Ta  Ta10  1  0.000000  0.186477  0.297504  1
  Nb  Nb11  1  0.000000  0.812214  0.702510  1
  B  B12  1  0.500000  0.603976  0.497280  1
  B  B13  1  0.500000  0.395729  0.502201  1
  B  B14  1  0.500000  0.104693  0.002686  1
  B  B15  1  0.500000  0.895294  0.997589  1
  B  B16  1  0.000000  0.608249  0.832721  1
  B  B17  1  0.000000  0.391586  0.167338  1
  B  B18  1  0.000000  0.109052  0.667229  1
  B  B19  1  0.000000  0.891021  0.332405  1
  B  B20  1  0.500000  0.715260  0.598107  1
  B  B21  1  0.500000  0.285811  0.401209  1
  B  B22  1  0.500000  0.214088  0.901426  1
  B  B23  1  0.500000  0.785621  0.098926  1
  Os  Os24  1  0.500000  0.985244  0.593478  1
  Os  Os25  1  0.500000  0.559593  0.735653  1
  Os  Os26  1  0.500000  0.438823  0.264951  1
  Os  Os27  1  0.500000  0.062852  0.765934  1
  Os  Os28  1  0.500000  0.938590  0.234697  1
  Ru  Ru29  1  0.500000  0.720547  0.355538  1
  Ru  Ru30  1  0.500000  0.280409  0.644254  1
  Ru  Ru31  1  0.500000  0.220680  0.143835  1
  Ru  Ru32  1  0.500001  0.779074  0.856906  1
  Ru  Ru33  1  0.500000  0.514941  0.094095  1
  Ru  Ru34  1  0.500000  0.484588  0.906208  1
  Ru  Ru35  1  0.499999  0.014953  0.405617  1
