# generated using pymatgen
data_CeTm3(Tc3Ge4)2
_symmetry_space_group_name_H-M   'P 1'
_cell_length_a   8.29091689
_cell_length_b   5.69998623
_cell_length_c   6.98991526
_cell_angle_alpha   76.14124948
_cell_angle_beta   90.27947256
_cell_angle_gamma   90.18967265
_symmetry_Int_Tables_number   1
_chemical_formula_structural   CeTm3(Tc3Ge4)2
_chemical_formula_sum   'Ce1 Tm3 Tc6 Ge8'
_cell_volume   320.70942009
_cell_formula_units_Z   1
loop_
 _symmetry_equiv_pos_site_id
 _symmetry_equiv_pos_as_xyz
  1  'x, y, z'
loop_
 _atom_site_type_symbol
 _atom_site_label
 _atom_site_symmetry_multiplicity
 _atom_site_fract_x
 _atom_site_fract_y
 _atom_site_fract_z
 _atom_site_occupancy
  Ce  Ce0  1  0.552954  0.078013  0.244818  1
  Tm  Tm1  1  0.052013  0.422688  0.755672  1
  Tm  Tm2  1  0.446353  0.922722  0.755407  1
  Tm  Tm3  1  0.946264  0.577687  0.243413  1
  Tc  Tc4  1  0.208959  0.111810  0.115015  1
  Tc  Tc5  1  0.704928  0.381769  0.891369  1
  Tc  Tc6  1  0.796326  0.886626  0.885005  1
  Tc  Tc7  1  0.295236  0.614393  0.111021  1
  Tc  Tc8  1  0.998851  0.999447  0.498579  1
  Tc  Tc9  1  0.500264  0.500343  0.501846  1
  Ge  Ge10  1  0.903993  0.120194  0.128200  1
  Ge  Ge11  1  0.398062  0.384116  0.866491  1
  Ge  Ge12  1  0.100058  0.878830  0.871075  1
  Ge  Ge13  1  0.599686  0.623547  0.125602  1
  Ge  Ge14  1  0.749073  0.224982  0.579542  1
  Ge  Ge15  1  0.245056  0.280947  0.422564  1
  Ge  Ge16  1  0.249323  0.772364  0.423994  1
  Ge  Ge17  1  0.752602  0.719522  0.580388  1
