# generated using pymatgen
data_Ta12Al8CuRu3C4
_symmetry_space_group_name_H-M   'P 1'
_cell_length_a   8.32465939
_cell_length_b   8.32465931
_cell_length_c   8.28653815
_cell_angle_alpha   59.84770282
_cell_angle_beta   59.84770335
_cell_angle_gamma   59.99999350
_symmetry_Int_Tables_number   1
_chemical_formula_structural   Ta12Al8CuRu3C4
_chemical_formula_sum   'Ta12 Al8 Cu1 Ru3 C4'
_cell_volume   405.12354118
_cell_formula_units_Z   1
loop_
 _symmetry_equiv_pos_site_id
 _symmetry_equiv_pos_as_xyz
  1  'x, y, z'
loop_
 _atom_site_type_symbol
 _atom_site_label
 _atom_site_symmetry_multiplicity
 _atom_site_fract_x
 _atom_site_fract_y
 _atom_site_fract_z
 _atom_site_occupancy
  Ta  Ta0  1  0.567942  0.936797  0.558463  1
  Ta  Ta1  1  0.313203  0.682058  0.691537  1
  Ta  Ta2  1  0.688286  0.312224  0.311203  1
  Ta  Ta3  1  0.312224  0.688286  0.311203  1
  Ta  Ta4  1  0.688286  0.688286  0.311203  1
  Ta  Ta5  1  0.313203  0.313203  0.691537  1
  Ta  Ta6  1  0.561714  0.561714  0.938797  1
  Ta  Ta7  1  0.936797  0.567942  0.558463  1
  Ta  Ta8  1  0.561714  0.937776  0.938797  1
  Ta  Ta9  1  0.936797  0.936797  0.558463  1
  Ta  Ta10  1  0.682058  0.313203  0.691537  1
  Ta  Ta11  1  0.937776  0.561714  0.938797  1
  Al  Al12  1  0.917269  0.917269  0.914947  1
  Al  Al13  1  0.999485  0.332731  0.335053  1
  Al  Al14  1  0.332731  0.999485  0.335053  1
  Al  Al15  1  0.332185  0.332185  0.003441  1
  Al  Al16  1  0.917269  0.250515  0.914947  1
  Al  Al17  1  0.917815  0.917815  0.246559  1
  Al  Al18  1  0.250515  0.917269  0.914947  1
  Al  Al19  1  0.332731  0.332731  0.335053  1
  Cu  Cu20  1  0.125000  0.125000  0.625000  1
  Ru  Ru21  1  0.125000  0.125000  0.125000  1
  Ru  Ru22  1  0.625000  0.125000  0.125000  1
  Ru  Ru23  1  0.125000  0.625000  0.125000  1
  C  C24  1  0.625000  0.625000  0.625000  1
  C  C25  1  0.125000  0.625000  0.625000  1
  C  C26  1  0.625000  0.125000  0.625000  1
  C  C27  1  0.625000  0.625000  0.125000  1
