# generated using pymatgen
data_LaFeSiAg
_symmetry_space_group_name_H-M   'P 1'
_cell_length_a   10.10616400
_cell_length_b   10.10616492
_cell_length_c   3.99435900
_cell_angle_alpha   90.00000000
_cell_angle_beta   90.00000000
_cell_angle_gamma   157.16386087
_symmetry_Int_Tables_number   1
_chemical_formula_structural   LaFeSiAg
_chemical_formula_sum   'La2 Fe2 Si2 Ag2'
_cell_volume   158.32885527
_cell_formula_units_Z   2
loop_
 _symmetry_equiv_pos_site_id
 _symmetry_equiv_pos_as_xyz
  1  'x, y, z'
loop_
 _atom_site_type_symbol
 _atom_site_label
 _atom_site_symmetry_multiplicity
 _atom_site_fract_x
 _atom_site_fract_y
 _atom_site_fract_z
 _atom_site_occupancy
  La  La0  1  0.628675  0.371325  0.250000  1
  La  La1  1  0.371325  0.628675  0.750000  1
  Fe  Fe2  1  0.250850  0.749150  0.250000  1
  Fe  Fe3  1  0.749150  0.250850  0.750000  1
  Si  Si4  1  0.805302  0.194698  0.250000  1
  Si  Si5  1  0.194698  0.805302  0.750000  1
  Ag  Ag6  1  0.950913  0.049087  0.250000  1
  Ag  Ag7  1  0.049087  0.950913  0.750000  1
