# generated using pymatgen
data_KMnAs2O7
_symmetry_space_group_name_H-M   'P 1'
_cell_length_a   6.33005286
_cell_length_b   6.42182891
_cell_length_c   8.77949194
_cell_angle_alpha   96.92945736
_cell_angle_beta   101.91159361
_cell_angle_gamma   103.27432104
_symmetry_Int_Tables_number   1
_chemical_formula_structural   KMnAs2O7
_chemical_formula_sum   'K2 Mn2 As4 O14'
_cell_volume   334.54297149
_cell_formula_units_Z   2
loop_
 _symmetry_equiv_pos_site_id
 _symmetry_equiv_pos_as_xyz
  1  'x, y, z'
loop_
 _atom_site_type_symbol
 _atom_site_label
 _atom_site_symmetry_multiplicity
 _atom_site_fract_x
 _atom_site_fract_y
 _atom_site_fract_z
 _atom_site_occupancy
  K  K0  1  0.000000  0.500000  0.500000  1
  K  K1  1  0.000000  0.500000  0.000000  1
  Mn  Mn2  1  0.376978  0.191919  0.727209  1
  Mn  Mn3  1  0.623022  0.808081  0.272791  1
  As  As4  1  0.828516  0.026692  0.692507  1
  As  As5  1  0.479021  0.744396  0.834302  1
  As  As6  1  0.171484  0.973308  0.307493  1
  As  As7  1  0.520979  0.255604  0.165698  1
  O  O8  1  0.232350  0.120757  0.150286  1
  O  O9  1  0.314998  0.879535  0.722822  1
  O  O10  1  0.577079  0.499020  0.288543  1
  O  O11  1  0.909905  0.802501  0.220962  1
  O  O12  1  0.685002  0.120465  0.277178  1
  O  O13  1  0.767650  0.879243  0.849714  1
  O  O14  1  0.329753  0.787797  0.320349  1
  O  O15  1  0.436596  0.733184  0.016461  1
  O  O16  1  0.422921  0.500980  0.711457  1
  O  O17  1  0.202751  0.154482  0.469792  1
  O  O18  1  0.797249  0.845518  0.530208  1
  O  O19  1  0.090095  0.197499  0.779038  1
  O  O20  1  0.563404  0.266816  0.983539  1
  O  O21  1  0.670247  0.212203  0.679651  1
