# generated using pymatgen
data_Dy7Ho(LuGa3)2
_symmetry_space_group_name_H-M   'P 1'
_cell_length_a   7.57242500
_cell_length_b   7.57256300
_cell_length_c   14.13695100
_cell_angle_alpha   89.99714336
_cell_angle_beta   90.00000000
_cell_angle_gamma   90.00000000
_symmetry_Int_Tables_number   1
_chemical_formula_structural   Dy7Ho(LuGa3)2
_chemical_formula_sum   'Dy14 Ho2 Lu4 Ga12'
_cell_volume   810.65045012
_cell_formula_units_Z   2
loop_
 _symmetry_equiv_pos_site_id
 _symmetry_equiv_pos_as_xyz
  1  'x, y, z'
loop_
 _atom_site_type_symbol
 _atom_site_label
 _atom_site_symmetry_multiplicity
 _atom_site_fract_x
 _atom_site_fract_y
 _atom_site_fract_z
 _atom_site_occupancy
  Dy  Dy0  1  0.676315  0.662414  0.602810  1
  Dy  Dy1  1  0.676285  0.337491  0.102823  1
  Dy  Dy2  1  0.823793  0.837672  0.397182  1
  Dy  Dy3  1  0.176207  0.837672  0.897182  1
  Dy  Dy4  1  0.323715  0.337491  0.602823  1
  Dy  Dy5  1  0.323685  0.662414  0.102810  1
  Dy  Dy6  1  0.176125  0.162423  0.397173  1
  Dy  Dy7  1  0.823875  0.162423  0.897173  1
  Dy  Dy8  1  0.662434  0.323783  0.397165  1
  Dy  Dy9  1  0.337566  0.323783  0.897165  1
  Dy  Dy10  1  0.162412  0.823861  0.602817  1
  Dy  Dy11  1  0.837588  0.823861  0.102817  1
  Dy  Dy12  1  0.337580  0.676203  0.397171  1
  Dy  Dy13  1  0.662420  0.676203  0.897171  1
  Ho  Ho14  1  0.837711  0.176169  0.602966  1
  Ho  Ho15  1  0.162289  0.176169  0.102966  1
  Lu  Lu16  1  0.999975  0.499941  0.762263  1
  Lu  Lu17  1  0.000025  0.499941  0.262263  1
  Lu  Lu18  1  0.499933  0.000049  0.237649  1
  Lu  Lu19  1  0.500067  0.000049  0.737649  1
  Ga  Ga20  1  0.999918  0.499917  0.495429  1
  Ga  Ga21  1  0.000082  0.499917  0.995429  1
  Ga  Ga22  1  0.500056  0.000064  0.504626  1
  Ga  Ga23  1  0.499944  0.000064  0.004626  1
  Ga  Ga24  1  0.876124  0.876185  0.749974  1
  Ga  Ga25  1  0.876200  0.123867  0.249977  1
  Ga  Ga26  1  0.623864  0.623855  0.249992  1
  Ga  Ga27  1  0.376136  0.623855  0.749992  1
  Ga  Ga28  1  0.123800  0.123867  0.749977  1
  Ga  Ga29  1  0.123876  0.876185  0.249974  1
  Ga  Ga30  1  0.376106  0.376104  0.249984  1
  Ga  Ga31  1  0.623894  0.376104  0.749984  1
