# generated using pymatgen
data_CsNpBr6
_symmetry_space_group_name_H-M   'P 1'
_cell_length_a   7.67895192
_cell_length_b   7.67895212
_cell_length_c   13.88718819
_cell_angle_alpha   79.53653239
_cell_angle_beta   79.53653088
_cell_angle_gamma   56.75892824
_symmetry_Int_Tables_number   1
_chemical_formula_structural   CsNpBr6
_chemical_formula_sum   'Cs2 Np2 Br12'
_cell_volume   670.13532222
_cell_formula_units_Z   2
loop_
 _symmetry_equiv_pos_site_id
 _symmetry_equiv_pos_as_xyz
  1  'x, y, z'
loop_
 _atom_site_type_symbol
 _atom_site_label
 _atom_site_symmetry_multiplicity
 _atom_site_fract_x
 _atom_site_fract_y
 _atom_site_fract_z
 _atom_site_occupancy
  Cs  Cs0  1  0.888221  0.111779  0.750000  1
  Cs  Cs1  1  0.111779  0.888221  0.250000  1
  Np  Np2  1  0.500000  0.000000  0.500000  1
  Np  Np3  1  0.000000  0.500000  0.000000  1
  Br  Br4  1  0.464240  0.690391  0.608517  1
  Br  Br5  1  0.535760  0.309609  0.391483  1
  Br  Br6  1  0.309609  0.535760  0.891483  1
  Br  Br7  1  0.690391  0.464240  0.108517  1
  Br  Br8  1  0.372538  0.201760  0.662720  1
  Br  Br9  1  0.627462  0.798240  0.337280  1
  Br  Br10  1  0.798240  0.627462  0.837280  1
  Br  Br11  1  0.201760  0.372538  0.162720  1
  Br  Br12  1  0.799409  0.899971  0.038949  1
  Br  Br13  1  0.200591  0.100029  0.961051  1
  Br  Br14  1  0.100029  0.200591  0.461051  1
  Br  Br15  1  0.899971  0.799409  0.538949  1
