# generated using pymatgen
data_Tb6Lu10CdHg3Ir4
_symmetry_space_group_name_H-M   'P 1'
_cell_length_a   9.50025793
_cell_length_b   9.49447892
_cell_length_c   9.49447800
_cell_angle_alpha   59.99999625
_cell_angle_beta   60.02011661
_cell_angle_gamma   60.02012559
_symmetry_Int_Tables_number   1
_chemical_formula_structural   Tb6Lu10CdHg3Ir4
_chemical_formula_sum   'Tb6 Lu10 Cd1 Hg3 Ir4'
_cell_volume   605.75168200
_cell_formula_units_Z   1
loop_
 _symmetry_equiv_pos_site_id
 _symmetry_equiv_pos_as_xyz
  1  'x, y, z'
loop_
 _atom_site_type_symbol
 _atom_site_label
 _atom_site_symmetry_multiplicity
 _atom_site_fract_x
 _atom_site_fract_y
 _atom_site_fract_z
 _atom_site_occupancy
  Tb  Tb0  1  0.189499  0.809912  0.809912  1
  Tb  Tb1  1  0.809529  0.190232  0.190232  1
  Tb  Tb2  1  0.809529  0.190232  0.810008  1
  Tb  Tb3  1  0.189499  0.809912  0.190678  1
  Tb  Tb4  1  0.809529  0.810008  0.190232  1
  Tb  Tb5  1  0.189499  0.190678  0.809912  1
  Lu  Lu6  1  0.599940  0.599362  0.599362  1
  Lu  Lu7  1  0.599940  0.599362  0.201335  1
  Lu  Lu8  1  0.599940  0.201335  0.599362  1
  Lu  Lu9  1  0.198345  0.600552  0.600552  1
  Lu  Lu10  1  0.060754  0.439135  0.439135  1
  Lu  Lu11  1  0.437959  0.061651  0.061651  1
  Lu  Lu12  1  0.437959  0.061651  0.438740  1
  Lu  Lu13  1  0.060754  0.439135  0.060975  1
  Lu  Lu14  1  0.437959  0.438740  0.061651  1
  Lu  Lu15  1  0.060754  0.060975  0.439135  1
  Cd  Cd16  1  0.510740  0.829753  0.829753  1
  Hg  Hg17  1  0.832996  0.834842  0.834842  1
  Hg  Hg18  1  0.832996  0.834842  0.497321  1
  Hg  Hg19  1  0.832996  0.497321  0.834842  1
  Ir  Ir20  1  0.391605  0.392385  0.392385  1
  Ir  Ir21  1  0.391605  0.392385  0.823625  1
  Ir  Ir22  1  0.391605  0.823625  0.392385  1
  Ir  Ir23  1  0.824068  0.391977  0.391977  1
