# generated using pymatgen
data_ZrAl3CuMo
_symmetry_space_group_name_H-M   'P 1'
_cell_length_a   5.00067960
_cell_length_b   5.00067987
_cell_length_c   5.00068031
_cell_angle_alpha   62.44180868
_cell_angle_beta   62.44181749
_cell_angle_gamma   62.44182810
_symmetry_Int_Tables_number   1
_chemical_formula_structural   ZrAl3CuMo
_chemical_formula_sum   'Zr1 Al3 Cu1 Mo1'
_cell_volume   93.23825871
_cell_formula_units_Z   1
loop_
 _symmetry_equiv_pos_site_id
 _symmetry_equiv_pos_as_xyz
  1  'x, y, z'
loop_
 _atom_site_type_symbol
 _atom_site_label
 _atom_site_symmetry_multiplicity
 _atom_site_fract_x
 _atom_site_fract_y
 _atom_site_fract_z
 _atom_site_occupancy
  Zr  Zr0  1  0.877451  0.877451  0.877451  1
  Al  Al1  1  0.002292  0.499048  0.499048  1
  Al  Al2  1  0.499048  0.499048  0.002292  1
  Al  Al3  1  0.499048  0.002292  0.499048  1
  Cu  Cu4  1  0.500953  0.500953  0.500953  1
  Mo  Mo5  1  0.121208  0.121208  0.121208  1
