# generated using pymatgen
data_Rb3Y(AsS4)2
_symmetry_space_group_name_H-M   'P 1'
_cell_length_a   9.33930876
_cell_length_b   10.30809343
_cell_length_c   10.99049520
_cell_angle_alpha   107.47773679
_cell_angle_beta   103.80169364
_cell_angle_gamma   113.40031609
_symmetry_Int_Tables_number   1
_chemical_formula_structural   Rb3Y(AsS4)2
_chemical_formula_sum   'Rb6 Y2 As4 S16'
_cell_volume   845.28704720
_cell_formula_units_Z   2
loop_
 _symmetry_equiv_pos_site_id
 _symmetry_equiv_pos_as_xyz
  1  'x, y, z'
loop_
 _atom_site_type_symbol
 _atom_site_label
 _atom_site_symmetry_multiplicity
 _atom_site_fract_x
 _atom_site_fract_y
 _atom_site_fract_z
 _atom_site_occupancy
  Rb  Rb0  1  0.000001  0.500001  0.000002  1
  Rb  Rb1  1  0.500001  0.500001  0.000001  1
  Rb  Rb2  1  0.264927  0.014934  0.029816  1
  Rb  Rb3  1  0.485210  0.735205  0.470412  1
  Rb  Rb4  1  0.514790  0.264793  0.529590  1
  Rb  Rb5  1  0.735073  0.985064  0.970180  1
  Y  Y6  1  0.997779  0.247724  0.495538  1
  Y  Y7  1  0.002220  0.752277  0.504462  1
  As  As8  1  0.749208  0.343630  0.252630  1
  As  As9  1  0.003313  0.908891  0.252486  1
  As  As10  1  0.996686  0.091109  0.747514  1
  As  As11  1  0.250792  0.656370  0.747371  1
  S  S12  1  0.642814  0.265514  0.030312  1
  S  S13  1  0.887505  0.764749  0.030204  1
  S  S14  1  0.121455  0.159512  0.297112  1
  S  S15  1  0.675680  0.137584  0.297165  1
  S  S16  1  0.029485  0.481398  0.348349  1
  S  S17  1  0.818825  0.866982  0.348293  1
  S  S18  1  0.197045  0.864250  0.359585  1
  S  S19  1  0.662501  0.495386  0.359639  1
  S  S20  1  0.337498  0.504615  0.640362  1
  S  S21  1  0.802957  0.135750  0.640416  1
  S  S22  1  0.181170  0.133013  0.651703  1
  S  S23  1  0.970516  0.518603  0.651651  1
  S  S24  1  0.324320  0.862415  0.702835  1
  S  S25  1  0.878546  0.840489  0.702889  1
  S  S26  1  0.112494  0.235250  0.969793  1
  S  S27  1  0.357186  0.734485  0.969688  1
