# generated using pymatgen
data_InNi3SnS2
_symmetry_space_group_name_H-M   'P 1'
_cell_length_a   5.46466569
_cell_length_b   5.46466643
_cell_length_c   5.46466677
_cell_angle_alpha   59.69111552
_cell_angle_beta   59.69111351
_cell_angle_gamma   59.69111011
_symmetry_Int_Tables_number   1
_chemical_formula_structural   InNi3SnS2
_chemical_formula_sum   'In1 Ni3 Sn1 S2'
_cell_volume   114.58239050
_cell_formula_units_Z   1
loop_
 _symmetry_equiv_pos_site_id
 _symmetry_equiv_pos_as_xyz
  1  'x, y, z'
loop_
 _atom_site_type_symbol
 _atom_site_label
 _atom_site_symmetry_multiplicity
 _atom_site_fract_x
 _atom_site_fract_y
 _atom_site_fract_z
 _atom_site_occupancy
  In  In0  1  0.500000  0.500000  0.500000  1
  Ni  Ni1  1  0.500000  0.500000  0.000000  1
  Ni  Ni2  1  0.000000  0.500000  0.500000  1
  Ni  Ni3  1  0.500000  0.000000  0.500000  1
  Sn  Sn4  1  0.000000  0.000000  0.000000  1
  S  S5  1  0.779909  0.779909  0.779909  1
  S  S6  1  0.220091  0.220091  0.220091  1
