# generated using pymatgen
data_TbGdB6Os
_symmetry_space_group_name_H-M   'P 1'
_cell_length_a   3.68444100
_cell_length_b   9.21485400
_cell_length_c   11.59740900
_cell_angle_alpha   90.00000000
_cell_angle_beta   90.00000000
_cell_angle_gamma   90.00000000
_symmetry_Int_Tables_number   1
_chemical_formula_structural   TbGdB6Os
_chemical_formula_sum   'Tb4 Gd4 B24 Os4'
_cell_volume   393.75042773
_cell_formula_units_Z   4
loop_
 _symmetry_equiv_pos_site_id
 _symmetry_equiv_pos_as_xyz
  1  'x, y, z'
loop_
 _atom_site_type_symbol
 _atom_site_label
 _atom_site_symmetry_multiplicity
 _atom_site_fract_x
 _atom_site_fract_y
 _atom_site_fract_z
 _atom_site_occupancy
  Tb  Tb0  1  0.000000  0.943931  0.372740  1
  Tb  Tb1  1  0.000000  0.056069  0.627260  1
  Tb  Tb2  1  0.000000  0.443931  0.127260  1
  Tb  Tb3  1  0.000000  0.556069  0.872740  1
  Gd  Gd4  1  0.000000  0.322949  0.414047  1
  Gd  Gd5  1  0.000000  0.677051  0.585953  1
  Gd  Gd6  1  0.000000  0.822949  0.085953  1
  Gd  Gd7  1  0.000000  0.177051  0.914047  1
  B  B8  1  0.500000  0.554288  0.432596  1
  B  B9  1  0.500000  0.445712  0.567404  1
  B  B10  1  0.500000  0.054288  0.067404  1
  B  B11  1  0.500000  0.945712  0.932596  1
  B  B12  1  0.500000  0.747643  0.419353  1
  B  B13  1  0.500000  0.252357  0.580647  1
  B  B14  1  0.500000  0.247643  0.080647  1
  B  B15  1  0.500000  0.752357  0.919353  1
  B  B16  1  0.500000  0.790496  0.266768  1
  B  B17  1  0.500000  0.209504  0.733232  1
  B  B18  1  0.500000  0.290496  0.233232  1
  B  B19  1  0.500000  0.709504  0.766768  1
  B  B20  1  0.500000  0.632105  0.185631  1
  B  B21  1  0.500000  0.367895  0.814369  1
  B  B22  1  0.500000  0.132105  0.314369  1
  B  B23  1  0.500000  0.867895  0.685631  1
  B  B24  1  0.500000  0.984626  0.212849  1
  B  B25  1  0.500000  0.015374  0.787151  1
  B  B26  1  0.500000  0.484626  0.287151  1
  B  B27  1  0.500000  0.515374  0.712849  1
  B  B28  1  0.500000  0.608648  0.030088  1
  B  B29  1  0.500000  0.391352  0.969912  1
  B  B30  1  0.500000  0.108648  0.469912  1
  B  B31  1  0.500000  0.891352  0.530088  1
  Os  Os32  1  0.000000  0.637702  0.321398  1
  Os  Os33  1  0.000000  0.362298  0.678602  1
  Os  Os34  1  0.000000  0.137702  0.178602  1
  Os  Os35  1  0.000000  0.862298  0.821398  1
