# generated using pymatgen
data_Rb3Sr(MnN2)4
_symmetry_space_group_name_H-M   'P 1'
_cell_length_a   6.55570998
_cell_length_b   6.55570943
_cell_length_c   7.86389424
_cell_angle_alpha   90.85526108
_cell_angle_beta   89.14474092
_cell_angle_gamma   127.98101525
_symmetry_Int_Tables_number   1
_chemical_formula_structural   Rb3Sr(MnN2)4
_chemical_formula_sum   'Rb3 Sr1 Mn4 N8'
_cell_volume   266.35553084
_cell_formula_units_Z   1
loop_
 _symmetry_equiv_pos_site_id
 _symmetry_equiv_pos_as_xyz
  1  'x, y, z'
loop_
 _atom_site_type_symbol
 _atom_site_label
 _atom_site_symmetry_multiplicity
 _atom_site_fract_x
 _atom_site_fract_y
 _atom_site_fract_z
 _atom_site_occupancy
  Rb  Rb0  1  0.833658  0.166342  0.559986  1
  Rb  Rb1  1  0.159188  0.840812  0.438747  1
  Rb  Rb2  1  0.664188  0.335812  0.066277  1
  Sr  Sr3  1  0.358467  0.641533  0.961411  1
  Mn  Mn4  1  0.538577  0.461423  0.634747  1
  Mn  Mn5  1  0.452708  0.547292  0.366602  1
  Mn  Mn6  1  0.960291  0.039709  0.132298  1
  Mn  Mn7  1  0.044564  0.955436  0.861127  1
  N  N8  1  0.897549  0.102451  0.923461  1
  N  N9  1  0.108144  0.891856  0.069053  1
  N  N10  1  0.597326  0.402674  0.422821  1
  N  N11  1  0.392347  0.607653  0.583567  1
  N  N12  1  0.326267  0.177831  0.748585  1
  N  N13  1  0.177391  0.332834  0.241367  1
  N  N14  1  0.667166  0.822609  0.241367  1
  N  N15  1  0.822169  0.673733  0.748585  1
