# generated using pymatgen
data_Yb3(CuIr2)2
_symmetry_space_group_name_H-M   'P 1'
_cell_length_a   5.22475156
_cell_length_b   5.20740785
_cell_length_c   13.00340191
_cell_angle_alpha   90.65123201
_cell_angle_beta   89.04495396
_cell_angle_gamma   119.04050366
_symmetry_Int_Tables_number   1
_chemical_formula_structural   Yb3(CuIr2)2
_chemical_formula_sum   'Yb6 Cu4 Ir8'
_cell_volume   309.26429037
_cell_formula_units_Z   2
loop_
 _symmetry_equiv_pos_site_id
 _symmetry_equiv_pos_as_xyz
  1  'x, y, z'
loop_
 _atom_site_type_symbol
 _atom_site_label
 _atom_site_symmetry_multiplicity
 _atom_site_fract_x
 _atom_site_fract_y
 _atom_site_fract_z
 _atom_site_occupancy
  Yb  Yb0  1  0.335300  0.674218  0.917107  1
  Yb  Yb1  1  0.988919  0.990808  0.251571  1
  Yb  Yb2  1  0.663649  0.335909  0.584212  1
  Yb  Yb3  1  0.336351  0.664091  0.665788  1
  Yb  Yb4  1  0.011081  0.009192  0.998429  1
  Yb  Yb5  1  0.664700  0.325782  0.332893  1
  Cu  Cu6  1  0.500000  0.500000  0.125000  1
  Cu  Cu7  1  0.166097  0.832130  0.456461  1
  Cu  Cu8  1  0.833903  0.167870  0.793539  1
  Cu  Cu9  1  0.500000  0.000000  0.125000  1
  Ir  Ir10  1  0.163232  0.331427  0.454648  1
  Ir  Ir11  1  0.836768  0.668573  0.795352  1
  Ir  Ir12  1  0.328561  0.658778  0.288267  1
  Ir  Ir13  1  0.000000  0.000000  0.625000  1
  Ir  Ir14  1  0.671439  0.341222  0.961733  1
  Ir  Ir15  1  0.000000  0.500000  0.125000  1
  Ir  Ir16  1  0.666062  0.831986  0.458004  1
  Ir  Ir17  1  0.333938  0.168014  0.791996  1
