# generated using pymatgen
data_Sm2Th(InRh)3
_symmetry_space_group_name_H-M   'P 1'
_cell_length_a   7.62211473
_cell_length_b   7.80269194
_cell_length_c   3.95793000
_cell_angle_alpha   90.00000000
_cell_angle_beta   90.00000000
_cell_angle_gamma   120.78683312
_symmetry_Int_Tables_number   1
_chemical_formula_structural   Sm2Th(InRh)3
_chemical_formula_sum   'Sm2 Th1 In3 Rh3'
_cell_volume   202.21828310
_cell_formula_units_Z   1
loop_
 _symmetry_equiv_pos_site_id
 _symmetry_equiv_pos_as_xyz
  1  'x, y, z'
loop_
 _atom_site_type_symbol
 _atom_site_label
 _atom_site_symmetry_multiplicity
 _atom_site_fract_x
 _atom_site_fract_y
 _atom_site_fract_z
 _atom_site_occupancy
  Sm  Sm0  1  0.591778  0.589956  0.500000  1
  Sm  Sm1  1  0.408222  0.998178  0.500000  1
  Th  Th2  1  0.000000  0.416449  0.500000  1
  In  In3  1  0.265535  0.253295  0.000000  1
  In  In4  1  0.000000  0.760511  0.000000  1
  In  In5  1  0.734465  0.987760  0.000000  1
  Rh  Rh6  1  0.309137  0.645142  0.000000  1
  Rh  Rh7  1  0.000000  0.012704  0.500000  1
  Rh  Rh8  1  0.690863  0.336004  0.000000  1
