# generated using pymatgen
data_La2Yb(HoSi2)2
_symmetry_space_group_name_H-M   'P 1'
_cell_length_a   7.52922400
_cell_length_b   7.90071000
_cell_length_c   14.99051600
_cell_angle_alpha   90.00000000
_cell_angle_beta   90.00000000
_cell_angle_gamma   90.00000000
_symmetry_Int_Tables_number   1
_chemical_formula_structural   La2Yb(HoSi2)2
_chemical_formula_sum   'La8 Yb4 Ho8 Si16'
_cell_volume   891.72906297
_cell_formula_units_Z   4
loop_
 _symmetry_equiv_pos_site_id
 _symmetry_equiv_pos_as_xyz
  1  'x, y, z'
loop_
 _atom_site_type_symbol
 _atom_site_label
 _atom_site_symmetry_multiplicity
 _atom_site_fract_x
 _atom_site_fract_y
 _atom_site_fract_z
 _atom_site_occupancy
  La  La0  1  0.975030  0.820341  0.098964  1
  La  La1  1  0.475030  0.679659  0.401036  1
  La  La2  1  0.524970  0.320341  0.901036  1
  La  La3  1  0.024970  0.179659  0.598964  1
  La  La4  1  0.024970  0.179659  0.901036  1
  La  La5  1  0.524970  0.320341  0.598964  1
  La  La6  1  0.475030  0.679659  0.098964  1
  La  La7  1  0.975030  0.820341  0.401036  1
  Yb  Yb8  1  0.651826  0.989322  0.250000  1
  Yb  Yb9  1  0.151826  0.510678  0.250000  1
  Yb  Yb10  1  0.848174  0.489322  0.750000  1
  Yb  Yb11  1  0.348174  0.010678  0.750000  1
  Ho  Ho12  1  0.679241  0.819065  0.876847  1
  Ho  Ho13  1  0.179241  0.680935  0.623153  1
  Ho  Ho14  1  0.820759  0.319065  0.123153  1
  Ho  Ho15  1  0.320759  0.180935  0.376847  1
  Ho  Ho16  1  0.320759  0.180935  0.123153  1
  Ho  Ho17  1  0.820759  0.319065  0.376847  1
  Ho  Ho18  1  0.179241  0.680935  0.876847  1
  Ho  Ho19  1  0.679241  0.819065  0.623153  1
  Si  Si20  1  0.763670  0.607720  0.250000  1
  Si  Si21  1  0.263670  0.892280  0.250000  1
  Si  Si22  1  0.736330  0.107720  0.750000  1
  Si  Si23  1  0.236330  0.392280  0.750000  1
  Si  Si24  1  0.030038  0.111681  0.250000  1
  Si  Si25  1  0.530038  0.388319  0.250000  1
  Si  Si26  1  0.469962  0.611681  0.750000  1
  Si  Si27  1  0.969962  0.888319  0.750000  1
  Si  Si28  1  0.853843  0.532461  0.964526  1
  Si  Si29  1  0.353843  0.967539  0.535474  1
  Si  Si30  1  0.646157  0.032461  0.035474  1
  Si  Si31  1  0.146157  0.467539  0.464526  1
  Si  Si32  1  0.146157  0.467539  0.035474  1
  Si  Si33  1  0.646157  0.032461  0.464526  1
  Si  Si34  1  0.353843  0.967539  0.964526  1
  Si  Si35  1  0.853843  0.532461  0.535474  1
