# generated using pymatgen
data_Li2Nb4Se4O19
_symmetry_space_group_name_H-M   'P 1'
_cell_length_a   4.03424136
_cell_length_b   10.39896492
_cell_length_c   11.31247118
_cell_angle_alpha   109.77766249
_cell_angle_beta   91.23605624
_cell_angle_gamma   97.28319299
_symmetry_Int_Tables_number   1
_chemical_formula_structural   Li2Nb4Se4O19
_chemical_formula_sum   'Li2 Nb4 Se4 O19'
_cell_volume   441.92486132
_cell_formula_units_Z   1
loop_
 _symmetry_equiv_pos_site_id
 _symmetry_equiv_pos_as_xyz
  1  'x, y, z'
loop_
 _atom_site_type_symbol
 _atom_site_label
 _atom_site_symmetry_multiplicity
 _atom_site_fract_x
 _atom_site_fract_y
 _atom_site_fract_z
 _atom_site_occupancy
  Li  Li0  1  0.630822  0.927722  0.876804  1
  Li  Li1  1  0.369178  0.072278  0.123196  1
  Nb  Nb2  1  0.344070  0.200081  0.699728  1
  Nb  Nb3  1  0.655930  0.799919  0.300272  1
  Nb  Nb4  1  0.578305  0.564568  0.682540  1
  Nb  Nb5  1  0.421695  0.435432  0.317460  1
  Se  Se6  1  0.354506  0.833606  0.591049  1
  Se  Se7  1  0.645494  0.166394  0.408951  1
  Se  Se8  1  0.287929  0.722718  0.986866  1
  Se  Se9  1  0.712071  0.277282  0.013134  1
  O  O10  1  0.653852  0.872181  0.493563  1
  O  O11  1  0.346148  0.127819  0.506437  1
  O  O12  1  0.333899  0.994764  0.698072  1
  O  O13  1  0.666101  0.005236  0.301928  1
  O  O14  1  0.602656  0.782317  0.689199  1
  O  O15  1  0.397344  0.217683  0.310801  1
  O  O16  1  0.582065  0.673045  0.875774  1
  O  O17  1  0.417935  0.326955  0.124226  1
  O  O18  1  0.582402  0.749733  0.114038  1
  O  O19  1  0.417598  0.250267  0.885962  1
  O  O20  1  0.271347  0.885213  0.988502  1
  O  O21  1  0.728653  0.114787  0.011498  1
  O  O22  1  0.891629  0.193886  0.697414  1
  O  O23  1  0.108371  0.806114  0.302586  1
  O  O24  1  0.469727  0.387923  0.701179  1
  O  O25  1  0.530273  0.612077  0.298821  1
  O  O26  1  0.500000  0.500000  0.500000  1
  O  O27  1  0.037283  0.584289  0.693357  1
  O  O28  1  0.962717  0.415711  0.306643  1
