# generated using pymatgen
data_Tb8Er8Cd4Ir3Ru
_symmetry_space_group_name_H-M   'P 1'
_cell_length_a   9.62353258
_cell_length_b   9.62353276
_cell_length_c   9.62834004
_cell_angle_alpha   59.70995892
_cell_angle_beta   59.70994934
_cell_angle_gamma   59.80831706
_symmetry_Int_Tables_number   1
_chemical_formula_structural   Tb8Er8Cd4Ir3Ru
_chemical_formula_sum   'Tb8 Er8 Cd4 Ir3 Ru1'
_cell_volume   626.84475960
_cell_formula_units_Z   1
loop_
 _symmetry_equiv_pos_site_id
 _symmetry_equiv_pos_as_xyz
  1  'x, y, z'
loop_
 _atom_site_type_symbol
 _atom_site_label
 _atom_site_symmetry_multiplicity
 _atom_site_fract_x
 _atom_site_fract_y
 _atom_site_fract_z
 _atom_site_occupancy
  Tb  Tb0  1  0.438054  0.438054  0.062911  1
  Tb  Tb1  1  0.060828  0.060828  0.437616  1
  Tb  Tb2  1  0.188926  0.811204  0.811289  1
  Tb  Tb3  1  0.809670  0.188650  0.188506  1
  Tb  Tb4  1  0.811204  0.188926  0.811289  1
  Tb  Tb5  1  0.188650  0.809670  0.188506  1
  Tb  Tb6  1  0.811192  0.811192  0.189020  1
  Tb  Tb7  1  0.188708  0.188708  0.809651  1
  Er  Er8  1  0.598740  0.598740  0.598203  1
  Er  Er9  1  0.598222  0.598222  0.207844  1
  Er  Er10  1  0.597258  0.207638  0.598196  1
  Er  Er11  1  0.207638  0.597258  0.598196  1
  Er  Er12  1  0.061881  0.438498  0.438378  1
  Er  Er13  1  0.437907  0.060541  0.060495  1
  Er  Er14  1  0.438498  0.061881  0.438378  1
  Er  Er15  1  0.060541  0.437907  0.060495  1
  Cd  Cd16  1  0.829492  0.829492  0.830009  1
  Cd  Cd17  1  0.830212  0.830212  0.508067  1
  Cd  Cd18  1  0.830664  0.508158  0.830108  1
  Cd  Cd19  1  0.508158  0.830664  0.830108  1
  Ir  Ir20  1  0.392647  0.392647  0.825593  1
  Ir  Ir21  1  0.394271  0.825449  0.392824  1
  Ir  Ir22  1  0.825449  0.394271  0.392824  1
  Ru  Ru23  1  0.391190  0.391190  0.391493  1
