# generated using pymatgen
data_Ca4PrNd3(ReC2)4
_symmetry_space_group_name_H-M   'P 1'
_cell_length_a   5.27614200
_cell_length_b   6.61970777
_cell_length_c   10.50704421
_cell_angle_alpha   90.05513828
_cell_angle_beta   90.00000000
_cell_angle_gamma   90.00000000
_symmetry_Int_Tables_number   1
_chemical_formula_structural   Ca4PrNd3(ReC2)4
_chemical_formula_sum   'Ca4 Pr1 Nd3 Re4 C8'
_cell_volume   366.97430084
_cell_formula_units_Z   1
loop_
 _symmetry_equiv_pos_site_id
 _symmetry_equiv_pos_as_xyz
  1  'x, y, z'
loop_
 _atom_site_type_symbol
 _atom_site_label
 _atom_site_symmetry_multiplicity
 _atom_site_fract_x
 _atom_site_fract_y
 _atom_site_fract_z
 _atom_site_occupancy
  Ca  Ca0  1  0.250000  0.463798  0.774877  1
  Ca  Ca1  1  0.750000  0.036339  0.275428  1
  Ca  Ca2  1  0.250000  0.964013  0.724346  1
  Ca  Ca3  1  0.750000  0.535742  0.225266  1
  Pr  Pr4  1  0.250000  0.800874  0.049565  1
  Nd  Nd5  1  0.750000  0.696690  0.550314  1
  Nd  Nd6  1  0.250000  0.303198  0.449896  1
  Nd  Nd7  1  0.750000  0.197307  0.949424  1
  Re  Re8  1  0.250000  0.270807  0.146216  1
  Re  Re9  1  0.750000  0.229234  0.645607  1
  Re  Re10  1  0.250000  0.770724  0.354573  1
  Re  Re11  1  0.750000  0.729389  0.853681  1
  C  C12  1  0.250000  0.694010  0.528143  1
  C  C13  1  0.750000  0.806253  0.027348  1
  C  C14  1  0.250000  0.195809  0.972140  1
  C  C15  1  0.750000  0.306145  0.471990  1
  C  C16  1  0.250000  0.035197  0.258176  1
  C  C17  1  0.750000  0.465013  0.757551  1
  C  C18  1  0.250000  0.534120  0.243293  1
  C  C19  1  0.750000  0.965338  0.742167  1
