# generated using pymatgen
data_Rb5CuAs2
_symmetry_space_group_name_H-M   'P 1'
_cell_length_a   6.05781100
_cell_length_b   6.05781143
_cell_length_c   19.48549000
_cell_angle_alpha   90.00000000
_cell_angle_beta   90.00000000
_cell_angle_gamma   119.99999220
_symmetry_Int_Tables_number   1
_chemical_formula_structural   Rb5CuAs2
_chemical_formula_sum   'Rb10 Cu2 As4'
_cell_volume   619.26062520
_cell_formula_units_Z   2
loop_
 _symmetry_equiv_pos_site_id
 _symmetry_equiv_pos_as_xyz
  1  'x, y, z'
loop_
 _atom_site_type_symbol
 _atom_site_label
 _atom_site_symmetry_multiplicity
 _atom_site_fract_x
 _atom_site_fract_y
 _atom_site_fract_z
 _atom_site_occupancy
  Rb  Rb0  1  0.333333  0.666667  0.549078  1
  Rb  Rb1  1  0.666667  0.333333  0.049078  1
  Rb  Rb2  1  0.666667  0.333333  0.450922  1
  Rb  Rb3  1  0.333333  0.666667  0.950922  1
  Rb  Rb4  1  0.000000  0.000000  0.145668  1
  Rb  Rb5  1  0.000000  0.000000  0.645668  1
  Rb  Rb6  1  0.000000  0.000000  0.854332  1
  Rb  Rb7  1  0.000000  0.000000  0.354332  1
  Rb  Rb8  1  0.333333  0.666667  0.750000  1
  Rb  Rb9  1  0.666667  0.333333  0.250000  1
  Cu  Cu10  1  0.333333  0.666667  0.250000  1
  Cu  Cu11  1  0.666667  0.333333  0.750000  1
  As  As12  1  0.333333  0.666667  0.370702  1
  As  As13  1  0.666667  0.333333  0.870702  1
  As  As14  1  0.666667  0.333333  0.629298  1
  As  As15  1  0.333333  0.666667  0.129298  1
