# generated using pymatgen
data_Ti13Al9Fe3Ir5
_symmetry_space_group_name_H-M   'P 1'
_cell_length_a   8.63547200
_cell_length_b   8.68663671
_cell_length_c   8.63547078
_cell_angle_alpha   59.64698326
_cell_angle_beta   60.14711157
_cell_angle_gamma   59.64699597
_symmetry_Int_Tables_number   1
_chemical_formula_structural   Ti13Al9Fe3Ir5
_chemical_formula_sum   'Ti13 Al9 Fe3 Ir5'
_cell_volume   456.08524959
_cell_formula_units_Z   1
loop_
 _symmetry_equiv_pos_site_id
 _symmetry_equiv_pos_as_xyz
  1  'x, y, z'
loop_
 _atom_site_type_symbol
 _atom_site_label
 _atom_site_symmetry_multiplicity
 _atom_site_fract_x
 _atom_site_fract_y
 _atom_site_fract_z
 _atom_site_occupancy
  Ti  Ti0  1  0.205219  0.206731  0.797548  1
  Ti  Ti1  1  0.797548  0.206731  0.205219  1
  Ti  Ti2  1  0.206491  0.796125  0.206491  1
  Ti  Ti3  1  0.805077  0.803542  0.177373  1
  Ti  Ti4  1  0.177373  0.803542  0.805077  1
  Ti  Ti5  1  0.804425  0.177954  0.804425  1
  Ti  Ti6  1  0.385050  0.375325  0.385050  1
  Ti  Ti7  1  0.386251  0.855641  0.386251  1
  Ti  Ti8  1  0.854806  0.383009  0.384742  1
  Ti  Ti9  1  0.384742  0.383009  0.854806  1
  Ti  Ti10  1  0.844914  0.466151  0.844914  1
  Ti  Ti11  1  0.466372  0.851081  0.832352  1
  Ti  Ti12  1  0.832352  0.851081  0.466372  1
  Al  Al13  1  0.158958  0.157774  0.158958  1
  Al  Al14  1  0.161221  0.523417  0.161221  1
  Al  Al15  1  0.525043  0.155046  0.170345  1
  Al  Al16  1  0.170345  0.155046  0.525043  1
  Al  Al17  1  0.616068  0.620531  0.616068  1
  Al  Al18  1  0.615579  0.149278  0.615579  1
  Al  Al19  1  0.148777  0.619217  0.614234  1
  Al  Al20  1  0.614234  0.619217  0.148777  1
  Al  Al21  1  0.826424  0.828422  0.826424  1
  Fe  Fe22  1  0.502304  0.000599  0.502304  1
  Fe  Fe23  1  0.500596  0.500244  0.500596  1
  Fe  Fe24  1  0.003370  0.003268  0.003370  1
  Ir  Ir25  1  0.002730  0.004270  0.500065  1
  Ir  Ir26  1  0.500065  0.004270  0.002730  1
  Ir  Ir27  1  0.003035  0.500024  0.003035  1
  Ir  Ir28  1  0.500192  0.499728  0.000438  1
  Ir  Ir29  1  0.000438  0.499728  0.500192  1
