# generated using pymatgen
data_Sc22CoRu7
_symmetry_space_group_name_H-M   'P 1'
_cell_length_a   9.45260606
_cell_length_b   9.45260634
_cell_length_c   9.45260500
_cell_angle_alpha   60.00000117
_cell_angle_beta   60.00000022
_cell_angle_gamma   60.00000312
_symmetry_Int_Tables_number   1
_chemical_formula_structural   Sc22CoRu7
_chemical_formula_sum   'Sc22 Co1 Ru7'
_cell_volume   597.22730850
_cell_formula_units_Z   1
loop_
 _symmetry_equiv_pos_site_id
 _symmetry_equiv_pos_as_xyz
  1  'x, y, z'
loop_
 _atom_site_type_symbol
 _atom_site_label
 _atom_site_symmetry_multiplicity
 _atom_site_fract_x
 _atom_site_fract_y
 _atom_site_fract_z
 _atom_site_occupancy
  Sc  Sc0  1  0.843035  0.843035  0.843035  1
  Sc  Sc1  1  0.529105  0.156965  0.156965  1
  Sc  Sc2  1  0.156965  0.156965  0.529105  1
  Sc  Sc3  1  0.156965  0.529105  0.156965  1
  Sc  Sc4  1  0.843035  0.843035  0.470895  1
  Sc  Sc5  1  0.843035  0.470895  0.843035  1
  Sc  Sc6  1  0.470895  0.843035  0.843035  1
  Sc  Sc7  1  0.156965  0.156965  0.156965  1
  Sc  Sc8  1  0.197742  0.802258  0.197742  1
  Sc  Sc9  1  0.197742  0.802258  0.802258  1
  Sc  Sc10  1  0.802258  0.197742  0.197742  1
  Sc  Sc11  1  0.802258  0.802258  0.197742  1
  Sc  Sc12  1  0.197742  0.197742  0.802258  1
  Sc  Sc13  1  0.802258  0.197742  0.802258  1
  Sc  Sc14  1  0.384910  0.384910  0.384910  1
  Sc  Sc15  1  0.154731  0.615090  0.615090  1
  Sc  Sc16  1  0.615090  0.154731  0.615090  1
  Sc  Sc17  1  0.615090  0.615090  0.154731  1
  Sc  Sc18  1  0.384910  0.845269  0.384910  1
  Sc  Sc19  1  0.384910  0.384910  0.845269  1
  Sc  Sc20  1  0.845269  0.384910  0.384910  1
  Sc  Sc21  1  0.615090  0.615090  0.615090  1
  Co  Co22  1  0.500000  0.500000  0.500000  1
  Ru  Ru23  1  0.500000  0.500000  0.000000  1
  Ru  Ru24  1  0.000000  0.000000  0.500000  1
  Ru  Ru25  1  0.500000  0.000000  0.500000  1
  Ru  Ru26  1  0.000000  0.500000  0.500000  1
  Ru  Ru27  1  0.500000  0.000000  0.000000  1
  Ru  Ru28  1  0.000000  0.500000  0.000000  1
  Ru  Ru29  1  0.000000  0.000000  0.000000  1
