# generated using pymatgen
data_Y5Cr3Co15NiAs12
_symmetry_space_group_name_H-M   'P 1'
_cell_length_a   12.52105700
_cell_length_b   12.52105600
_cell_length_c   3.81122700
_cell_angle_alpha   90.00000000
_cell_angle_beta   90.00000000
_cell_angle_gamma   120.00000529
_symmetry_Int_Tables_number   1
_chemical_formula_structural   Y5Cr3Co15NiAs12
_chemical_formula_sum   'Y5 Cr3 Co15 Ni1 As12'
_cell_volume   517.46070463
_cell_formula_units_Z   1
loop_
 _symmetry_equiv_pos_site_id
 _symmetry_equiv_pos_as_xyz
  1  'x, y, z'
loop_
 _atom_site_type_symbol
 _atom_site_label
 _atom_site_symmetry_multiplicity
 _atom_site_fract_x
 _atom_site_fract_y
 _atom_site_fract_z
 _atom_site_occupancy
  Y  Y0  1  0.188222  0.188222  0.500000  1
  Y  Y1  1  0.811778  0.000000  0.500000  1
  Y  Y2  1  0.000000  0.811778  0.500000  1
  Y  Y3  1  0.333333  0.666667  0.000000  1
  Y  Y4  1  0.666667  0.333333  0.000000  1
  Cr  Cr5  1  0.562025  0.562025  0.000000  1
  Cr  Cr6  1  0.437975  0.000000  0.000000  1
  Cr  Cr7  1  0.000000  0.437975  0.000000  1
  Co  Co8  1  0.715329  0.715329  0.500000  1
  Co  Co9  1  0.284671  0.000000  0.500000  1
  Co  Co10  1  0.000000  0.284671  0.500000  1
  Co  Co11  1  0.178999  0.376692  0.000000  1
  Co  Co12  1  0.623308  0.802308  0.000000  1
  Co  Co13  1  0.197692  0.821001  0.000000  1
  Co  Co14  1  0.802308  0.623308  0.000000  1
  Co  Co15  1  0.821001  0.197692  0.000000  1
  Co  Co16  1  0.376692  0.178999  0.000000  1
  Co  Co17  1  0.358304  0.481582  0.500000  1
  Co  Co18  1  0.518418  0.876723  0.500000  1
  Co  Co19  1  0.123277  0.641696  0.500000  1
  Co  Co20  1  0.876723  0.518418  0.500000  1
  Co  Co21  1  0.641696  0.123277  0.500000  1
  Co  Co22  1  0.481582  0.358304  0.500000  1
  Ni  Ni23  1  0.000000  0.000000  0.000000  1
  As  As24  1  0.820185  0.820185  0.000000  1
  As  As25  1  0.179815  0.000000  0.000000  1
  As  As26  1  0.000000  0.179815  0.000000  1
  As  As27  1  0.167586  0.481533  0.500000  1
  As  As28  1  0.518467  0.686052  0.500000  1
  As  As29  1  0.313948  0.832414  0.500000  1
  As  As30  1  0.686052  0.518467  0.500000  1
  As  As31  1  0.832414  0.313948  0.500000  1
  As  As32  1  0.481533  0.167586  0.500000  1
  As  As33  1  0.364429  0.364429  0.000000  1
  As  As34  1  0.635571  0.000000  0.000000  1
  As  As35  1  0.000000  0.635571  0.000000  1
