# generated using pymatgen
data_Tb11Pr5Cd4PdRu3
_symmetry_space_group_name_H-M   'P 1'
_cell_length_a   9.80672831
_cell_length_b   9.83656438
_cell_length_c   9.83656333
_cell_angle_alpha   59.58217672
_cell_angle_beta   59.50265889
_cell_angle_gamma   59.50266471
_symmetry_Int_Tables_number   1
_chemical_formula_structural   Tb11Pr5Cd4PdRu3
_chemical_formula_sum   'Tb11 Pr5 Cd4 Pd1 Ru3'
_cell_volume   663.77476243
_cell_formula_units_Z   1
loop_
 _symmetry_equiv_pos_site_id
 _symmetry_equiv_pos_as_xyz
  1  'x, y, z'
loop_
 _atom_site_type_symbol
 _atom_site_label
 _atom_site_symmetry_multiplicity
 _atom_site_fract_x
 _atom_site_fract_y
 _atom_site_fract_z
 _atom_site_occupancy
  Tb  Tb0  1  0.342859  0.350670  0.350670  1
  Tb  Tb1  1  0.342179  0.352053  0.957808  1
  Tb  Tb2  1  0.342179  0.957808  0.352053  1
  Tb  Tb3  1  0.964994  0.345498  0.345498  1
  Tb  Tb4  1  0.818013  0.187737  0.187737  1
  Tb  Tb5  1  0.185118  0.813396  0.813396  1
  Tb  Tb6  1  0.185890  0.811369  0.188690  1
  Tb  Tb7  1  0.818904  0.189301  0.804595  1
  Tb  Tb8  1  0.185890  0.188690  0.811369  1
  Tb  Tb9  1  0.818904  0.804595  0.189301  1
  Tb  Tb10  1  0.939806  0.558003  0.558003  1
  Pr  Pr11  1  0.554616  0.941797  0.941797  1
  Pr  Pr12  1  0.558166  0.936910  0.563942  1
  Pr  Pr13  1  0.939372  0.558494  0.939766  1
  Pr  Pr14  1  0.558166  0.563942  0.936910  1
  Pr  Pr15  1  0.939372  0.939766  0.558494  1
  Cd  Cd16  1  0.582293  0.578175  0.578175  1
  Cd  Cd17  1  0.579013  0.578820  0.262804  1
  Cd  Cd18  1  0.579013  0.262804  0.578820  1
  Cd  Cd19  1  0.259452  0.578977  0.578977  1
  Pd  Pd20  1  0.575501  0.141848  0.141848  1
  Ru  Ru21  1  0.144040  0.138376  0.138376  1
  Ru  Ru22  1  0.143128  0.142923  0.578048  1
  Ru  Ru23  1  0.143128  0.578048  0.142923  1
