# generated using pymatgen
data_Pm4Pt3Au
_symmetry_space_group_name_H-M   'P 1'
_cell_length_a   7.27882558
_cell_length_b   5.76657294
_cell_length_c   4.66117900
_cell_angle_alpha   90.00000000
_cell_angle_beta   90.00000000
_cell_angle_gamma   89.70794084
_symmetry_Int_Tables_number   1
_chemical_formula_structural   Pm4Pt3Au
_chemical_formula_sum   'Pm4 Pt3 Au1'
_cell_volume   195.64521975
_cell_formula_units_Z   1
loop_
 _symmetry_equiv_pos_site_id
 _symmetry_equiv_pos_as_xyz
  1  'x, y, z'
loop_
 _atom_site_type_symbol
 _atom_site_label
 _atom_site_symmetry_multiplicity
 _atom_site_fract_x
 _atom_site_fract_y
 _atom_site_fract_z
 _atom_site_occupancy
  Pm  Pm0  1  0.107570  0.508731  0.000000  1
  Pm  Pm1  1  0.591564  0.737065  0.000000  1
  Pm  Pm2  1  0.235567  0.019277  0.499999  1
  Pm  Pm3  1  0.728727  0.230277  0.499999  1
  Pt  Pt4  1  0.461550  0.222498  0.000000  1
  Pt  Pt5  1  0.958834  0.026707  0.000000  1
  Pt  Pt6  1  0.374255  0.533011  0.499999  1
  Au  Au7  1  0.875265  0.722435  0.499999  1
