# generated using pymatgen
data_Ho2Er6Ti11Si16Ir
_symmetry_space_group_name_H-M   'P 1'
_cell_length_a   7.00619999
_cell_length_b   7.00595214
_cell_length_c   12.81936911
_cell_angle_alpha   90.11921977
_cell_angle_beta   89.87504204
_cell_angle_gamma   89.81936303
_symmetry_Int_Tables_number   1
_chemical_formula_structural   Ho2Er6Ti11Si16Ir
_chemical_formula_sum   'Ho2 Er6 Ti11 Si16 Ir1'
_cell_volume   629.23404258
_cell_formula_units_Z   1
loop_
 _symmetry_equiv_pos_site_id
 _symmetry_equiv_pos_as_xyz
  1  'x, y, z'
loop_
 _atom_site_type_symbol
 _atom_site_label
 _atom_site_symmetry_multiplicity
 _atom_site_fract_x
 _atom_site_fract_y
 _atom_site_fract_z
 _atom_site_occupancy
  Ho  Ho0  1  0.340966  0.004319  0.467315  1
  Ho  Ho1  1  0.496293  0.841593  0.718196  1
  Er  Er2  1  0.500881  0.157634  0.214766  1
  Er  Er3  1  0.841762  0.496469  0.281780  1
  Er  Er4  1  0.157615  0.500887  0.785243  1
  Er  Er5  1  0.656922  0.997819  0.968708  1
  Er  Er6  1  0.004121  0.341191  0.532660  1
  Er  Er7  1  0.997776  0.656951  0.031264  1
  Ti  Ti8  1  0.175214  0.826995  0.247926  1
  Ti  Ti9  1  0.827182  0.175244  0.752075  1
  Ti  Ti10  1  0.674182  0.673961  0.499955  1
  Ti  Ti11  1  0.148495  0.001538  0.875557  1
  Ti  Ti12  1  0.493633  0.656313  0.124837  1
  Ti  Ti13  1  0.506660  0.350314  0.628356  1
  Ti  Ti14  1  0.656392  0.493634  0.875226  1
  Ti  Ti15  1  0.350372  0.506576  0.371624  1
  Ti  Ti16  1  0.849549  0.994728  0.374685  1
  Ti  Ti17  1  0.001388  0.148572  0.124536  1
  Ti  Ti18  1  0.994633  0.849521  0.625276  1
  Si  Si19  1  0.202469  0.134153  0.685172  1
  Si  Si20  1  0.371616  0.701750  0.933263  1
  Si  Si21  1  0.632107  0.296181  0.433890  1
  Si  Si22  1  0.701763  0.371659  0.066862  1
  Si  Si23  1  0.295725  0.631541  0.565983  1
  Si  Si24  1  0.796151  0.866548  0.183359  1
  Si  Si25  1  0.133875  0.202908  0.314802  1
  Si  Si26  1  0.866901  0.796141  0.816695  1
  Si  Si27  1  0.286132  0.951527  0.063803  1
  Si  Si28  1  0.547730  0.792684  0.315633  1
  Si  Si29  1  0.449045  0.209425  0.818609  1
  Si  Si30  1  0.793029  0.547521  0.684272  1
  Si  Si31  1  0.209160  0.449185  0.181503  1
  Si  Si32  1  0.708660  0.048582  0.565803  1
  Si  Si33  1  0.951585  0.286114  0.936189  1
  Si  Si34  1  0.048258  0.708062  0.434166  1
  Ir  Ir35  1  0.331757  0.331762  0.000010  1
