# generated using pymatgen
data_YbTaNbN3
_symmetry_space_group_name_H-M   'P 1'
_cell_length_a   5.37656100
_cell_length_b   5.37655965
_cell_length_c   10.59775000
_cell_angle_alpha   90.00000000
_cell_angle_beta   90.00000000
_cell_angle_gamma   119.88449916
_symmetry_Int_Tables_number   1
_chemical_formula_structural   YbTaNbN3
_chemical_formula_sum   'Yb4 Ta4 Nb4 N12'
_cell_volume   265.61807907
_cell_formula_units_Z   4
loop_
 _symmetry_equiv_pos_site_id
 _symmetry_equiv_pos_as_xyz
  1  'x, y, z'
loop_
 _atom_site_type_symbol
 _atom_site_label
 _atom_site_symmetry_multiplicity
 _atom_site_fract_x
 _atom_site_fract_y
 _atom_site_fract_z
 _atom_site_occupancy
  Yb  Yb0  1  0.334348  0.665652  0.000000  1
  Yb  Yb1  1  0.334348  0.665652  0.500000  1
  Yb  Yb2  1  0.666371  0.333629  0.500000  1
  Yb  Yb3  1  0.666371  0.333629  0.000000  1
  Ta  Ta4  1  0.999186  0.000814  0.500000  1
  Ta  Ta5  1  0.999186  0.000814  0.000000  1
  Ta  Ta6  1  0.339026  0.999584  0.250000  1
  Ta  Ta7  1  0.000416  0.660974  0.750000  1
  Nb  Nb8  1  0.999654  0.338571  0.250000  1
  Nb  Nb9  1  0.661429  0.000346  0.750000  1
  Nb  Nb10  1  0.338520  0.338392  0.750000  1
  Nb  Nb11  1  0.661608  0.661480  0.250000  1
  N  N12  1  0.690515  0.686448  0.626935  1
  N  N13  1  0.690515  0.686448  0.873065  1
  N  N14  1  0.313552  0.309485  0.126935  1
  N  N15  1  0.313552  0.309485  0.373065  1
  N  N16  1  0.309314  0.995772  0.873218  1
  N  N17  1  0.309314  0.995772  0.626782  1
  N  N18  1  0.004228  0.690686  0.373218  1
  N  N19  1  0.004228  0.690686  0.126782  1
  N  N20  1  0.682236  0.000074  0.126772  1
  N  N21  1  0.682236  0.000074  0.373228  1
  N  N22  1  0.999926  0.317764  0.873228  1
  N  N23  1  0.999926  0.317764  0.626772  1
