# generated using pymatgen
data_Mg2SnPt5
_symmetry_space_group_name_H-M   'P 1'
_cell_length_a   4.12241800
_cell_length_b   5.66617200
_cell_length_c   11.17530400
_cell_angle_alpha   90.00000000
_cell_angle_beta   90.00000000
_cell_angle_gamma   90.00000000
_symmetry_Int_Tables_number   1
_chemical_formula_structural   Mg2SnPt5
_chemical_formula_sum   'Mg4 Sn2 Pt10'
_cell_volume   261.03643247
_cell_formula_units_Z   2
loop_
 _symmetry_equiv_pos_site_id
 _symmetry_equiv_pos_as_xyz
  1  'x, y, z'
loop_
 _atom_site_type_symbol
 _atom_site_label
 _atom_site_symmetry_multiplicity
 _atom_site_fract_x
 _atom_site_fract_y
 _atom_site_fract_z
 _atom_site_occupancy
  Mg  Mg0  1  0.500000  0.190288  0.138598  1
  Mg  Mg1  1  0.500000  0.809712  0.861402  1
  Mg  Mg2  1  0.500000  0.309712  0.638598  1
  Mg  Mg3  1  0.500000  0.690288  0.361402  1
  Sn  Sn4  1  0.000000  0.000000  0.500000  1
  Sn  Sn5  1  0.000000  0.500000  0.000000  1
  Pt  Pt6  1  0.500000  0.213199  0.382734  1
  Pt  Pt7  1  0.500000  0.786801  0.617266  1
  Pt  Pt8  1  0.500000  0.286801  0.882734  1
  Pt  Pt9  1  0.500000  0.713199  0.117266  1
  Pt  Pt10  1  0.000000  0.448960  0.246134  1
  Pt  Pt11  1  0.000000  0.551040  0.753866  1
  Pt  Pt12  1  0.000000  0.051040  0.746134  1
  Pt  Pt13  1  0.000000  0.948960  0.253866  1
  Pt  Pt14  1  0.000000  0.000000  0.000000  1
  Pt  Pt15  1  0.000000  0.500000  0.500000  1
