# generated using pymatgen
data_SmHf(ZrPt6)2
_symmetry_space_group_name_H-M   'P 1'
_cell_length_a   5.77474300
_cell_length_b   5.77474226
_cell_length_c   9.39707800
_cell_angle_alpha   90.00000000
_cell_angle_beta   90.00000000
_cell_angle_gamma   120.00000994
_symmetry_Int_Tables_number   1
_chemical_formula_structural   SmHf(ZrPt6)2
_chemical_formula_sum   'Sm1 Hf1 Zr2 Pt12'
_cell_volume   271.38677911
_cell_formula_units_Z   1
loop_
 _symmetry_equiv_pos_site_id
 _symmetry_equiv_pos_as_xyz
  1  'x, y, z'
loop_
 _atom_site_type_symbol
 _atom_site_label
 _atom_site_symmetry_multiplicity
 _atom_site_fract_x
 _atom_site_fract_y
 _atom_site_fract_z
 _atom_site_occupancy
  Sm  Sm0  1  0.666667  0.333333  0.750000  1
  Hf  Hf1  1  0.333333  0.666667  0.250000  1
  Zr  Zr2  1  0.000000  0.000000  0.502267  1
  Zr  Zr3  1  0.000000  0.000000  0.997733  1
  Pt  Pt4  1  0.171030  0.342060  0.750000  1
  Pt  Pt5  1  0.005648  0.502824  0.007325  1
  Pt  Pt6  1  0.831070  0.662141  0.250000  1
  Pt  Pt7  1  0.337859  0.168930  0.250000  1
  Pt  Pt8  1  0.497176  0.502824  0.007325  1
  Pt  Pt9  1  0.831070  0.168930  0.250000  1
  Pt  Pt10  1  0.497176  0.502824  0.492675  1
  Pt  Pt11  1  0.497176  0.994352  0.492675  1
  Pt  Pt12  1  0.171030  0.828970  0.750000  1
  Pt  Pt13  1  0.657940  0.828970  0.750000  1
  Pt  Pt14  1  0.497176  0.994352  0.007325  1
  Pt  Pt15  1  0.005648  0.502824  0.492675  1
