# generated using pymatgen
data_Gd4Tc3B8W
_symmetry_space_group_name_H-M   'P 1'
_cell_length_a   5.36449400
_cell_length_b   6.00532212
_cell_length_c   6.51437487
_cell_angle_alpha   89.91187262
_cell_angle_beta   90.00000000
_cell_angle_gamma   90.00000000
_symmetry_Int_Tables_number   1
_chemical_formula_structural   Gd4Tc3B8W
_chemical_formula_sum   'Gd4 Tc3 B8 W1'
_cell_volume   209.86368983
_cell_formula_units_Z   1
loop_
 _symmetry_equiv_pos_site_id
 _symmetry_equiv_pos_as_xyz
  1  'x, y, z'
loop_
 _atom_site_type_symbol
 _atom_site_label
 _atom_site_symmetry_multiplicity
 _atom_site_fract_x
 _atom_site_fract_y
 _atom_site_fract_z
 _atom_site_occupancy
  Gd  Gd0  1  0.250000  0.010980  0.341393  1
  Gd  Gd1  1  0.250000  0.513997  0.158243  1
  Gd  Gd2  1  0.750000  0.985124  0.661385  1
  Gd  Gd3  1  0.750000  0.487907  0.840773  1
  Tc  Tc4  1  0.250000  0.180247  0.814112  1
  Tc  Tc5  1  0.250000  0.681126  0.687452  1
  Tc  Tc6  1  0.750000  0.816301  0.185718  1
  B  B7  1  0.079751  0.373699  0.534624  1
  B  B8  1  0.420386  0.873486  0.963270  1
  B  B9  1  0.577684  0.628715  0.465666  1
  B  B10  1  0.922316  0.126841  0.035409  1
  B  B11  1  0.922316  0.628715  0.465666  1
  B  B12  1  0.577684  0.126841  0.035409  1
  B  B13  1  0.420249  0.373699  0.534624  1
  B  B14  1  0.079614  0.873486  0.963270  1
  W  W15  1  0.750000  0.318835  0.312985  1
