# generated using pymatgen
data_Tm16Sc3Si16Mo
_symmetry_space_group_name_H-M   'P 1'
_cell_length_a   7.12051167
_cell_length_b   7.53695032
_cell_length_c   14.11907900
_cell_angle_alpha   90.00000000
_cell_angle_beta   90.00000000
_cell_angle_gamma   89.79242921
_symmetry_Int_Tables_number   1
_chemical_formula_structural   Tm16Sc3Si16Mo
_chemical_formula_sum   'Tm16 Sc3 Si16 Mo1'
_cell_volume   757.72283116
_cell_formula_units_Z   1
loop_
 _symmetry_equiv_pos_site_id
 _symmetry_equiv_pos_as_xyz
  1  'x, y, z'
loop_
 _atom_site_type_symbol
 _atom_site_label
 _atom_site_symmetry_multiplicity
 _atom_site_fract_x
 _atom_site_fract_y
 _atom_site_fract_z
 _atom_site_occupancy
  Tm  Tm0  1  0.987963  0.687970  0.600005  1
  Tm  Tm1  1  0.017888  0.316872  0.405799  1
  Tm  Tm2  1  0.518784  0.183201  0.404490  1
  Tm  Tm3  1  0.017888  0.316872  0.094201  1
  Tm  Tm4  1  0.479698  0.819685  0.596757  1
  Tm  Tm5  1  0.987963  0.687970  0.899995  1
  Tm  Tm6  1  0.479698  0.819685  0.903243  1
  Tm  Tm7  1  0.518784  0.183201  0.095510  1
  Tm  Tm8  1  0.322996  0.318636  0.628395  1
  Tm  Tm9  1  0.678224  0.677569  0.373992  1
  Tm  Tm10  1  0.179053  0.826112  0.375845  1
  Tm  Tm11  1  0.678224  0.677569  0.126008  1
  Tm  Tm12  1  0.819037  0.170754  0.629187  1
  Tm  Tm13  1  0.322996  0.318636  0.871605  1
  Tm  Tm14  1  0.819037  0.170754  0.870813  1
  Tm  Tm15  1  0.179053  0.826112  0.124155  1
  Sc  Sc16  1  0.846204  0.012794  0.250000  1
  Sc  Sc17  1  0.344472  0.486149  0.250000  1
  Sc  Sc18  1  0.654059  0.520402  0.750000  1
  Si  Si19  1  0.019683  0.403087  0.750000  1
  Si  Si20  1  0.983151  0.595125  0.250000  1
  Si  Si21  1  0.481219  0.906284  0.250000  1
  Si  Si22  1  0.506838  0.079225  0.750000  1
  Si  Si23  1  0.277884  0.648639  0.750000  1
  Si  Si24  1  0.721925  0.361138  0.250000  1
  Si  Si25  1  0.218875  0.138527  0.250000  1
  Si  Si26  1  0.786432  0.863512  0.750000  1
  Si  Si27  1  0.152163  0.026844  0.548145  1
  Si  Si28  1  0.846122  0.970014  0.462101  1
  Si  Si29  1  0.346512  0.530526  0.462480  1
  Si  Si30  1  0.846122  0.970014  0.037899  1
  Si  Si31  1  0.657712  0.469304  0.539877  1
  Si  Si32  1  0.152163  0.026844  0.951855  1
  Si  Si33  1  0.657712  0.469304  0.960123  1
  Si  Si34  1  0.346512  0.530526  0.037520  1
  Mo  Mo35  1  0.146958  0.990137  0.750000  1
