# generated using pymatgen
data_Y8Ga(PdPt7)3
_symmetry_space_group_name_H-M   'P 1'
_cell_length_a   8.39810104
_cell_length_b   8.39552704
_cell_length_c   8.36265900
_cell_angle_alpha   90.00000000
_cell_angle_beta   90.00000000
_cell_angle_gamma   90.01057644
_symmetry_Int_Tables_number   1
_chemical_formula_structural   Y8Ga(PdPt7)3
_chemical_formula_sum   'Y8 Ga1 Pd3 Pt21'
_cell_volume   589.62167540
_cell_formula_units_Z   1
loop_
 _symmetry_equiv_pos_site_id
 _symmetry_equiv_pos_as_xyz
  1  'x, y, z'
loop_
 _atom_site_type_symbol
 _atom_site_label
 _atom_site_symmetry_multiplicity
 _atom_site_fract_x
 _atom_site_fract_y
 _atom_site_fract_z
 _atom_site_occupancy
  Y  Y0  1  0.250315  0.249942  0.749869  1
  Y  Y1  1  0.251101  0.749501  0.250703  1
  Y  Y2  1  0.749136  0.251081  0.250949  1
  Y  Y3  1  0.748499  0.748458  0.748425  1
  Y  Y4  1  0.748499  0.748458  0.251575  1
  Y  Y5  1  0.749136  0.251081  0.749051  1
  Y  Y6  1  0.251101  0.749501  0.749297  1
  Y  Y7  1  0.250315  0.249942  0.250131  1
  Ga  Ga8  1  0.003194  0.002965  0.000000  1
  Pd  Pd9  1  0.746677  0.499929  0.500000  1
  Pd  Pd10  1  0.998920  0.707634  0.000000  1
  Pd  Pd11  1  0.708263  0.999087  0.000000  1
  Pt  Pt12  1  0.499079  0.499533  0.746857  1
  Pt  Pt13  1  0.499163  0.253638  0.500000  1
  Pt  Pt14  1  0.253219  0.499851  0.500000  1
  Pt  Pt15  1  0.499079  0.499533  0.253143  1
  Pt  Pt16  1  0.499230  0.746562  0.500000  1
  Pt  Pt17  1  0.998604  0.998958  0.702997  1
  Pt  Pt18  1  0.998583  0.297660  0.000000  1
  Pt  Pt19  1  0.297398  0.998805  0.000000  1
  Pt  Pt20  1  0.998604  0.998958  0.297003  1
  Pt  Pt21  1  0.000673  0.500071  0.738668  1
  Pt  Pt22  1  0.500392  0.261027  0.000000  1
  Pt  Pt23  1  0.261605  0.999873  0.500000  1
  Pt  Pt24  1  0.000608  0.262056  0.500000  1
  Pt  Pt25  1  0.500352  0.000186  0.738986  1
  Pt  Pt26  1  0.260811  0.500292  0.000000  1
  Pt  Pt27  1  0.000673  0.500071  0.261332  1
  Pt  Pt28  1  0.500591  0.738020  0.000000  1
  Pt  Pt29  1  0.000644  0.736699  0.500000  1
  Pt  Pt30  1  0.500352  0.000186  0.261014  1
  Pt  Pt31  1  0.736934  0.999964  0.500000  1
  Pt  Pt32  1  0.738249  0.500478  0.000000  1
