# generated using pymatgen
data_Tl(Cr5Se8)2
_symmetry_space_group_name_H-M   'P 1'
_cell_length_a   7.27496227
_cell_length_b   9.64916431
_cell_length_c   9.86061600
_cell_angle_alpha   72.52843013
_cell_angle_beta   68.32462800
_cell_angle_gamma   79.09182985
_symmetry_Int_Tables_number   1
_chemical_formula_structural   Tl(Cr5Se8)2
_chemical_formula_sum   'Tl1 Cr10 Se16'
_cell_volume   611.16834038
_cell_formula_units_Z   1
loop_
 _symmetry_equiv_pos_site_id
 _symmetry_equiv_pos_as_xyz
  1  'x, y, z'
loop_
 _atom_site_type_symbol
 _atom_site_label
 _atom_site_symmetry_multiplicity
 _atom_site_fract_x
 _atom_site_fract_y
 _atom_site_fract_z
 _atom_site_occupancy
  Tl  Tl0  1  0.000000  0.000000  0.000000  1
  Cr  Cr1  1  0.840316  0.686315  0.475078  1
  Cr  Cr2  1  0.340863  0.685037  0.474756  1
  Cr  Cr3  1  0.659137  0.314963  0.525244  1
  Cr  Cr4  1  0.159684  0.313685  0.524922  1
  Cr  Cr5  1  0.816150  0.410473  0.163927  1
  Cr  Cr6  1  0.316032  0.407922  0.164324  1
  Cr  Cr7  1  0.683968  0.592078  0.835676  1
  Cr  Cr8  1  0.183850  0.589527  0.836073  1
  Cr  Cr9  1  0.500000  0.000000  0.500000  1
  Cr  Cr10  1  0.000000  0.000000  0.500000  1
  Se  Se11  1  0.788174  0.151898  0.347540  1
  Se  Se12  1  0.288211  0.151913  0.347528  1
  Se  Se13  1  0.711789  0.848087  0.652472  1
  Se  Se14  1  0.211826  0.848102  0.652460  1
  Se  Se15  1  0.958668  0.476531  0.344391  1
  Se  Se16  1  0.459252  0.476336  0.344296  1
  Se  Se17  1  0.540748  0.523664  0.655704  1
  Se  Se18  1  0.041332  0.523469  0.655609  1
  Se  Se19  1  0.630863  0.828993  0.324095  1
  Se  Se20  1  0.129305  0.828881  0.324181  1
  Se  Se21  1  0.870695  0.171119  0.675819  1
  Se  Se22  1  0.369137  0.171007  0.675905  1
  Se  Se23  1  0.338592  0.657530  0.991363  1
  Se  Se24  1  0.840115  0.659097  0.990625  1
  Se  Se25  1  0.159885  0.340903  0.009375  1
  Se  Se26  1  0.661408  0.342470  0.008637  1
