# generated using pymatgen
data_Dy20ZnBi8Os3
_symmetry_space_group_name_H-M   'P 1'
_cell_length_a   8.00603279
_cell_length_b   9.08513400
_cell_length_c   12.42585048
_cell_angle_alpha   90.00000000
_cell_angle_beta   89.81994023
_cell_angle_gamma   90.00000000
_symmetry_Int_Tables_number   1
_chemical_formula_structural   Dy20ZnBi8Os3
_chemical_formula_sum   'Dy20 Zn1 Bi8 Os3'
_cell_volume   903.80071555
_cell_formula_units_Z   1
loop_
 _symmetry_equiv_pos_site_id
 _symmetry_equiv_pos_as_xyz
  1  'x, y, z'
loop_
 _atom_site_type_symbol
 _atom_site_label
 _atom_site_symmetry_multiplicity
 _atom_site_fract_x
 _atom_site_fract_y
 _atom_site_fract_z
 _atom_site_occupancy
  Dy  Dy0  1  0.843307  0.750000  0.793898  1
  Dy  Dy1  1  0.159075  0.250000  0.207987  1
  Dy  Dy2  1  0.338718  0.250000  0.709498  1
  Dy  Dy3  1  0.670534  0.750000  0.281440  1
  Dy  Dy4  1  0.364522  0.750000  0.701243  1
  Dy  Dy5  1  0.624576  0.250000  0.306896  1
  Dy  Dy6  1  0.877708  0.250000  0.805924  1
  Dy  Dy7  1  0.126170  0.750000  0.196562  1
  Dy  Dy8  1  0.962657  0.750000  0.500296  1
  Dy  Dy9  1  0.050089  0.250000  0.497826  1
  Dy  Dy10  1  0.440606  0.250000  0.996404  1
  Dy  Dy11  1  0.554715  0.750000  0.001595  1
  Dy  Dy12  1  0.677016  0.053863  0.565267  1
  Dy  Dy13  1  0.319469  0.968231  0.433626  1
  Dy  Dy14  1  0.174623  0.956398  0.936820  1
  Dy  Dy15  1  0.319469  0.531769  0.433626  1
  Dy  Dy16  1  0.825989  0.040043  0.063238  1
  Dy  Dy17  1  0.677016  0.446137  0.565267  1
  Dy  Dy18  1  0.825989  0.459957  0.063238  1
  Dy  Dy19  1  0.174623  0.543602  0.936820  1
  Zn  Zn20  1  0.576490  0.750000  0.512933  1
  Bi  Bi21  1  0.567504  0.492481  0.825462  1
  Bi  Bi22  1  0.433094  0.508312  0.172931  1
  Bi  Bi23  1  0.068941  0.508552  0.671331  1
  Bi  Bi24  1  0.433094  0.991688  0.172931  1
  Bi  Bi25  1  0.928237  0.491463  0.329012  1
  Bi  Bi26  1  0.567504  0.007519  0.825462  1
  Bi  Bi27  1  0.928237  0.008537  0.329012  1
  Bi  Bi28  1  0.068941  0.991448  0.671331  1
  Os  Os29  1  0.423172  0.250000  0.489329  1
  Os  Os30  1  0.075431  0.250000  0.988888  1
  Os  Os31  1  0.922486  0.750000  0.013908  1
