# generated using pymatgen
data_Lu12OsRh3
_symmetry_space_group_name_H-M   'P 1'
_cell_length_a   7.10220768
_cell_length_b   8.97359500
_cell_length_c   6.25916793
_cell_angle_alpha   90.00000000
_cell_angle_beta   90.09477221
_cell_angle_gamma   90.00000000
_symmetry_Int_Tables_number   1
_chemical_formula_structural   Lu12OsRh3
_chemical_formula_sum   'Lu12 Os1 Rh3'
_cell_volume   398.91084366
_cell_formula_units_Z   1
loop_
 _symmetry_equiv_pos_site_id
 _symmetry_equiv_pos_as_xyz
  1  'x, y, z'
loop_
 _atom_site_type_symbol
 _atom_site_label
 _atom_site_symmetry_multiplicity
 _atom_site_fract_x
 _atom_site_fract_y
 _atom_site_fract_z
 _atom_site_occupancy
  Lu  Lu0  1  0.677480  0.056238  0.330008  1
  Lu  Lu1  1  0.178812  0.439160  0.174147  1
  Lu  Lu2  1  0.322791  0.561539  0.674567  1
  Lu  Lu3  1  0.818850  0.937360  0.821666  1
  Lu  Lu4  1  0.322791  0.938461  0.674567  1
  Lu  Lu5  1  0.818850  0.562640  0.821666  1
  Lu  Lu6  1  0.677480  0.443762  0.330008  1
  Lu  Lu7  1  0.178812  0.060840  0.174147  1
  Lu  Lu8  1  0.536315  0.250000  0.879694  1
  Lu  Lu9  1  0.034270  0.250000  0.623204  1
  Lu  Lu10  1  0.465092  0.750000  0.119524  1
  Lu  Lu11  1  0.966993  0.750000  0.379237  1
  Os  Os12  1  0.611802  0.750000  0.532700  1
  Rh  Rh13  1  0.890007  0.250000  0.039706  1
  Rh  Rh14  1  0.389126  0.250000  0.462643  1
  Rh  Rh15  1  0.110527  0.750000  0.962515  1
