# generated using pymatgen
data_LuSc3(Ga3Rh)6
_symmetry_space_group_name_H-M   'P 1'
_cell_length_a   7.48198046
_cell_length_b   7.47988250
_cell_length_c   9.43589100
_cell_angle_alpha   90.00000000
_cell_angle_beta   90.00000000
_cell_angle_gamma   119.96326058
_symmetry_Int_Tables_number   1
_chemical_formula_structural   LuSc3(Ga3Rh)6
_chemical_formula_sum   'Lu1 Sc3 Ga18 Rh6'
_cell_volume   457.49415952
_cell_formula_units_Z   1
loop_
 _symmetry_equiv_pos_site_id
 _symmetry_equiv_pos_as_xyz
  1  'x, y, z'
loop_
 _atom_site_type_symbol
 _atom_site_label
 _atom_site_symmetry_multiplicity
 _atom_site_fract_x
 _atom_site_fract_y
 _atom_site_fract_z
 _atom_site_occupancy
  Lu  Lu0  1  0.330952  0.002732  0.750000  1
  Sc  Sc1  1  0.998386  0.669818  0.250000  1
  Sc  Sc2  1  0.002454  0.330826  0.750000  1
  Sc  Sc3  1  0.669339  0.998210  0.250000  1
  Ga  Ga4  1  0.338385  0.553155  0.250000  1
  Ga  Ga5  1  0.662718  0.450790  0.750000  1
  Ga  Ga6  1  0.554373  0.339328  0.250000  1
  Ga  Ga7  1  0.447843  0.659782  0.750000  1
  Ga  Ga8  1  0.996163  0.334593  0.084077  1
  Ga  Ga9  1  0.000011  0.662393  0.919377  1
  Ga  Ga10  1  0.000011  0.662393  0.580623  1
  Ga  Ga11  1  0.334873  0.996669  0.413248  1
  Ga  Ga12  1  0.996163  0.334593  0.415923  1
  Ga  Ga13  1  0.668240  0.002537  0.580647  1
  Ga  Ga14  1  0.668240  0.002537  0.919353  1
  Ga  Ga15  1  0.334873  0.996669  0.086752  1
  Ga  Ga16  1  0.329737  0.332406  0.568005  1
  Ga  Ga17  1  0.670909  0.670855  0.426637  1
  Ga  Ga18  1  0.670909  0.670855  0.073363  1
  Ga  Ga19  1  0.329737  0.332406  0.931995  1
  Ga  Ga20  1  0.121256  0.122391  0.250000  1
  Ga  Ga21  1  0.875018  0.876053  0.750000  1
  Rh  Rh22  1  0.670188  0.327220  0.999756  1
  Rh  Rh23  1  0.328479  0.672126  0.000141  1
  Rh  Rh24  1  0.328479  0.672126  0.499859  1
  Rh  Rh25  1  0.670188  0.327220  0.500244  1
  Rh  Rh26  1  0.001040  0.999659  0.000053  1
  Rh  Rh27  1  0.001040  0.999659  0.499947  1
