# generated using pymatgen
data_SmTm3(MoN3)4
_symmetry_space_group_name_H-M   'P 1'
_cell_length_a   7.30714880
_cell_length_b   7.30714866
_cell_length_c   6.24308830
_cell_angle_alpha   73.71059408
_cell_angle_beta   73.71059024
_cell_angle_gamma   81.58431791
_symmetry_Int_Tables_number   1
_chemical_formula_structural   SmTm3(MoN3)4
_chemical_formula_sum   'Sm1 Tm3 Mo4 N12'
_cell_volume   306.29058385
_cell_formula_units_Z   1
loop_
 _symmetry_equiv_pos_site_id
 _symmetry_equiv_pos_as_xyz
  1  'x, y, z'
loop_
 _atom_site_type_symbol
 _atom_site_label
 _atom_site_symmetry_multiplicity
 _atom_site_fract_x
 _atom_site_fract_y
 _atom_site_fract_z
 _atom_site_occupancy
  Sm  Sm0  1  0.294668  0.705332  0.750000  1
  Tm  Tm1  1  0.911155  0.088845  0.750000  1
  Tm  Tm2  1  0.709080  0.290920  0.250000  1
  Tm  Tm3  1  0.084428  0.915572  0.250000  1
  Mo  Mo4  1  0.801338  0.618411  0.770295  1
  Mo  Mo5  1  0.198318  0.379218  0.233984  1
  Mo  Mo6  1  0.620782  0.801682  0.266016  1
  Mo  Mo7  1  0.381589  0.198662  0.729705  1
  N  N8  1  0.212657  0.004600  0.850416  1
  N  N9  1  0.370668  0.346768  0.432473  1
  N  N10  1  0.637871  0.653597  0.560933  1
  N  N11  1  0.625826  0.108871  0.662755  1
  N  N12  1  0.995400  0.787343  0.649584  1
  N  N13  1  0.782091  0.003465  0.150418  1
  N  N14  1  0.110851  0.624021  0.171367  1
  N  N15  1  0.891129  0.374174  0.837245  1
  N  N16  1  0.996535  0.217909  0.349582  1
  N  N17  1  0.346403  0.362129  0.939067  1
  N  N18  1  0.653232  0.629332  0.067527  1
  N  N19  1  0.375979  0.889149  0.328633  1
