# generated using pymatgen
data_Tb5Er5In8(IrPd)2
_symmetry_space_group_name_H-M   'P 1'
_cell_length_a   3.63702200
_cell_length_b   8.13960632
_cell_length_c   18.25049040
_cell_angle_alpha   90.02075857
_cell_angle_beta   90.00000000
_cell_angle_gamma   90.00000000
_symmetry_Int_Tables_number   1
_chemical_formula_structural   Tb5Er5In8(IrPd)2
_chemical_formula_sum   'Tb5 Er5 In8 Ir2 Pd2'
_cell_volume   540.28615462
_cell_formula_units_Z   1
loop_
 _symmetry_equiv_pos_site_id
 _symmetry_equiv_pos_as_xyz
  1  'x, y, z'
loop_
 _atom_site_type_symbol
 _atom_site_label
 _atom_site_symmetry_multiplicity
 _atom_site_fract_x
 _atom_site_fract_y
 _atom_site_fract_z
 _atom_site_occupancy
  Tb  Tb0  1  0.000000  0.499889  0.499886  1
  Tb  Tb1  1  0.000000  0.999877  0.000013  1
  Tb  Tb2  1  0.000000  0.728267  0.277909  1
  Tb  Tb3  1  0.000000  0.271596  0.722053  1
  Tb  Tb4  1  0.000000  0.748066  0.780078  1
  Er  Er5  1  0.000000  0.253268  0.220022  1
  Er  Er6  1  0.000000  0.613328  0.087711  1
  Er  Er7  1  0.000000  0.386315  0.912694  1
  Er  Er8  1  0.000000  0.884725  0.584770  1
  Er  Er9  1  0.000000  0.115424  0.414874  1
  In  In10  1  0.500000  0.707167  0.932778  1
  In  In11  1  0.500000  0.292372  0.067953  1
  In  In12  1  0.500000  0.793546  0.432544  1
  In  In13  1  0.500000  0.206705  0.567376  1
  In  In14  1  0.500000  0.579492  0.648315  1
  In  In15  1  0.500000  0.419833  0.351286  1
  In  In16  1  0.500000  0.922523  0.150072  1
  In  In17  1  0.500000  0.078308  0.850041  1
  Ir  Ir18  1  0.500000  0.516912  0.195107  1
  Ir  Ir19  1  0.500000  0.480538  0.805096  1
  Pd  Pd20  1  0.500000  0.980362  0.695300  1
  Pd  Pd21  1  0.500000  0.021487  0.304121  1
