# generated using pymatgen
data_Tb7Th(CdIr)2
_symmetry_space_group_name_H-M   'P 1'
_cell_length_a   9.71933026
_cell_length_b   9.71932813
_cell_length_c   9.71878300
_cell_angle_alpha   60.00191670
_cell_angle_beta   60.00197938
_cell_angle_gamma   60.07747675
_symmetry_Int_Tables_number   1
_chemical_formula_structural   Tb7Th(CdIr)2
_chemical_formula_sum   'Tb14 Th2 Cd4 Ir4'
_cell_volume   649.58490027
_cell_formula_units_Z   2
loop_
 _symmetry_equiv_pos_site_id
 _symmetry_equiv_pos_as_xyz
  1  'x, y, z'
loop_
 _atom_site_type_symbol
 _atom_site_label
 _atom_site_symmetry_multiplicity
 _atom_site_fract_x
 _atom_site_fract_y
 _atom_site_fract_z
 _atom_site_occupancy
  Tb  Tb0  1  0.601465  0.197759  0.600389  1
  Tb  Tb1  1  0.197760  0.601463  0.600390  1
  Tb  Tb2  1  0.061525  0.438800  0.439480  1
  Tb  Tb3  1  0.438803  0.061526  0.060193  1
  Tb  Tb4  1  0.438801  0.061526  0.439479  1
  Tb  Tb5  1  0.061525  0.438802  0.060194  1
  Tb  Tb6  1  0.437644  0.437643  0.062356  1
  Tb  Tb7  1  0.060536  0.060537  0.439463  1
  Tb  Tb8  1  0.188556  0.813608  0.813254  1
  Tb  Tb9  1  0.813609  0.188556  0.184584  1
  Tb  Tb10  1  0.813608  0.188555  0.813253  1
  Tb  Tb11  1  0.188557  0.813608  0.184583  1
  Tb  Tb12  1  0.814800  0.814798  0.185202  1
  Tb  Tb13  1  0.189669  0.189667  0.810331  1
  Th  Th14  1  0.596674  0.596675  0.599612  1
  Th  Th15  1  0.596673  0.596673  0.207038  1
  Cd  Cd16  1  0.831455  0.831453  0.830128  1
  Cd  Cd17  1  0.831454  0.831453  0.506966  1
  Cd  Cd18  1  0.832610  0.503165  0.832112  1
  Cd  Cd19  1  0.503164  0.832609  0.832113  1
  Ir  Ir20  1  0.392498  0.392498  0.393171  1
  Ir  Ir21  1  0.392499  0.392501  0.821834  1
  Ir  Ir22  1  0.394394  0.821727  0.391938  1
  Ir  Ir23  1  0.821723  0.394399  0.391938  1
