# generated using pymatgen
data_DyEr9Si5Pb
_symmetry_space_group_name_H-M   'P 1'
_cell_length_a   8.44893600
_cell_length_b   8.48322925
_cell_length_c   6.33962200
_cell_angle_alpha   90.00000000
_cell_angle_beta   90.00000000
_cell_angle_gamma   119.86636583
_symmetry_Int_Tables_number   1
_chemical_formula_structural   DyEr9Si5Pb
_chemical_formula_sum   'Dy1 Er9 Si5 Pb1'
_cell_volume   394.04013648
_cell_formula_units_Z   1
loop_
 _symmetry_equiv_pos_site_id
 _symmetry_equiv_pos_as_xyz
  1  'x, y, z'
loop_
 _atom_site_type_symbol
 _atom_site_label
 _atom_site_symmetry_multiplicity
 _atom_site_fract_x
 _atom_site_fract_y
 _atom_site_fract_z
 _atom_site_occupancy
  Dy  Dy0  1  0.239927  0.000000  0.250000  1
  Er  Er1  1  0.987336  0.747404  0.750000  1
  Er  Er2  1  0.998402  0.242317  0.250000  1
  Er  Er3  1  0.756085  0.757683  0.250000  1
  Er  Er4  1  0.767198  0.000000  0.750000  1
  Er  Er5  1  0.239931  0.252596  0.750000  1
  Er  Er6  1  0.675035  0.343705  0.003820  1
  Er  Er7  1  0.331329  0.656295  0.496180  1
  Er  Er8  1  0.331329  0.656295  0.003820  1
  Er  Er9  1  0.675035  0.343705  0.496180  1
  Si  Si10  1  0.393951  0.392717  0.250000  1
  Si  Si11  1  0.001234  0.607283  0.250000  1
  Si  Si12  1  0.998396  0.394455  0.750000  1
  Si  Si13  1  0.603941  0.605545  0.750000  1
  Si  Si14  1  0.606187  0.000000  0.250000  1
  Pb  Pb15  1  0.394684  0.000000  0.750000  1
