# generated using pymatgen
data_Ba6SnBiI4
_symmetry_space_group_name_H-M   'P 1'
_cell_length_a   17.11785158
_cell_length_b   16.34589602
_cell_length_c   8.86910247
_cell_angle_alpha   79.50204398
_cell_angle_beta   69.87092649
_cell_angle_gamma   30.62703224
_symmetry_Int_Tables_number   1
_chemical_formula_structural   Ba6SnBiI4
_chemical_formula_sum   'Ba12 Sn2 Bi2 I8'
_cell_volume   1152.87830738
_cell_formula_units_Z   2
loop_
 _symmetry_equiv_pos_site_id
 _symmetry_equiv_pos_as_xyz
  1  'x, y, z'
loop_
 _atom_site_type_symbol
 _atom_site_label
 _atom_site_symmetry_multiplicity
 _atom_site_fract_x
 _atom_site_fract_y
 _atom_site_fract_z
 _atom_site_occupancy
  Ba  Ba0  1  0.022638  0.477362  0.477362  1
  Ba  Ba1  1  0.781059  0.218941  0.218941  1
  Ba  Ba2  1  0.086395  0.592681  0.931033  1
  Ba  Ba3  1  0.857942  0.315964  0.671144  1
  Ba  Ba4  1  0.592681  0.086395  0.389891  1
  Ba  Ba5  1  0.154948  0.671144  0.315964  1
  Ba  Ba6  1  0.315964  0.857942  0.154948  1
  Ba  Ba7  1  0.389891  0.931033  0.592681  1
  Ba  Ba8  1  0.218941  0.781059  0.781059  1
  Ba  Ba9  1  0.477362  0.022638  0.022638  1
  Ba  Ba10  1  0.931033  0.389891  0.086395  1
  Ba  Ba11  1  0.671144  0.154948  0.857942  1
  Sn  Sn12  1  0.084181  0.084181  0.915819  1
  Sn  Sn13  1  0.915819  0.915819  0.084181  1
  Bi  Bi14  1  0.332756  0.332756  0.167244  1
  Bi  Bi15  1  0.167244  0.167244  0.332756  1
  I  I16  1  0.579647  0.579647  0.420353  1
  I  I17  1  0.671224  0.671224  0.828776  1
  I  I18  1  0.253053  0.253053  0.746947  1
  I  I19  1  0.420353  0.420353  0.579647  1
  I  I20  1  0.997587  0.997587  0.502413  1
  I  I21  1  0.746947  0.746947  0.253053  1
  I  I22  1  0.828776  0.828776  0.671224  1
  I  I23  1  0.502413  0.502413  0.997587  1
