# generated using pymatgen
data_Sr15Tb5Bi16
_symmetry_space_group_name_H-M   'P 1'
_cell_length_a   8.75256673
_cell_length_b   8.77666337
_cell_length_c   16.72875000
_cell_angle_alpha   90.23601454
_cell_angle_beta   90.82609621
_cell_angle_gamma   89.63906967
_symmetry_Int_Tables_number   1
_chemical_formula_structural   Sr15Tb5Bi16
_chemical_formula_sum   'Sr15 Tb5 Bi16'
_cell_volume   1284.90517616
_cell_formula_units_Z   1
loop_
 _symmetry_equiv_pos_site_id
 _symmetry_equiv_pos_as_xyz
  1  'x, y, z'
loop_
 _atom_site_type_symbol
 _atom_site_label
 _atom_site_symmetry_multiplicity
 _atom_site_fract_x
 _atom_site_fract_y
 _atom_site_fract_z
 _atom_site_occupancy
  Sr  Sr0  1  0.377721  0.850391  0.381061  1
  Sr  Sr1  1  0.632783  0.147663  0.884850  1
  Sr  Sr2  1  0.125187  0.351852  0.615928  1
  Sr  Sr3  1  0.128367  0.352946  0.882655  1
  Sr  Sr4  1  0.623729  0.149288  0.616367  1
  Sr  Sr5  1  0.369278  0.854032  0.116472  1
  Sr  Sr6  1  0.876291  0.648391  0.383956  1
  Sr  Sr7  1  0.044955  0.171337  0.096849  1
  Sr  Sr8  1  0.553747  0.332066  0.398001  1
  Sr  Sr9  1  0.452986  0.673317  0.902301  1
  Sr  Sr10  1  0.947382  0.832605  0.600865  1
  Sr  Sr11  1  0.959747  0.825228  0.905038  1
  Sr  Sr12  1  0.446701  0.668245  0.601414  1
  Sr  Sr13  1  0.539622  0.327887  0.098292  1
  Sr  Sr14  1  0.054815  0.169067  0.396434  1
  Tb  Tb15  1  0.868374  0.645909  0.121474  1
  Tb  Tb16  1  0.718575  0.998489  0.249870  1
  Tb  Tb17  1  0.216822  0.501226  0.249752  1
  Tb  Tb18  1  0.781575  0.498815  0.749985  1
  Tb  Tb19  1  0.282481  0.002518  0.750002  1
  Bi  Bi20  1  0.062744  0.854989  0.245350  1
  Bi  Bi21  1  0.573599  0.635393  0.244129  1
  Bi  Bi22  1  0.432756  0.365078  0.751713  1
  Bi  Bi23  1  0.931309  0.137850  0.750504  1
  Bi  Bi24  1  0.861329  0.348010  0.245547  1
  Bi  Bi25  1  0.361889  0.157800  0.248259  1
  Bi  Bi26  1  0.639808  0.842614  0.752107  1
  Bi  Bi27  1  0.138317  0.658034  0.751386  1
  Bi  Bi28  1  0.779762  0.476125  0.955568  1
  Bi  Bi29  1  0.274855  0.019532  0.555133  1
  Bi  Bi30  1  0.726981  0.957398  0.055876  1
  Bi  Bi31  1  0.227050  0.520769  0.442894  1
  Bi  Bi32  1  0.203139  0.532904  0.055989  1
  Bi  Bi33  1  0.727303  0.982163  0.442273  1
  Bi  Bi34  1  0.283272  0.029701  0.945544  1
  Bi  Bi35  1  0.774749  0.480374  0.556164  1
