# generated using pymatgen
data_TbNdPa2(Zn5Sn)2
_symmetry_space_group_name_H-M   'P 1'
_cell_length_a   8.41141257
_cell_length_b   8.41141215
_cell_length_c   8.92794593
_cell_angle_alpha   91.00871025
_cell_angle_beta   88.99129136
_cell_angle_gamma   149.31451814
_symmetry_Int_Tables_number   1
_chemical_formula_structural   TbNdPa2(Zn5Sn)2
_chemical_formula_sum   'Tb1 Nd1 Pa2 Zn10 Sn2'
_cell_volume   322.30265952
_cell_formula_units_Z   1
loop_
 _symmetry_equiv_pos_site_id
 _symmetry_equiv_pos_as_xyz
  1  'x, y, z'
loop_
 _atom_site_type_symbol
 _atom_site_label
 _atom_site_symmetry_multiplicity
 _atom_site_fract_x
 _atom_site_fract_y
 _atom_site_fract_z
 _atom_site_occupancy
  Tb  Tb0  1  0.000000  0.000000  0.500000  1
  Nd  Nd1  1  0.000000  0.000000  0.000000  1
  Pa  Pa2  1  0.205943  0.794057  0.250402  1
  Pa  Pa3  1  0.794057  0.205943  0.749598  1
  Zn  Zn4  1  0.814419  0.185581  0.392526  1
  Zn  Zn5  1  0.185581  0.814419  0.607474  1
  Zn  Zn6  1  0.812486  0.187514  0.106438  1
  Zn  Zn7  1  0.187514  0.812486  0.893562  1
  Zn  Zn8  1  0.658671  0.341329  0.481425  1
  Zn  Zn9  1  0.341329  0.658671  0.518575  1
  Zn  Zn10  1  0.658623  0.341377  0.020024  1
  Zn  Zn11  1  0.341377  0.658623  0.979976  1
  Zn  Zn12  1  0.393553  0.606447  0.248943  1
  Zn  Zn13  1  0.606447  0.393553  0.751057  1
  Sn  Sn14  1  0.555955  0.444045  0.254302  1
  Sn  Sn15  1  0.444045  0.555955  0.745698  1
