# generated using pymatgen
data_Tm6C2Br7
_symmetry_space_group_name_H-M   'P 1'
_cell_length_a   10.38586150
_cell_length_b   10.38586115
_cell_length_c   12.15947930
_cell_angle_alpha   57.56423736
_cell_angle_beta   57.56423833
_cell_angle_gamma   20.84751438
_symmetry_Int_Tables_number   1
_chemical_formula_structural   Tm6C2Br7
_chemical_formula_sum   'Tm6 C2 Br7'
_cell_volume   391.25223760
_cell_formula_units_Z   1
loop_
 _symmetry_equiv_pos_site_id
 _symmetry_equiv_pos_as_xyz
  1  'x, y, z'
loop_
 _atom_site_type_symbol
 _atom_site_label
 _atom_site_symmetry_multiplicity
 _atom_site_fract_x
 _atom_site_fract_y
 _atom_site_fract_z
 _atom_site_occupancy
  Tm  Tm0  1  0.235364  0.235364  0.817409  1
  Tm  Tm1  1  0.311123  0.311123  0.370519  1
  Tm  Tm2  1  0.130996  0.130996  0.449152  1
  Tm  Tm3  1  0.869004  0.869004  0.550848  1
  Tm  Tm4  1  0.688877  0.688877  0.629481  1
  Tm  Tm5  1  0.764636  0.764636  0.182591  1
  C  C6  1  0.281396  0.281396  0.598139  1
  C  C7  1  0.718604  0.718604  0.401861  1
  Br  Br8  1  0.161590  0.161590  0.179914  1
  Br  Br9  1  0.838410  0.838410  0.820086  1
  Br  Br10  1  0.059178  0.059178  0.717936  1
  Br  Br11  1  0.940822  0.940822  0.282064  1
  Br  Br12  1  0.500000  0.500000  0.500000  1
  Br  Br13  1  0.384376  0.384376  0.077571  1
  Br  Br14  1  0.615624  0.615624  0.922429  1
