# generated using pymatgen
data_Dy(UPd4)3
_symmetry_space_group_name_H-M   'P 1'
_cell_length_a   5.83989600
_cell_length_b   5.83989661
_cell_length_c   9.63756200
_cell_angle_alpha   90.00000000
_cell_angle_beta   90.00000000
_cell_angle_gamma   119.99999652
_symmetry_Int_Tables_number   1
_chemical_formula_structural   Dy(UPd4)3
_chemical_formula_sum   'Dy1 U3 Pd12'
_cell_volume   284.64797827
_cell_formula_units_Z   1
loop_
 _symmetry_equiv_pos_site_id
 _symmetry_equiv_pos_as_xyz
  1  'x, y, z'
loop_
 _atom_site_type_symbol
 _atom_site_label
 _atom_site_symmetry_multiplicity
 _atom_site_fract_x
 _atom_site_fract_y
 _atom_site_fract_z
 _atom_site_occupancy
  Dy  Dy0  1  0.000000  0.000000  0.500000  1
  U  U1  1  0.000000  0.000000  0.000000  1
  U  U2  1  0.333333  0.666667  0.745463  1
  U  U3  1  0.666667  0.333333  0.254537  1
  Pd  Pd4  1  0.500000  0.500000  0.500000  1
  Pd  Pd5  1  0.500000  0.000000  0.500000  1
  Pd  Pd6  1  0.000000  0.500000  0.500000  1
  Pd  Pd7  1  0.500000  0.500000  0.000000  1
  Pd  Pd8  1  0.500000  0.000000  0.000000  1
  Pd  Pd9  1  0.000000  0.500000  0.000000  1
  Pd  Pd10  1  0.172001  0.827999  0.247758  1
  Pd  Pd11  1  0.172001  0.344004  0.247758  1
  Pd  Pd12  1  0.655996  0.827999  0.247758  1
  Pd  Pd13  1  0.827999  0.172001  0.752242  1
  Pd  Pd14  1  0.827999  0.655996  0.752242  1
  Pd  Pd15  1  0.344004  0.172001  0.752242  1
