# generated using pymatgen
data_HoEr6Co6Sn23
_symmetry_space_group_name_H-M   'P 1'
_cell_length_a   9.67499900
_cell_length_b   9.67499932
_cell_length_c   9.94840400
_cell_angle_alpha   90.00000000
_cell_angle_beta   90.00000000
_cell_angle_gamma   120.00000231
_symmetry_Int_Tables_number   1
_chemical_formula_structural   HoEr6Co6Sn23
_chemical_formula_sum   'Ho1 Er6 Co6 Sn23'
_cell_volume   806.46571133
_cell_formula_units_Z   1
loop_
 _symmetry_equiv_pos_site_id
 _symmetry_equiv_pos_as_xyz
  1  'x, y, z'
loop_
 _atom_site_type_symbol
 _atom_site_label
 _atom_site_symmetry_multiplicity
 _atom_site_fract_x
 _atom_site_fract_y
 _atom_site_fract_z
 _atom_site_occupancy
  Ho  Ho0  1  0.000000  0.000000  0.000000  1
  Er  Er1  1  0.479069  0.520931  0.305881  1
  Er  Er2  1  0.520931  0.479069  0.694119  1
  Er  Er3  1  0.479069  0.958138  0.305881  1
  Er  Er4  1  0.520931  0.041862  0.694119  1
  Er  Er5  1  0.041862  0.520931  0.305881  1
  Er  Er6  1  0.958138  0.479069  0.694119  1
  Co  Co7  1  0.832287  0.167713  0.197457  1
  Co  Co8  1  0.167713  0.832287  0.802543  1
  Co  Co9  1  0.832287  0.664574  0.197457  1
  Co  Co10  1  0.167713  0.335426  0.802543  1
  Co  Co11  1  0.335426  0.167713  0.197457  1
  Co  Co12  1  0.664574  0.832287  0.802543  1
  Sn  Sn13  1  0.118376  0.881624  0.274883  1
  Sn  Sn14  1  0.881624  0.118376  0.725117  1
  Sn  Sn15  1  0.118376  0.236752  0.274883  1
  Sn  Sn16  1  0.881624  0.763248  0.725117  1
  Sn  Sn17  1  0.763248  0.881624  0.274883  1
  Sn  Sn18  1  0.236752  0.118376  0.725117  1
  Sn  Sn19  1  0.780859  0.219141  0.452311  1
  Sn  Sn20  1  0.219141  0.780859  0.547689  1
  Sn  Sn21  1  0.780859  0.561718  0.452311  1
  Sn  Sn22  1  0.219141  0.438282  0.547689  1
  Sn  Sn23  1  0.438282  0.219141  0.452311  1
  Sn  Sn24  1  0.561718  0.780859  0.547689  1
  Sn  Sn25  1  0.345974  0.000000  0.000000  1
  Sn  Sn26  1  0.654026  0.000000  0.000000  1
  Sn  Sn27  1  0.000000  0.345974  0.000000  1
  Sn  Sn28  1  0.000000  0.654026  0.000000  1
  Sn  Sn29  1  0.654026  0.654026  0.000000  1
  Sn  Sn30  1  0.345974  0.345974  0.000000  1
  Sn  Sn31  1  0.333333  0.666667  0.118787  1
  Sn  Sn32  1  0.666667  0.333333  0.881213  1
  Sn  Sn33  1  0.333333  0.666667  0.817685  1
  Sn  Sn34  1  0.666667  0.333333  0.182315  1
  Sn  Sn35  1  0.000000  0.000000  0.500000  1
