# generated using pymatgen
data_Ho4Fe12P12RuRh7
_symmetry_space_group_name_H-M   'P 1'
_cell_length_a   3.76590100
_cell_length_b   10.31385069
_cell_length_c   12.15236383
_cell_angle_alpha   90.24057230
_cell_angle_beta   90.00000000
_cell_angle_gamma   90.00000000
_symmetry_Int_Tables_number   1
_chemical_formula_structural   Ho4Fe12P12RuRh7
_chemical_formula_sum   'Ho4 Fe12 P12 Ru1 Rh7'
_cell_volume   472.00508116
_cell_formula_units_Z   1
loop_
 _symmetry_equiv_pos_site_id
 _symmetry_equiv_pos_as_xyz
  1  'x, y, z'
loop_
 _atom_site_type_symbol
 _atom_site_label
 _atom_site_symmetry_multiplicity
 _atom_site_fract_x
 _atom_site_fract_y
 _atom_site_fract_z
 _atom_site_occupancy
  Ho  Ho0  1  0.250000  0.581496  0.712716  1
  Ho  Ho1  1  0.250000  0.918599  0.210404  1
  Ho  Ho2  1  0.750000  0.419762  0.288821  1
  Ho  Ho3  1  0.750000  0.079397  0.789271  1
  Fe  Fe4  1  0.250000  0.224521  0.170709  1
  Fe  Fe5  1  0.250000  0.276379  0.670674  1
  Fe  Fe6  1  0.750000  0.775161  0.829111  1
  Fe  Fe7  1  0.750000  0.724533  0.327860  1
  Fe  Fe8  1  0.250000  0.878267  0.697060  1
  Fe  Fe9  1  0.250000  0.622654  0.197291  1
  Fe  Fe10  1  0.750000  0.122479  0.302667  1
  Fe  Fe11  1  0.750000  0.379624  0.802969  1
  Fe  Fe12  1  0.250000  0.459016  0.936475  1
  Fe  Fe13  1  0.250000  0.040894  0.434691  1
  Fe  Fe14  1  0.750000  0.538438  0.065323  1
  Fe  Fe15  1  0.750000  0.959574  0.564227  1
  P  P16  1  0.250000  0.429229  0.114127  1
  P  P17  1  0.250000  0.070374  0.612949  1
  P  P18  1  0.750000  0.573284  0.889190  1
  P  P19  1  0.750000  0.929759  0.386471  1
  P  P20  1  0.250000  0.273444  0.852485  1
  P  P21  1  0.250000  0.226786  0.352750  1
  P  P22  1  0.750000  0.725995  0.144448  1
  P  P23  1  0.750000  0.773931  0.647183  1
  P  P24  1  0.250000  0.605867  0.377428  1
  P  P25  1  0.250000  0.891445  0.879051  1
  P  P26  1  0.750000  0.395092  0.622585  1
  P  P27  1  0.750000  0.105511  0.121501  1
  Ru  Ru28  1  0.250000  0.705129  0.985525  1
  Rh  Rh29  1  0.250000  0.792594  0.484788  1
  Rh  Rh30  1  0.750000  0.293080  0.014309  1
  Rh  Rh31  1  0.750000  0.207853  0.515061  1
  Rh  Rh32  1  0.250000  0.405292  0.478915  1
  Rh  Rh33  1  0.250000  0.094955  0.978478  1
  Rh  Rh34  1  0.750000  0.595281  0.521420  1
  Rh  Rh35  1  0.750000  0.904302  0.021066  1
