# generated using pymatgen
data_YEr(Co3Si2)2
_symmetry_space_group_name_H-M   'P 1'
_cell_length_a   6.26410953
_cell_length_b   6.26411006
_cell_length_c   6.26412447
_cell_angle_alpha   130.63420620
_cell_angle_beta   112.91140169
_cell_angle_gamma   87.67676446
_symmetry_Int_Tables_number   1
_chemical_formula_structural   YEr(Co3Si2)2
_chemical_formula_sum   'Y1 Er1 Co6 Si4'
_cell_volume   163.64601197
_cell_formula_units_Z   1
loop_
 _symmetry_equiv_pos_site_id
 _symmetry_equiv_pos_as_xyz
  1  'x, y, z'
loop_
 _atom_site_type_symbol
 _atom_site_label
 _atom_site_symmetry_multiplicity
 _atom_site_fract_x
 _atom_site_fract_y
 _atom_site_fract_z
 _atom_site_occupancy
  Y  Y0  1  0.249987  0.527131  0.277117  1
  Er  Er1  1  0.750023  0.470973  0.720996  1
  Co  Co2  1  0.999783  0.000593  0.500376  1
  Co  Co3  1  0.500217  0.000592  0.000809  1
  Co  Co4  1  0.726011  0.000954  0.726052  1
  Co  Co5  1  0.225098  0.500041  0.726052  1
  Co  Co6  1  0.274915  0.000951  0.274920  1
  Co  Co7  1  0.773969  0.500005  0.274920  1
  Si  Si8  1  0.080535  0.871105  0.790551  1
  Si  Si9  1  0.918479  0.127291  0.208829  1
  Si  Si10  1  0.581538  0.790351  0.208829  1
  Si  Si11  1  0.419446  0.210014  0.790551  1
