# generated using pymatgen
data_Ce7Tm3(Al2Os3)2
_symmetry_space_group_name_H-M   'P 1'
_cell_length_a   8.38743771
_cell_length_b   8.47715175
_cell_length_c   8.37634525
_cell_angle_alpha   110.21668123
_cell_angle_beta   109.44518443
_cell_angle_gamma   110.32963237
_symmetry_Int_Tables_number   1
_chemical_formula_structural   Ce7Tm3(Al2Os3)2
_chemical_formula_sum   'Ce7 Tm3 Al4 Os6'
_cell_volume   449.29829176
_cell_formula_units_Z   1
loop_
 _symmetry_equiv_pos_site_id
 _symmetry_equiv_pos_as_xyz
  1  'x, y, z'
loop_
 _atom_site_type_symbol
 _atom_site_label
 _atom_site_symmetry_multiplicity
 _atom_site_fract_x
 _atom_site_fract_y
 _atom_site_fract_z
 _atom_site_occupancy
  Ce  Ce0  1  0.562684  0.752730  0.311739  1
  Ce  Ce1  1  0.712010  0.503540  0.995506  1
  Ce  Ce2  1  0.001534  0.715034  0.508379  1
  Ce  Ce3  1  0.512576  0.004902  0.718345  1
  Ce  Ce4  1  0.245700  0.186919  0.938144  1
  Ce  Ce5  1  0.938573  0.247607  0.187450  1
  Ce  Ce6  1  0.187122  0.938811  0.247602  1
  Tm  Tm7  1  0.771551  0.772652  0.775731  1
  Tm  Tm8  1  0.317287  0.568851  0.750598  1
  Tm  Tm9  1  0.751985  0.320644  0.568797  1
  Al  Al10  1  0.403999  0.400063  0.403421  1
  Al  Al11  1  0.096124  0.497361  0.993926  1
  Al  Al12  1  0.003486  0.106284  0.505147  1
  Al  Al13  1  0.498414  0.000993  0.098073  1
  Os  Os14  1  0.880533  0.117256  0.751650  1
  Os  Os15  1  0.745484  0.877595  0.125698  1
  Os  Os16  1  0.117530  0.749109  0.883240  1
  Os  Os17  1  0.254476  0.622253  0.377215  1
  Os  Os18  1  0.377830  0.242376  0.619142  1
  Os  Os19  1  0.621102  0.375021  0.240198  1
