# generated using pymatgen
data_K2NpCl5
_symmetry_space_group_name_H-M   'P 1'
_cell_length_a   8.19157200
_cell_length_b   8.76796800
_cell_length_c   13.19025900
_cell_angle_alpha   90.00000000
_cell_angle_beta   90.00000000
_cell_angle_gamma   90.00000000
_symmetry_Int_Tables_number   1
_chemical_formula_structural   K2NpCl5
_chemical_formula_sum   'K8 Np4 Cl20'
_cell_volume   947.36979125
_cell_formula_units_Z   4
loop_
 _symmetry_equiv_pos_site_id
 _symmetry_equiv_pos_as_xyz
  1  'x, y, z'
loop_
 _atom_site_type_symbol
 _atom_site_label
 _atom_site_symmetry_multiplicity
 _atom_site_fract_x
 _atom_site_fract_y
 _atom_site_fract_z
 _atom_site_occupancy
  K  K0  1  0.533721  0.500001  0.826042  1
  K  K1  1  0.466279  0.499999  0.173958  1
  K  K2  1  0.033721  0.499999  0.673958  1
  K  K3  1  0.466279  0.000001  0.173958  1
  K  K4  1  0.966279  0.500001  0.326042  1
  K  K5  1  0.533721  0.999999  0.826042  1
  K  K6  1  0.966279  0.999999  0.326042  1
  K  K7  1  0.033721  0.000001  0.673958  1
  Np  Np8  1  0.571787  0.750000  0.502456  1
  Np  Np9  1  0.428213  0.250000  0.497544  1
  Np  Np10  1  0.071787  0.250000  0.997544  1
  Np  Np11  1  0.928213  0.750000  0.002456  1
  Cl  Cl12  1  0.827664  0.750000  0.800232  1
  Cl  Cl13  1  0.172336  0.250000  0.199768  1
  Cl  Cl14  1  0.327664  0.250000  0.699768  1
  Cl  Cl15  1  0.672336  0.750000  0.300232  1
  Cl  Cl16  1  0.361436  0.750000  0.668967  1
  Cl  Cl17  1  0.638564  0.250000  0.331033  1
  Cl  Cl18  1  0.861436  0.250000  0.831033  1
  Cl  Cl19  1  0.138564  0.750000  0.168967  1
  Cl  Cl20  1  0.916404  0.750000  0.511338  1
  Cl  Cl21  1  0.083596  0.250000  0.488662  1
  Cl  Cl22  1  0.416404  0.250000  0.988662  1
  Cl  Cl23  1  0.583596  0.750000  0.011338  1
  Cl  Cl24  1  0.655296  0.040103  0.582667  1
  Cl  Cl25  1  0.344704  0.959897  0.417333  1
  Cl  Cl26  1  0.155296  0.959897  0.917333  1
  Cl  Cl27  1  0.344704  0.540103  0.417333  1
  Cl  Cl28  1  0.844704  0.040103  0.082667  1
  Cl  Cl29  1  0.655296  0.459897  0.582667  1
  Cl  Cl30  1  0.844704  0.459897  0.082667  1
  Cl  Cl31  1  0.155296  0.540103  0.917333  1
