# generated using pymatgen
data_H3BrF6
_symmetry_space_group_name_H-M   'P 1'
_cell_length_a   5.88393816
_cell_length_b   4.64050150
_cell_length_c   6.81124562
_cell_angle_alpha   98.24671327
_cell_angle_beta   103.86230547
_cell_angle_gamma   123.95602909
_symmetry_Int_Tables_number   1
_chemical_formula_structural   H3BrF6
_chemical_formula_sum   'H3 Br1 F6'
_cell_volume   140.61241129
_cell_formula_units_Z   1
loop_
 _symmetry_equiv_pos_site_id
 _symmetry_equiv_pos_as_xyz
  1  'x, y, z'
loop_
 _atom_site_type_symbol
 _atom_site_label
 _atom_site_symmetry_multiplicity
 _atom_site_fract_x
 _atom_site_fract_y
 _atom_site_fract_z
 _atom_site_occupancy
  H  H0  1  0.930487  0.092030  0.240238  1
  H  H1  1  0.300151  0.053516  0.903650  1
  H  H2  1  0.101854  0.896614  0.102202  1
  Br  Br3  1  0.425648  0.812353  0.581957  1
  F  F4  1  0.533075  0.580326  0.442067  1
  F  F5  1  0.873213  0.854782  0.140819  1
  F  F6  1  0.004828  0.406111  0.369591  1
  F  F7  1  0.315570  0.126447  0.768647  1
  F  F8  1  0.276590  0.934597  0.070284  1
  F  F9  1  0.813901  0.170927  0.765030  1
