# generated using pymatgen
data_Tb11Pr9Pb16
_symmetry_space_group_name_H-M   'P 1'
_cell_length_a   8.33628621
_cell_length_b   8.41332907
_cell_length_c   15.95704900
_cell_angle_alpha   90.03127207
_cell_angle_beta   90.14906993
_cell_angle_gamma   90.27620534
_symmetry_Int_Tables_number   1
_chemical_formula_structural   Tb11Pr9Pb16
_chemical_formula_sum   'Tb11 Pr9 Pb16'
_cell_volume   1119.14533210
_cell_formula_units_Z   1
loop_
 _symmetry_equiv_pos_site_id
 _symmetry_equiv_pos_as_xyz
  1  'x, y, z'
loop_
 _atom_site_type_symbol
 _atom_site_label
 _atom_site_symmetry_multiplicity
 _atom_site_fract_x
 _atom_site_fract_y
 _atom_site_fract_z
 _atom_site_occupancy
  Tb  Tb0  1  0.632067  0.159211  0.622553  1
  Tb  Tb1  1  0.132894  0.341375  0.878832  1
  Tb  Tb2  1  0.367346  0.841683  0.122000  1
  Tb  Tb3  1  0.868029  0.657680  0.378241  1
  Tb  Tb4  1  0.370452  0.841794  0.376099  1
  Tb  Tb5  1  0.867795  0.659187  0.122147  1
  Tb  Tb6  1  0.631618  0.158686  0.879547  1
  Tb  Tb7  1  0.798094  0.495144  0.750949  1
  Tb  Tb8  1  0.299522  0.004360  0.750563  1
  Tb  Tb9  1  0.201513  0.505597  0.248975  1
  Tb  Tb10  1  0.701804  0.995305  0.249987  1
  Pr  Pr11  1  0.129136  0.339301  0.619051  1
  Pr  Pr12  1  0.472416  0.678666  0.598563  1
  Pr  Pr13  1  0.974881  0.822639  0.903453  1
  Pr  Pr14  1  0.525572  0.322604  0.098021  1
  Pr  Pr15  1  0.027506  0.176605  0.399798  1
  Pr  Pr16  1  0.525342  0.322824  0.400832  1
  Pr  Pr17  1  0.025196  0.177452  0.098069  1
  Pr  Pr18  1  0.475536  0.678363  0.902718  1
  Pr  Pr19  1  0.973965  0.822952  0.598437  1
  Pb  Pb20  1  0.708988  0.962142  0.456303  1
  Pb  Pb21  1  0.206938  0.538758  0.043657  1
  Pb  Pb22  1  0.292856  0.038917  0.956929  1
  Pb  Pb23  1  0.783729  0.464498  0.543109  1
  Pb  Pb24  1  0.296179  0.032610  0.542517  1
  Pb  Pb25  1  0.794018  0.461155  0.956967  1
  Pb  Pb26  1  0.707004  0.960816  0.044377  1
  Pb  Pb27  1  0.208831  0.541470  0.452870  1
  Pb  Pb28  1  0.437161  0.370866  0.751883  1
  Pb  Pb29  1  0.934681  0.125263  0.752132  1
  Pb  Pb30  1  0.564281  0.628434  0.249271  1
  Pb  Pb31  1  0.063315  0.871040  0.250075  1
  Pb  Pb32  1  0.664294  0.851257  0.750661  1
  Pb  Pb33  1  0.163847  0.651391  0.751685  1
  Pb  Pb34  1  0.336304  0.149843  0.249212  1
  Pb  Pb35  1  0.836888  0.350114  0.249515  1
