# generated using pymatgen
data_Ba4HfIrO8
_symmetry_space_group_name_H-M   'P 1'
_cell_length_a   7.38404886
_cell_length_b   7.38404747
_cell_length_c   5.81829000
_cell_angle_alpha   90.00000000
_cell_angle_beta   90.00000000
_cell_angle_gamma   133.33891854
_symmetry_Int_Tables_number   1
_chemical_formula_structural   Ba4HfIrO8
_chemical_formula_sum   'Ba4 Hf1 Ir1 O8'
_cell_volume   230.72891276
_cell_formula_units_Z   1
loop_
 _symmetry_equiv_pos_site_id
 _symmetry_equiv_pos_as_xyz
  1  'x, y, z'
loop_
 _atom_site_type_symbol
 _atom_site_label
 _atom_site_symmetry_multiplicity
 _atom_site_fract_x
 _atom_site_fract_y
 _atom_site_fract_z
 _atom_site_occupancy
  Ba  Ba0  1  0.645732  0.354268  0.000000  1
  Ba  Ba1  1  0.145346  0.854654  0.500000  1
  Ba  Ba2  1  0.854654  0.145346  0.500000  1
  Ba  Ba3  1  0.354268  0.645732  0.000000  1
  Hf  Hf4  1  0.500000  0.500000  0.500000  1
  Ir  Ir5  1  0.000000  0.000000  0.000000  1
  O  O6  1  0.751322  0.751322  0.752660  1
  O  O7  1  0.248678  0.248678  0.247340  1
  O  O8  1  0.248678  0.248678  0.752660  1
  O  O9  1  0.751322  0.751322  0.247340  1
  O  O10  1  0.847374  0.152626  0.000000  1
  O  O11  1  0.344298  0.655702  0.500000  1
  O  O12  1  0.655702  0.344298  0.500000  1
  O  O13  1  0.152626  0.847374  0.000000  1
