# generated using pymatgen
data_Zr5Tl3Se
_symmetry_space_group_name_H-M   'P 1'
_cell_length_a   8.71780000
_cell_length_b   8.71780100
_cell_length_c   6.16896800
_cell_angle_alpha   90.00000000
_cell_angle_beta   90.00000000
_cell_angle_gamma   119.99998861
_symmetry_Int_Tables_number   1
_chemical_formula_structural   Zr5Tl3Se
_chemical_formula_sum   'Zr10 Tl6 Se2'
_cell_volume   406.02899836
_cell_formula_units_Z   2
loop_
 _symmetry_equiv_pos_site_id
 _symmetry_equiv_pos_as_xyz
  1  'x, y, z'
loop_
 _atom_site_type_symbol
 _atom_site_label
 _atom_site_symmetry_multiplicity
 _atom_site_fract_x
 _atom_site_fract_y
 _atom_site_fract_z
 _atom_site_occupancy
  Zr  Zr0  1  0.742383  0.742383  0.250000  1
  Zr  Zr1  1  0.257617  0.000000  0.250000  1
  Zr  Zr2  1  0.000000  0.257617  0.250000  1
  Zr  Zr3  1  0.257617  0.257617  0.750000  1
  Zr  Zr4  1  0.742383  0.000000  0.750000  1
  Zr  Zr5  1  0.000000  0.742383  0.750000  1
  Zr  Zr6  1  0.666667  0.333333  0.500000  1
  Zr  Zr7  1  0.333333  0.666667  0.500000  1
  Zr  Zr8  1  0.333333  0.666667  0.000000  1
  Zr  Zr9  1  0.666667  0.333333  0.000000  1
  Tl  Tl10  1  0.393762  0.393762  0.250000  1
  Tl  Tl11  1  0.606238  0.000000  0.250000  1
  Tl  Tl12  1  0.000000  0.606238  0.250000  1
  Tl  Tl13  1  0.606238  0.606238  0.750000  1
  Tl  Tl14  1  0.393762  0.000000  0.750000  1
  Tl  Tl15  1  0.000000  0.393762  0.750000  1
  Se  Se16  1  0.000000  0.000000  0.500000  1
  Se  Se17  1  0.000000  0.000000  0.000000  1
