# generated using pymatgen
data_Dy7U(Si4W3)4
_symmetry_space_group_name_H-M   'P 1'
_cell_length_a   6.78161708
_cell_length_b   6.93252269
_cell_length_c   12.94353863
_cell_angle_alpha   89.99265577
_cell_angle_beta   90.06806475
_cell_angle_gamma   90.21037582
_symmetry_Int_Tables_number   1
_chemical_formula_structural   Dy7U(Si4W3)4
_chemical_formula_sum   'Dy7 U1 Si16 W12'
_cell_volume   608.51929095
_cell_formula_units_Z   1
loop_
 _symmetry_equiv_pos_site_id
 _symmetry_equiv_pos_as_xyz
  1  'x, y, z'
loop_
 _atom_site_type_symbol
 _atom_site_label
 _atom_site_symmetry_multiplicity
 _atom_site_fract_x
 _atom_site_fract_y
 _atom_site_fract_z
 _atom_site_occupancy
  Dy  Dy0  1  0.495692  0.668132  0.592841  1
  Dy  Dy1  1  0.995083  0.833290  0.906806  1
  Dy  Dy2  1  0.503957  0.332952  0.093785  1
  Dy  Dy3  1  0.005413  0.165270  0.407572  1
  Dy  Dy4  1  0.503328  0.332092  0.406269  1
  Dy  Dy5  1  0.003699  0.167826  0.093843  1
  Dy  Dy6  1  0.495789  0.667670  0.906585  1
  U  U7  1  0.992423  0.830370  0.596947  1
  Si  Si8  1  0.661161  0.957626  0.454201  1
  Si  Si9  1  0.161109  0.542280  0.046276  1
  Si  Si10  1  0.338788  0.042785  0.953245  1
  Si  Si11  1  0.838819  0.455452  0.545914  1
  Si  Si12  1  0.336130  0.042839  0.544906  1
  Si  Si13  1  0.839217  0.457634  0.953425  1
  Si  Si14  1  0.660628  0.957614  0.046168  1
  Si  Si15  1  0.162896  0.543224  0.454675  1
  Si  Si16  1  0.463904  0.369838  0.748713  1
  Si  Si17  1  0.963334  0.129640  0.749746  1
  Si  Si18  1  0.537040  0.629531  0.249944  1
  Si  Si19  1  0.037410  0.870757  0.249664  1
  Si  Si20  1  0.695902  0.867813  0.750712  1
  Si  Si21  1  0.197335  0.632545  0.750128  1
  Si  Si22  1  0.303364  0.133007  0.250093  1
  Si  Si23  1  0.803232  0.367030  0.250767  1
  W  W24  1  0.669806  0.158848  0.625782  1
  W  W25  1  0.166277  0.335293  0.873979  1
  W  W26  1  0.332581  0.836331  0.125077  1
  W  W27  1  0.834936  0.667330  0.376488  1
  W  W28  1  0.334276  0.836189  0.374098  1
  W  W29  1  0.834006  0.664935  0.125461  1
  W  W30  1  0.666198  0.164875  0.874354  1
  W  W31  1  0.169029  0.337958  0.625374  1
  W  W32  1  0.835061  0.502247  0.747456  1
  W  W33  1  0.331357  0.999258  0.747499  1
  W  W34  1  0.164846  0.501673  0.250966  1
  W  W35  1  0.665971  0.997845  0.250241  1
