# generated using pymatgen
data_Dy9TmSn5Bi
_symmetry_space_group_name_H-M   'P 1'
_cell_length_a   8.99773304
_cell_length_b   8.99461667
_cell_length_c   6.51082014
_cell_angle_alpha   89.97639434
_cell_angle_beta   90.00992349
_cell_angle_gamma   120.00857172
_symmetry_Int_Tables_number   1
_chemical_formula_structural   Dy9TmSn5Bi
_chemical_formula_sum   'Dy9 Tm1 Sn5 Bi1'
_cell_volume   456.29376809
_cell_formula_units_Z   1
loop_
 _symmetry_equiv_pos_site_id
 _symmetry_equiv_pos_as_xyz
  1  'x, y, z'
loop_
 _atom_site_type_symbol
 _atom_site_label
 _atom_site_symmetry_multiplicity
 _atom_site_fract_x
 _atom_site_fract_y
 _atom_site_fract_z
 _atom_site_occupancy
  Dy  Dy0  1  0.994661  0.757182  0.749814  1
  Dy  Dy1  1  0.000569  0.239587  0.250165  1
  Dy  Dy2  1  0.760750  0.760602  0.250232  1
  Dy  Dy3  1  0.764354  0.999847  0.749831  1
  Dy  Dy4  1  0.237330  0.242997  0.749832  1
  Dy  Dy5  1  0.238038  0.999853  0.250166  1
  Dy  Dy6  1  0.669946  0.337423  0.001656  1
  Dy  Dy7  1  0.669929  0.337376  0.498364  1
  Dy  Dy8  1  0.332564  0.662586  0.001683  1
  Tm  Tm9  1  0.332490  0.662239  0.498045  1
  Sn  Sn10  1  0.395221  0.394613  0.250776  1
  Sn  Sn11  1  0.002485  0.606363  0.250771  1
  Sn  Sn12  1  0.000509  0.396478  0.749282  1
  Sn  Sn13  1  0.603118  0.604542  0.749269  1
  Sn  Sn14  1  0.604594  0.999096  0.250691  1
  Bi  Bi15  1  0.393442  0.999215  0.749423  1
