# generated using pymatgen
data_Tb2Dy2AlRu
_symmetry_space_group_name_H-M   'P 1'
_cell_length_a   9.53148139
_cell_length_b   9.53319325
_cell_length_c   9.53216924
_cell_angle_alpha   59.97922756
_cell_angle_beta   59.99783582
_cell_angle_gamma   59.99485767
_symmetry_Int_Tables_number   1
_chemical_formula_structural   Tb2Dy2AlRu
_chemical_formula_sum   'Tb8 Dy8 Al4 Ru4'
_cell_volume   612.32691013
_cell_formula_units_Z   4
loop_
 _symmetry_equiv_pos_site_id
 _symmetry_equiv_pos_as_xyz
  1  'x, y, z'
loop_
 _atom_site_type_symbol
 _atom_site_label
 _atom_site_symmetry_multiplicity
 _atom_site_fract_x
 _atom_site_fract_y
 _atom_site_fract_z
 _atom_site_occupancy
  Tb  Tb0  1  0.100831  0.100990  0.697304  1
  Tb  Tb1  1  0.689338  0.310649  0.689402  1
  Tb  Tb2  1  0.689672  0.689437  0.310284  1
  Tb  Tb3  1  0.689230  0.310845  0.310483  1
  Tb  Tb4  1  0.310178  0.689281  0.689613  1
  Tb  Tb5  1  0.555962  0.944153  0.555782  1
  Tb  Tb6  1  0.697511  0.101099  0.100789  1
  Tb  Tb7  1  0.555628  0.944136  0.944455  1
  Dy  Dy8  1  0.101104  0.697208  0.100973  1
  Dy  Dy9  1  0.944792  0.943933  0.555456  1
  Dy  Dy10  1  0.944576  0.555520  0.944072  1
  Dy  Dy11  1  0.309933  0.689612  0.310360  1
  Dy  Dy12  1  0.944692  0.555766  0.555722  1
  Dy  Dy13  1  0.309811  0.310646  0.689698  1
  Dy  Dy14  1  0.100720  0.100841  0.100962  1
  Dy  Dy15  1  0.555685  0.555557  0.944573  1
  Al  Al16  1  0.326382  0.327006  0.326484  1
  Al  Al17  1  0.020752  0.326473  0.326255  1
  Al  Al18  1  0.326180  0.020610  0.326379  1
  Al  Al19  1  0.326233  0.326658  0.020487  1
  Ru  Ru20  1  0.889586  0.889061  0.889588  1
  Ru  Ru21  1  0.890092  0.889202  0.331416  1
  Ru  Ru22  1  0.331303  0.889497  0.890025  1
  Ru  Ru23  1  0.889804  0.331816  0.889435  1
