# generated using pymatgen
data_CeTh2(SiPd)4
_symmetry_space_group_name_H-M   'P 1'
_cell_length_a   4.12599080
_cell_length_b   4.24839571
_cell_length_c   12.71961057
_cell_angle_alpha   80.38646676
_cell_angle_beta   80.66594613
_cell_angle_gamma   89.99999357
_symmetry_Int_Tables_number   1
_chemical_formula_structural   CeTh2(SiPd)4
_chemical_formula_sum   'Ce1 Th2 Si4 Pd4'
_cell_volume   216.83419858
_cell_formula_units_Z   1
loop_
 _symmetry_equiv_pos_site_id
 _symmetry_equiv_pos_as_xyz
  1  'x, y, z'
loop_
 _atom_site_type_symbol
 _atom_site_label
 _atom_site_symmetry_multiplicity
 _atom_site_fract_x
 _atom_site_fract_y
 _atom_site_fract_z
 _atom_site_occupancy
  Ce  Ce0  1  0.146029  0.646029  0.707940  1
  Th  Th1  1  0.000369  0.000369  0.999263  1
  Th  Th2  1  0.853826  0.353826  0.292348  1
  Si  Si3  1  0.695311  0.195311  0.609379  1
  Si  Si4  1  0.304280  0.804280  0.391439  1
  Si  Si5  1  0.451981  0.451981  0.096038  1
  Si  Si6  1  0.548811  0.548811  0.902376  1
  Pd  Pd7  1  0.596795  0.096795  0.806410  1
  Pd  Pd8  1  0.403448  0.903448  0.193104  1
  Pd  Pd9  1  0.249200  0.249200  0.501601  1
  Pd  Pd10  1  0.749950  0.749950  0.500100  1
