# generated using pymatgen
data_Er7Tm(SiI6)2
_symmetry_space_group_name_H-M   'P 1'
_cell_length_a   4.17752900
_cell_length_b   13.85674202
_cell_length_c   14.64405202
_cell_angle_alpha   89.99334206
_cell_angle_beta   90.00000000
_cell_angle_gamma   90.00000000
_symmetry_Int_Tables_number   1
_chemical_formula_structural   Er7Tm(SiI6)2
_chemical_formula_sum   'Er7 Tm1 Si2 I12'
_cell_volume   847.69937933
_cell_formula_units_Z   1
loop_
 _symmetry_equiv_pos_site_id
 _symmetry_equiv_pos_as_xyz
  1  'x, y, z'
loop_
 _atom_site_type_symbol
 _atom_site_label
 _atom_site_symmetry_multiplicity
 _atom_site_fract_x
 _atom_site_fract_y
 _atom_site_fract_z
 _atom_site_occupancy
  Er  Er0  1  0.500000  0.113810  0.347803  1
  Er  Er1  1  0.500000  0.886180  0.652212  1
  Er  Er2  1  0.500000  0.613765  0.152158  1
  Er  Er3  1  0.500000  0.386218  0.847859  1
  Er  Er4  1  0.000000  0.110232  0.573757  1
  Er  Er5  1  0.000000  0.889760  0.426243  1
  Er  Er6  1  0.000000  0.610101  0.926332  1
  Tm  Tm7  1  0.000000  0.390053  0.073541  1
  Si  Si8  1  0.500000  0.999999  0.500001  1
  Si  Si9  1  0.500000  0.499663  0.000223  1
  I  I10  1  0.500000  0.247514  0.161893  1
  I  I11  1  0.500000  0.752778  0.837927  1
  I  I12  1  0.500000  0.747182  0.337895  1
  I  I13  1  0.500000  0.252803  0.662114  1
  I  I14  1  0.000000  0.258774  0.414339  1
  I  I15  1  0.000000  0.741226  0.585662  1
  I  I16  1  0.000000  0.758724  0.085665  1
  I  I17  1  0.000000  0.241365  0.914532  1
  I  I18  1  0.000000  0.999422  0.240192  1
  I  I19  1  0.000000  0.000578  0.759806  1
  I  I20  1  0.000000  0.499279  0.259603  1
  I  I21  1  0.000000  0.500574  0.740243  1
