# generated using pymatgen
data_Zr3Sc6Al12Os7W
_symmetry_space_group_name_H-M   'P 1'
_cell_length_a   8.95537712
_cell_length_b   8.95537589
_cell_length_c   8.95708625
_cell_angle_alpha   60.00628030
_cell_angle_beta   60.00628870
_cell_angle_gamma   59.99997244
_symmetry_Int_Tables_number   1
_chemical_formula_structural   Zr3Sc6Al12Os7W
_chemical_formula_sum   'Zr3 Sc6 Al12 Os7 W1'
_cell_volume   507.99637557
_cell_formula_units_Z   1
loop_
 _symmetry_equiv_pos_site_id
 _symmetry_equiv_pos_as_xyz
  1  'x, y, z'
loop_
 _atom_site_type_symbol
 _atom_site_label
 _atom_site_symmetry_multiplicity
 _atom_site_fract_x
 _atom_site_fract_y
 _atom_site_fract_z
 _atom_site_occupancy
  Zr  Zr0  1  0.881402  0.358716  0.878480  1
  Zr  Zr1  1  0.358716  0.881402  0.878480  1
  Zr  Zr2  1  0.881403  0.881403  0.878481  1
  Sc  Sc3  1  0.711410  0.711410  0.290984  1
  Sc  Sc4  1  0.286198  0.711405  0.290984  1
  Sc  Sc5  1  0.711405  0.286198  0.290984  1
  Sc  Sc6  1  0.293305  0.293305  0.706428  1
  Sc  Sc7  1  0.706962  0.293307  0.706425  1
  Sc  Sc8  1  0.293307  0.706962  0.706425  1
  Al  Al9  1  0.121875  0.121875  0.634377  1
  Al  Al10  1  0.122116  0.634171  0.121598  1
  Al  Al11  1  0.634171  0.122116  0.121598  1
  Al  Al12  1  0.122116  0.122116  0.121597  1
  Al  Al13  1  0.662450  0.662450  0.012645  1
  Al  Al14  1  0.663647  0.009794  0.662911  1
  Al  Al15  1  0.009794  0.663647  0.662911  1
  Al  Al16  1  0.663646  0.663646  0.662910  1
  Al  Al17  1  0.334298  0.334298  0.997105  1
  Al  Al18  1  0.335062  0.995305  0.334571  1
  Al  Al19  1  0.995305  0.335062  0.334571  1
  Al  Al20  1  0.335061  0.335061  0.334572  1
  Os  Os21  1  0.992522  0.992522  0.022431  1
  Os  Os22  1  0.998518  0.998518  0.493874  1
  Os  Os23  1  0.509094  0.998517  0.493874  1
  Os  Os24  1  0.998517  0.509094  0.493874  1
  Os  Os25  1  0.499708  0.499708  0.999805  1
  Os  Os26  1  0.000770  0.499714  0.999807  1
  Os  Os27  1  0.499714  0.000770  0.999807  1
  W  W28  1  0.877502  0.877502  0.367490  1
