# generated using pymatgen
data_Ho8Cu3Si12Ni
_symmetry_space_group_name_H-M   'P 1'
_cell_length_a   7.96814701
_cell_length_b   7.96619946
_cell_length_c   8.05289531
_cell_angle_alpha   89.97520396
_cell_angle_beta   89.99452571
_cell_angle_gamma   120.00568634
_symmetry_Int_Tables_number   1
_chemical_formula_structural   Ho8Cu3Si12Ni
_chemical_formula_sum   'Ho8 Cu3 Si12 Ni1'
_cell_volume   442.65588550
_cell_formula_units_Z   1
loop_
 _symmetry_equiv_pos_site_id
 _symmetry_equiv_pos_as_xyz
  1  'x, y, z'
loop_
 _atom_site_type_symbol
 _atom_site_label
 _atom_site_symmetry_multiplicity
 _atom_site_fract_x
 _atom_site_fract_y
 _atom_site_fract_z
 _atom_site_occupancy
  Ho  Ho0  1  0.999993  0.999998  0.249603  1
  Ho  Ho1  1  0.999995  0.000001  0.750400  1
  Ho  Ho2  1  0.499074  0.500919  0.248698  1
  Ho  Ho3  1  0.499063  0.998146  0.248688  1
  Ho  Ho4  1  0.001845  0.500930  0.248705  1
  Ho  Ho5  1  0.498410  0.501583  0.751326  1
  Ho  Ho6  1  0.498406  0.996830  0.751330  1
  Ho  Ho7  1  0.003174  0.501593  0.751315  1
  Cu  Cu8  1  0.333329  0.666663  0.498830  1
  Cu  Cu9  1  0.666666  0.333388  0.501603  1
  Cu  Cu10  1  0.666748  0.333429  0.999091  1
  Si  Si11  1  0.169082  0.830906  0.500078  1
  Si  Si12  1  0.169071  0.338176  0.500079  1
  Si  Si13  1  0.661834  0.830925  0.500080  1
  Si  Si14  1  0.830788  0.169204  0.499848  1
  Si  Si15  1  0.830787  0.661586  0.499846  1
  Si  Si16  1  0.338364  0.169185  0.499846  1
  Si  Si17  1  0.832022  0.167825  0.999744  1
  Si  Si18  1  0.832155  0.664317  0.999742  1
  Si  Si19  1  0.335947  0.167900  0.999739  1
  Si  Si20  1  0.172451  0.827629  0.000421  1
  Si  Si21  1  0.172332  0.344616  0.000444  1
  Si  Si22  1  0.655149  0.827589  0.000424  1
  Ni  Ni23  1  0.333316  0.666661  0.000121  1
