# generated using pymatgen
data_Pm4Mn3NiO12
_symmetry_space_group_name_H-M   'P 1'
_cell_length_a   5.40962077
_cell_length_b   5.70532297
_cell_length_c   7.74286047
_cell_angle_alpha   90.14377098
_cell_angle_beta   90.39276805
_cell_angle_gamma   89.45156373
_symmetry_Int_Tables_number   1
_chemical_formula_structural   Pm4Mn3NiO12
_chemical_formula_sum   'Pm4 Mn3 Ni1 O12'
_cell_volume   238.95553298
_cell_formula_units_Z   1
loop_
 _symmetry_equiv_pos_site_id
 _symmetry_equiv_pos_as_xyz
  1  'x, y, z'
loop_
 _atom_site_type_symbol
 _atom_site_label
 _atom_site_symmetry_multiplicity
 _atom_site_fract_x
 _atom_site_fract_y
 _atom_site_fract_z
 _atom_site_occupancy
  Pm  Pm0  1  0.984796  0.063949  0.247986  1
  Pm  Pm1  1  0.516766  0.569092  0.246577  1
  Pm  Pm2  1  0.483234  0.430908  0.753423  1
  Pm  Pm3  1  0.015204  0.936051  0.752014  1
  Mn  Mn4  1  0.000000  0.499999  0.000000  1
  Mn  Mn5  1  0.500001  0.000000  0.500000  1
  Mn  Mn6  1  0.000000  0.499999  0.500000  1
  Ni  Ni7  1  0.500001  0.000000  0.000000  1
  O  O8  1  0.710563  0.308495  0.047402  1
  O  O9  1  0.810478  0.788081  0.049981  1
  O  O10  1  0.097279  0.471996  0.241847  1
  O  O11  1  0.407111  0.975067  0.255630  1
  O  O12  1  0.712661  0.314290  0.449357  1
  O  O13  1  0.796292  0.807058  0.450686  1
  O  O14  1  0.203708  0.192942  0.549314  1
  O  O15  1  0.287339  0.685709  0.550643  1
  O  O16  1  0.592889  0.024934  0.744370  1
  O  O17  1  0.902721  0.528004  0.758153  1
  O  O18  1  0.189522  0.211919  0.950020  1
  O  O19  1  0.289437  0.691504  0.952599  1
