# generated using pymatgen
data_Li14AlSi4
_symmetry_space_group_name_H-M   'P 1'
_cell_length_a   9.08118572
_cell_length_b   9.08118535
_cell_length_c   9.08118497
_cell_angle_alpha   108.90582117
_cell_angle_beta   108.90582289
_cell_angle_gamma   110.60803556
_symmetry_Int_Tables_number   1
_chemical_formula_structural   Li14AlSi4
_chemical_formula_sum   'Li28 Al2 Si8'
_cell_volume   576.33790350
_cell_formula_units_Z   2
loop_
 _symmetry_equiv_pos_site_id
 _symmetry_equiv_pos_as_xyz
  1  'x, y, z'
loop_
 _atom_site_type_symbol
 _atom_site_label
 _atom_site_symmetry_multiplicity
 _atom_site_fract_x
 _atom_site_fract_y
 _atom_site_fract_z
 _atom_site_occupancy
  Li  Li0  1  0.066604  0.541383  0.278122  1
  Li  Li1  1  0.263261  0.788483  0.721878  1
  Li  Li2  1  0.183396  0.961517  0.974778  1
  Li  Li3  1  0.986739  0.208617  0.025222  1
  Li  Li4  1  0.038483  0.013261  0.221878  1
  Li  Li5  1  0.791383  0.816604  0.778122  1
  Li  Li6  1  0.458617  0.736739  0.525222  1
  Li  Li7  1  0.211517  0.933396  0.474778  1
  Li  Li8  1  0.716345  0.348917  0.060400  1
  Li  Li9  1  0.961483  0.401083  0.867428  1
  Li  Li10  1  0.288517  0.655945  0.939600  1
  Li  Li11  1  0.533655  0.094055  0.132572  1
  Li  Li12  1  0.689138  0.856231  0.090193  1
  Li  Li13  1  0.483963  0.893769  0.332907  1
  Li  Li14  1  0.560862  0.151056  0.667093  1
  Li  Li15  1  0.766037  0.598944  0.909807  1
  Li  Li16  1  0.848944  0.516037  0.409807  1
  Li  Li17  1  0.401056  0.310862  0.167093  1
  Li  Li18  1  0.143769  0.233963  0.832907  1
  Li  Li19  1  0.106231  0.439138  0.590193  1
  Li  Li20  1  0.905945  0.038517  0.439600  1
  Li  Li21  1  0.344055  0.283655  0.632572  1
  Li  Li22  1  0.598917  0.466345  0.560400  1
  Li  Li23  1  0.651083  0.711483  0.367428  1
  Li  Li24  1  0.999050  0.875000  0.624050  1
  Li  Li25  1  0.250950  0.375000  0.375950  1
  Li  Li26  1  0.125000  0.749050  0.124050  1
  Li  Li27  1  0.625000  0.000950  0.875950  1
  Al  Al28  1  0.500000  0.500000  0.000000  1
  Al  Al29  1  0.750000  0.250000  0.500000  1
  Si  Si30  1  0.295030  0.533993  0.157843  1
  Si  Si31  1  0.376150  0.137187  0.842157  1
  Si  Si32  1  0.954970  0.612813  0.738963  1
  Si  Si33  1  0.873850  0.216007  0.261037  1
  Si  Si34  1  0.387187  0.126150  0.342157  1
  Si  Si35  1  0.783993  0.045030  0.657843  1
  Si  Si36  1  0.466007  0.623850  0.761037  1
  Si  Si37  1  0.862813  0.704970  0.238963  1
