# generated using pymatgen
data_La11Ho(SiBr3)4
_symmetry_space_group_name_H-M   'P 1'
_cell_length_a   10.65831386
_cell_length_b   10.59413823
_cell_length_c   10.65790655
_cell_angle_alpha   109.50224733
_cell_angle_beta   109.60410662
_cell_angle_gamma   109.45386994
_symmetry_Int_Tables_number   1
_chemical_formula_structural   La11Ho(SiBr3)4
_chemical_formula_sum   'La11 Ho1 Si4 Br12'
_cell_volume   924.73126433
_cell_formula_units_Z   1
loop_
 _symmetry_equiv_pos_site_id
 _symmetry_equiv_pos_as_xyz
  1  'x, y, z'
loop_
 _atom_site_type_symbol
 _atom_site_label
 _atom_site_symmetry_multiplicity
 _atom_site_fract_x
 _atom_site_fract_y
 _atom_site_fract_z
 _atom_site_occupancy
  La  La0  1  0.748883  0.237310  0.258298  1
  La  La1  1  0.241735  0.262632  0.751048  1
  La  La2  1  0.479377  0.489796  0.239322  1
  La  La3  1  0.260634  0.010047  0.020501  1
  La  La4  1  0.241523  0.479759  0.488954  1
  La  La5  1  0.011148  0.020265  0.258475  1
  La  La6  1  0.012659  0.491028  0.751238  1
  La  La7  1  0.489558  0.238627  0.476868  1
  La  La8  1  0.748859  0.009082  0.487415  1
  La  La9  1  0.023259  0.261474  0.010442  1
  La  La10  1  0.260617  0.750040  0.239330  1
  Ho  Ho11  1  0.481071  0.749972  0.018840  1
  Si  Si12  1  0.250384  0.249981  0.249583  1
  Si  Si13  1  0.000415  0.250007  0.499583  1
  Si  Si14  1  0.252922  0.502817  0.999525  1
  Si  Si15  1  0.500500  0.997182  0.247111  1
  Br  Br16  1  0.995823  0.991105  0.744561  1
  Br  Br17  1  0.740445  0.744790  0.233163  1
  Br  Br18  1  0.991469  0.744884  0.994770  1
  Br  Br19  1  0.250057  0.995763  0.504051  1
  Br  Br20  1  0.736581  0.984386  0.992408  1
  Br  Br21  1  0.504966  0.249997  0.995026  1
  Br  Br22  1  0.745977  0.250019  0.754040  1
  Br  Br23  1  0.505176  0.755070  0.508402  1
  Br  Br24  1  0.755481  0.508915  0.504176  1
  Br  Br25  1  0.266856  0.755233  0.759514  1
  Br  Br26  1  0.507672  0.515650  0.763427  1
  Br  Br27  1  0.995951  0.504170  0.249929  1
