# generated using pymatgen
data_NdDy2SiPd5
_symmetry_space_group_name_H-M   'P 1'
_cell_length_a   8.30227757
_cell_length_b   8.30227713
_cell_length_c   8.30227700
_cell_angle_alpha   127.86042721
_cell_angle_beta   126.17354267
_cell_angle_gamma   78.23060419
_symmetry_Int_Tables_number   1
_chemical_formula_structural   NdDy2SiPd5
_chemical_formula_sum   'Nd2 Dy4 Si2 Pd10'
_cell_volume   353.28356696
_cell_formula_units_Z   2
loop_
 _symmetry_equiv_pos_site_id
 _symmetry_equiv_pos_as_xyz
  1  'x, y, z'
loop_
 _atom_site_type_symbol
 _atom_site_label
 _atom_site_symmetry_multiplicity
 _atom_site_fract_x
 _atom_site_fract_y
 _atom_site_fract_z
 _atom_site_occupancy
  Nd  Nd0  1  0.382757  0.250000  0.132757  1
  Nd  Nd1  1  0.617243  0.750000  0.867243  1
  Dy  Dy2  1  0.224287  0.450105  0.774183  1
  Dy  Dy3  1  0.775713  0.549895  0.225817  1
  Dy  Dy4  1  0.824079  0.049895  0.774183  1
  Dy  Dy5  1  0.175921  0.950105  0.225817  1
  Si  Si6  1  0.782999  0.250000  0.532999  1
  Si  Si7  1  0.217001  0.750000  0.467001  1
  Pd  Pd8  1  0.163172  0.401044  0.357010  1
  Pd  Pd9  1  0.836828  0.193838  0.237871  1
  Pd  Pd10  1  0.455967  0.098956  0.762129  1
  Pd  Pd11  1  0.544033  0.306162  0.642990  1
  Pd  Pd12  1  0.000000  0.500000  0.000000  1
  Pd  Pd13  1  0.000000  0.000000  0.500000  1
  Pd  Pd14  1  0.455967  0.693838  0.357010  1
  Pd  Pd15  1  0.544033  0.901044  0.237871  1
  Pd  Pd16  1  0.163172  0.806162  0.762129  1
  Pd  Pd17  1  0.836828  0.598956  0.642990  1
