# generated using pymatgen
data_Dy5PtSe4
_symmetry_space_group_name_H-M   'P 1'
_cell_length_a   7.09789666
_cell_length_b   7.09789723
_cell_length_c   7.09789695
_cell_angle_alpha   99.68962455
_cell_angle_beta   99.68961087
_cell_angle_gamma   131.55804780
_symmetry_Int_Tables_number   1
_chemical_formula_structural   Dy5PtSe4
_chemical_formula_sum   'Dy5 Pt1 Se4'
_cell_volume   244.02598663
_cell_formula_units_Z   1
loop_
 _symmetry_equiv_pos_site_id
 _symmetry_equiv_pos_as_xyz
  1  'x, y, z'
loop_
 _atom_site_type_symbol
 _atom_site_label
 _atom_site_symmetry_multiplicity
 _atom_site_fract_x
 _atom_site_fract_y
 _atom_site_fract_z
 _atom_site_occupancy
  Dy  Dy0  1  0.401769  0.788817  0.190585  1
  Dy  Dy1  1  0.000000  0.000000  0.000000  1
  Dy  Dy2  1  0.598231  0.211183  0.809415  1
  Dy  Dy3  1  0.211183  0.401769  0.612952  1
  Dy  Dy4  1  0.788817  0.598231  0.387048  1
  Pt  Pt5  1  0.500000  0.500000  0.000000  1
  Se  Se6  1  0.094093  0.694833  0.788925  1
  Se  Se7  1  0.694833  0.905907  0.600741  1
  Se  Se8  1  0.305167  0.094093  0.399259  1
  Se  Se9  1  0.905907  0.305167  0.211075  1
