# generated using pymatgen
data_Lu4TaSn(B2Ru5)2
_symmetry_space_group_name_H-M   'P 1'
_cell_length_a   9.63714500
_cell_length_b   9.63714500
_cell_length_c   3.11273000
_cell_angle_alpha   90.00000000
_cell_angle_beta   90.00000000
_cell_angle_gamma   90.00000000
_symmetry_Int_Tables_number   1
_chemical_formula_structural   Lu4TaSn(B2Ru5)2
_chemical_formula_sum   'Lu4 Ta1 Sn1 B4 Ru10'
_cell_volume   289.09344082
_cell_formula_units_Z   1
loop_
 _symmetry_equiv_pos_site_id
 _symmetry_equiv_pos_as_xyz
  1  'x, y, z'
loop_
 _atom_site_type_symbol
 _atom_site_label
 _atom_site_symmetry_multiplicity
 _atom_site_fract_x
 _atom_site_fract_y
 _atom_site_fract_z
 _atom_site_occupancy
  Lu  Lu0  1  0.825647  0.675178  0.000000  1
  Lu  Lu1  1  0.174353  0.324822  0.000000  1
  Lu  Lu2  1  0.324822  0.825647  0.000000  1
  Lu  Lu3  1  0.675178  0.174353  0.000000  1
  Ta  Ta4  1  0.000000  0.000000  0.000000  1
  Sn  Sn5  1  0.500000  0.500000  0.000000  1
  B  B6  1  0.620130  0.879383  0.000000  1
  B  B7  1  0.379870  0.120617  0.000000  1
  B  B8  1  0.120617  0.620130  0.000000  1
  B  B9  1  0.879383  0.379870  0.000000  1
  Ru  Ru10  1  0.572420  0.722353  0.500000  1
  Ru  Ru11  1  0.427580  0.277647  0.500000  1
  Ru  Ru12  1  0.069466  0.782165  0.500000  1
  Ru  Ru13  1  0.930534  0.217835  0.500000  1
  Ru  Ru14  1  0.277647  0.572420  0.500000  1
  Ru  Ru15  1  0.722353  0.427580  0.500000  1
  Ru  Ru16  1  0.217835  0.069466  0.500000  1
  Ru  Ru17  1  0.782165  0.930534  0.500000  1
  Ru  Ru18  1  0.500000  0.000000  0.500000  1
  Ru  Ru19  1  0.000000  0.500000  0.500000  1
