# generated using pymatgen
data_KThPt10
_symmetry_space_group_name_H-M   'P 1'
_cell_length_a   4.40279700
_cell_length_b   5.51047600
_cell_length_c   9.43319700
_cell_angle_alpha   90.00000000
_cell_angle_beta   90.00000000
_cell_angle_gamma   90.00000000
_symmetry_Int_Tables_number   1
_chemical_formula_structural   KThPt10
_chemical_formula_sum   'K1 Th1 Pt10'
_cell_volume   228.86357695
_cell_formula_units_Z   1
loop_
 _symmetry_equiv_pos_site_id
 _symmetry_equiv_pos_as_xyz
  1  'x, y, z'
loop_
 _atom_site_type_symbol
 _atom_site_label
 _atom_site_symmetry_multiplicity
 _atom_site_fract_x
 _atom_site_fract_y
 _atom_site_fract_z
 _atom_site_occupancy
  K  K0  1  0.000000  0.500000  0.500000  1
  Th  Th1  1  0.000000  0.000000  0.000000  1
  Pt  Pt2  1  0.000000  0.000000  0.326399  1
  Pt  Pt3  1  0.000000  0.500000  0.836030  1
  Pt  Pt4  1  0.000000  0.500000  0.163970  1
  Pt  Pt5  1  0.000000  0.000000  0.673601  1
  Pt  Pt6  1  0.500000  0.000000  0.500000  1
  Pt  Pt7  1  0.500000  0.500000  0.000000  1
  Pt  Pt8  1  0.500000  0.243712  0.241398  1
  Pt  Pt9  1  0.500000  0.756288  0.758602  1
  Pt  Pt10  1  0.500000  0.756288  0.241398  1
  Pt  Pt11  1  0.500000  0.243712  0.758602  1
