# generated using pymatgen
data_Rb3Ho(PS4)2
_symmetry_space_group_name_H-M   'P 1'
_cell_length_a   6.85148600
_cell_length_b   15.25333435
_cell_length_c   15.42007000
_cell_angle_alpha   99.83261091
_cell_angle_beta   90.00000000
_cell_angle_gamma   90.00000000
_symmetry_Int_Tables_number   1
_chemical_formula_structural   Rb3Ho(PS4)2
_chemical_formula_sum   'Rb12 Ho4 P8 S32'
_cell_volume   1587.84892679
_cell_formula_units_Z   4
loop_
 _symmetry_equiv_pos_site_id
 _symmetry_equiv_pos_as_xyz
  1  'x, y, z'
loop_
 _atom_site_type_symbol
 _atom_site_label
 _atom_site_symmetry_multiplicity
 _atom_site_fract_x
 _atom_site_fract_y
 _atom_site_fract_z
 _atom_site_occupancy
  Rb  Rb0  1  0.257381  0.725124  0.876347  1
  Rb  Rb1  1  0.256834  0.543127  0.620104  1
  Rb  Rb2  1  0.756834  0.956873  0.879896  1
  Rb  Rb3  1  0.757381  0.774876  0.623653  1
  Rb  Rb4  1  0.759266  0.614596  0.022420  1
  Rb  Rb5  1  0.743166  0.456873  0.379896  1
  Rb  Rb6  1  0.240734  0.385404  0.977580  1
  Rb  Rb7  1  0.242619  0.225124  0.376347  1
  Rb  Rb8  1  0.259266  0.885404  0.477580  1
  Rb  Rb9  1  0.740734  0.114596  0.522420  1
  Rb  Rb10  1  0.243166  0.043127  0.120104  1
  Rb  Rb11  1  0.742619  0.274876  0.123653  1
  Ho  Ho12  1  0.231677  0.121512  0.766949  1
  Ho  Ho13  1  0.731677  0.378488  0.733051  1
  Ho  Ho14  1  0.268323  0.621512  0.266949  1
  Ho  Ho15  1  0.768323  0.878488  0.233051  1
  P  P16  1  0.255240  0.913381  0.724477  1
  P  P17  1  0.726223  0.716353  0.368707  1
  P  P18  1  0.244760  0.413381  0.224477  1
  P  P19  1  0.273777  0.283647  0.631293  1
  P  P20  1  0.755240  0.586619  0.775523  1
  P  P21  1  0.226223  0.783647  0.131293  1
  P  P22  1  0.744760  0.086619  0.275523  1
  P  P23  1  0.773777  0.216353  0.868707  1
  S  S24  1  0.011401  0.482825  0.185671  1
  S  S25  1  0.754418  0.851330  0.409475  1
  S  S26  1  0.486687  0.666783  0.424516  1
  S  S27  1  0.656959  0.700907  0.236503  1
  S  S28  1  0.511401  0.017175  0.314329  1
  S  S29  1  0.738549  0.217283  0.329865  1
  S  S30  1  0.513313  0.333217  0.575484  1
  S  S31  1  0.990758  0.024202  0.314384  1
  S  S32  1  0.746567  0.055528  0.140794  1
  S  S33  1  0.527705  0.152160  0.900295  1
  S  S34  1  0.986687  0.833217  0.075484  1
  S  S35  1  0.509242  0.524202  0.814384  1
  S  S36  1  0.488599  0.982825  0.685671  1
  S  S37  1  0.472295  0.847840  0.099705  1
  S  S38  1  0.261451  0.782717  0.670135  1
  S  S39  1  0.343041  0.299093  0.763497  1
  S  S40  1  0.009242  0.975798  0.685616  1
  S  S41  1  0.490758  0.475798  0.185616  1
  S  S42  1  0.156959  0.799093  0.263497  1
  S  S43  1  0.972295  0.652160  0.400295  1
  S  S44  1  0.027705  0.347840  0.599705  1
  S  S45  1  0.843041  0.200907  0.736503  1
  S  S46  1  0.254418  0.648670  0.090525  1
  S  S47  1  0.238549  0.282717  0.170135  1
  S  S48  1  0.745582  0.351330  0.909475  1
  S  S49  1  0.753433  0.555528  0.640794  1
  S  S50  1  0.988599  0.517175  0.814329  1
  S  S51  1  0.246567  0.444472  0.359206  1
  S  S52  1  0.013313  0.166783  0.924516  1
  S  S53  1  0.761451  0.717283  0.829865  1
  S  S54  1  0.253433  0.944472  0.859206  1
  S  S55  1  0.245582  0.148670  0.590525  1
