# generated using pymatgen
data_Dy2YNi6B2Ir
_symmetry_space_group_name_H-M   'P 1'
_cell_length_a   5.08646300
_cell_length_b   5.08646310
_cell_length_c   14.58897400
_cell_angle_alpha   90.00000000
_cell_angle_beta   90.00000000
_cell_angle_gamma   120.00000585
_symmetry_Int_Tables_number   1
_chemical_formula_structural   Dy2YNi6B2Ir
_chemical_formula_sum   'Dy4 Y2 Ni12 B4 Ir2'
_cell_volume   326.87909304
_cell_formula_units_Z   2
loop_
 _symmetry_equiv_pos_site_id
 _symmetry_equiv_pos_as_xyz
  1  'x, y, z'
loop_
 _atom_site_type_symbol
 _atom_site_label
 _atom_site_symmetry_multiplicity
 _atom_site_fract_x
 _atom_site_fract_y
 _atom_site_fract_z
 _atom_site_occupancy
  Dy  Dy0  1  0.666667  0.333333  0.531239  1
  Dy  Dy1  1  0.333333  0.666667  0.031239  1
  Dy  Dy2  1  0.666667  0.333333  0.749719  1
  Dy  Dy3  1  0.333333  0.666667  0.249719  1
  Y  Y4  1  0.333333  0.666667  0.468604  1
  Y  Y5  1  0.666667  0.333333  0.968604  1
  Ni  Ni6  1  0.834663  0.669327  0.347769  1
  Ni  Ni7  1  0.330673  0.165337  0.347769  1
  Ni  Ni8  1  0.834643  0.165357  0.152241  1
  Ni  Ni9  1  0.669288  0.834643  0.652241  1
  Ni  Ni10  1  0.165357  0.330712  0.652241  1
  Ni  Ni11  1  0.834643  0.669288  0.152241  1
  Ni  Ni12  1  0.330712  0.165357  0.152241  1
  Ni  Ni13  1  0.669327  0.834663  0.847769  1
  Ni  Ni14  1  0.165337  0.330673  0.847769  1
  Ni  Ni15  1  0.165357  0.834643  0.652241  1
  Ni  Ni16  1  0.165337  0.834663  0.847769  1
  Ni  Ni17  1  0.834663  0.165337  0.347769  1
  B  B18  1  0.666667  0.333333  0.250054  1
  B  B19  1  0.333333  0.666667  0.750054  1
  B  B20  1  0.000000  0.000000  0.750132  1
  B  B21  1  0.000000  0.000000  0.250132  1
  Ir  Ir22  1  0.000000  0.000000  0.000223  1
  Ir  Ir23  1  0.000000  0.000000  0.500223  1
