# generated using pymatgen
data_Er2Ga9FePd2
_symmetry_space_group_name_H-M   'P 1'
_cell_length_a   7.57431483
_cell_length_b   7.57431338
_cell_length_c   9.47628600
_cell_angle_alpha   90.00000000
_cell_angle_beta   90.00000000
_cell_angle_gamma   119.95495464
_symmetry_Int_Tables_number   1
_chemical_formula_structural   Er2Ga9FePd2
_chemical_formula_sum   'Er4 Ga18 Fe2 Pd4'
_cell_volume   471.03411631
_cell_formula_units_Z   2
loop_
 _symmetry_equiv_pos_site_id
 _symmetry_equiv_pos_as_xyz
  1  'x, y, z'
loop_
 _atom_site_type_symbol
 _atom_site_label
 _atom_site_symmetry_multiplicity
 _atom_site_fract_x
 _atom_site_fract_y
 _atom_site_fract_z
 _atom_site_occupancy
  Er  Er0  1  0.997341  0.658982  0.250000  1
  Er  Er1  1  0.002659  0.341018  0.750000  1
  Er  Er2  1  0.658982  0.997341  0.250000  1
  Er  Er3  1  0.341018  0.002659  0.750000  1
  Ga  Ga4  1  0.102304  0.102304  0.250000  1
  Ga  Ga5  1  0.897696  0.897696  0.750000  1
  Ga  Ga6  1  0.999258  0.321155  0.078933  1
  Ga  Ga7  1  0.000742  0.678845  0.921067  1
  Ga  Ga8  1  0.000742  0.678845  0.578933  1
  Ga  Ga9  1  0.321155  0.999258  0.421067  1
  Ga  Ga10  1  0.999258  0.321155  0.421067  1
  Ga  Ga11  1  0.678845  0.000742  0.578933  1
  Ga  Ga12  1  0.678845  0.000742  0.921067  1
  Ga  Ga13  1  0.321155  0.999258  0.078933  1
  Ga  Ga14  1  0.317496  0.317496  0.565852  1
  Ga  Ga15  1  0.682504  0.682505  0.434148  1
  Ga  Ga16  1  0.682504  0.682505  0.065852  1
  Ga  Ga17  1  0.317496  0.317496  0.934148  1
  Ga  Ga18  1  0.341335  0.540508  0.250000  1
  Ga  Ga19  1  0.658665  0.459492  0.750000  1
  Ga  Ga20  1  0.540508  0.341335  0.250000  1
  Ga  Ga21  1  0.459492  0.658665  0.750000  1
  Fe  Fe22  1  0.000000  0.000000  0.000000  1
  Fe  Fe23  1  0.000000  0.000000  0.500000  1
  Pd  Pd24  1  0.671608  0.328392  0.000000  1
  Pd  Pd25  1  0.328392  0.671608  0.000000  1
  Pd  Pd26  1  0.328392  0.671608  0.500000  1
  Pd  Pd27  1  0.671608  0.328392  0.500000  1
