# generated using pymatgen
data_Pr6RuI10
_symmetry_space_group_name_H-M   'P 1'
_cell_length_a   8.05819637
_cell_length_b   10.04744108
_cell_length_c   10.07975220
_cell_angle_alpha   107.06924044
_cell_angle_beta   96.97490246
_cell_angle_gamma   104.71375257
_symmetry_Int_Tables_number   1
_chemical_formula_structural   Pr6RuI10
_chemical_formula_sum   'Pr6 Ru1 I10'
_cell_volume   737.42078744
_cell_formula_units_Z   1
loop_
 _symmetry_equiv_pos_site_id
 _symmetry_equiv_pos_as_xyz
  1  'x, y, z'
loop_
 _atom_site_type_symbol
 _atom_site_label
 _atom_site_symmetry_multiplicity
 _atom_site_fract_x
 _atom_site_fract_y
 _atom_site_fract_z
 _atom_site_occupancy
  Pr  Pr0  1  0.115880  0.042913  0.759084  1
  Pr  Pr1  1  0.884120  0.957087  0.240916  1
  Pr  Pr2  1  0.968068  0.282629  0.083070  1
  Pr  Pr3  1  0.644650  0.872575  0.829294  1
  Pr  Pr4  1  0.355350  0.127425  0.170706  1
  Pr  Pr5  1  0.031932  0.717371  0.916930  1
  Ru  Ru6  1  0.000000  0.000000  0.000000  1
  I  I7  1  0.350006  0.450369  0.271990  1
  I  I8  1  0.649994  0.549631  0.728010  1
  I  I9  1  0.742747  0.912772  0.539620  1
  I  I10  1  0.086459  0.370361  0.819818  1
  I  I11  1  0.913541  0.629639  0.180182  1
  I  I12  1  0.454760  0.816372  0.091972  1
  I  I13  1  0.545240  0.183628  0.908028  1
  I  I14  1  0.783719  0.257630  0.345869  1
  I  I15  1  0.216281  0.742370  0.654131  1
  I  I16  1  0.257253  0.087228  0.460380  1
