# generated using pymatgen
data_Ca2VO4F
_symmetry_space_group_name_H-M   'P 1'
_cell_length_a   8.27374853
_cell_length_b   8.27374762
_cell_length_c   10.85616435
_cell_angle_alpha   62.01547516
_cell_angle_beta   62.01547819
_cell_angle_gamma   50.97360287
_symmetry_Int_Tables_number   1
_chemical_formula_structural   Ca2VO4F
_chemical_formula_sum   'Ca8 V4 O16 F4'
_cell_volume   493.19620605
_cell_formula_units_Z   4
loop_
 _symmetry_equiv_pos_site_id
 _symmetry_equiv_pos_as_xyz
  1  'x, y, z'
loop_
 _atom_site_type_symbol
 _atom_site_label
 _atom_site_symmetry_multiplicity
 _atom_site_fract_x
 _atom_site_fract_y
 _atom_site_fract_z
 _atom_site_occupancy
  Ca  Ca0  1  0.210521  0.700371  0.975572  1
  Ca  Ca1  1  0.299629  0.789479  0.524428  1
  Ca  Ca2  1  0.789479  0.299629  0.024428  1
  Ca  Ca3  1  0.700371  0.210521  0.475572  1
  Ca  Ca4  1  0.035541  0.260465  0.657273  1
  Ca  Ca5  1  0.739535  0.964459  0.842727  1
  Ca  Ca6  1  0.964459  0.739535  0.342727  1
  Ca  Ca7  1  0.260465  0.035541  0.157273  1
  V  V8  1  0.228514  0.411841  0.808264  1
  V  V9  1  0.588159  0.771486  0.691736  1
  V  V10  1  0.771486  0.588159  0.191736  1
  V  V11  1  0.411841  0.228514  0.308264  1
  O  O12  1  0.775980  0.615640  0.568162  1
  O  O13  1  0.384360  0.224020  0.931838  1
  O  O14  1  0.224020  0.384360  0.431838  1
  O  O15  1  0.615640  0.775980  0.068162  1
  O  O16  1  0.942731  0.655959  0.176448  1
  O  O17  1  0.344041  0.057269  0.323552  1
  O  O18  1  0.057269  0.344041  0.823552  1
  O  O19  1  0.655959  0.942731  0.676448  1
  O  O20  1  0.603506  0.574010  0.363699  1
  O  O21  1  0.425990  0.396494  0.136301  1
  O  O22  1  0.396494  0.425990  0.636301  1
  O  O23  1  0.574010  0.603506  0.863699  1
  O  O24  1  0.912806  0.332979  0.163890  1
  O  O25  1  0.667021  0.087194  0.336110  1
  O  O26  1  0.087194  0.667021  0.836110  1
  O  O27  1  0.332979  0.912806  0.663890  1
  F  F28  1  0.079374  0.893557  0.392197  1
  F  F29  1  0.106443  0.920626  0.107803  1
  F  F30  1  0.920626  0.106443  0.607803  1
  F  F31  1  0.893557  0.079374  0.892197  1
