# generated using pymatgen
data_K(Cd2Ag)4
_symmetry_space_group_name_H-M   'P 1'
_cell_length_a   7.70689463
_cell_length_b   7.70689415
_cell_length_c   7.70689475
_cell_angle_alpha   98.17941516
_cell_angle_beta   98.17941990
_cell_angle_gamma   135.68036580
_symmetry_Int_Tables_number   1
_chemical_formula_structural   K(Cd2Ag)4
_chemical_formula_sum   'K1 Cd8 Ag4'
_cell_volume   296.19578239
_cell_formula_units_Z   1
loop_
 _symmetry_equiv_pos_site_id
 _symmetry_equiv_pos_as_xyz
  1  'x, y, z'
loop_
 _atom_site_type_symbol
 _atom_site_label
 _atom_site_symmetry_multiplicity
 _atom_site_fract_x
 _atom_site_fract_y
 _atom_site_fract_z
 _atom_site_occupancy
  K  K0  1  0.000000  0.000000  0.000000  1
  Cd  Cd1  1  0.000000  0.346440  0.346440  1
  Cd  Cd2  1  0.000000  0.653560  0.653560  1
  Cd  Cd3  1  0.653560  0.000000  0.653560  1
  Cd  Cd4  1  0.346440  0.000000  0.346440  1
  Cd  Cd5  1  0.500000  0.280319  0.780319  1
  Cd  Cd6  1  0.500000  0.719681  0.219681  1
  Cd  Cd7  1  0.719681  0.500000  0.219681  1
  Cd  Cd8  1  0.280319  0.500000  0.780319  1
  Ag  Ag9  1  0.000000  0.000000  0.500000  1
  Ag  Ag10  1  0.500000  0.500000  0.500000  1
  Ag  Ag11  1  0.500000  0.000000  0.000000  1
  Ag  Ag12  1  0.000000  0.500000  0.000000  1
