# generated using pymatgen
data_Dy3Ho13CdNi4Ag3
_symmetry_space_group_name_H-M   'P 1'
_cell_length_a   9.41794267
_cell_length_b   9.44856368
_cell_length_c   9.44856400
_cell_angle_alpha   59.99999888
_cell_angle_beta   59.89238673
_cell_angle_gamma   59.89239361
_symmetry_Int_Tables_number   1
_chemical_formula_structural   Dy3Ho13CdNi4Ag3
_chemical_formula_sum   'Dy3 Ho13 Cd1 Ni4 Ag3'
_cell_volume   593.55960435
_cell_formula_units_Z   1
loop_
 _symmetry_equiv_pos_site_id
 _symmetry_equiv_pos_as_xyz
  1  'x, y, z'
loop_
 _atom_site_type_symbol
 _atom_site_label
 _atom_site_symmetry_multiplicity
 _atom_site_fract_x
 _atom_site_fract_y
 _atom_site_fract_z
 _atom_site_occupancy
  Dy  Dy0  1  0.350687  0.349267  0.349267  1
  Dy  Dy1  1  0.350687  0.349267  0.950778  1
  Dy  Dy2  1  0.350687  0.950778  0.349267  1
  Ho  Ho3  1  0.948330  0.350556  0.350556  1
  Ho  Ho4  1  0.811154  0.188714  0.188714  1
  Ho  Ho5  1  0.187119  0.812074  0.812074  1
  Ho  Ho6  1  0.187119  0.812074  0.188732  1
  Ho  Ho7  1  0.811154  0.188714  0.811418  1
  Ho  Ho8  1  0.187119  0.188732  0.812074  1
  Ho  Ho9  1  0.811154  0.811418  0.188714  1
  Ho  Ho10  1  0.931745  0.565618  0.565618  1
  Ho  Ho11  1  0.564095  0.935457  0.935457  1
  Ho  Ho12  1  0.564095  0.935457  0.564992  1
  Ho  Ho13  1  0.931745  0.565618  0.937018  1
  Ho  Ho14  1  0.564095  0.564992  0.935457  1
  Ho  Ho15  1  0.931745  0.937018  0.565618  1
  Cd  Cd16  1  0.262795  0.579069  0.579069  1
  Ni  Ni17  1  0.143022  0.142049  0.142049  1
  Ni  Ni18  1  0.143022  0.142049  0.572879  1
  Ni  Ni19  1  0.143022  0.572879  0.142049  1
  Ni  Ni20  1  0.574988  0.141670  0.141670  1
  Ag  Ag21  1  0.583474  0.582445  0.582445  1
  Ag  Ag22  1  0.583474  0.582445  0.251636  1
  Ag  Ag23  1  0.583474  0.251636  0.582445  1
