# generated using pymatgen
data_NdPu(Sb2Au)2
_symmetry_space_group_name_H-M   'P 1'
_cell_length_a   4.41439400
_cell_length_b   4.41439400
_cell_length_c   10.07762600
_cell_angle_alpha   90.00000000
_cell_angle_beta   90.00000000
_cell_angle_gamma   90.00000000
_symmetry_Int_Tables_number   1
_chemical_formula_structural   NdPu(Sb2Au)2
_chemical_formula_sum   'Nd1 Pu1 Sb4 Au2'
_cell_volume   196.38143198
_cell_formula_units_Z   1
loop_
 _symmetry_equiv_pos_site_id
 _symmetry_equiv_pos_as_xyz
  1  'x, y, z'
loop_
 _atom_site_type_symbol
 _atom_site_label
 _atom_site_symmetry_multiplicity
 _atom_site_fract_x
 _atom_site_fract_y
 _atom_site_fract_z
 _atom_site_occupancy
  Nd  Nd0  1  0.500000  0.000000  0.241124  1
  Pu  Pu1  1  0.000000  0.500000  0.752366  1
  Sb  Sb2  1  0.500000  0.500000  0.988903  1
  Sb  Sb3  1  0.000000  0.000000  0.988903  1
  Sb  Sb4  1  0.000000  0.500000  0.321522  1
  Sb  Sb5  1  0.500000  0.000000  0.696477  1
  Au  Au6  1  0.500000  0.500000  0.505352  1
  Au  Au7  1  0.000000  0.000000  0.505352  1
