# generated using pymatgen
data_LaLu5(AuO7)2
_symmetry_space_group_name_H-M   'P 1'
_cell_length_a   6.41859313
_cell_length_b   6.41859448
_cell_length_c   7.38768601
_cell_angle_alpha   90.12863933
_cell_angle_beta   89.87136303
_cell_angle_gamma   108.51230650
_symmetry_Int_Tables_number   1
_chemical_formula_structural   LaLu5(AuO7)2
_chemical_formula_sum   'La1 Lu5 Au2 O14'
_cell_volume   288.61035801
_cell_formula_units_Z   1
loop_
 _symmetry_equiv_pos_site_id
 _symmetry_equiv_pos_as_xyz
  1  'x, y, z'
loop_
 _atom_site_type_symbol
 _atom_site_label
 _atom_site_symmetry_multiplicity
 _atom_site_fract_x
 _atom_site_fract_y
 _atom_site_fract_z
 _atom_site_occupancy
  La  La0  1  0.499745  0.499745  0.000000  1
  Lu  Lu1  1  0.528007  0.999269  0.744946  1
  Lu  Lu2  1  0.471689  0.001033  0.255899  1
  Lu  Lu3  1  0.001033  0.471689  0.744101  1
  Lu  Lu4  1  0.999269  0.528007  0.255054  1
  Lu  Lu5  1  0.502267  0.502267  0.500000  1
  Au  Au6  1  0.000042  0.000042  0.000000  1
  Au  Au7  1  0.999691  0.999691  0.500000  1
  O  O8  1  0.644000  0.356133  0.734649  1
  O  O9  1  0.356133  0.644000  0.265351  1
  O  O10  1  0.917218  0.082543  0.749703  1
  O  O11  1  0.082543  0.917218  0.250297  1
  O  O12  1  0.332680  0.069564  0.975888  1
  O  O13  1  0.666648  0.915261  0.475473  1
  O  O14  1  0.915261  0.666648  0.524527  1
  O  O15  1  0.069564  0.332680  0.024112  1
  O  O16  1  0.361426  0.638774  0.734325  1
  O  O17  1  0.638774  0.361426  0.265675  1
  O  O18  1  0.332399  0.083352  0.525169  1
  O  O19  1  0.667628  0.930633  0.024799  1
  O  O20  1  0.930633  0.667628  0.975201  1
  O  O21  1  0.083352  0.332399  0.474831  1
