# generated using pymatgen
data_Nb9Zn2SiPt2
_symmetry_space_group_name_H-M   'P 1'
_cell_length_a   5.17825592
_cell_length_b   9.87596665
_cell_length_c   9.87596609
_cell_angle_alpha   86.05893900
_cell_angle_beta   74.80146867
_cell_angle_gamma   74.80146673
_symmetry_Int_Tables_number   1
_chemical_formula_structural   Nb9Zn2SiPt2
_chemical_formula_sum   'Nb18 Zn4 Si2 Pt4'
_cell_volume   470.34684316
_cell_formula_units_Z   2
loop_
 _symmetry_equiv_pos_site_id
 _symmetry_equiv_pos_as_xyz
  1  'x, y, z'
loop_
 _atom_site_type_symbol
 _atom_site_label
 _atom_site_symmetry_multiplicity
 _atom_site_fract_x
 _atom_site_fract_y
 _atom_site_fract_z
 _atom_site_occupancy
  Nb  Nb0  1  0.750000  0.500000  0.500000  1
  Nb  Nb1  1  0.250000  0.500000  0.500000  1
  Nb  Nb2  1  0.792314  0.775677  0.639693  1
  Nb  Nb3  1  0.207686  0.224323  0.360307  1
  Nb  Nb4  1  0.707686  0.360307  0.224323  1
  Nb  Nb5  1  0.292314  0.639693  0.775677  1
  Nb  Nb6  1  0.567993  0.639693  0.224323  1
  Nb  Nb7  1  0.432007  0.360307  0.775677  1
  Nb  Nb8  1  0.067993  0.224323  0.639693  1
  Nb  Nb9  1  0.932007  0.775677  0.360307  1
  Nb  Nb10  1  0.580428  0.076491  0.762653  1
  Nb  Nb11  1  0.419572  0.923509  0.237347  1
  Nb  Nb12  1  0.919572  0.237347  0.923509  1
  Nb  Nb13  1  0.080428  0.762653  0.076491  1
  Nb  Nb14  1  0.656919  0.762653  0.923509  1
  Nb  Nb15  1  0.343081  0.237347  0.076491  1
  Nb  Nb16  1  0.156919  0.923509  0.762653  1
  Nb  Nb17  1  0.843081  0.076491  0.237347  1
  Zn  Zn18  1  0.500000  0.000000  0.500000  1
  Zn  Zn19  1  0.000000  0.000000  0.500000  1
  Zn  Zn20  1  0.500000  0.500000  0.000000  1
  Zn  Zn21  1  0.000000  0.500000  0.000000  1
  Si  Si22  1  0.250000  0.000000  0.000000  1
  Si  Si23  1  0.750000  0.000000  0.000000  1
  Pt  Pt24  1  0.128229  0.500000  0.243542  1
  Pt  Pt25  1  0.871771  0.500000  0.756458  1
  Pt  Pt26  1  0.371771  0.756458  0.500000  1
  Pt  Pt27  1  0.628229  0.243542  0.500000  1
