# generated using pymatgen
data_TmLu3(AlRe3)2
_symmetry_space_group_name_H-M   'P 1'
_cell_length_a   5.33498000
_cell_length_b   5.33498069
_cell_length_c   8.90453500
_cell_angle_alpha   90.00000000
_cell_angle_beta   90.00000000
_cell_angle_gamma   119.99999575
_symmetry_Int_Tables_number   1
_chemical_formula_structural   TmLu3(AlRe3)2
_chemical_formula_sum   'Tm1 Lu3 Al2 Re6'
_cell_volume   219.48636330
_cell_formula_units_Z   1
loop_
 _symmetry_equiv_pos_site_id
 _symmetry_equiv_pos_as_xyz
  1  'x, y, z'
loop_
 _atom_site_type_symbol
 _atom_site_label
 _atom_site_symmetry_multiplicity
 _atom_site_fract_x
 _atom_site_fract_y
 _atom_site_fract_z
 _atom_site_occupancy
  Tm  Tm0  1  0.333333  0.666667  0.066807  1
  Lu  Lu1  1  0.333333  0.666667  0.433122  1
  Lu  Lu2  1  0.666667  0.333333  0.567145  1
  Lu  Lu3  1  0.666667  0.333333  0.932721  1
  Al  Al4  1  0.000000  0.000000  0.500015  1
  Al  Al5  1  0.000000  0.000000  0.999949  1
  Re  Re6  1  0.830302  0.169698  0.250485  1
  Re  Re7  1  0.830302  0.660603  0.250485  1
  Re  Re8  1  0.339397  0.169698  0.250485  1
  Re  Re9  1  0.169636  0.830364  0.749595  1
  Re  Re10  1  0.169636  0.339273  0.749595  1
  Re  Re11  1  0.660727  0.830364  0.749595  1
