# generated using pymatgen
data_Ta5Ti3Nb4Al8(PdC)4
_symmetry_space_group_name_H-M   'P 1'
_cell_length_a   8.32142179
_cell_length_b   8.32599075
_cell_length_c   8.33745300
_cell_angle_alpha   59.91818759
_cell_angle_beta   60.03989472
_cell_angle_gamma   60.10929743
_symmetry_Int_Tables_number   1
_chemical_formula_structural   Ta5Ti3Nb4Al8(PdC)4
_chemical_formula_sum   'Ta5 Ti3 Nb4 Al8 Pd4 C4'
_cell_volume   408.66783064
_cell_formula_units_Z   1
loop_
 _symmetry_equiv_pos_site_id
 _symmetry_equiv_pos_as_xyz
  1  'x, y, z'
loop_
 _atom_site_type_symbol
 _atom_site_label
 _atom_site_symmetry_multiplicity
 _atom_site_fract_x
 _atom_site_fract_y
 _atom_site_fract_z
 _atom_site_occupancy
  Ta  Ta0  1  0.930467  0.567598  0.569699  1
  Ta  Ta1  1  0.569718  0.932563  0.930368  1
  Ta  Ta2  1  0.931059  0.933187  0.569258  1
  Ta  Ta3  1  0.681598  0.318516  0.681453  1
  Ta  Ta4  1  0.931322  0.568859  0.931046  1
  Ti  Ti5  1  0.568527  0.931477  0.568564  1
  Ti  Ti6  1  0.319937  0.681002  0.680869  1
  Ti  Ti7  1  0.681212  0.318250  0.319853  1
  Nb  Nb8  1  0.317645  0.682623  0.317500  1
  Nb  Nb9  1  0.682801  0.682387  0.318585  1
  Nb  Nb10  1  0.318641  0.316277  0.682896  1
  Nb  Nb11  1  0.568687  0.565957  0.931577  1
  Al  Al12  1  0.916811  0.916545  0.916504  1
  Al  Al13  1  0.996835  0.333728  0.333628  1
  Al  Al14  1  0.333817  0.997137  0.336037  1
  Al  Al15  1  0.333671  0.335900  0.996799  1
  Al  Al16  1  0.916426  0.250329  0.916726  1
  Al  Al17  1  0.913809  0.916535  0.253452  1
  Al  Al18  1  0.253642  0.916102  0.913776  1
  Al  Al19  1  0.335991  0.333038  0.333715  1
  Pd  Pd20  1  0.123992  0.125372  0.125796  1
  Pd  Pd21  1  0.624881  0.124720  0.124848  1
  Pd  Pd22  1  0.124306  0.625285  0.124547  1
  Pd  Pd23  1  0.124391  0.124886  0.624472  1
  C  C24  1  0.620565  0.629870  0.625041  1
  C  C25  1  0.126019  0.626819  0.626271  1
  C  C26  1  0.626574  0.123664  0.620136  1
  C  C27  1  0.626657  0.621375  0.126584  1
