# generated using pymatgen
data_Sm4YCo7(PRu)12
_symmetry_space_group_name_H-M   'P 1'
_cell_length_a   12.42959600
_cell_length_b   12.42959559
_cell_length_c   3.85744300
_cell_angle_alpha   90.00000000
_cell_angle_beta   90.00000000
_cell_angle_gamma   119.99999577
_symmetry_Int_Tables_number   1
_chemical_formula_structural   Sm4YCo7(PRu)12
_chemical_formula_sum   'Sm4 Y1 Co7 P12 Ru12'
_cell_volume   516.11226428
_cell_formula_units_Z   1
loop_
 _symmetry_equiv_pos_site_id
 _symmetry_equiv_pos_as_xyz
  1  'x, y, z'
loop_
 _atom_site_type_symbol
 _atom_site_label
 _atom_site_symmetry_multiplicity
 _atom_site_fract_x
 _atom_site_fract_y
 _atom_site_fract_z
 _atom_site_occupancy
  Sm  Sm0  1  0.333333  0.666667  0.500000  1
  Sm  Sm1  1  0.002031  0.184606  0.000000  1
  Sm  Sm2  1  0.815394  0.817425  0.000000  1
  Sm  Sm3  1  0.182575  0.997969  0.000000  1
  Y  Y4  1  0.666667  0.333333  0.500000  1
  Co  Co5  1  0.492705  0.131368  0.000000  1
  Co  Co6  1  0.638664  0.507295  0.000000  1
  Co  Co7  1  0.868632  0.361336  0.000000  1
  Co  Co8  1  0.994151  0.713087  0.000000  1
  Co  Co9  1  0.286913  0.281063  0.000000  1
  Co  Co10  1  0.718937  0.005849  0.000000  1
  Co  Co11  1  0.000000  0.000000  0.500000  1
  P  P12  1  0.001942  0.369126  0.500000  1
  P  P13  1  0.630874  0.632816  0.500000  1
  P  P14  1  0.367184  0.998058  0.500000  1
  P  P15  1  0.525919  0.838227  0.000000  1
  P  P16  1  0.161773  0.687692  0.000000  1
  P  P17  1  0.312308  0.474081  0.000000  1
  P  P18  1  0.480818  0.312605  0.000000  1
  P  P19  1  0.831788  0.519182  0.000000  1
  P  P20  1  0.687395  0.168212  0.000000  1
  P  P21  1  0.995504  0.817074  0.500000  1
  P  P22  1  0.182926  0.178430  0.500000  1
  P  P23  1  0.821570  0.004496  0.500000  1
  Ru  Ru24  1  0.625341  0.827153  0.500000  1
  Ru  Ru25  1  0.172847  0.798188  0.500000  1
  Ru  Ru26  1  0.201812  0.374659  0.500000  1
  Ru  Ru27  1  0.379349  0.193022  0.500000  1
  Ru  Ru28  1  0.813672  0.620651  0.500000  1
  Ru  Ru29  1  0.806978  0.186328  0.500000  1
  Ru  Ru30  1  0.987946  0.546376  0.500000  1
  Ru  Ru31  1  0.453624  0.441571  0.500000  1
  Ru  Ru32  1  0.558429  0.012054  0.500000  1
  Ru  Ru33  1  0.516731  0.636365  0.000000  1
  Ru  Ru34  1  0.363635  0.880366  0.000000  1
  Ru  Ru35  1  0.119634  0.483269  0.000000  1
