# generated using pymatgen
data_Dy6TcNi
_symmetry_space_group_name_H-M   'P 1'
_cell_length_a   7.12208900
_cell_length_b   9.35624000
_cell_length_c   6.28722200
_cell_angle_alpha   90.00000000
_cell_angle_beta   90.00000000
_cell_angle_gamma   90.00000000
_symmetry_Int_Tables_number   1
_chemical_formula_structural   Dy6TcNi
_chemical_formula_sum   'Dy12 Tc2 Ni2'
_cell_volume   418.95516163
_cell_formula_units_Z   2
loop_
 _symmetry_equiv_pos_site_id
 _symmetry_equiv_pos_as_xyz
  1  'x, y, z'
loop_
 _atom_site_type_symbol
 _atom_site_label
 _atom_site_symmetry_multiplicity
 _atom_site_fract_x
 _atom_site_fract_y
 _atom_site_fract_z
 _atom_site_occupancy
  Dy  Dy0  1  0.176338  0.061033  0.169923  1
  Dy  Dy1  1  0.323663  0.938969  0.669923  1
  Dy  Dy2  1  0.682201  0.433281  0.323432  1
  Dy  Dy3  1  0.817798  0.566718  0.823432  1
  Dy  Dy4  1  0.817798  0.933282  0.823432  1
  Dy  Dy5  1  0.682201  0.066720  0.323432  1
  Dy  Dy6  1  0.323663  0.561031  0.669923  1
  Dy  Dy7  1  0.176338  0.438968  0.169923  1
  Dy  Dy8  1  0.038087  0.250000  0.638168  1
  Dy  Dy9  1  0.461914  0.749999  0.138168  1
  Dy  Dy10  1  0.538330  0.250000  0.870869  1
  Dy  Dy11  1  0.961671  0.749999  0.370870  1
  Tc  Tc12  1  0.392268  0.250000  0.454115  1
  Tc  Tc13  1  0.107731  0.749999  0.954115  1
  Ni  Ni14  1  0.887645  0.250000  0.050140  1
  Ni  Ni15  1  0.612356  0.749999  0.550140  1
