# generated using pymatgen
data_SrAl3Hg
_symmetry_space_group_name_H-M   'P 1'
_cell_length_a   4.41358920
_cell_length_b   4.41358858
_cell_length_c   6.65923759
_cell_angle_alpha   70.64693235
_cell_angle_beta   70.64693499
_cell_angle_gamma   89.99999939
_symmetry_Int_Tables_number   1
_chemical_formula_structural   SrAl3Hg
_chemical_formula_sum   'Sr1 Al3 Hg1'
_cell_volume   114.59264240
_cell_formula_units_Z   1
loop_
 _symmetry_equiv_pos_site_id
 _symmetry_equiv_pos_as_xyz
  1  'x, y, z'
loop_
 _atom_site_type_symbol
 _atom_site_label
 _atom_site_symmetry_multiplicity
 _atom_site_fract_x
 _atom_site_fract_y
 _atom_site_fract_z
 _atom_site_occupancy
  Sr  Sr0  1  0.995005  0.995005  0.009988  1
  Al  Al1  1  0.753791  0.253791  0.492418  1
  Al  Al2  1  0.253791  0.753791  0.492418  1
  Al  Al3  1  0.385778  0.385778  0.228442  1
  Hg  Hg4  1  0.611634  0.611634  0.776733  1
