# generated using pymatgen
data_Hf18Re5P2W3
_symmetry_space_group_name_H-M   'P 1'
_cell_length_a   8.62250338
_cell_length_b   8.62250286
_cell_length_c   8.58717500
_cell_angle_alpha   90.00000000
_cell_angle_beta   90.00000000
_cell_angle_gamma   120.14988442
_symmetry_Int_Tables_number   1
_chemical_formula_structural   Hf18Re5P2W3
_chemical_formula_sum   'Hf18 Re5 P2 W3'
_cell_volume   552.06441190
_cell_formula_units_Z   1
loop_
 _symmetry_equiv_pos_site_id
 _symmetry_equiv_pos_as_xyz
  1  'x, y, z'
loop_
 _atom_site_type_symbol
 _atom_site_label
 _atom_site_symmetry_multiplicity
 _atom_site_fract_x
 _atom_site_fract_y
 _atom_site_fract_z
 _atom_site_occupancy
  Hf  Hf0  1  0.196850  0.803150  0.451750  1
  Hf  Hf1  1  0.196817  0.393473  0.452077  1
  Hf  Hf2  1  0.606527  0.803183  0.452077  1
  Hf  Hf3  1  0.803030  0.196970  0.549763  1
  Hf  Hf4  1  0.803078  0.606428  0.548991  1
  Hf  Hf5  1  0.393572  0.196922  0.548991  1
  Hf  Hf6  1  0.803030  0.196970  0.950237  1
  Hf  Hf7  1  0.803078  0.606428  0.951009  1
  Hf  Hf8  1  0.393572  0.196922  0.951009  1
  Hf  Hf9  1  0.196850  0.803150  0.048250  1
  Hf  Hf10  1  0.196817  0.393473  0.047923  1
  Hf  Hf11  1  0.606527  0.803183  0.047923  1
  Hf  Hf12  1  0.538878  0.461122  0.250000  1
  Hf  Hf13  1  0.538404  0.077866  0.250000  1
  Hf  Hf14  1  0.922134  0.461596  0.250000  1
  Hf  Hf15  1  0.460561  0.539439  0.750000  1
  Hf  Hf16  1  0.460171  0.920836  0.750000  1
  Hf  Hf17  1  0.079164  0.539829  0.750000  1
  Re  Re18  1  0.888858  0.778785  0.250000  1
  Re  Re19  1  0.221215  0.111142  0.250000  1
  Re  Re20  1  0.110177  0.889823  0.750000  1
  Re  Re21  1  0.110761  0.220921  0.750000  1
  Re  Re22  1  0.779079  0.889239  0.750000  1
  P  P23  1  0.332852  0.667148  0.250000  1
  P  P24  1  0.666602  0.333398  0.750000  1
  W  W25  1  0.890148  0.109852  0.250000  1
  W  W26  1  0.000625  0.999375  0.500571  1
  W  W27  1  0.000625  0.999375  0.999429  1
