# generated using pymatgen
data_Tb2Al9ZnOs2
_symmetry_space_group_name_H-M   'P 1'
_cell_length_a   7.62984031
_cell_length_b   7.62983987
_cell_length_c   9.51567100
_cell_angle_alpha   90.00000000
_cell_angle_beta   90.00000000
_cell_angle_gamma   119.34491986
_symmetry_Int_Tables_number   1
_chemical_formula_structural   Tb2Al9ZnOs2
_chemical_formula_sum   'Tb4 Al18 Zn2 Os4'
_cell_volume   482.86978065
_cell_formula_units_Z   2
loop_
 _symmetry_equiv_pos_site_id
 _symmetry_equiv_pos_as_xyz
  1  'x, y, z'
loop_
 _atom_site_type_symbol
 _atom_site_label
 _atom_site_symmetry_multiplicity
 _atom_site_fract_x
 _atom_site_fract_y
 _atom_site_fract_z
 _atom_site_occupancy
  Tb  Tb0  1  0.995976  0.678239  0.250000  1
  Tb  Tb1  1  0.004024  0.321761  0.750000  1
  Tb  Tb2  1  0.678239  0.995976  0.250000  1
  Tb  Tb3  1  0.321761  0.004024  0.750000  1
  Al  Al4  1  0.140451  0.140451  0.250000  1
  Al  Al5  1  0.859549  0.859549  0.750000  1
  Al  Al6  1  0.001632  0.348119  0.076388  1
  Al  Al7  1  0.998368  0.651881  0.923612  1
  Al  Al8  1  0.998368  0.651881  0.576388  1
  Al  Al9  1  0.348119  0.001632  0.423612  1
  Al  Al10  1  0.001632  0.348119  0.423612  1
  Al  Al11  1  0.651881  0.998368  0.576388  1
  Al  Al12  1  0.651881  0.998368  0.923612  1
  Al  Al13  1  0.348119  0.001632  0.076388  1
  Al  Al14  1  0.344661  0.344661  0.554505  1
  Al  Al15  1  0.655339  0.655339  0.445495  1
  Al  Al16  1  0.655339  0.655339  0.054505  1
  Al  Al17  1  0.344661  0.344661  0.945495  1
  Al  Al18  1  0.335963  0.552408  0.250000  1
  Al  Al19  1  0.664037  0.447592  0.750000  1
  Al  Al20  1  0.552408  0.335963  0.250000  1
  Al  Al21  1  0.447592  0.664037  0.750000  1
  Zn  Zn22  1  0.000000  0.000000  0.000000  1
  Zn  Zn23  1  0.000000  0.000000  0.500000  1
  Os  Os24  1  0.671715  0.328285  0.000000  1
  Os  Os25  1  0.328285  0.671715  0.000000  1
  Os  Os26  1  0.328285  0.671715  0.500000  1
  Os  Os27  1  0.671715  0.328285  0.500000  1
