# generated using pymatgen
data_CeDy3(Si4Tc3)2
_symmetry_space_group_name_H-M   'P 1'
_cell_length_a   6.77992464
_cell_length_b   6.85098702
_cell_length_c   6.78819838
_cell_angle_alpha   69.64908742
_cell_angle_beta   89.94929083
_cell_angle_gamma   88.60445906
_symmetry_Int_Tables_number   1
_chemical_formula_structural   CeDy3(Si4Tc3)2
_chemical_formula_sum   'Ce1 Dy3 Si8 Tc6'
_cell_volume   295.52753124
_cell_formula_units_Z   1
loop_
 _symmetry_equiv_pos_site_id
 _symmetry_equiv_pos_as_xyz
  1  'x, y, z'
loop_
 _atom_site_type_symbol
 _atom_site_label
 _atom_site_symmetry_multiplicity
 _atom_site_fract_x
 _atom_site_fract_y
 _atom_site_fract_z
 _atom_site_occupancy
  Ce  Ce0  1  0.663802  0.448827  0.187911  1
  Dy  Dy1  1  0.166592  0.061110  0.807361  1
  Dy  Dy2  1  0.333404  0.554325  0.810708  1
  Dy  Dy3  1  0.832718  0.937435  0.190653  1
  Si  Si4  1  0.450968  0.128435  0.096573  1
  Si  Si5  1  0.942425  0.380993  0.892550  1
  Si  Si6  1  0.547957  0.880615  0.897186  1
  Si  Si7  1  0.064980  0.613310  0.111791  1
  Si  Si8  1  0.858721  0.128287  0.506409  1
  Si  Si9  1  0.350327  0.371256  0.476358  1
  Si  Si10  1  0.139714  0.866507  0.494908  1
  Si  Si11  1  0.646113  0.630881  0.524458  1
  Tc  Tc12  1  0.501539  0.001992  0.497598  1
  Tc  Tc13  1  0.001148  0.503148  0.500592  1
  Tc  Tc14  1  0.144612  0.226433  0.237537  1
  Tc  Tc15  1  0.651960  0.247360  0.753145  1
  Tc  Tc16  1  0.851508  0.764707  0.767896  1
  Tc  Tc17  1  0.351512  0.754378  0.246367  1
