# generated using pymatgen
data_NaSb3(SeO6)2
_symmetry_space_group_name_H-M   'P 1'
_cell_length_a   7.28876300
_cell_length_b   7.28876282
_cell_length_c   12.39502100
_cell_angle_alpha   90.00000000
_cell_angle_beta   90.00000000
_cell_angle_gamma   119.99999628
_symmetry_Int_Tables_number   1
_chemical_formula_structural   NaSb3(SeO6)2
_chemical_formula_sum   'Na2 Sb6 Se4 O24'
_cell_volume   570.27661374
_cell_formula_units_Z   2
loop_
 _symmetry_equiv_pos_site_id
 _symmetry_equiv_pos_as_xyz
  1  'x, y, z'
loop_
 _atom_site_type_symbol
 _atom_site_label
 _atom_site_symmetry_multiplicity
 _atom_site_fract_x
 _atom_site_fract_y
 _atom_site_fract_z
 _atom_site_occupancy
  Na  Na0  1  0.333333  0.666667  0.824894  1
  Na  Na1  1  0.666667  0.333333  0.324894  1
  Sb  Sb2  1  0.833327  0.166558  0.791635  1
  Sb  Sb3  1  0.666769  0.833327  0.291635  1
  Sb  Sb4  1  0.166558  0.333231  0.291635  1
  Sb  Sb5  1  0.833442  0.666769  0.791635  1
  Sb  Sb6  1  0.333231  0.166673  0.791635  1
  Sb  Sb7  1  0.166673  0.833442  0.291635  1
  Se  Se8  1  0.333333  0.666667  0.512305  1
  Se  Se9  1  0.666667  0.333333  0.012305  1
  Se  Se10  1  0.000000  0.000000  0.073453  1
  Se  Se11  1  0.000000  0.000000  0.573453  1
  O  O12  1  0.791865  0.208169  0.955098  1
  O  O13  1  0.583696  0.791865  0.455098  1
  O  O14  1  0.208169  0.416304  0.455098  1
  O  O15  1  0.791831  0.583696  0.955098  1
  O  O16  1  0.416304  0.208135  0.955098  1
  O  O17  1  0.208135  0.791831  0.455098  1
  O  O18  1  0.874622  0.125467  0.632040  1
  O  O19  1  0.749154  0.874622  0.132040  1
  O  O20  1  0.125467  0.250846  0.132040  1
  O  O21  1  0.874533  0.749154  0.632040  1
  O  O22  1  0.250846  0.125378  0.632040  1
  O  O23  1  0.125378  0.874533  0.132040  1
  O  O24  1  0.733046  0.866448  0.829662  1
  O  O25  1  0.866598  0.733046  0.329662  1
  O  O26  1  0.866448  0.133402  0.329662  1
  O  O27  1  0.133552  0.866598  0.829662  1
  O  O28  1  0.133402  0.266954  0.829662  1
  O  O29  1  0.266954  0.133552  0.329662  1
  O  O30  1  0.531330  0.062684  0.760366  1
  O  O31  1  0.468645  0.531330  0.260366  1
  O  O32  1  0.062684  0.531355  0.260366  1
  O  O33  1  0.937316  0.468645  0.760366  1
  O  O34  1  0.531355  0.468670  0.760366  1
  O  O35  1  0.468670  0.937316  0.260366  1
