# generated using pymatgen
data_Hf6AlSi(As2Ru3)2
_symmetry_space_group_name_H-M   'P 1'
_cell_length_a   7.65377969
_cell_length_b   7.66006974
_cell_length_c   7.65377940
_cell_angle_alpha   128.12383150
_cell_angle_beta   120.62861151
_cell_angle_gamma   82.69004250
_symmetry_Int_Tables_number   1
_chemical_formula_structural   Hf6AlSi(As2Ru3)2
_chemical_formula_sum   'Hf6 Al1 Si1 As4 Ru6'
_cell_volume   291.89914342
_cell_formula_units_Z   1
loop_
 _symmetry_equiv_pos_site_id
 _symmetry_equiv_pos_as_xyz
  1  'x, y, z'
loop_
 _atom_site_type_symbol
 _atom_site_label
 _atom_site_symmetry_multiplicity
 _atom_site_fract_x
 _atom_site_fract_y
 _atom_site_fract_z
 _atom_site_occupancy
  Hf  Hf0  1  0.474148  0.707168  0.733020  1
  Hf  Hf1  1  0.525590  0.255728  0.230138  1
  Hf  Hf2  1  0.748473  0.838149  0.589676  1
  Hf  Hf3  1  0.250253  0.830340  0.080086  1
  Hf  Hf4  1  0.054613  0.257576  0.702962  1
  Hf  Hf5  1  0.948324  0.651038  0.202714  1
  Al  Al6  1  0.274894  0.277959  0.503066  1
  Si  Si7  1  0.724626  0.219191  0.994565  1
  As  As8  1  0.328835  0.585998  0.248549  1
  As  As9  1  0.672333  0.919916  0.259704  1
  As  As10  1  0.160214  0.919916  0.747583  1
  As  As11  1  0.837448  0.585998  0.757163  1
  Ru  Ru12  1  0.515142  0.495764  0.011902  1
  Ru  Ru13  1  0.983861  0.495764  0.480622  1
  Ru  Ru14  1  0.090971  0.252975  0.097814  1
  Ru  Ru15  1  0.898842  0.006572  0.150301  1
  Ru  Ru16  1  0.356272  0.006572  0.607730  1
  Ru  Ru17  1  0.655161  0.252975  0.662004  1
