# generated using pymatgen
data_Na5Pb11
_symmetry_space_group_name_H-M   'P 1'
_cell_length_a   12.29828630
_cell_length_b   12.32242154
_cell_length_c   12.32242060
_cell_angle_alpha   32.62638335
_cell_angle_beta   32.64770207
_cell_angle_gamma   32.64769664
_symmetry_Int_Tables_number   1
_chemical_formula_structural   Na5Pb11
_chemical_formula_sum   'Na5 Pb11'
_cell_volume   483.17290381
_cell_formula_units_Z   1
loop_
 _symmetry_equiv_pos_site_id
 _symmetry_equiv_pos_as_xyz
  1  'x, y, z'
loop_
 _atom_site_type_symbol
 _atom_site_label
 _atom_site_symmetry_multiplicity
 _atom_site_fract_x
 _atom_site_fract_y
 _atom_site_fract_z
 _atom_site_occupancy
  Na  Na0  1  0.706841  0.209588  0.209588  1
  Na  Na1  1  0.876742  0.871721  0.871721  1
  Na  Na2  1  0.132567  0.123856  0.123856  1
  Na  Na3  1  0.706192  0.709706  0.709706  1
  Na  Na4  1  0.287576  0.292887  0.292887  1
  Pb  Pb5  1  0.289402  0.796710  0.796710  1
  Pb  Pb6  1  0.795627  0.790398  0.291663  1
  Pb  Pb7  1  0.869686  0.379777  0.379777  1
  Pb  Pb8  1  0.388176  0.376808  0.860670  1
  Pb  Pb9  1  0.388176  0.860670  0.376808  1
  Pb  Pb10  1  0.617383  0.130229  0.624328  1
  Pb  Pb11  1  0.123314  0.621638  0.621638  1
  Pb  Pb12  1  0.617383  0.624328  0.130229  1
  Pb  Pb13  1  0.795627  0.291663  0.790398  1
  Pb  Pb14  1  0.202654  0.710576  0.209448  1
  Pb  Pb15  1  0.202654  0.209448  0.710576  1
