# generated using pymatgen
data_Dy3ErOsI4
_symmetry_space_group_name_H-M   'P 1'
_cell_length_a   11.41755840
_cell_length_b   11.41755941
_cell_length_c   6.18362800
_cell_angle_alpha   90.02831779
_cell_angle_beta   90.02833285
_cell_angle_gamma   88.31277370
_symmetry_Int_Tables_number   1
_chemical_formula_structural   Dy3ErOsI4
_chemical_formula_sum   'Dy6 Er2 Os2 I8'
_cell_volume   805.75209586
_cell_formula_units_Z   2
loop_
 _symmetry_equiv_pos_site_id
 _symmetry_equiv_pos_as_xyz
  1  'x, y, z'
loop_
 _atom_site_type_symbol
 _atom_site_label
 _atom_site_symmetry_multiplicity
 _atom_site_fract_x
 _atom_site_fract_y
 _atom_site_fract_z
 _atom_site_occupancy
  Dy  Dy0  1  0.078345  0.194803  0.000226  1
  Dy  Dy1  1  0.194803  0.078345  0.500226  1
  Dy  Dy2  1  0.922048  0.804456  0.999690  1
  Dy  Dy3  1  0.915597  0.197417  0.500746  1
  Dy  Dy4  1  0.197417  0.915597  0.000746  1
  Dy  Dy5  1  0.804456  0.922048  0.499690  1
  Er  Er6  1  0.805788  0.082233  0.998978  1
  Er  Er7  1  0.082233  0.805788  0.498978  1
  Os  Os8  1  0.999846  0.000043  0.249939  1
  Os  Os9  1  0.000043  0.999846  0.749939  1
  I  I10  1  0.644718  0.152247  0.509569  1
  I  I11  1  0.859301  0.649290  0.505278  1
  I  I12  1  0.350921  0.141619  0.994651  1
  I  I13  1  0.141619  0.350921  0.494651  1
  I  I14  1  0.649290  0.859301  0.005278  1
  I  I15  1  0.353970  0.847355  0.490924  1
  I  I16  1  0.152247  0.644718  0.009569  1
  I  I17  1  0.847355  0.353970  0.990924  1
