# generated using pymatgen
data_Tb9Dy4Y3(In3Co)2
_symmetry_space_group_name_H-M   'P 1'
_cell_length_a   10.40685200
_cell_length_b   10.40685205
_cell_length_c   7.05285100
_cell_angle_alpha   90.00003710
_cell_angle_beta   89.99995334
_cell_angle_gamma   119.99999177
_symmetry_Int_Tables_number   1
_chemical_formula_structural   Tb9Dy4Y3(In3Co)2
_chemical_formula_sum   'Tb9 Dy4 Y3 In6 Co2'
_cell_volume   661.50652992
_cell_formula_units_Z   1
loop_
 _symmetry_equiv_pos_site_id
 _symmetry_equiv_pos_as_xyz
  1  'x, y, z'
loop_
 _atom_site_type_symbol
 _atom_site_label
 _atom_site_symmetry_multiplicity
 _atom_site_fract_x
 _atom_site_fract_y
 _atom_site_fract_z
 _atom_site_occupancy
  Tb  Tb0  1  0.463975  0.536025  0.482941  1
  Tb  Tb1  1  0.072050  0.536025  0.482941  1
  Tb  Tb2  1  0.463975  0.927950  0.482941  1
  Tb  Tb3  1  0.535706  0.464294  0.983412  1
  Tb  Tb4  1  0.928589  0.464294  0.983412  1
  Tb  Tb5  1  0.535706  0.071411  0.983412  1
  Tb  Tb6  1  0.821841  0.178159  0.276007  1
  Tb  Tb7  1  0.356318  0.178159  0.276007  1
  Tb  Tb8  1  0.821841  0.643682  0.276007  1
  Dy  Dy9  1  0.178207  0.821793  0.775875  1
  Dy  Dy10  1  0.643586  0.821793  0.775875  1
  Dy  Dy11  1  0.178207  0.356414  0.775875  1
  Dy  Dy12  1  0.333333  0.666667  0.091106  1
  Y  Y13  1  0.666667  0.333333  0.592793  1
  Y  Y14  1  0.000000  0.000000  0.495167  1
  Y  Y15  1  0.000000  0.000000  0.995358  1
  In  In16  1  0.163052  0.836948  0.234048  1
  In  In17  1  0.673896  0.836948  0.234047  1
  In  In18  1  0.163052  0.326104  0.234046  1
  In  In19  1  0.837033  0.162967  0.734035  1
  In  In20  1  0.325933  0.162967  0.734035  1
  In  In21  1  0.837033  0.674066  0.734035  1
  Co  Co22  1  0.333333  0.666667  0.707111  1
  Co  Co23  1  0.666667  0.333333  0.204066  1
