# generated using pymatgen
data_Li2Ca6(Al2Pd)7
_symmetry_space_group_name_H-M   'P 1'
_cell_length_a   9.07890414
_cell_length_b   9.10856428
_cell_length_c   9.10856447
_cell_angle_alpha   60.13687925
_cell_angle_beta   60.10765668
_cell_angle_gamma   60.10765758
_symmetry_Int_Tables_number   1
_chemical_formula_structural   Li2Ca6(Al2Pd)7
_chemical_formula_sum   'Li2 Ca6 Al14 Pd7'
_cell_volume   534.03754757
_cell_formula_units_Z   1
loop_
 _symmetry_equiv_pos_site_id
 _symmetry_equiv_pos_as_xyz
  1  'x, y, z'
loop_
 _atom_site_type_symbol
 _atom_site_label
 _atom_site_symmetry_multiplicity
 _atom_site_fract_x
 _atom_site_fract_y
 _atom_site_fract_z
 _atom_site_occupancy
  Li  Li0  1  0.880141  0.882857  0.356863  1
  Li  Li1  1  0.880141  0.356863  0.882857  1
  Ca  Ca2  1  0.705768  0.705704  0.297261  1
  Ca  Ca3  1  0.291267  0.705704  0.297261  1
  Ca  Ca4  1  0.706950  0.293050  0.293050  1
  Ca  Ca5  1  0.291267  0.297261  0.705704  1
  Ca  Ca6  1  0.705768  0.297261  0.705704  1
  Ca  Ca7  1  0.295807  0.704193  0.704193  1
  Al  Al8  1  0.360088  0.879976  0.879976  1
  Al  Al9  1  0.879961  0.879976  0.879976  1
  Al  Al10  1  0.118169  0.121389  0.642273  1
  Al  Al11  1  0.118169  0.642273  0.121389  1
  Al  Al12  1  0.644826  0.118975  0.118975  1
  Al  Al13  1  0.117221  0.118975  0.118975  1
  Al  Al14  1  0.676511  0.669281  0.977697  1
  Al  Al15  1  0.676511  0.977697  0.669281  1
  Al  Al16  1  0.977469  0.672303  0.672303  1
  Al  Al17  1  0.677925  0.672303  0.672303  1
  Al  Al18  1  0.326324  0.324519  0.022833  1
  Al  Al19  1  0.326324  0.022833  0.324519  1
  Al  Al20  1  0.021731  0.325263  0.325263  1
  Al  Al21  1  0.327743  0.325263  0.325263  1
  Pd  Pd22  1  0.006995  0.993005  0.993005  1
  Pd  Pd23  1  0.001539  0.001203  0.508831  1
  Pd  Pd24  1  0.488427  0.001203  0.508831  1
  Pd  Pd25  1  0.004732  0.495268  0.495268  1
  Pd  Pd26  1  0.488427  0.508831  0.001203  1
  Pd  Pd27  1  0.001539  0.508831  0.001203  1
  Pd  Pd28  1  0.502267  0.997733  0.997733  1
