# generated using pymatgen
data_SmHf2Fe9
_symmetry_space_group_name_H-M   'P 1'
_cell_length_a   5.00490341
_cell_length_b   5.00490375
_cell_length_c   8.46673884
_cell_angle_alpha   72.80871792
_cell_angle_beta   72.80871884
_cell_angle_gamma   60.00000046
_symmetry_Int_Tables_number   1
_chemical_formula_structural   SmHf2Fe9
_chemical_formula_sum   'Sm1 Hf2 Fe9'
_cell_volume   172.64233647
_cell_formula_units_Z   1
loop_
 _symmetry_equiv_pos_site_id
 _symmetry_equiv_pos_as_xyz
  1  'x, y, z'
loop_
 _atom_site_type_symbol
 _atom_site_label
 _atom_site_symmetry_multiplicity
 _atom_site_fract_x
 _atom_site_fract_y
 _atom_site_fract_z
 _atom_site_occupancy
  Sm  Sm0  1  0.000000  0.000000  0.000000  1
  Hf  Hf1  1  0.143079  0.143079  0.570763  1
  Hf  Hf2  1  0.856921  0.856921  0.429237  1
  Fe  Fe3  1  0.082607  0.587004  0.743384  1
  Fe  Fe4  1  0.587004  0.587004  0.743384  1
  Fe  Fe5  1  0.587004  0.082607  0.743384  1
  Fe  Fe6  1  0.917393  0.412996  0.256616  1
  Fe  Fe7  1  0.412996  0.412996  0.256616  1
  Fe  Fe8  1  0.412996  0.917393  0.256616  1
  Fe  Fe9  1  0.332904  0.332904  0.001289  1
  Fe  Fe10  1  0.667096  0.667096  0.998711  1
  Fe  Fe11  1  0.500000  0.500000  0.500000  1
