# generated using pymatgen
data_NpBr2Cl
_symmetry_space_group_name_H-M   'P 1'
_cell_length_a   7.44239916
_cell_length_b   7.44239979
_cell_length_c   9.05299144
_cell_angle_alpha   90.85107629
_cell_angle_beta   89.14892195
_cell_angle_gamma   148.13424519
_symmetry_Int_Tables_number   1
_chemical_formula_structural   NpBr2Cl
_chemical_formula_sum   'Np2 Br4 Cl2'
_cell_volume   264.69348953
_cell_formula_units_Z   2
loop_
 _symmetry_equiv_pos_site_id
 _symmetry_equiv_pos_as_xyz
  1  'x, y, z'
loop_
 _atom_site_type_symbol
 _atom_site_label
 _atom_site_symmetry_multiplicity
 _atom_site_fract_x
 _atom_site_fract_y
 _atom_site_fract_z
 _atom_site_occupancy
  Np  Np0  1  0.739197  0.260803  0.747111  1
  Np  Np1  1  0.261150  0.738850  0.253231  1
  Br  Br2  1  0.652197  0.347803  0.434047  1
  Br  Br3  1  0.345588  0.654412  0.929760  1
  Br  Br4  1  0.656858  0.343142  0.065754  1
  Br  Br5  1  0.904622  0.095378  0.253908  1
  Cl  Cl6  1  0.329995  0.670005  0.565357  1
  Cl  Cl7  1  0.110393  0.889607  0.750832  1
