# generated using pymatgen
data_ThBRhC
_symmetry_space_group_name_H-M   'P 1'
_cell_length_a   3.86941800
_cell_length_b   3.86941800
_cell_length_c   7.66759200
_cell_angle_alpha   90.00000000
_cell_angle_beta   90.00000000
_cell_angle_gamma   90.00000000
_symmetry_Int_Tables_number   1
_chemical_formula_structural   ThBRhC
_chemical_formula_sum   'Th2 B2 Rh2 C2'
_cell_volume   114.80222117
_cell_formula_units_Z   2
loop_
 _symmetry_equiv_pos_site_id
 _symmetry_equiv_pos_as_xyz
  1  'x, y, z'
loop_
 _atom_site_type_symbol
 _atom_site_label
 _atom_site_symmetry_multiplicity
 _atom_site_fract_x
 _atom_site_fract_y
 _atom_site_fract_z
 _atom_site_occupancy
  Th  Th0  1  0.500000  0.000000  0.827637  1
  Th  Th1  1  0.000000  0.500000  0.172363  1
  B  B2  1  0.000000  0.500000  0.645416  1
  B  B3  1  0.500000  0.000000  0.354584  1
  Rh  Rh4  1  0.500000  0.500000  0.500000  1
  Rh  Rh5  1  0.000000  0.000000  0.500000  1
  C  C6  1  0.500000  0.000000  0.150198  1
  C  C7  1  0.000000  0.500000  0.849802  1
