# generated using pymatgen
data_Ca5Sb7As5Rh19
_symmetry_space_group_name_H-M   'P 1'
_cell_length_a   13.52415939
_cell_length_b   13.61613256
_cell_length_c   4.10255900
_cell_angle_alpha   90.00000000
_cell_angle_beta   90.00000000
_cell_angle_gamma   119.37929554
_symmetry_Int_Tables_number   1
_chemical_formula_structural   Ca5Sb7As5Rh19
_chemical_formula_sum   'Ca5 Sb7 As5 Rh19'
_cell_volume   658.31239240
_cell_formula_units_Z   1
loop_
 _symmetry_equiv_pos_site_id
 _symmetry_equiv_pos_as_xyz
  1  'x, y, z'
loop_
 _atom_site_type_symbol
 _atom_site_label
 _atom_site_symmetry_multiplicity
 _atom_site_fract_x
 _atom_site_fract_y
 _atom_site_fract_z
 _atom_site_occupancy
  Ca  Ca0  1  0.001712  0.177296  0.500000  1
  Ca  Ca1  1  0.821617  0.825161  0.500000  1
  Ca  Ca2  1  0.176117  0.000288  0.500000  1
  Ca  Ca3  1  0.659071  0.324079  0.000000  1
  Ca  Ca4  1  0.333882  0.665816  0.000000  1
  Sb  Sb5  1  0.368073  0.004434  0.000000  1
  Sb  Sb6  1  0.836411  0.515762  0.500000  1
  Sb  Sb7  1  0.520316  0.845182  0.500000  1
  Sb  Sb8  1  0.158112  0.679069  0.500000  1
  Sb  Sb9  1  0.324166  0.479477  0.500000  1
  Sb  Sb10  1  0.997458  0.364086  0.000000  1
  Sb  Sb11  1  0.632509  0.631616  0.000000  1
  As  As12  1  0.480874  0.313146  0.500000  1
  As  As13  1  0.824484  0.002626  0.000000  1
  As  As14  1  0.180355  0.175945  0.000000  1
  As  As15  1  0.994316  0.823136  0.000000  1
  As  As16  1  0.683998  0.162979  0.500000  1
  Rh  Rh17  1  0.797486  0.172341  0.000000  1
  Rh  Rh18  1  0.378221  0.202108  0.000000  1
  Rh  Rh19  1  0.636426  0.505570  0.500000  1
  Rh  Rh20  1  0.864447  0.342646  0.500000  1
  Rh  Rh21  1  0.347219  0.873164  0.500000  1
  Rh  Rh22  1  0.522803  0.653851  0.500000  1
  Rh  Rh23  1  0.129118  0.478008  0.500000  1
  Rh  Rh24  1  0.823965  0.631458  0.000000  1
  Rh  Rh25  1  0.637720  0.830299  0.000000  1
  Rh  Rh26  1  0.171079  0.810558  0.000000  1
  Rh  Rh27  1  0.192891  0.362459  0.000000  1
  Rh  Rh28  1  0.995899  0.727738  0.500000  1
  Rh  Rh29  1  0.281701  0.272081  0.500000  1
  Rh  Rh30  1  0.728238  0.007411  0.500000  1
  Rh  Rh31  1  0.001954  0.559846  0.000000  1
  Rh  Rh32  1  0.442051  0.438387  0.000000  1
  Rh  Rh33  1  0.560074  0.002403  0.000000  1
  Rh  Rh34  1  0.002450  0.003415  0.000000  1
  Rh  Rh35  1  0.492785  0.136157  0.500000  1
