# generated using pymatgen
data_YHo3(Si2Os)2
_symmetry_space_group_name_H-M   'P 1'
_cell_length_a   5.72079634
_cell_length_b   5.72079695
_cell_length_c   10.01062627
_cell_angle_alpha   63.28189828
_cell_angle_beta   63.28189635
_cell_angle_gamma   43.32895428
_symmetry_Int_Tables_number   1
_chemical_formula_structural   YHo3(Si2Os)2
_chemical_formula_sum   'Y1 Ho3 Si4 Os2'
_cell_volume   196.75233390
_cell_formula_units_Z   1
loop_
 _symmetry_equiv_pos_site_id
 _symmetry_equiv_pos_as_xyz
  1  'x, y, z'
loop_
 _atom_site_type_symbol
 _atom_site_label
 _atom_site_symmetry_multiplicity
 _atom_site_fract_x
 _atom_site_fract_y
 _atom_site_fract_z
 _atom_site_occupancy
  Y  Y0  1  0.814310  0.814310  0.109990  1
  Ho  Ho1  1  0.007302  0.007302  0.321841  1
  Ho  Ho2  1  0.185359  0.185359  0.888512  1
  Ho  Ho3  1  0.992331  0.992331  0.678582  1
  Si  Si4  1  0.356105  0.356105  0.561153  1
  Si  Si5  1  0.496434  0.496434  0.875471  1
  Si  Si6  1  0.644129  0.644129  0.439259  1
  Si  Si7  1  0.503928  0.503928  0.124313  1
  Os  Os8  1  0.729257  0.729257  0.627556  1
  Os  Os9  1  0.270845  0.270845  0.373323  1
