# generated using pymatgen
data_Ac11In9PtAu3
_symmetry_space_group_name_H-M   'P 1'
_cell_length_a   14.34222800
_cell_length_b   14.32699350
_cell_length_c   4.02096700
_cell_angle_alpha   90.00000000
_cell_angle_beta   90.00000000
_cell_angle_gamma   111.41813874
_symmetry_Int_Tables_number   1
_chemical_formula_structural   Ac11In9PtAu3
_chemical_formula_sum   'Ac11 In9 Pt1 Au3'
_cell_volume   769.17295525
_cell_formula_units_Z   1
loop_
 _symmetry_equiv_pos_site_id
 _symmetry_equiv_pos_as_xyz
  1  'x, y, z'
loop_
 _atom_site_type_symbol
 _atom_site_label
 _atom_site_symmetry_multiplicity
 _atom_site_fract_x
 _atom_site_fract_y
 _atom_site_fract_z
 _atom_site_occupancy
  Ac  Ac0  1  0.067371  0.413042  0.000000  1
  Ac  Ac1  1  0.931374  0.587186  0.000000  1
  Ac  Ac2  1  0.411893  0.064665  0.000000  1
  Ac  Ac3  1  0.584292  0.925426  0.000000  1
  Ac  Ac4  1  0.632161  0.370531  0.000000  1
  Ac  Ac5  1  0.378723  0.634762  0.000000  1
  Ac  Ac6  1  0.832695  0.162372  0.000000  1
  Ac  Ac7  1  0.164781  0.832407  0.000000  1
  Ac  Ac8  1  0.000601  0.000561  0.000000  1
  Ac  Ac9  1  0.303514  0.304182  0.000000  1
  Ac  Ac10  1  0.690467  0.699606  0.000000  1
  In  In11  1  0.842782  0.367594  0.500000  1
  In  In12  1  0.162244  0.631512  0.500000  1
  In  In13  1  0.367390  0.839842  0.500000  1
  In  In14  1  0.630297  0.157724  0.500000  1
  In  In15  1  0.073231  0.214957  0.500000  1
  In  In16  1  0.924762  0.785065  0.500000  1
  In  In17  1  0.214953  0.073360  0.500000  1
  In  In18  1  0.785581  0.926497  0.500000  1
  In  In19  1  0.500782  0.501232  0.500000  1
  Pt  Pt20  1  0.546386  0.750783  0.500000  1
  Au  Au21  1  0.252556  0.455174  0.500000  1
  Au  Au22  1  0.748348  0.551018  0.500000  1
  Au  Au23  1  0.452817  0.250497  0.500000  1
