# generated using pymatgen
data_Er3Lu(ZnIr)4
_symmetry_space_group_name_H-M   'P 1'
_cell_length_a   4.03275400
_cell_length_b   6.94862432
_cell_length_c   8.06474800
_cell_angle_alpha   89.79536779
_cell_angle_beta   90.00000000
_cell_angle_gamma   90.00000000
_symmetry_Int_Tables_number   1
_chemical_formula_structural   Er3Lu(ZnIr)4
_chemical_formula_sum   'Er3 Lu1 Zn4 Ir4'
_cell_volume   225.98967319
_cell_formula_units_Z   1
loop_
 _symmetry_equiv_pos_site_id
 _symmetry_equiv_pos_as_xyz
  1  'x, y, z'
loop_
 _atom_site_type_symbol
 _atom_site_label
 _atom_site_symmetry_multiplicity
 _atom_site_fract_x
 _atom_site_fract_y
 _atom_site_fract_z
 _atom_site_occupancy
  Er  Er0  1  0.250000  0.534876  0.183399  1
  Er  Er1  1  0.750000  0.464090  0.817668  1
  Er  Er2  1  0.750000  0.964750  0.681111  1
  Lu  Lu3  1  0.250000  0.035542  0.318205  1
  Zn  Zn4  1  0.250000  0.639948  0.566124  1
  Zn  Zn5  1  0.750000  0.360894  0.432825  1
  Zn  Zn6  1  0.750000  0.861791  0.066928  1
  Zn  Zn7  1  0.250000  0.138562  0.933907  1
  Ir  Ir8  1  0.250000  0.757517  0.877831  1
  Ir  Ir9  1  0.750000  0.239772  0.123984  1
  Ir  Ir10  1  0.750000  0.744373  0.377271  1
  Ir  Ir11  1  0.250000  0.257883  0.620748  1
