# generated using pymatgen
data_Dy4Y3Ho(ReB6)4
_symmetry_space_group_name_H-M   'P 1'
_cell_length_a   3.68725600
_cell_length_b   9.18499500
_cell_length_c   11.57253901
_cell_angle_alpha   89.99989741
_cell_angle_beta   90.00000000
_cell_angle_gamma   90.00000000
_symmetry_Int_Tables_number   1
_chemical_formula_structural   Dy4Y3Ho(ReB6)4
_chemical_formula_sum   'Dy4 Y3 Ho1 Re4 B24'
_cell_volume   391.93213087
_cell_formula_units_Z   1
loop_
 _symmetry_equiv_pos_site_id
 _symmetry_equiv_pos_as_xyz
  1  'x, y, z'
loop_
 _atom_site_type_symbol
 _atom_site_label
 _atom_site_symmetry_multiplicity
 _atom_site_fract_x
 _atom_site_fract_y
 _atom_site_fract_z
 _atom_site_occupancy
  Dy  Dy0  1  0.000000  0.176456  0.913959  1
  Dy  Dy1  1  0.000000  0.942982  0.369898  1
  Dy  Dy2  1  0.000000  0.057092  0.630088  1
  Dy  Dy3  1  0.000000  0.442919  0.129781  1
  Y  Y4  1  0.000000  0.323328  0.414044  1
  Y  Y5  1  0.000000  0.676639  0.586138  1
  Y  Y6  1  0.000000  0.823334  0.085902  1
  Ho  Ho7  1  0.000000  0.557127  0.869939  1
  Re  Re8  1  0.000000  0.638537  0.320610  1
  Re  Re9  1  0.000000  0.361481  0.679695  1
  Re  Re10  1  0.000000  0.138589  0.179082  1
  Re  Re11  1  0.000000  0.861392  0.820831  1
  B  B12  1  0.500000  0.553299  0.432710  1
  B  B13  1  0.500000  0.446581  0.567507  1
  B  B14  1  0.500000  0.053542  0.067037  1
  B  B15  1  0.500000  0.946912  0.932668  1
  B  B16  1  0.500000  0.748936  0.418195  1
  B  B17  1  0.500000  0.251069  0.582020  1
  B  B18  1  0.500000  0.248887  0.081424  1
  B  B19  1  0.500000  0.750939  0.918219  1
  B  B20  1  0.500000  0.791754  0.265419  1
  B  B21  1  0.500000  0.208236  0.734852  1
  B  B22  1  0.500000  0.291702  0.234260  1
  B  B23  1  0.500000  0.708133  0.765653  1
  B  B24  1  0.500000  0.630657  0.185709  1
  B  B25  1  0.500000  0.369257  0.814649  1
  B  B26  1  0.500000  0.130733  0.314072  1
  B  B27  1  0.500000  0.869404  0.685918  1
  B  B28  1  0.500000  0.982515  0.211772  1
  B  B29  1  0.500000  0.017777  0.788225  1
  B  B30  1  0.500000  0.482356  0.287971  1
  B  B31  1  0.500000  0.517556  0.712309  1
  B  B32  1  0.500000  0.599672  0.027598  1
  B  B33  1  0.500000  0.400153  0.971814  1
  B  B34  1  0.500000  0.099767  0.472115  1
  B  B35  1  0.500000  0.900292  0.527914  1
