# generated using pymatgen
data_Rb12Na8Sn4As7P5
_symmetry_space_group_name_H-M   'P 1'
_cell_length_a   10.91991713
_cell_length_b   10.91508962
_cell_length_c   16.04866580
_cell_angle_alpha   89.97889102
_cell_angle_beta   89.99934983
_cell_angle_gamma   143.07867183
_symmetry_Int_Tables_number   1
_chemical_formula_structural   Rb12Na8Sn4As7P5
_chemical_formula_sum   'Rb12 Na8 Sn4 As7 P5'
_cell_volume   1149.09528551
_cell_formula_units_Z   1
loop_
 _symmetry_equiv_pos_site_id
 _symmetry_equiv_pos_as_xyz
  1  'x, y, z'
loop_
 _atom_site_type_symbol
 _atom_site_label
 _atom_site_symmetry_multiplicity
 _atom_site_fract_x
 _atom_site_fract_y
 _atom_site_fract_z
 _atom_site_occupancy
  Rb  Rb0  1  0.938922  0.605611  0.826780  1
  Rb  Rb1  1  0.561308  0.894453  0.327611  1
  Rb  Rb2  1  0.394228  0.061083  0.173150  1
  Rb  Rb3  1  0.061130  0.394313  0.174390  1
  Rb  Rb4  1  0.894942  0.560848  0.327141  1
  Rb  Rb5  1  0.438971  0.105529  0.672878  1
  Rb  Rb6  1  0.605620  0.938963  0.826694  1
  Rb  Rb7  1  0.263633  0.265343  0.321429  1
  Rb  Rb8  1  0.764637  0.764383  0.179083  1
  Rb  Rb9  1  0.235496  0.235543  0.820820  1
  Rb  Rb10  1  0.735595  0.735902  0.678542  1
  Rb  Rb11  1  0.105569  0.438790  0.673017  1
  Na  Na12  1  0.920290  0.079699  0.000027  1
  Na  Na13  1  0.579663  0.420400  0.500035  1
  Na  Na14  1  0.079724  0.920316  0.999991  1
  Na  Na15  1  0.418393  0.578932  0.499278  1
  Na  Na16  1  0.754352  0.245659  0.000020  1
  Na  Na17  1  0.748104  0.255249  0.499241  1
  Na  Na18  1  0.245638  0.754366  0.000016  1
  Na  Na19  1  0.252941  0.742972  0.499373  1
  Sn  Sn20  1  0.585793  0.414210  0.000033  1
  Sn  Sn21  1  0.916764  0.090591  0.498357  1
  Sn  Sn22  1  0.414164  0.585665  0.000051  1
  Sn  Sn23  1  0.085418  0.914675  0.500021  1
  As  As24  1  0.879663  0.563518  0.101258  1
  As  As25  1  0.436303  0.120366  0.898896  1
  As  As26  1  0.621035  0.936886  0.600260  1
  As  As27  1  0.936302  0.619926  0.600880  1
  As  As28  1  0.120491  0.436516  0.898894  1
  As  As29  1  0.563534  0.879611  0.101405  1
  As  As30  1  0.379629  0.063569  0.398596  1
  P  P31  1  0.199762  0.200446  0.585704  1
  P  P32  1  0.700099  0.700285  0.913762  1
  P  P33  1  0.299782  0.299743  0.086343  1
  P  P34  1  0.061501  0.373988  0.402590  1
  P  P35  1  0.800603  0.801651  0.413435  1
