# generated using pymatgen
data_CaYb5DyLuSb6
_symmetry_space_group_name_H-M   'P 1'
_cell_length_a   8.17890851
_cell_length_b   7.99383255
_cell_length_c   8.17499821
_cell_angle_alpha   70.99375503
_cell_angle_beta   70.06864551
_cell_angle_gamma   109.03263876
_symmetry_Int_Tables_number   1
_chemical_formula_structural   CaYb5DyLuSb6
_chemical_formula_sum   'Ca1 Yb5 Dy1 Lu1 Sb6'
_cell_volume   413.65913601
_cell_formula_units_Z   1
loop_
 _symmetry_equiv_pos_site_id
 _symmetry_equiv_pos_as_xyz
  1  'x, y, z'
loop_
 _atom_site_type_symbol
 _atom_site_label
 _atom_site_symmetry_multiplicity
 _atom_site_fract_x
 _atom_site_fract_y
 _atom_site_fract_z
 _atom_site_occupancy
  Ca  Ca0  1  0.852568  0.998466  0.001660  1
  Yb  Yb1  1  0.501674  0.499109  0.145623  1
  Yb  Yb2  1  0.644912  0.145598  0.353519  1
  Yb  Yb3  1  0.357179  0.001302  0.996432  1
  Yb  Yb4  1  0.496236  0.497427  0.647025  1
  Yb  Yb5  1  0.146807  0.644521  0.857010  1
  Dy  Dy6  1  0.000056  0.857120  0.499974  1
  Lu  Lu7  1  0.000436  0.358160  0.498922  1
  Sb  Sb8  1  0.635134  0.881460  0.741586  1
  Sb  Sb9  1  0.877858  0.621511  0.259237  1
  Sb  Sb10  1  0.241984  0.124016  0.622466  1
  Sb  Sb11  1  0.759451  0.381161  0.862478  1
  Sb  Sb12  1  0.362682  0.743472  0.378437  1
  Sb  Sb13  1  0.123023  0.246677  0.135632  1
