# generated using pymatgen
data_Y20TlCd3(NiAg)2
_symmetry_space_group_name_H-M   'P 1'
_cell_length_a   9.72168311
_cell_length_b   9.72168375
_cell_length_c   9.60273100
_cell_angle_alpha   90.00000000
_cell_angle_beta   90.00000000
_cell_angle_gamma   120.41938656
_symmetry_Int_Tables_number   1
_chemical_formula_structural   Y20TlCd3(NiAg)2
_chemical_formula_sum   'Y20 Tl1 Cd3 Ni2 Ag2'
_cell_volume   782.63173175
_cell_formula_units_Z   1
loop_
 _symmetry_equiv_pos_site_id
 _symmetry_equiv_pos_as_xyz
  1  'x, y, z'
loop_
 _atom_site_type_symbol
 _atom_site_label
 _atom_site_symmetry_multiplicity
 _atom_site_fract_x
 _atom_site_fract_y
 _atom_site_fract_z
 _atom_site_occupancy
  Y  Y0  1  0.006227  0.993773  0.481659  1
  Y  Y1  1  0.006227  0.993773  0.018341  1
  Y  Y2  1  0.541336  0.458664  0.250000  1
  Y  Y3  1  0.534127  0.088441  0.250000  1
  Y  Y4  1  0.911559  0.465873  0.250000  1
  Y  Y5  1  0.455013  0.544987  0.750000  1
  Y  Y6  1  0.458279  0.914345  0.750000  1
  Y  Y7  1  0.085655  0.541721  0.750000  1
  Y  Y8  1  0.211928  0.788072  0.438726  1
  Y  Y9  1  0.208765  0.418759  0.436159  1
  Y  Y10  1  0.581241  0.791235  0.436159  1
  Y  Y11  1  0.790331  0.209669  0.561746  1
  Y  Y12  1  0.788185  0.580211  0.564014  1
  Y  Y13  1  0.419789  0.211815  0.564014  1
  Y  Y14  1  0.790331  0.209669  0.938254  1
  Y  Y15  1  0.788185  0.580211  0.935986  1
  Y  Y16  1  0.419789  0.211815  0.935986  1
  Y  Y17  1  0.211928  0.788072  0.061274  1
  Y  Y18  1  0.208765  0.418759  0.063841  1
  Y  Y19  1  0.581241  0.791235  0.063841  1
  Tl  Tl20  1  0.875847  0.124153  0.250000  1
  Cd  Cd21  1  0.114060  0.885940  0.750000  1
  Cd  Cd22  1  0.110740  0.223393  0.750000  1
  Cd  Cd23  1  0.776607  0.889260  0.750000  1
  Ni  Ni24  1  0.333112  0.666888  0.250000  1
  Ni  Ni25  1  0.667713  0.332287  0.750000  1
  Ag  Ag26  1  0.876145  0.753125  0.250000  1
  Ag  Ag27  1  0.246875  0.123855  0.250000  1
