# generated using pymatgen
data_Mn5Al(SiRu2)6
_symmetry_space_group_name_H-M   'P 1'
_cell_length_a   4.18472700
_cell_length_b   5.91318700
_cell_length_c   12.54490301
_cell_angle_alpha   90.00000000
_cell_angle_beta   89.99448936
_cell_angle_gamma   90.00000000
_symmetry_Int_Tables_number   1
_chemical_formula_structural   Mn5Al(SiRu2)6
_chemical_formula_sum   'Mn5 Al1 Si6 Ru12'
_cell_volume   310.42454350
_cell_formula_units_Z   1
loop_
 _symmetry_equiv_pos_site_id
 _symmetry_equiv_pos_as_xyz
  1  'x, y, z'
loop_
 _atom_site_type_symbol
 _atom_site_label
 _atom_site_symmetry_multiplicity
 _atom_site_fract_x
 _atom_site_fract_y
 _atom_site_fract_z
 _atom_site_occupancy
  Mn  Mn0  1  0.499570  0.500000  0.166047  1
  Mn  Mn1  1  0.999587  0.000000  0.333101  1
  Mn  Mn2  1  0.500001  0.500000  0.500000  1
  Mn  Mn3  1  0.000412  0.000000  0.666900  1
  Mn  Mn4  1  0.500429  0.500000  0.833953  1
  Al  Al5  1  0.000000  0.000000  0.000000  1
  Si  Si6  1  0.000000  0.500000  0.000000  1
  Si  Si7  1  0.499792  0.000000  0.167019  1
  Si  Si8  1  0.999758  0.500000  0.332583  1
  Si  Si9  1  0.500001  0.000000  0.500000  1
  Si  Si10  1  0.000242  0.500000  0.667417  1
  Si  Si11  1  0.500207  0.000000  0.832981  1
  Ru  Ru12  1  0.500001  0.251660  0.000000  1
  Ru  Ru13  1  0.500001  0.748339  0.000000  1
  Ru  Ru14  1  0.999635  0.250651  0.167286  1
  Ru  Ru15  1  0.999635  0.749350  0.167286  1
  Ru  Ru16  1  0.499587  0.249527  0.333463  1
  Ru  Ru17  1  0.499587  0.750472  0.333463  1
  Ru  Ru18  1  0.000000  0.248991  0.500000  1
  Ru  Ru19  1  0.000000  0.751009  0.500000  1
  Ru  Ru20  1  0.500413  0.249527  0.666537  1
  Ru  Ru21  1  0.500413  0.750472  0.666537  1
  Ru  Ru22  1  0.000364  0.250651  0.832714  1
  Ru  Ru23  1  0.000364  0.749350  0.832714  1
