# generated using pymatgen
data_Nd6Lu7Th3Cd2(InIr2)2
_symmetry_space_group_name_H-M   'P 1'
_cell_length_a   9.75130129
_cell_length_b   9.73306985
_cell_length_c   9.73307000
_cell_angle_alpha   59.99999950
_cell_angle_beta   60.06182749
_cell_angle_gamma   60.06183124
_symmetry_Int_Tables_number   1
_chemical_formula_structural   Nd6Lu7Th3Cd2(InIr2)2
_chemical_formula_sum   'Nd6 Lu7 Th3 Cd2 In2 Ir4'
_cell_volume   653.81141887
_cell_formula_units_Z   1
loop_
 _symmetry_equiv_pos_site_id
 _symmetry_equiv_pos_as_xyz
  1  'x, y, z'
loop_
 _atom_site_type_symbol
 _atom_site_label
 _atom_site_symmetry_multiplicity
 _atom_site_fract_x
 _atom_site_fract_y
 _atom_site_fract_z
 _atom_site_occupancy
  Nd  Nd0  1  0.939453  0.560556  0.560249  1
  Nd  Nd1  1  0.562124  0.938585  0.937999  1
  Nd  Nd2  1  0.562124  0.938585  0.561294  1
  Nd  Nd3  1  0.939453  0.560556  0.939741  1
  Nd  Nd4  1  0.561824  0.561588  0.938294  1
  Nd  Nd5  1  0.939318  0.940099  0.560291  1
  Lu  Lu6  1  0.953757  0.348991  0.348625  1
  Lu  Lu7  1  0.815545  0.185083  0.185211  1
  Lu  Lu8  1  0.183104  0.817148  0.817368  1
  Lu  Lu9  1  0.183104  0.817148  0.182381  1
  Lu  Lu10  1  0.815545  0.185083  0.814162  1
  Lu  Lu11  1  0.182601  0.182031  0.817684  1
  Lu  Lu12  1  0.815449  0.813507  0.185523  1
  Th  Th13  1  0.346731  0.349625  0.349607  1
  Th  Th14  1  0.346731  0.349625  0.954039  1
  Th  Th15  1  0.346756  0.954145  0.349550  1
  Cd  Cd16  1  0.583599  0.258681  0.578859  1
  Cd  Cd17  1  0.258233  0.580471  0.580648  1
  In  In18  1  0.583936  0.578740  0.579243  1
  In  In19  1  0.583936  0.578740  0.258080  1
  Ir  Ir20  1  0.140943  0.141976  0.141957  1
  Ir  Ir21  1  0.140943  0.141976  0.575123  1
  Ir  Ir22  1  0.141118  0.575055  0.141913  1
  Ir  Ir23  1  0.573668  0.142007  0.142161  1
