# generated using pymatgen
data_Cs14TaCr(In3P5)2
_symmetry_space_group_name_H-M   'P 1'
_cell_length_a   8.81216899
_cell_length_b   9.61928304
_cell_length_c   14.78552747
_cell_angle_alpha   85.25879891
_cell_angle_beta   85.00298601
_cell_angle_gamma   84.71402386
_symmetry_Int_Tables_number   1
_chemical_formula_structural   Cs14TaCr(In3P5)2
_chemical_formula_sum   'Cs14 Ta1 Cr1 In6 P10'
_cell_volume   1239.72413655
_cell_formula_units_Z   1
loop_
 _symmetry_equiv_pos_site_id
 _symmetry_equiv_pos_as_xyz
  1  'x, y, z'
loop_
 _atom_site_type_symbol
 _atom_site_label
 _atom_site_symmetry_multiplicity
 _atom_site_fract_x
 _atom_site_fract_y
 _atom_site_fract_z
 _atom_site_occupancy
  Cs  Cs0  1  0.835968  0.366643  0.646594  1
  Cs  Cs1  1  0.815542  0.808054  0.132107  1
  Cs  Cs2  1  0.239639  0.007735  0.467487  1
  Cs  Cs3  1  0.272568  0.258908  0.251318  1
  Cs  Cs4  1  0.741442  0.499501  0.977139  1
  Cs  Cs5  1  0.259189  0.498243  0.026669  1
  Cs  Cs6  1  0.684117  0.082030  0.889393  1
  Cs  Cs7  1  0.760479  0.993064  0.531007  1
  Cs  Cs8  1  0.728883  0.746352  0.748451  1
  Cs  Cs9  1  0.327497  0.341547  0.599137  1
  Cs  Cs10  1  0.165131  0.631921  0.353581  1
  Cs  Cs11  1  0.183411  0.189268  0.868592  1
  Cs  Cs12  1  0.319639  0.913367  0.114843  1
  Cs  Cs13  1  0.675774  0.653414  0.398045  1
  Ta  Ta14  1  0.354538  0.604973  0.773149  1
  Cr  Cr15  1  0.647045  0.393735  0.227110  1
  In  In16  1  0.062982  0.812456  0.866169  1
  In  In17  1  0.931957  0.190003  0.136751  1
  In  In18  1  0.359535  0.946659  0.704693  1
  In  In19  1  0.097962  0.723377  0.626194  1
  In  In20  1  0.898200  0.278140  0.370603  1
  In  In21  1  0.642173  0.060032  0.292497  1
  P  P22  1  0.896875  0.444758  0.212770  1
  P  P23  1  0.624945  0.217788  0.132064  1
  P  P24  1  0.090000  0.553672  0.786926  1
  P  P25  1  0.589716  0.303975  0.374690  1
  P  P26  1  0.410921  0.700690  0.617000  1
  P  P27  1  0.040910  0.986338  0.702873  1
  P  P28  1  0.513333  0.403203  0.808722  1
  P  P29  1  0.498218  0.582574  0.194342  1
  P  P30  1  0.374239  0.793512  0.872003  1
  P  P31  1  0.957176  0.014070  0.297080  1
