# generated using pymatgen
data_Dy7Ho(Sc3Sn4)4
_symmetry_space_group_name_H-M   'P 1'
_cell_length_a   7.68767200
_cell_length_b   7.96210900
_cell_length_c   14.84190301
_cell_angle_alpha   89.99854745
_cell_angle_beta   89.99709517
_cell_angle_gamma   90.00040270
_symmetry_Int_Tables_number   1
_chemical_formula_structural   Dy7Ho(Sc3Sn4)4
_chemical_formula_sum   'Dy7 Ho1 Sc12 Sn16'
_cell_volume   908.47410516
_cell_formula_units_Z   1
loop_
 _symmetry_equiv_pos_site_id
 _symmetry_equiv_pos_as_xyz
  1  'x, y, z'
loop_
 _atom_site_type_symbol
 _atom_site_label
 _atom_site_symmetry_multiplicity
 _atom_site_fract_x
 _atom_site_fract_y
 _atom_site_fract_z
 _atom_site_occupancy
  Dy  Dy0  1  0.995533  0.177073  0.094197  1
  Dy  Dy1  1  0.004468  0.822916  0.905790  1
  Dy  Dy2  1  0.504463  0.677087  0.905830  1
  Dy  Dy3  1  0.004461  0.822898  0.594198  1
  Dy  Dy4  1  0.495540  0.322911  0.094196  1
  Dy  Dy5  1  0.995543  0.177071  0.405816  1
  Dy  Dy6  1  0.495520  0.322927  0.405825  1
  Ho  Ho7  1  0.504465  0.677159  0.594218  1
  Sc  Sc8  1  0.164088  0.496628  0.749984  1
  Sc  Sc9  1  0.835934  0.503397  0.249997  1
  Sc  Sc10  1  0.335946  0.996611  0.250003  1
  Sc  Sc11  1  0.664039  0.003364  0.749981  1
  Sc  Sc12  1  0.335544  0.162067  0.627239  1
  Sc  Sc13  1  0.664434  0.837898  0.372777  1
  Sc  Sc14  1  0.164485  0.662083  0.372775  1
  Sc  Sc15  1  0.664462  0.837931  0.127233  1
  Sc  Sc16  1  0.835499  0.337959  0.627239  1
  Sc  Sc17  1  0.335535  0.162062  0.872752  1
  Sc  Sc18  1  0.835530  0.337916  0.872754  1
  Sc  Sc19  1  0.164470  0.662078  0.127234  1
  Sn  Sn20  1  0.026730  0.124122  0.749997  1
  Sn  Sn21  1  0.973262  0.875912  0.250008  1
  Sn  Sn22  1  0.473262  0.624108  0.250008  1
  Sn  Sn23  1  0.526736  0.375972  0.749980  1
  Sn  Sn24  1  0.306473  0.849793  0.749918  1
  Sn  Sn25  1  0.693605  0.150073  0.249998  1
  Sn  Sn26  1  0.193638  0.349886  0.250002  1
  Sn  Sn27  1  0.806273  0.650120  0.749949  1
  Sn  Sn28  1  0.180574  0.458242  0.542369  1
  Sn  Sn29  1  0.819487  0.541882  0.457692  1
  Sn  Sn30  1  0.319649  0.958092  0.457663  1
  Sn  Sn31  1  0.819599  0.541844  0.042342  1
  Sn  Sn32  1  0.680358  0.041758  0.542369  1
  Sn  Sn33  1  0.180383  0.458157  0.957658  1
  Sn  Sn34  1  0.680415  0.041841  0.957649  1
  Sn  Sn35  1  0.319597  0.958162  0.042361  1
