# generated using pymatgen
data_Dy6TcSb2
_symmetry_space_group_name_H-M   'P 1'
_cell_length_a   8.19611700
_cell_length_b   8.19611765
_cell_length_c   4.24179800
_cell_angle_alpha   90.00000000
_cell_angle_beta   90.00000000
_cell_angle_gamma   120.00000140
_symmetry_Int_Tables_number   1
_chemical_formula_structural   Dy6TcSb2
_chemical_formula_sum   'Dy6 Tc1 Sb2'
_cell_volume   246.77260286
_cell_formula_units_Z   1
loop_
 _symmetry_equiv_pos_site_id
 _symmetry_equiv_pos_as_xyz
  1  'x, y, z'
loop_
 _atom_site_type_symbol
 _atom_site_label
 _atom_site_symmetry_multiplicity
 _atom_site_fract_x
 _atom_site_fract_y
 _atom_site_fract_z
 _atom_site_occupancy
  Dy  Dy0  1  0.236706  0.000000  0.000000  1
  Dy  Dy1  1  0.763294  0.763294  0.000000  1
  Dy  Dy2  1  0.000000  0.236706  0.000000  1
  Dy  Dy3  1  0.601061  0.000000  0.500000  1
  Dy  Dy4  1  0.398939  0.398939  0.500000  1
  Dy  Dy5  1  0.000000  0.601061  0.500000  1
  Tc  Tc6  1  0.000000  0.000000  0.500000  1
  Sb  Sb7  1  0.333333  0.666667  0.000000  1
  Sb  Sb8  1  0.666667  0.333333  0.000000  1
