# generated using pymatgen
data_La11Nd5(CdCo)4
_symmetry_space_group_name_H-M   'P 1'
_cell_length_a   9.93826098
_cell_length_b   9.93491475
_cell_length_c   9.93604394
_cell_angle_alpha   60.11975000
_cell_angle_beta   60.03090745
_cell_angle_gamma   60.03214422
_symmetry_Int_Tables_number   1
_chemical_formula_structural   La11Nd5(CdCo)4
_chemical_formula_sum   'La11 Nd5 Cd4 Co4'
_cell_volume   694.65906131
_cell_formula_units_Z   1
loop_
 _symmetry_equiv_pos_site_id
 _symmetry_equiv_pos_as_xyz
  1  'x, y, z'
loop_
 _atom_site_type_symbol
 _atom_site_label
 _atom_site_symmetry_multiplicity
 _atom_site_fract_x
 _atom_site_fract_y
 _atom_site_fract_z
 _atom_site_occupancy
  La  La0  1  0.594867  0.592925  0.592866  1
  La  La1  1  0.595531  0.595097  0.214320  1
  La  La2  1  0.595520  0.214292  0.595063  1
  La  La3  1  0.214828  0.594506  0.594536  1
  La  La4  1  0.060022  0.439753  0.439797  1
  La  La5  1  0.440055  0.058694  0.058727  1
  La  La6  1  0.439824  0.061097  0.438902  1
  La  La7  1  0.057914  0.439131  0.060010  1
  La  La8  1  0.439841  0.438917  0.061069  1
  La  La9  1  0.057943  0.059990  0.439095  1
  La  La10  1  0.188714  0.813187  0.813086  1
  Nd  Nd11  1  0.813156  0.186793  0.186792  1
  Nd  Nd12  1  0.812675  0.189110  0.814082  1
  Nd  Nd13  1  0.187054  0.812791  0.188421  1
  Nd  Nd14  1  0.812662  0.814069  0.189134  1
  Nd  Nd15  1  0.187047  0.188347  0.812823  1
  Cd  Cd16  1  0.828680  0.829942  0.829941  1
  Cd  Cd17  1  0.829840  0.829328  0.510804  1
  Cd  Cd18  1  0.829864  0.510758  0.829346  1
  Cd  Cd19  1  0.512030  0.829867  0.829843  1
  Co  Co20  1  0.390078  0.389788  0.389765  1
  Co  Co21  1  0.390414  0.390233  0.831170  1
  Co  Co22  1  0.390427  0.831209  0.390194  1
  Co  Co23  1  0.831011  0.390173  0.390216  1
