# generated using pymatgen
data_DyY3(Ti4Sn5)2
_symmetry_space_group_name_H-M   'P 1'
_cell_length_a   10.72431033
_cell_length_b   10.73437037
_cell_length_c   10.73436800
_cell_angle_alpha   148.84881447
_cell_angle_beta   131.61087664
_cell_angle_gamma   58.68530397
_symmetry_Int_Tables_number   1
_chemical_formula_structural   DyY3(Ti4Sn5)2
_chemical_formula_sum   'Dy1 Y3 Ti8 Sn10'
_cell_volume   474.15686215
_cell_formula_units_Z   1
loop_
 _symmetry_equiv_pos_site_id
 _symmetry_equiv_pos_as_xyz
  1  'x, y, z'
loop_
 _atom_site_type_symbol
 _atom_site_label
 _atom_site_symmetry_multiplicity
 _atom_site_fract_x
 _atom_site_fract_y
 _atom_site_fract_z
 _atom_site_occupancy
  Dy  Dy0  1  0.969101  0.356461  0.612640  1
  Y  Y1  1  0.256957  0.143625  0.113334  1
  Y  Y2  1  0.743487  0.856728  0.886758  1
  Y  Y3  1  0.029522  0.643290  0.386232  1
  Ti  Ti4  1  0.311581  0.560736  0.250377  1
  Ti  Ti5  1  0.689324  0.439274  0.750357  1
  Ti  Ti6  1  0.689324  0.938967  0.250050  1
  Ti  Ti7  1  0.311581  0.061204  0.750844  1
  Ti  Ti8  1  0.675414  0.436431  0.238983  1
  Ti  Ti9  1  0.323900  0.563517  0.760384  1
  Ti  Ti10  1  0.196753  0.936486  0.260267  1
  Ti  Ti11  1  0.803641  0.063559  0.740082  1
  Sn  Sn12  1  0.585838  0.289669  0.296168  1
  Sn  Sn13  1  0.415919  0.710677  0.705242  1
  Sn  Sn14  1  0.994489  0.789482  0.205006  1
  Sn  Sn15  1  0.005447  0.210923  0.794524  1
  Sn  Sn16  1  0.999858  0.249748  0.250272  1
  Sn  Sn17  1  0.999858  0.749587  0.750111  1
  Sn  Sn18  1  0.473613  0.066883  0.406728  1
  Sn  Sn19  1  0.526888  0.933280  0.593609  1
  Sn  Sn20  1  0.659513  0.566668  0.092845  1
  Sn  Sn21  1  0.337992  0.432806  0.905186  1
