# generated using pymatgen
data_PrSm2V(Co4P3)2
_symmetry_space_group_name_H-M   'P 1'
_cell_length_a   3.74372700
_cell_length_b   10.66747300
_cell_length_c   12.37918200
_cell_angle_alpha   90.00000000
_cell_angle_beta   90.00000000
_cell_angle_gamma   90.00000000
_symmetry_Int_Tables_number   1
_chemical_formula_structural   PrSm2V(Co4P3)2
_chemical_formula_sum   'Pr2 Sm4 V2 Co16 P12'
_cell_volume   494.37633311
_cell_formula_units_Z   2
loop_
 _symmetry_equiv_pos_site_id
 _symmetry_equiv_pos_as_xyz
  1  'x, y, z'
loop_
 _atom_site_type_symbol
 _atom_site_label
 _atom_site_symmetry_multiplicity
 _atom_site_fract_x
 _atom_site_fract_y
 _atom_site_fract_z
 _atom_site_occupancy
  Pr  Pr0  1  0.000000  0.500000  0.523449  1
  Pr  Pr1  1  0.500000  0.000000  0.476551  1
  Sm  Sm2  1  0.500000  0.818240  0.204072  1
  Sm  Sm3  1  0.500000  0.181760  0.204072  1
  Sm  Sm4  1  0.000000  0.681760  0.795928  1
  Sm  Sm5  1  0.000000  0.318240  0.795928  1
  V  V6  1  0.500000  0.500000  0.151863  1
  V  V7  1  0.000000  0.000000  0.848137  1
  Co  Co8  1  0.500000  0.500000  0.704656  1
  Co  Co9  1  0.000000  0.000000  0.295344  1
  Co  Co10  1  0.000000  0.500000  0.987589  1
  Co  Co11  1  0.500000  0.000000  0.012411  1
  Co  Co12  1  0.500000  0.332451  0.993713  1
  Co  Co13  1  0.500000  0.667549  0.993713  1
  Co  Co14  1  0.000000  0.167549  0.006287  1
  Co  Co15  1  0.000000  0.832451  0.006287  1
  Co  Co16  1  0.500000  0.295493  0.430347  1
  Co  Co17  1  0.500000  0.704507  0.430347  1
  Co  Co18  1  0.000000  0.204507  0.569653  1
  Co  Co19  1  0.000000  0.795493  0.569653  1
  Co  Co20  1  0.500000  0.880281  0.709466  1
  Co  Co21  1  0.500000  0.119719  0.709466  1
  Co  Co22  1  0.000000  0.619719  0.290534  1
  Co  Co23  1  0.000000  0.380281  0.290534  1
  P  P24  1  0.500000  0.500000  0.884996  1
  P  P25  1  0.000000  0.000000  0.115004  1
  P  P26  1  0.500000  0.500000  0.342124  1
  P  P27  1  0.000000  0.000000  0.657876  1
  P  P28  1  0.500000  0.306717  0.615682  1
  P  P29  1  0.500000  0.693283  0.615682  1
  P  P30  1  0.000000  0.193283  0.384318  1
  P  P31  1  0.000000  0.806717  0.384318  1
  P  P32  1  0.500000  0.847139  0.893837  1
  P  P33  1  0.500000  0.152861  0.893837  1
  P  P34  1  0.000000  0.652861  0.106163  1
  P  P35  1  0.000000  0.347139  0.106163  1
