# generated using pymatgen
data_La15Nd(CdIr)4
_symmetry_space_group_name_H-M   'P 1'
_cell_length_a   10.12378092
_cell_length_b   10.12378066
_cell_length_c   10.12999700
_cell_angle_alpha   59.97968259
_cell_angle_beta   59.97968343
_cell_angle_gamma   59.88647225
_symmetry_Int_Tables_number   1
_chemical_formula_structural   La15Nd(CdIr)4
_chemical_formula_sum   'La15 Nd1 Cd4 Ir4'
_cell_volume   733.28461367
_cell_formula_units_Z   1
loop_
 _symmetry_equiv_pos_site_id
 _symmetry_equiv_pos_as_xyz
  1  'x, y, z'
loop_
 _atom_site_type_symbol
 _atom_site_label
 _atom_site_symmetry_multiplicity
 _atom_site_fract_x
 _atom_site_fract_y
 _atom_site_fract_z
 _atom_site_occupancy
  La  La0  1  0.347702  0.347702  0.347922  1
  La  La1  1  0.347702  0.347702  0.956674  1
  La  La2  1  0.347421  0.956303  0.348138  1
  La  La3  1  0.956303  0.347421  0.348138  1
  La  La4  1  0.810075  0.189423  0.190874  1
  La  La5  1  0.189423  0.810075  0.809628  1
  La  La6  1  0.189423  0.810075  0.190874  1
  La  La7  1  0.810075  0.189423  0.809628  1
  La  La8  1  0.189785  0.189785  0.810215  1
  La  La9  1  0.809990  0.809990  0.190010  1
  La  La10  1  0.938576  0.562208  0.561176  1
  La  La11  1  0.562208  0.938576  0.938041  1
  La  La12  1  0.562208  0.938576  0.561176  1
  La  La13  1  0.938576  0.562208  0.938041  1
  La  La14  1  0.561255  0.561255  0.938745  1
  Nd  Nd15  1  0.938865  0.938865  0.561135  1
  Cd  Cd16  1  0.579182  0.579182  0.579452  1
  Cd  Cd17  1  0.579182  0.579182  0.262184  1
  Cd  Cd18  1  0.580191  0.261445  0.579182  1
  Cd  Cd19  1  0.261445  0.580191  0.579182  1
  Ir  Ir20  1  0.141212  0.141212  0.141185  1
  Ir  Ir21  1  0.141212  0.141212  0.576390  1
  Ir  Ir22  1  0.141225  0.576765  0.141004  1
  Ir  Ir23  1  0.576765  0.141225  0.141004  1
