# generated using pymatgen
data_PrNp3O12
_symmetry_space_group_name_H-M   'P 1'
_cell_length_a   7.30579918
_cell_length_b   7.35440756
_cell_length_c   7.30340445
_cell_angle_alpha   109.52143167
_cell_angle_beta   109.45558769
_cell_angle_gamma   109.52994612
_symmetry_Int_Tables_number   1
_chemical_formula_structural   PrNp3O12
_chemical_formula_sum   'Pr1 Np3 O12'
_cell_volume   301.72939702
_cell_formula_units_Z   1
loop_
 _symmetry_equiv_pos_site_id
 _symmetry_equiv_pos_as_xyz
  1  'x, y, z'
loop_
 _atom_site_type_symbol
 _atom_site_label
 _atom_site_symmetry_multiplicity
 _atom_site_fract_x
 _atom_site_fract_y
 _atom_site_fract_z
 _atom_site_occupancy
  Pr  Pr0  1  0.499994  0.996563  0.996306  1
  Np  Np1  1  0.499976  0.496485  0.496562  1
  Np  Np2  1  0.000122  0.496740  0.996665  1
  Np  Np3  1  0.999879  0.996557  0.496613  1
  O  O4  1  0.254377  0.444595  0.241681  1
  O  O5  1  0.745722  0.548343  0.751393  1
  O  O6  1  0.194095  0.994460  0.743147  1
  O  O7  1  0.805582  0.998574  0.250092  1
  O  O8  1  0.252785  0.206959  0.511052  1
  O  O9  1  0.746978  0.786143  0.482221  1
  O  O10  1  0.753848  0.256660  0.953662  1
  O  O11  1  0.246269  0.736893  0.039550  1
  O  O12  1  0.001930  0.700104  0.243825  1
  O  O13  1  0.998379  0.293404  0.749583  1
  O  O14  1  0.546525  0.292408  0.304899  1
  O  O15  1  0.453541  0.700836  0.688466  1
