# generated using pymatgen
data_Sm(MnC)4
_symmetry_space_group_name_H-M   'P 1'
_cell_length_a   5.64317340
_cell_length_b   5.64317345
_cell_length_c   5.64317170
_cell_angle_alpha   94.89259161
_cell_angle_beta   94.89262143
_cell_angle_gamma   146.03950916
_symmetry_Int_Tables_number   1
_chemical_formula_structural   Sm(MnC)4
_chemical_formula_sum   'Sm1 Mn4 C4'
_cell_volume   96.01288776
_cell_formula_units_Z   1
loop_
 _symmetry_equiv_pos_site_id
 _symmetry_equiv_pos_as_xyz
  1  'x, y, z'
loop_
 _atom_site_type_symbol
 _atom_site_label
 _atom_site_symmetry_multiplicity
 _atom_site_fract_x
 _atom_site_fract_y
 _atom_site_fract_z
 _atom_site_occupancy
  Sm  Sm0  1  0.000000  0.000000  0.000000  1
  Mn  Mn1  1  0.819846  0.637864  0.457709  1
  Mn  Mn2  1  0.180154  0.362136  0.542291  1
  Mn  Mn3  1  0.637864  0.180154  0.818017  1
  Mn  Mn4  1  0.362136  0.819846  0.181983  1
  C  C5  1  0.241857  0.601276  0.843134  1
  C  C6  1  0.758143  0.398724  0.156866  1
  C  C7  1  0.601276  0.758143  0.359417  1
  C  C8  1  0.398724  0.241857  0.640583  1
