# generated using pymatgen
data_Er20(Pt3Rh)3
_symmetry_space_group_name_H-M   'P 1'
_cell_length_a   10.96226000
_cell_length_b   10.96226000
_cell_length_c   6.30415700
_cell_angle_alpha   90.00000000
_cell_angle_beta   90.00000000
_cell_angle_gamma   90.00000000
_symmetry_Int_Tables_number   1
_chemical_formula_structural   Er20(Pt3Rh)3
_chemical_formula_sum   'Er20 Pt9 Rh3'
_cell_volume   757.57776058
_cell_formula_units_Z   1
loop_
 _symmetry_equiv_pos_site_id
 _symmetry_equiv_pos_as_xyz
  1  'x, y, z'
loop_
 _atom_site_type_symbol
 _atom_site_label
 _atom_site_symmetry_multiplicity
 _atom_site_fract_x
 _atom_site_fract_y
 _atom_site_fract_z
 _atom_site_occupancy
  Er  Er0  1  0.292565  0.088376  0.376465  1
  Er  Er1  1  0.292026  0.911646  0.872117  1
  Er  Er2  1  0.707974  0.088354  0.872117  1
  Er  Er3  1  0.707435  0.911624  0.376465  1
  Er  Er4  1  0.588354  0.792026  0.872117  1
  Er  Er5  1  0.588376  0.207435  0.376465  1
  Er  Er6  1  0.411624  0.792565  0.376465  1
  Er  Er7  1  0.411646  0.207974  0.872117  1
  Er  Er8  1  0.206230  0.412287  0.625366  1
  Er  Er9  1  0.206311  0.588207  0.125910  1
  Er  Er10  1  0.793689  0.411793  0.125910  1
  Er  Er11  1  0.793770  0.587713  0.625366  1
  Er  Er12  1  0.911793  0.706311  0.125910  1
  Er  Er13  1  0.912287  0.293770  0.625366  1
  Er  Er14  1  0.087713  0.706230  0.625366  1
  Er  Er15  1  0.088207  0.293689  0.125910  1
  Er  Er16  1  0.000000  0.000000  0.500509  1
  Er  Er17  1  0.000000  0.000000  0.000815  1
  Er  Er18  1  0.500000  0.500000  0.000815  1
  Er  Er19  1  0.500000  0.500000  0.500509  1
  Pt  Pt20  1  0.845605  0.153998  0.250247  1
  Pt  Pt21  1  0.846030  0.845605  0.750317  1
  Pt  Pt22  1  0.153970  0.154395  0.750317  1
  Pt  Pt23  1  0.154395  0.846002  0.250247  1
  Pt  Pt24  1  0.654395  0.346030  0.750317  1
  Pt  Pt25  1  0.653998  0.654395  0.250247  1
  Pt  Pt26  1  0.346002  0.345605  0.250247  1
  Pt  Pt27  1  0.345605  0.653970  0.750317  1
  Pt  Pt28  1  0.500000  0.000000  0.117344  1
  Rh  Rh29  1  0.500000  0.000000  0.616912  1
  Rh  Rh30  1  0.000000  0.500000  0.880890  1
  Rh  Rh31  1  0.000000  0.500000  0.380515  1
