# generated using pymatgen
data_La5Pr11Cd3InIr4
_symmetry_space_group_name_H-M   'P 1'
_cell_length_a   10.04839926
_cell_length_b   10.07694955
_cell_length_c   10.07675106
_cell_angle_alpha   59.90026375
_cell_angle_beta   60.11804804
_cell_angle_gamma   60.12091155
_symmetry_Int_Tables_number   1
_chemical_formula_structural   La5Pr11Cd3InIr4
_chemical_formula_sum   'La5 Pr11 Cd3 In1 Ir4'
_cell_volume   722.24385351
_cell_formula_units_Z   1
loop_
 _symmetry_equiv_pos_site_id
 _symmetry_equiv_pos_as_xyz
  1  'x, y, z'
loop_
 _atom_site_type_symbol
 _atom_site_label
 _atom_site_symmetry_multiplicity
 _atom_site_fract_x
 _atom_site_fract_y
 _atom_site_fract_z
 _atom_site_occupancy
  La  La0  1  0.345578  0.347355  0.347343  1
  La  La1  1  0.348243  0.347579  0.957685  1
  La  La2  1  0.348263  0.957693  0.347547  1
  La  La3  1  0.955983  0.349184  0.349209  1
  La  La4  1  0.812084  0.187481  0.187538  1
  Pr  Pr5  1  0.189820  0.808714  0.808709  1
  Pr  Pr6  1  0.190744  0.808783  0.188816  1
  Pr  Pr7  1  0.808411  0.189698  0.806804  1
  Pr  Pr8  1  0.190751  0.188824  0.808788  1
  Pr  Pr9  1  0.808407  0.806802  0.189720  1
  Pr  Pr10  1  0.940186  0.562841  0.562846  1
  Pr  Pr11  1  0.561893  0.937807  0.937785  1
  Pr  Pr12  1  0.561700  0.940306  0.562849  1
  Pr  Pr13  1  0.938838  0.562179  0.937682  1
  Pr  Pr14  1  0.561687  0.562839  0.940315  1
  Pr  Pr15  1  0.938847  0.937665  0.562156  1
  Cd  Cd16  1  0.578704  0.580802  0.260043  1
  Cd  Cd17  1  0.578691  0.260066  0.580795  1
  Cd  Cd18  1  0.259989  0.579492  0.579490  1
  In  In19  1  0.580358  0.580471  0.580467  1
  Ir  Ir20  1  0.137581  0.143365  0.143368  1
  Ir  Ir21  1  0.143442  0.142003  0.573849  1
  Ir  Ir22  1  0.143421  0.573849  0.142016  1
  Ir  Ir23  1  0.576374  0.144202  0.144177  1
