# generated using pymatgen
data_DyTm3InPt11
_symmetry_space_group_name_H-M   'P 1'
_cell_length_a   4.17463900
_cell_length_b   5.82417733
_cell_length_c   11.63770438
_cell_angle_alpha   87.87694994
_cell_angle_beta   90.00000000
_cell_angle_gamma   90.00000000
_symmetry_Int_Tables_number   1
_chemical_formula_structural   DyTm3InPt11
_chemical_formula_sum   'Dy1 Tm3 In1 Pt11'
_cell_volume   282.76302686
_cell_formula_units_Z   1
loop_
 _symmetry_equiv_pos_site_id
 _symmetry_equiv_pos_as_xyz
  1  'x, y, z'
loop_
 _atom_site_type_symbol
 _atom_site_label
 _atom_site_symmetry_multiplicity
 _atom_site_fract_x
 _atom_site_fract_y
 _atom_site_fract_z
 _atom_site_occupancy
  Dy  Dy0  1  0.500000  0.753777  0.375867  1
  Tm  Tm1  1  0.500000  0.719850  0.862259  1
  Tm  Tm2  1  0.500000  0.280068  0.137618  1
  Tm  Tm3  1  0.500000  0.246286  0.624204  1
  In  In4  1  0.000000  0.000033  0.999864  1
  Pt  Pt5  1  0.000000  0.014102  0.248758  1
  Pt  Pt6  1  0.000000  0.987184  0.750592  1
  Pt  Pt7  1  0.000000  0.499928  0.999877  1
  Pt  Pt8  1  0.000000  0.498753  0.500770  1
  Pt  Pt9  1  0.000000  0.513764  0.249392  1
  Pt  Pt10  1  0.000000  0.485113  0.750038  1
  Pt  Pt11  1  0.500000  0.252394  0.377619  1
  Pt  Pt12  1  0.500000  0.231144  0.879916  1
  Pt  Pt13  1  0.500000  0.768918  0.119332  1
  Pt  Pt14  1  0.500000  0.747682  0.623212  1
  Pt  Pt15  1  0.000000  0.001003  0.500682  1
