# generated using pymatgen
data_La16Sm3TmSn16
_symmetry_space_group_name_H-M   'P 1'
_cell_length_a   8.44265600
_cell_length_b   8.53774300
_cell_length_c   16.28680400
_cell_angle_alpha   90.00000000
_cell_angle_beta   90.00000000
_cell_angle_gamma   89.99754356
_symmetry_Int_Tables_number   1
_chemical_formula_structural   La16Sm3TmSn16
_chemical_formula_sum   'La16 Sm3 Tm1 Sn16'
_cell_volume   1173.97281838
_cell_formula_units_Z   1
loop_
 _symmetry_equiv_pos_site_id
 _symmetry_equiv_pos_as_xyz
  1  'x, y, z'
loop_
 _atom_site_type_symbol
 _atom_site_label
 _atom_site_symmetry_multiplicity
 _atom_site_fract_x
 _atom_site_fract_y
 _atom_site_fract_z
 _atom_site_occupancy
  La  La0  1  0.973029  0.818957  0.899292  1
  La  La1  1  0.473034  0.681045  0.600768  1
  La  La2  1  0.527143  0.318615  0.100752  1
  La  La3  1  0.026580  0.180817  0.399160  1
  La  La4  1  0.973029  0.818957  0.600708  1
  La  La5  1  0.473034  0.681045  0.899232  1
  La  La6  1  0.527143  0.318615  0.399248  1
  La  La7  1  0.026580  0.180817  0.100840  1
  La  La8  1  0.879647  0.660938  0.382417  1
  La  La9  1  0.380641  0.839643  0.117691  1
  La  La10  1  0.619926  0.160560  0.617483  1
  La  La11  1  0.119990  0.339396  0.882479  1
  La  La12  1  0.119990  0.339396  0.617521  1
  La  La13  1  0.619926  0.160560  0.882517  1
  La  La14  1  0.380641  0.839643  0.382309  1
  La  La15  1  0.879647  0.660938  0.117583  1
  Sm  Sm16  1  0.288815  0.002744  0.750000  1
  Sm  Sm17  1  0.788787  0.497255  0.750000  1
  Sm  Sm18  1  0.211269  0.502454  0.250000  1
  Tm  Tm19  1  0.712191  0.997047  0.250000  1
  Sn  Sn20  1  0.781210  0.470145  0.545672  1
  Sn  Sn21  1  0.281067  0.029925  0.954291  1
  Sn  Sn22  1  0.718908  0.970301  0.453686  1
  Sn  Sn23  1  0.218726  0.529869  0.045729  1
  Sn  Sn24  1  0.218726  0.529869  0.454271  1
  Sn  Sn25  1  0.718908  0.970301  0.046314  1
  Sn  Sn26  1  0.281067  0.029925  0.545709  1
  Sn  Sn27  1  0.781210  0.470145  0.954328  1
  Sn  Sn28  1  0.168653  0.643615  0.750000  1
  Sn  Sn29  1  0.668622  0.856532  0.750000  1
  Sn  Sn30  1  0.331590  0.143549  0.250000  1
  Sn  Sn31  1  0.831307  0.355334  0.250000  1
  Sn  Sn32  1  0.922514  0.117538  0.750000  1
  Sn  Sn33  1  0.422645  0.382464  0.750000  1
  Sn  Sn34  1  0.577553  0.618222  0.250000  1
  Sn  Sn35  1  0.076250  0.882826  0.250000  1
