# generated using pymatgen
data_Dy4Tm16Bi11Te
_symmetry_space_group_name_H-M   'P 1'
_cell_length_a   8.17037994
_cell_length_b   9.41512900
_cell_length_c   11.90640300
_cell_angle_alpha   90.00000000
_cell_angle_beta   90.02744039
_cell_angle_gamma   90.00000000
_symmetry_Int_Tables_number   1
_chemical_formula_structural   Dy4Tm16Bi11Te
_chemical_formula_sum   'Dy4 Tm16 Bi11 Te1'
_cell_volume   915.90210182
_cell_formula_units_Z   1
loop_
 _symmetry_equiv_pos_site_id
 _symmetry_equiv_pos_as_xyz
  1  'x, y, z'
loop_
 _atom_site_type_symbol
 _atom_site_label
 _atom_site_symmetry_multiplicity
 _atom_site_fract_x
 _atom_site_fract_y
 _atom_site_fract_z
 _atom_site_occupancy
  Dy  Dy0  1  0.313559  0.250000  0.217815  1
  Dy  Dy1  1  0.813120  0.250000  0.282133  1
  Dy  Dy2  1  0.682168  0.750000  0.784686  1
  Dy  Dy3  1  0.187391  0.750000  0.718957  1
  Tm  Tm4  1  0.354267  0.750000  0.214665  1
  Tm  Tm5  1  0.852189  0.750000  0.282305  1
  Tm  Tm6  1  0.646941  0.250000  0.782830  1
  Tm  Tm7  1  0.147341  0.250000  0.717904  1
  Tm  Tm8  1  0.690199  0.568374  0.058609  1
  Tm  Tm9  1  0.192216  0.933350  0.440118  1
  Tm  Tm10  1  0.309397  0.063179  0.940656  1
  Tm  Tm11  1  0.807828  0.434181  0.559728  1
  Tm  Tm12  1  0.309397  0.436821  0.940656  1
  Tm  Tm13  1  0.807828  0.065819  0.559728  1
  Tm  Tm14  1  0.690199  0.931626  0.058609  1
  Tm  Tm15  1  0.192216  0.566650  0.440118  1
  Tm  Tm16  1  0.476519  0.250000  0.488873  1
  Tm  Tm17  1  0.977403  0.250000  0.010635  1
  Tm  Tm18  1  0.523694  0.750000  0.511134  1
  Tm  Tm19  1  0.024734  0.750000  0.988491  1
  Bi  Bi20  1  0.905116  0.750000  0.542178  1
  Bi  Bi21  1  0.595684  0.250000  0.041491  1
  Bi  Bi22  1  0.095427  0.250000  0.458416  1
  Bi  Bi23  1  0.565618  0.994658  0.325876  1
  Bi  Bi24  1  0.065837  0.505298  0.173738  1
  Bi  Bi25  1  0.434470  0.494840  0.674482  1
  Bi  Bi26  1  0.934179  0.004680  0.825817  1
  Bi  Bi27  1  0.434470  0.005160  0.674482  1
  Bi  Bi28  1  0.934179  0.495320  0.825817  1
  Bi  Bi29  1  0.565618  0.505342  0.325876  1
  Bi  Bi30  1  0.065837  0.994702  0.173738  1
  Te  Te31  1  0.404962  0.750000  0.959438  1
