# generated using pymatgen
data_Ce2Dy3Tm3Si12PdRh3
_symmetry_space_group_name_H-M   'P 1'
_cell_length_a   8.17332400
_cell_length_b   8.17332418
_cell_length_c   7.99700800
_cell_angle_alpha   90.00000000
_cell_angle_beta   90.00000000
_cell_angle_gamma   119.99999119
_symmetry_Int_Tables_number   1
_chemical_formula_structural   Ce2Dy3Tm3Si12PdRh3
_chemical_formula_sum   'Ce2 Dy3 Tm3 Si12 Pd1 Rh3'
_cell_volume   462.65327480
_cell_formula_units_Z   1
loop_
 _symmetry_equiv_pos_site_id
 _symmetry_equiv_pos_as_xyz
  1  'x, y, z'
loop_
 _atom_site_type_symbol
 _atom_site_label
 _atom_site_symmetry_multiplicity
 _atom_site_fract_x
 _atom_site_fract_y
 _atom_site_fract_z
 _atom_site_occupancy
  Ce  Ce0  1  0.000000  0.000000  0.249842  1
  Ce  Ce1  1  0.000000  0.000000  0.751284  1
  Dy  Dy2  1  0.493830  0.506170  0.752066  1
  Dy  Dy3  1  0.493830  0.987659  0.752066  1
  Dy  Dy4  1  0.012341  0.506170  0.752066  1
  Tm  Tm5  1  0.510212  0.489788  0.247194  1
  Tm  Tm6  1  0.510212  0.020425  0.247194  1
  Tm  Tm7  1  0.979575  0.489788  0.247194  1
  Si  Si8  1  0.165366  0.834634  0.500856  1
  Si  Si9  1  0.165366  0.330734  0.500856  1
  Si  Si10  1  0.669266  0.834634  0.500856  1
  Si  Si11  1  0.832186  0.167814  0.496791  1
  Si  Si12  1  0.832186  0.664372  0.496791  1
  Si  Si13  1  0.335628  0.167814  0.496791  1
  Si  Si14  1  0.833096  0.166904  0.002480  1
  Si  Si15  1  0.833096  0.666191  0.002480  1
  Si  Si16  1  0.333809  0.166904  0.002480  1
  Si  Si17  1  0.167943  0.832057  0.001024  1
  Si  Si18  1  0.167943  0.335888  0.001024  1
  Si  Si19  1  0.664112  0.832057  0.001024  1
  Pd  Pd20  1  0.333333  0.666667  0.462672  1
  Rh  Rh21  1  0.666667  0.333333  0.524707  1
  Rh  Rh22  1  0.666667  0.333333  0.975622  1
  Rh  Rh23  1  0.333333  0.666667  0.034639  1
