# generated using pymatgen
data_Tm20Co4SnBi7
_symmetry_space_group_name_H-M   'P 1'
_cell_length_a   7.86442358
_cell_length_b   8.83094137
_cell_length_c   12.23613752
_cell_angle_alpha   90.06656308
_cell_angle_beta   90.10133648
_cell_angle_gamma   90.03210514
_symmetry_Int_Tables_number   1
_chemical_formula_structural   Tm20Co4SnBi7
_chemical_formula_sum   'Tm20 Co4 Sn1 Bi7'
_cell_volume   849.80093862
_cell_formula_units_Z   1
loop_
 _symmetry_equiv_pos_site_id
 _symmetry_equiv_pos_as_xyz
  1  'x, y, z'
loop_
 _atom_site_type_symbol
 _atom_site_label
 _atom_site_symmetry_multiplicity
 _atom_site_fract_x
 _atom_site_fract_y
 _atom_site_fract_z
 _atom_site_occupancy
  Tm  Tm0  1  0.655935  0.753737  0.700707  1
  Tm  Tm1  1  0.348434  0.249095  0.302593  1
  Tm  Tm2  1  0.149421  0.246245  0.797839  1
  Tm  Tm3  1  0.848581  0.748772  0.199107  1
  Tm  Tm4  1  0.111330  0.754079  0.811042  1
  Tm  Tm5  1  0.884827  0.250191  0.186245  1
  Tm  Tm6  1  0.622614  0.246252  0.687217  1
  Tm  Tm7  1  0.384358  0.750674  0.313416  1
  Tm  Tm8  1  0.553733  0.749109  0.996996  1
  Tm  Tm9  1  0.444489  0.250884  0.002789  1
  Tm  Tm10  1  0.049252  0.246074  0.505327  1
  Tm  Tm11  1  0.947494  0.753618  0.499039  1
  Tm  Tm12  1  0.824949  0.462621  0.935891  1
  Tm  Tm13  1  0.173849  0.537640  0.062953  1
  Tm  Tm14  1  0.326706  0.535492  0.564354  1
  Tm  Tm15  1  0.173271  0.964282  0.063647  1
  Tm  Tm16  1  0.675071  0.464870  0.436750  1
  Tm  Tm17  1  0.826807  0.036290  0.931704  1
  Tm  Tm18  1  0.675200  0.036105  0.438957  1
  Tm  Tm19  1  0.322369  0.964825  0.564960  1
  Co  Co20  1  0.933648  0.750303  0.992011  1
  Co  Co21  1  0.065482  0.250577  0.006770  1
  Co  Co22  1  0.438341  0.250336  0.508474  1
  Co  Co23  1  0.563387  0.750229  0.493314  1
  Sn  Sn24  1  0.930401  0.006476  0.671249  1
  Bi  Bi25  1  0.070049  0.991706  0.325925  1
  Bi  Bi26  1  0.428395  0.991730  0.827770  1
  Bi  Bi27  1  0.071092  0.507707  0.328349  1
  Bi  Bi28  1  0.571056  0.008327  0.172620  1
  Bi  Bi29  1  0.930011  0.492729  0.672654  1
  Bi  Bi30  1  0.569388  0.491496  0.173819  1
  Bi  Bi31  1  0.430062  0.507528  0.825510  1
