# generated using pymatgen
data_TbLu(TaS2)6
_symmetry_space_group_name_H-M   'P 1'
_cell_length_a   5.79572400
_cell_length_b   5.79572431
_cell_length_c   13.92589300
_cell_angle_alpha   90.00000000
_cell_angle_beta   90.00000000
_cell_angle_gamma   120.00000964
_symmetry_Int_Tables_number   1
_chemical_formula_structural   TbLu(TaS2)6
_chemical_formula_sum   'Tb1 Lu1 Ta6 S12'
_cell_volume   405.10635682
_cell_formula_units_Z   1
loop_
 _symmetry_equiv_pos_site_id
 _symmetry_equiv_pos_as_xyz
  1  'x, y, z'
loop_
 _atom_site_type_symbol
 _atom_site_label
 _atom_site_symmetry_multiplicity
 _atom_site_fract_x
 _atom_site_fract_y
 _atom_site_fract_z
 _atom_site_occupancy
  Tb  Tb0  1  0.000000  0.000000  0.500000  1
  Lu  Lu1  1  0.000000  0.000000  0.000000  1
  Ta  Ta2  1  0.333333  0.666667  0.246661  1
  Ta  Ta3  1  0.666667  0.333333  0.753339  1
  Ta  Ta4  1  0.666667  0.333333  0.246661  1
  Ta  Ta5  1  0.333333  0.666667  0.753339  1
  Ta  Ta6  1  0.000000  0.000000  0.247736  1
  Ta  Ta7  1  0.000000  0.000000  0.752264  1
  S  S8  1  0.334591  0.000000  0.132827  1
  S  S9  1  0.000000  0.334591  0.132827  1
  S  S10  1  0.665409  0.665409  0.132827  1
  S  S11  1  0.337835  0.337835  0.639193  1
  S  S12  1  0.662165  0.662165  0.360807  1
  S  S13  1  0.662165  0.000000  0.639193  1
  S  S14  1  0.000000  0.662165  0.639193  1
  S  S15  1  0.000000  0.665409  0.867173  1
  S  S16  1  0.334591  0.334591  0.867173  1
  S  S17  1  0.000000  0.337835  0.360807  1
  S  S18  1  0.337835  0.000000  0.360807  1
  S  S19  1  0.665409  0.000000  0.867173  1
