# generated using pymatgen
data_NaDyPa2(Ga3Ir)6
_symmetry_space_group_name_H-M   'P 1'
_cell_length_a   7.63419724
_cell_length_b   7.63656819
_cell_length_c   9.42652400
_cell_angle_alpha   90.00000000
_cell_angle_beta   90.00000000
_cell_angle_gamma   119.94706445
_symmetry_Int_Tables_number   1
_chemical_formula_structural   NaDyPa2(Ga3Ir)6
_chemical_formula_sum   'Na1 Dy1 Pa2 Ga18 Ir6'
_cell_volume   476.18447383
_cell_formula_units_Z   1
loop_
 _symmetry_equiv_pos_site_id
 _symmetry_equiv_pos_as_xyz
  1  'x, y, z'
loop_
 _atom_site_type_symbol
 _atom_site_label
 _atom_site_symmetry_multiplicity
 _atom_site_fract_x
 _atom_site_fract_y
 _atom_site_fract_z
 _atom_site_occupancy
  Na  Na0  1  0.668952  0.995239  0.250000  1
  Dy  Dy1  1  0.332215  0.003895  0.750000  1
  Pa  Pa2  1  0.999385  0.668538  0.250000  1
  Pa  Pa3  1  0.000806  0.331427  0.750000  1
  Ga  Ga4  1  0.127844  0.125357  0.250000  1
  Ga  Ga5  1  0.867993  0.871531  0.750000  1
  Ga  Ga6  1  0.993238  0.324739  0.085501  1
  Ga  Ga7  1  0.000340  0.669749  0.916869  1
  Ga  Ga8  1  0.000340  0.669749  0.583131  1
  Ga  Ga9  1  0.343991  0.002408  0.417351  1
  Ga  Ga10  1  0.993238  0.324739  0.414499  1
  Ga  Ga11  1  0.661693  0.997548  0.575421  1
  Ga  Ga12  1  0.661693  0.997548  0.924579  1
  Ga  Ga13  1  0.343991  0.002408  0.082649  1
  Ga  Ga14  1  0.334849  0.332097  0.566854  1
  Ga  Ga15  1  0.665303  0.672928  0.430900  1
  Ga  Ga16  1  0.665303  0.672928  0.069100  1
  Ga  Ga17  1  0.334849  0.332097  0.933146  1
  Ga  Ga18  1  0.340682  0.548657  0.250000  1
  Ga  Ga19  1  0.659945  0.456106  0.750000  1
  Ga  Ga20  1  0.547978  0.340728  0.250000  1
  Ga  Ga21  1  0.455866  0.662199  0.750000  1
  Ir  Ir22  1  0.676115  0.334139  0.998147  1
  Ir  Ir23  1  0.319600  0.664519  0.998513  1
  Ir  Ir24  1  0.319600  0.664519  0.501487  1
  Ir  Ir25  1  0.676115  0.334139  0.501853  1
  Ir  Ir26  1  0.004037  0.000034  0.998201  1
  Ir  Ir27  1  0.004037  0.000034  0.501799  1
