# generated using pymatgen
data_DyEr4Tm5In6
_symmetry_space_group_name_H-M   'P 1'
_cell_length_a   9.06603181
_cell_length_b   9.06603096
_cell_length_c   9.06820725
_cell_angle_alpha   96.43814642
_cell_angle_beta   96.44342472
_cell_angle_gamma   140.85887947
_symmetry_Int_Tables_number   1
_chemical_formula_structural   DyEr4Tm5In6
_chemical_formula_sum   'Dy1 Er4 Tm5 In6'
_cell_volume   443.31787090
_cell_formula_units_Z   1
loop_
 _symmetry_equiv_pos_site_id
 _symmetry_equiv_pos_as_xyz
  1  'x, y, z'
loop_
 _atom_site_type_symbol
 _atom_site_label
 _atom_site_symmetry_multiplicity
 _atom_site_fract_x
 _atom_site_fract_y
 _atom_site_fract_z
 _atom_site_occupancy
  Dy  Dy0  1  0.081851  0.781799  0.863650  1
  Er  Er1  1  0.717769  0.418863  0.136631  1
  Er  Er2  1  0.282645  0.581035  0.863680  1
  Er  Er3  1  0.581591  0.717765  0.299355  1
  Er  Er4  1  0.217498  0.081750  0.299247  1
  Tm  Tm5  1  0.918006  0.217667  0.135673  1
  Tm  Tm6  1  0.750044  0.249742  0.499739  1
  Tm  Tm7  1  0.249997  0.749695  0.499739  1
  Tm  Tm8  1  0.782328  0.918827  0.701156  1
  Tm  Tm9  1  0.418012  0.282650  0.700663  1
  In  In10  1  0.837832  0.661667  0.499500  1
  In  In11  1  0.338986  0.838332  0.177318  1
  In  In12  1  0.749831  0.750367  0.000172  1
  In  In13  1  0.661972  0.161532  0.823505  1
  In  In14  1  0.161833  0.337969  0.499802  1
  In  In15  1  0.249805  0.250341  0.000172  1
