# generated using pymatgen
data_La2TiPdF14
_symmetry_space_group_name_H-M   'P 1'
_cell_length_a   5.73089100
_cell_length_b   9.26270575
_cell_length_c   12.34087100
_cell_angle_alpha   62.41935258
_cell_angle_beta   90.00000000
_cell_angle_gamma   90.00000000
_symmetry_Int_Tables_number   1
_chemical_formula_structural   La2TiPdF14
_chemical_formula_sum   'La4 Ti2 Pd2 F28'
_cell_volume   580.65207817
_cell_formula_units_Z   2
loop_
 _symmetry_equiv_pos_site_id
 _symmetry_equiv_pos_as_xyz
  1  'x, y, z'
loop_
 _atom_site_type_symbol
 _atom_site_label
 _atom_site_symmetry_multiplicity
 _atom_site_fract_x
 _atom_site_fract_y
 _atom_site_fract_z
 _atom_site_occupancy
  La  La0  1  0.760518  0.808606  0.265966  1
  La  La1  1  0.260518  0.191394  0.234034  1
  La  La2  1  0.241167  0.191141  0.735123  1
  La  La3  1  0.741167  0.808859  0.764877  1
  Ti  Ti4  1  0.245019  0.725067  0.543337  1
  Ti  Ti5  1  0.745019  0.274933  0.956663  1
  Pd  Pd6  1  0.756603  0.273808  0.456744  1
  Pd  Pd7  1  0.256603  0.726192  0.043256  1
  F  F8  1  0.971310  0.715439  0.459207  1
  F  F9  1  0.471310  0.284561  0.040793  1
  F  F10  1  0.041088  0.286668  0.538408  1
  F  F11  1  0.541088  0.713332  0.961592  1
  F  F12  1  0.066797  0.705058  0.920699  1
  F  F13  1  0.566797  0.294942  0.579301  1
  F  F14  1  0.939773  0.289171  0.073923  1
  F  F15  1  0.439773  0.710829  0.426077  1
  F  F16  1  0.734992  0.505140  0.864669  1
  F  F17  1  0.234992  0.494860  0.635331  1
  F  F18  1  0.262575  0.489555  0.138901  1
  F  F19  1  0.762575  0.510445  0.361099  1
  F  F20  1  0.739996  0.047007  0.048135  1
  F  F21  1  0.239996  0.952993  0.451865  1
  F  F22  1  0.259111  0.962928  0.953285  1
  F  F23  1  0.759111  0.037072  0.546715  1
  F  F24  1  0.052964  0.742147  0.663533  1
  F  F25  1  0.552964  0.257853  0.836467  1
  F  F26  1  0.943270  0.257563  0.330786  1
  F  F27  1  0.443270  0.742437  0.169214  1
  F  F28  1  0.009602  0.269059  0.866804  1
  F  F29  1  0.509602  0.730941  0.633196  1
  F  F30  1  0.975861  0.731066  0.129927  1
  F  F31  1  0.475861  0.268934  0.370073  1
  F  F32  1  0.091805  0.969104  0.229439  1
  F  F33  1  0.591805  0.030896  0.270561  1
  F  F34  1  0.907548  0.032556  0.769097  1
  F  F35  1  0.407548  0.967444  0.730903  1
