# generated using pymatgen
data_Rb3Li2SnBi3
_symmetry_space_group_name_H-M   'P 1'
_cell_length_a   14.30986067
_cell_length_b   14.30986083
_cell_length_c   14.30985972
_cell_angle_alpha   151.07207703
_cell_angle_beta   103.85559273
_cell_angle_gamma   83.41341837
_symmetry_Int_Tables_number   1
_chemical_formula_structural   Rb3Li2SnBi3
_chemical_formula_sum   'Rb12 Li8 Sn4 Bi12'
_cell_volume   1347.76646993
_cell_formula_units_Z   4
loop_
 _symmetry_equiv_pos_site_id
 _symmetry_equiv_pos_as_xyz
  1  'x, y, z'
loop_
 _atom_site_type_symbol
 _atom_site_label
 _atom_site_symmetry_multiplicity
 _atom_site_fract_x
 _atom_site_fract_y
 _atom_site_fract_z
 _atom_site_occupancy
  Rb  Rb0  1  0.585544  0.946579  0.197498  1
  Rb  Rb1  1  0.078549  0.750000  0.828549  1
  Rb  Rb2  1  0.914456  0.111955  0.361035  1
  Rb  Rb3  1  0.414456  0.053421  0.802502  1
  Rb  Rb4  1  0.750920  0.611955  0.697498  1
  Rb  Rb5  1  0.249080  0.388045  0.302502  1
  Rb  Rb6  1  0.085544  0.888045  0.638965  1
  Rb  Rb7  1  0.421451  0.250000  0.671451  1
  Rb  Rb8  1  0.749080  0.446579  0.861035  1
  Rb  Rb9  1  0.250920  0.553421  0.138965  1
  Rb  Rb10  1  0.921451  0.250000  0.171451  1
  Rb  Rb11  1  0.578549  0.750000  0.328549  1
  Li  Li12  1  0.000965  0.250965  0.750000  1
  Li  Li13  1  0.661687  0.911687  0.750000  1
  Li  Li14  1  0.999035  0.749035  0.250000  1
  Li  Li15  1  0.499035  0.249035  0.250000  1
  Li  Li16  1  0.500965  0.750965  0.750000  1
  Li  Li17  1  0.161687  0.411687  0.750000  1
  Li  Li18  1  0.338313  0.088313  0.250000  1
  Li  Li19  1  0.838313  0.588313  0.250000  1
  Sn  Sn20  1  0.665737  0.415737  0.250000  1
  Sn  Sn21  1  0.165737  0.915737  0.250000  1
  Sn  Sn22  1  0.834263  0.084263  0.750000  1
  Sn  Sn23  1  0.334263  0.584263  0.750000  1
  Bi  Bi24  1  0.346256  0.750000  0.096256  1
  Bi  Bi25  1  0.485772  0.563037  0.381122  1
  Bi  Bi26  1  0.985772  0.604651  0.922736  1
  Bi  Bi27  1  0.514228  0.436963  0.618878  1
  Bi  Bi28  1  0.318085  0.895349  0.881122  1
  Bi  Bi29  1  0.681915  0.104651  0.118878  1
  Bi  Bi30  1  0.014228  0.395349  0.077264  1
  Bi  Bi31  1  0.653744  0.250000  0.903744  1
  Bi  Bi32  1  0.818085  0.936963  0.422736  1
  Bi  Bi33  1  0.153744  0.250000  0.403744  1
  Bi  Bi34  1  0.181915  0.063037  0.577264  1
  Bi  Bi35  1  0.846256  0.750000  0.596256  1
