# generated using pymatgen
data_Er8Ti9Nb2Si16Ir
_symmetry_space_group_name_H-M   'P 1'
_cell_length_a   7.01075666
_cell_length_b   7.01075672
_cell_length_c   12.84428875
_cell_angle_alpha   90.16509389
_cell_angle_beta   89.83490730
_cell_angle_gamma   89.73040447
_symmetry_Int_Tables_number   1
_chemical_formula_structural   Er8Ti9Nb2Si16Ir
_chemical_formula_sum   'Er8 Ti9 Nb2 Si16 Ir1'
_cell_volume   631.29364790
_cell_formula_units_Z   1
loop_
 _symmetry_equiv_pos_site_id
 _symmetry_equiv_pos_as_xyz
  1  'x, y, z'
loop_
 _atom_site_type_symbol
 _atom_site_label
 _atom_site_symmetry_multiplicity
 _atom_site_fract_x
 _atom_site_fract_y
 _atom_site_fract_z
 _atom_site_occupancy
  Er  Er0  1  0.341236  0.003412  0.466865  1
  Er  Er1  1  0.497258  0.842750  0.718402  1
  Er  Er2  1  0.500774  0.157035  0.215258  1
  Er  Er3  1  0.842750  0.497258  0.281598  1
  Er  Er4  1  0.157035  0.500774  0.784742  1
  Er  Er5  1  0.657903  0.998720  0.968470  1
  Er  Er6  1  0.003412  0.341236  0.533135  1
  Er  Er7  1  0.998720  0.657903  0.031530  1
  Ti  Ti8  1  0.673952  0.673952  0.500000  1
  Ti  Ti9  1  0.147711  0.001663  0.874620  1
  Ti  Ti10  1  0.492548  0.657362  0.125211  1
  Ti  Ti11  1  0.507692  0.348764  0.628953  1
  Ti  Ti12  1  0.657362  0.492548  0.874789  1
  Ti  Ti13  1  0.348764  0.507692  0.371047  1
  Ti  Ti14  1  0.849996  0.993854  0.373427  1
  Ti  Ti15  1  0.001663  0.147711  0.125380  1
  Ti  Ti16  1  0.993854  0.849996  0.626573  1
  Nb  Nb17  1  0.175181  0.826317  0.247839  1
  Nb  Nb18  1  0.826317  0.175181  0.752161  1
  Si  Si19  1  0.203982  0.133351  0.684322  1
  Si  Si20  1  0.371714  0.701429  0.933046  1
  Si  Si21  1  0.631518  0.296432  0.433807  1
  Si  Si22  1  0.701429  0.371714  0.066954  1
  Si  Si23  1  0.296432  0.631518  0.566193  1
  Si  Si24  1  0.795157  0.866804  0.183293  1
  Si  Si25  1  0.133351  0.203982  0.315678  1
  Si  Si26  1  0.866804  0.795157  0.816707  1
  Si  Si27  1  0.287922  0.953441  0.061287  1
  Si  Si28  1  0.548920  0.792328  0.315825  1
  Si  Si29  1  0.447647  0.209069  0.818657  1
  Si  Si30  1  0.792328  0.548920  0.684175  1
  Si  Si31  1  0.209069  0.447647  0.181343  1
  Si  Si32  1  0.707245  0.047233  0.564559  1
  Si  Si33  1  0.953441  0.287922  0.938713  1
  Si  Si34  1  0.047233  0.707245  0.435441  1
  Ir  Ir35  1  0.331682  0.331682  0.000000  1
