# generated using pymatgen
data_Ho4LuCo2Ag
_symmetry_space_group_name_H-M   'P 1'
_cell_length_a   8.51270326
_cell_length_b   8.51270417
_cell_length_c   8.51270440
_cell_angle_alpha   127.60797101
_cell_angle_beta   127.60798931
_cell_angle_gamma   77.26095126
_symmetry_Int_Tables_number   1
_chemical_formula_structural   Ho4LuCo2Ag
_chemical_formula_sum   'Ho8 Lu2 Co4 Ag2'
_cell_volume   375.63705183
_cell_formula_units_Z   2
loop_
 _symmetry_equiv_pos_site_id
 _symmetry_equiv_pos_as_xyz
  1  'x, y, z'
loop_
 _atom_site_type_symbol
 _atom_site_label
 _atom_site_symmetry_multiplicity
 _atom_site_fract_x
 _atom_site_fract_y
 _atom_site_fract_z
 _atom_site_occupancy
  Ho  Ho0  1  0.705949  0.528773  0.500000  1
  Ho  Ho1  1  0.471227  0.971227  0.177176  1
  Ho  Ho2  1  0.794051  0.294051  0.822824  1
  Ho  Ho3  1  0.528773  0.028773  0.822824  1
  Ho  Ho4  1  0.028773  0.205949  0.500000  1
  Ho  Ho5  1  0.294051  0.471227  0.500000  1
  Ho  Ho6  1  0.205949  0.705949  0.177176  1
  Ho  Ho7  1  0.971227  0.794051  0.500000  1
  Lu  Lu8  1  0.000000  0.000000  0.000000  1
  Lu  Lu9  1  0.500000  0.500000  0.000000  1
  Co  Co10  1  0.136127  0.636127  0.772253  1
  Co  Co11  1  0.863873  0.363873  0.227747  1
  Co  Co12  1  0.636127  0.863873  0.500000  1
  Co  Co13  1  0.363873  0.136127  0.500000  1
  Ag  Ag14  1  0.250000  0.250000  0.000000  1
  Ag  Ag15  1  0.750000  0.750000  0.000000  1
