# generated using pymatgen
data_LiEr3In4Pt
_symmetry_space_group_name_H-M   'P 1'
_cell_length_a   8.15899300
_cell_length_b   8.15899344
_cell_length_c   3.61867700
_cell_angle_alpha   90.00000000
_cell_angle_beta   90.00000000
_cell_angle_gamma   119.99999418
_symmetry_Int_Tables_number   1
_chemical_formula_structural   LiEr3In4Pt
_chemical_formula_sum   'Li1 Er3 In4 Pt1'
_cell_volume   208.61888579
_cell_formula_units_Z   1
loop_
 _symmetry_equiv_pos_site_id
 _symmetry_equiv_pos_as_xyz
  1  'x, y, z'
loop_
 _atom_site_type_symbol
 _atom_site_label
 _atom_site_symmetry_multiplicity
 _atom_site_fract_x
 _atom_site_fract_y
 _atom_site_fract_z
 _atom_site_occupancy
  Li  Li0  1  0.666667  0.333333  0.500000  1
  Er  Er1  1  0.705097  0.954146  0.500000  1
  Er  Er2  1  0.249048  0.294903  0.500000  1
  Er  Er3  1  0.045854  0.750952  0.500000  1
  In  In4  1  0.932181  0.342953  0.000000  1
  In  In5  1  0.410773  0.067819  0.000000  1
  In  In6  1  0.657047  0.589227  0.000000  1
  In  In7  1  0.333333  0.666667  0.000000  1
  Pt  Pt8  1  0.000000  0.000000  0.000000  1
