# generated using pymatgen
data_Ac2PuPa3N8
_symmetry_space_group_name_H-M   'P 1'
_cell_length_a   7.18488386
_cell_length_b   7.17418661
_cell_length_c   7.13725161
_cell_angle_alpha   120.21716696
_cell_angle_beta   90.07263466
_cell_angle_gamma   120.02162860
_symmetry_Int_Tables_number   1
_chemical_formula_structural   Ac2PuPa3N8
_chemical_formula_sum   'Ac2 Pu1 Pa3 N8'
_cell_volume   259.03107945
_cell_formula_units_Z   1
loop_
 _symmetry_equiv_pos_site_id
 _symmetry_equiv_pos_as_xyz
  1  'x, y, z'
loop_
 _atom_site_type_symbol
 _atom_site_label
 _atom_site_symmetry_multiplicity
 _atom_site_fract_x
 _atom_site_fract_y
 _atom_site_fract_z
 _atom_site_occupancy
  Ac  Ac0  1  0.997172  0.994337  0.991007  1
  Ac  Ac1  1  0.752838  0.505683  0.259012  1
  Pu  Pu2  1  0.374968  0.749943  0.124933  1
  Pa  Pa3  1  0.374961  0.749909  0.625016  1
  Pa  Pa4  1  0.374965  0.250067  0.625014  1
  Pa  Pa5  1  0.875100  0.250060  0.625011  1
  N  N6  1  0.613186  0.226408  0.411498  1
  N  N7  1  0.185108  0.797831  0.410762  1
  N  N8  1  0.612625  0.797762  0.410632  1
  N  N9  1  0.145152  0.290240  0.435252  1
  N  N10  1  0.604853  0.209774  0.814782  1
  N  N11  1  0.137356  0.702208  0.839344  1
  N  N12  1  0.136815  0.273611  0.838495  1
  N  N13  1  0.564901  0.702166  0.839237  1
