# generated using pymatgen
data_Th2InPdRh
_symmetry_space_group_name_H-M   'P 1'
_cell_length_a   7.91998454
_cell_length_b   7.91998454
_cell_length_c   3.79183800
_cell_angle_alpha   90.00000000
_cell_angle_beta   90.00000000
_cell_angle_gamma   89.58259272
_symmetry_Int_Tables_number   1
_chemical_formula_structural   Th2InPdRh
_chemical_formula_sum   'Th4 In2 Pd2 Rh2'
_cell_volume   237.84110706
_cell_formula_units_Z   2
loop_
 _symmetry_equiv_pos_site_id
 _symmetry_equiv_pos_as_xyz
  1  'x, y, z'
loop_
 _atom_site_type_symbol
 _atom_site_label
 _atom_site_symmetry_multiplicity
 _atom_site_fract_x
 _atom_site_fract_y
 _atom_site_fract_z
 _atom_site_occupancy
  Th  Th0  1  0.667222  0.167222  0.500000  1
  Th  Th1  1  0.332778  0.832778  0.500000  1
  Th  Th2  1  0.178922  0.321078  0.500000  1
  Th  Th3  1  0.821078  0.678922  0.500000  1
  In  In4  1  0.000000  0.000000  0.000000  1
  In  In5  1  0.500000  0.500000  0.000000  1
  Pd  Pd6  1  0.128982  0.628982  0.000000  1
  Pd  Pd7  1  0.871018  0.371018  0.000000  1
  Rh  Rh8  1  0.632972  0.867028  0.000000  1
  Rh  Rh9  1  0.367028  0.132972  0.000000  1
