# generated using pymatgen
data_Er5LuHg10
_symmetry_space_group_name_H-M   'P 1'
_cell_length_a   6.33901573
_cell_length_b   6.33901605
_cell_length_c   10.11268100
_cell_angle_alpha   90.00000000
_cell_angle_beta   90.00000000
_cell_angle_gamma   105.17344093
_symmetry_Int_Tables_number   1
_chemical_formula_structural   Er5LuHg10
_chemical_formula_sum   'Er5 Lu1 Hg10'
_cell_volume   392.19257824
_cell_formula_units_Z   1
loop_
 _symmetry_equiv_pos_site_id
 _symmetry_equiv_pos_as_xyz
  1  'x, y, z'
loop_
 _atom_site_type_symbol
 _atom_site_label
 _atom_site_symmetry_multiplicity
 _atom_site_fract_x
 _atom_site_fract_y
 _atom_site_fract_z
 _atom_site_occupancy
  Er  Er0  1  0.419556  0.419556  0.750000  1
  Er  Er1  1  0.214530  0.785972  0.499884  1
  Er  Er2  1  0.214530  0.785972  0.000116  1
  Er  Er3  1  0.785972  0.214530  0.499884  1
  Er  Er4  1  0.785972  0.214530  0.000116  1
  Lu  Lu5  1  0.580697  0.580697  0.250000  1
  Hg  Hg6  1  0.977906  0.977906  0.250000  1
  Hg  Hg7  1  0.019249  0.019249  0.750000  1
  Hg  Hg8  1  0.296575  0.296575  0.033257  1
  Hg  Hg9  1  0.704425  0.704425  0.969478  1
  Hg  Hg10  1  0.296575  0.296575  0.466743  1
  Hg  Hg11  1  0.704425  0.704425  0.530522  1
  Hg  Hg12  1  0.487736  0.044608  0.250000  1
  Hg  Hg13  1  0.954729  0.512515  0.750000  1
  Hg  Hg14  1  0.512515  0.954729  0.750000  1
  Hg  Hg15  1  0.044608  0.487736  0.250000  1
