# generated using pymatgen
data_HfZr3(Ti4Sn5)2
_symmetry_space_group_name_H-M   'P 1'
_cell_length_a   10.56399406
_cell_length_b   10.58344053
_cell_length_c   10.58343900
_cell_angle_alpha   149.11002792
_cell_angle_beta   131.58450562
_cell_angle_gamma   58.55917248
_symmetry_Int_Tables_number   1
_chemical_formula_structural   HfZr3(Ti4Sn5)2
_chemical_formula_sum   'Hf1 Zr3 Ti8 Sn10'
_cell_volume   450.82171981
_cell_formula_units_Z   1
loop_
 _symmetry_equiv_pos_site_id
 _symmetry_equiv_pos_as_xyz
  1  'x, y, z'
loop_
 _atom_site_type_symbol
 _atom_site_label
 _atom_site_symmetry_multiplicity
 _atom_site_fract_x
 _atom_site_fract_y
 _atom_site_fract_z
 _atom_site_occupancy
  Hf  Hf0  1  0.963255  0.356024  0.607231  1
  Zr  Zr1  1  0.251072  0.143001  0.108073  1
  Zr  Zr2  1  0.750732  0.857543  0.893188  1
  Zr  Zr3  1  0.034357  0.643311  0.391046  1
  Ti  Ti4  1  0.309900  0.558164  0.250562  1
  Ti  Ti5  1  0.691890  0.441431  0.750545  1
  Ti  Ti6  1  0.691890  0.941344  0.250458  1
  Ti  Ti7  1  0.309900  0.059338  0.751736  1
  Ti  Ti8  1  0.675349  0.434271  0.241077  1
  Ti  Ti9  1  0.323784  0.565479  0.758306  1
  Ti  Ti10  1  0.191697  0.934940  0.256757  1
  Ti  Ti11  1  0.807662  0.065300  0.742362  1
  Sn  Sn12  1  0.583300  0.287583  0.295716  1
  Sn  Sn13  1  0.418295  0.712506  0.705788  1
  Sn  Sn14  1  0.994040  0.787819  0.206220  1
  Sn  Sn15  1  0.006929  0.212699  0.794230  1
  Sn  Sn16  1  0.999798  0.250382  0.250345  1
  Sn  Sn17  1  0.999798  0.749451  0.749416  1
  Sn  Sn18  1  0.469915  0.067669  0.402245  1
  Sn  Sn19  1  0.529910  0.932460  0.597451  1
  Sn  Sn20  1  0.664520  0.567351  0.097169  1
  Sn  Sn21  1  0.332008  0.431933  0.900075  1
