# generated using pymatgen
data_HoTm4Ag5
_symmetry_space_group_name_H-M   'P 1'
_cell_length_a   3.61074100
_cell_length_b   3.61074100
_cell_length_c   18.06259800
_cell_angle_alpha   90.00000000
_cell_angle_beta   90.00000000
_cell_angle_gamma   90.00000000
_symmetry_Int_Tables_number   1
_chemical_formula_structural   HoTm4Ag5
_chemical_formula_sum   'Ho1 Tm4 Ag5'
_cell_volume   235.49022857
_cell_formula_units_Z   1
loop_
 _symmetry_equiv_pos_site_id
 _symmetry_equiv_pos_as_xyz
  1  'x, y, z'
loop_
 _atom_site_type_symbol
 _atom_site_label
 _atom_site_symmetry_multiplicity
 _atom_site_fract_x
 _atom_site_fract_y
 _atom_site_fract_z
 _atom_site_occupancy
  Ho  Ho0  1  0.000000  0.000000  0.000000  1
  Tm  Tm1  1  0.000000  0.000000  0.199909  1
  Tm  Tm2  1  0.000000  0.000000  0.399867  1
  Tm  Tm3  1  0.000000  0.000000  0.600133  1
  Tm  Tm4  1  0.000000  0.000000  0.800091  1
  Ag  Ag5  1  0.500000  0.500000  0.099994  1
  Ag  Ag6  1  0.500000  0.500000  0.299866  1
  Ag  Ag7  1  0.500000  0.500000  0.500000  1
  Ag  Ag8  1  0.500000  0.500000  0.700134  1
  Ag  Ag9  1  0.500000  0.500000  0.900006  1
