# generated using pymatgen
data_La11Nd5(HoIr3)4
_symmetry_space_group_name_H-M   'P 1'
_cell_length_a   11.32093161
_cell_length_b   11.33602582
_cell_length_c   6.52023134
_cell_angle_alpha   89.94696010
_cell_angle_beta   89.82560723
_cell_angle_gamma   90.11415734
_symmetry_Int_Tables_number   1
_chemical_formula_structural   La11Nd5(HoIr3)4
_chemical_formula_sum   'La11 Nd5 Ho4 Ir12'
_cell_volume   836.76390122
_cell_formula_units_Z   1
loop_
 _symmetry_equiv_pos_site_id
 _symmetry_equiv_pos_as_xyz
  1  'x, y, z'
loop_
 _atom_site_type_symbol
 _atom_site_label
 _atom_site_symmetry_multiplicity
 _atom_site_fract_x
 _atom_site_fract_y
 _atom_site_fract_z
 _atom_site_occupancy
  La  La0  1  0.287394  0.088573  0.381902  1
  La  La1  1  0.287411  0.911421  0.882096  1
  La  La2  1  0.712499  0.088479  0.882175  1
  La  La3  1  0.712736  0.911091  0.382683  1
  La  La4  1  0.589508  0.787321  0.882519  1
  La  La5  1  0.589103  0.212163  0.383356  1
  La  La6  1  0.411265  0.787768  0.382681  1
  La  La7  1  0.410947  0.212194  0.883177  1
  La  La8  1  0.210357  0.412152  0.616990  1
  La  La9  1  0.210585  0.587889  0.117017  1
  La  La10  1  0.789639  0.413004  0.116674  1
  Nd  Nd11  1  0.790174  0.587446  0.617086  1
  Nd  Nd12  1  0.912776  0.711264  0.117424  1
  Nd  Nd13  1  0.913197  0.289251  0.617150  1
  Nd  Nd14  1  0.085304  0.711325  0.617319  1
  Nd  Nd15  1  0.086532  0.288217  0.117420  1
  Ho  Ho16  1  0.999703  0.999997  0.500427  1
  Ho  Ho17  1  0.999917  0.999984  0.000420  1
  Ho  Ho18  1  0.500148  0.499951  0.000750  1
  Ho  Ho19  1  0.500932  0.500478  0.501277  1
  Ir  Ir20  1  0.851564  0.148276  0.249474  1
  Ir  Ir21  1  0.851511  0.851428  0.749499  1
  Ir  Ir22  1  0.148428  0.148195  0.749248  1
  Ir  Ir23  1  0.148327  0.851626  0.249431  1
  Ir  Ir24  1  0.648913  0.351692  0.749780  1
  Ir  Ir25  1  0.648467  0.648830  0.249833  1
  Ir  Ir26  1  0.351340  0.351278  0.250225  1
  Ir  Ir27  1  0.351339  0.648726  0.750050  1
  Ir  Ir28  1  0.499995  0.000072  0.119048  1
  Ir  Ir29  1  0.500058  0.999927  0.619073  1
  Ir  Ir30  1  0.000141  0.499871  0.882118  1
  Ir  Ir31  1  0.999791  0.500108  0.381678  1
