# generated using pymatgen
data_Dy4Co16Si11Mo4P
_symmetry_space_group_name_H-M   'P 1'
_cell_length_a   3.70248800
_cell_length_b   10.59000855
_cell_length_c   12.14745463
_cell_angle_alpha   89.96313282
_cell_angle_beta   90.00000000
_cell_angle_gamma   90.00000000
_symmetry_Int_Tables_number   1
_chemical_formula_structural   Dy4Co16Si11Mo4P
_chemical_formula_sum   'Dy4 Co16 Si11 Mo4 P1'
_cell_volume   476.29406073
_cell_formula_units_Z   1
loop_
 _symmetry_equiv_pos_site_id
 _symmetry_equiv_pos_as_xyz
  1  'x, y, z'
loop_
 _atom_site_type_symbol
 _atom_site_label
 _atom_site_symmetry_multiplicity
 _atom_site_fract_x
 _atom_site_fract_y
 _atom_site_fract_z
 _atom_site_occupancy
  Dy  Dy0  1  0.250000  0.578230  0.704730  1
  Dy  Dy1  1  0.250000  0.924069  0.201706  1
  Dy  Dy2  1  0.750000  0.421496  0.295926  1
  Dy  Dy3  1  0.750000  0.079205  0.794684  1
  Co  Co4  1  0.250000  0.404971  0.488460  1
  Co  Co5  1  0.250000  0.093892  0.991016  1
  Co  Co6  1  0.750000  0.594206  0.511995  1
  Co  Co7  1  0.750000  0.910652  0.013068  1
  Co  Co8  1  0.250000  0.214256  0.171693  1
  Co  Co9  1  0.250000  0.283678  0.672485  1
  Co  Co10  1  0.750000  0.785539  0.829100  1
  Co  Co11  1  0.750000  0.715172  0.327928  1
  Co  Co12  1  0.250000  0.882727  0.699576  1
  Co  Co13  1  0.250000  0.617720  0.199896  1
  Co  Co14  1  0.750000  0.117107  0.296410  1
  Co  Co15  1  0.750000  0.381603  0.801471  1
  Co  Co16  1  0.250000  0.464734  0.934894  1
  Co  Co17  1  0.250000  0.034439  0.431921  1
  Co  Co18  1  0.750000  0.534574  0.066286  1
  Co  Co19  1  0.750000  0.964988  0.564524  1
  Si  Si20  1  0.250000  0.420781  0.117023  1
  Si  Si21  1  0.250000  0.078533  0.615325  1
  Si  Si22  1  0.750000  0.578729  0.883881  1
  Si  Si23  1  0.750000  0.920742  0.382011  1
  Si  Si24  1  0.250000  0.268152  0.861261  1
  Si  Si25  1  0.250000  0.231072  0.359495  1
  Si  Si26  1  0.750000  0.731681  0.139964  1
  Si  Si27  1  0.750000  0.769029  0.640627  1
  Si  Si28  1  0.250000  0.596938  0.392685  1
  Si  Si29  1  0.250000  0.904043  0.892692  1
  Si  Si30  1  0.750000  0.402099  0.608382  1
  Mo  Mo31  1  0.250000  0.698564  0.993293  1
  Mo  Mo32  1  0.250000  0.802353  0.493223  1
  Mo  Mo33  1  0.750000  0.298575  0.009359  1
  Mo  Mo34  1  0.750000  0.197791  0.506055  1
  P  P35  1  0.750000  0.097659  0.106956  1
