# generated using pymatgen
data_Yb4YEr(Si3Ru)8
_symmetry_space_group_name_H-M   'P 1'
_cell_length_a   10.17212281
_cell_length_b   10.17222248
_cell_length_c   8.14922571
_cell_angle_alpha   89.94234927
_cell_angle_beta   90.02754691
_cell_angle_gamma   132.74735429
_symmetry_Int_Tables_number   1
_chemical_formula_structural   Yb4YEr(Si3Ru)8
_chemical_formula_sum   'Yb4 Y1 Er1 Si24 Ru8'
_cell_volume   619.22564350
_cell_formula_units_Z   1
loop_
 _symmetry_equiv_pos_site_id
 _symmetry_equiv_pos_as_xyz
  1  'x, y, z'
loop_
 _atom_site_type_symbol
 _atom_site_label
 _atom_site_symmetry_multiplicity
 _atom_site_fract_x
 _atom_site_fract_y
 _atom_site_fract_z
 _atom_site_occupancy
  Yb  Yb0  1  0.498549  0.998818  0.250184  1
  Yb  Yb1  1  0.000918  0.501079  0.749839  1
  Yb  Yb2  1  0.501885  0.001703  0.749865  1
  Yb  Yb3  1  0.500396  0.500466  0.500203  1
  Y  Y4  1  0.999944  0.499714  0.250136  1
  Er  Er5  1  0.000423  0.000299  0.999777  1
  Si  Si6  1  0.389357  0.154322  0.004958  1
  Si  Si7  1  0.652710  0.886752  0.493722  1
  Si  Si8  1  0.112889  0.345764  0.506594  1
  Si  Si9  1  0.843947  0.610072  0.994755  1
  Si  Si10  1  0.610613  0.845261  0.994061  1
  Si  Si11  1  0.347000  0.113430  0.507134  1
  Si  Si12  1  0.886888  0.653892  0.492198  1
  Si  Si13  1  0.155481  0.389539  0.006551  1
  Si  Si14  1  0.609394  0.376638  0.229271  1
  Si  Si15  1  0.876062  0.109353  0.271729  1
  Si  Si16  1  0.889696  0.123553  0.728742  1
  Si  Si17  1  0.623293  0.389690  0.770245  1
  Si  Si18  1  0.389966  0.623615  0.770251  1
  Si  Si19  1  0.124079  0.890019  0.728837  1
  Si  Si20  1  0.705085  0.293057  0.999386  1
  Si  Si21  1  0.793375  0.204953  0.500638  1
  Si  Si22  1  0.295427  0.706955  0.998216  1
  Si  Si23  1  0.206723  0.795660  0.501784  1
  Si  Si24  1  0.166710  0.168108  0.333568  1
  Si  Si25  1  0.665941  0.664523  0.168668  1
  Si  Si26  1  0.337256  0.333883  0.831120  1
  Si  Si27  1  0.831707  0.835109  0.666620  1
  Si  Si28  1  0.376496  0.609285  0.229025  1
  Si  Si29  1  0.109069  0.875826  0.271875  1
  Ru  Ru30  1  0.628838  0.629533  0.876097  1
  Ru  Ru31  1  0.126290  0.125505  0.627064  1
  Ru  Ru32  1  0.874395  0.874448  0.373146  1
  Ru  Ru33  1  0.370994  0.371039  0.123754  1
  Ru  Ru34  1  0.328496  0.668542  0.498819  1
  Ru  Ru35  1  0.167325  0.829477  0.001138  1
  Ru  Ru36  1  0.670295  0.331039  0.499029  1
  Ru  Ru37  1  0.832085  0.169078  0.001002  1
