# generated using pymatgen
data_YLu(Be12Cu)2
_symmetry_space_group_name_H-M   'P 1'
_cell_length_a   7.24801560
_cell_length_b   7.30049370
_cell_length_c   7.23045096
_cell_angle_alpha   59.83879712
_cell_angle_beta   59.81653237
_cell_angle_gamma   59.60070333
_symmetry_Int_Tables_number   1
_chemical_formula_structural   YLu(Be12Cu)2
_chemical_formula_sum   'Y1 Lu1 Be24 Cu2'
_cell_volume   269.00763494
_cell_formula_units_Z   1
loop_
 _symmetry_equiv_pos_site_id
 _symmetry_equiv_pos_as_xyz
  1  'x, y, z'
loop_
 _atom_site_type_symbol
 _atom_site_label
 _atom_site_symmetry_multiplicity
 _atom_site_fract_x
 _atom_site_fract_y
 _atom_site_fract_z
 _atom_site_occupancy
  Y  Y0  1  0.746795  0.753205  0.746795  1
  Lu  Lu1  1  0.252914  0.247086  0.252914  1
  Be  Be2  1  0.500012  0.499988  0.500012  1
  Be  Be3  1  0.000022  0.999978  0.000022  1
  Be  Be4  1  0.564325  0.793911  0.434670  1
  Be  Be5  1  0.434670  0.207095  0.564325  1
  Be  Be6  1  0.289965  0.936725  0.709154  1
  Be  Be7  1  0.709154  0.064157  0.289965  1
  Be  Be8  1  0.931659  0.278382  0.068949  1
  Be  Be9  1  0.068949  0.721009  0.931659  1
  Be  Be10  1  0.207978  0.800515  0.557157  1
  Be  Be11  1  0.792749  0.200381  0.442136  1
  Be  Be12  1  0.442136  0.564734  0.792749  1
  Be  Be13  1  0.557157  0.434350  0.207978  1
  Be  Be14  1  0.710883  0.286115  0.936672  1
  Be  Be15  1  0.288476  0.713318  0.064077  1
  Be  Be16  1  0.064077  0.934129  0.288476  1
  Be  Be17  1  0.936672  0.066329  0.710883  1
  Be  Be18  1  0.565288  0.206922  0.792631  1
  Be  Be19  1  0.434058  0.793959  0.208230  1
  Be  Be20  1  0.792631  0.435160  0.565288  1
  Be  Be21  1  0.208230  0.563751  0.434058  1
  Be  Be22  1  0.936924  0.711868  0.290555  1
  Be  Be23  1  0.064028  0.287374  0.708538  1
  Be  Be24  1  0.290555  0.060653  0.936924  1
  Be  Be25  1  0.708538  0.940059  0.064028  1
  Cu  Cu26  1  0.804819  0.556679  0.196335  1
  Cu  Cu27  1  0.196335  0.442166  0.804819  1
