# generated using pymatgen
data_Lu3Mg3ZnGa2
_symmetry_space_group_name_H-M   'P 1'
_cell_length_a   7.25713000
_cell_length_b   7.25713055
_cell_length_c   4.27237400
_cell_angle_alpha   90.00000000
_cell_angle_beta   90.00000000
_cell_angle_gamma   120.00000659
_symmetry_Int_Tables_number   1
_chemical_formula_structural   Lu3Mg3ZnGa2
_chemical_formula_sum   'Lu3 Mg3 Zn1 Ga2'
_cell_volume   194.86314389
_cell_formula_units_Z   1
loop_
 _symmetry_equiv_pos_site_id
 _symmetry_equiv_pos_as_xyz
  1  'x, y, z'
loop_
 _atom_site_type_symbol
 _atom_site_label
 _atom_site_symmetry_multiplicity
 _atom_site_fract_x
 _atom_site_fract_y
 _atom_site_fract_z
 _atom_site_occupancy
  Lu  Lu0  1  0.575789  0.000000  0.000000  1
  Lu  Lu1  1  0.000000  0.575789  0.000000  1
  Lu  Lu2  1  0.424211  0.424211  0.000000  1
  Mg  Mg3  1  0.244953  0.000000  0.500000  1
  Mg  Mg4  1  0.000000  0.244953  0.500000  1
  Mg  Mg5  1  0.755047  0.755047  0.500000  1
  Zn  Zn6  1  0.000000  0.000000  0.000000  1
  Ga  Ga7  1  0.333333  0.666667  0.500000  1
  Ga  Ga8  1  0.666667  0.333333  0.500000  1
