# generated using pymatgen
data_Er2In4(TeO6)3
_symmetry_space_group_name_H-M   'P 1'
_cell_length_a   9.02926824
_cell_length_b   9.02926858
_cell_length_c   4.98851300
_cell_angle_alpha   89.87573477
_cell_angle_beta   90.12426523
_cell_angle_gamma   119.95533289
_symmetry_Int_Tables_number   1
_chemical_formula_structural   Er2In4(TeO6)3
_chemical_formula_sum   'Er2 In4 Te3 O18'
_cell_volume   352.37152168
_cell_formula_units_Z   1
loop_
 _symmetry_equiv_pos_site_id
 _symmetry_equiv_pos_as_xyz
  1  'x, y, z'
loop_
 _atom_site_type_symbol
 _atom_site_label
 _atom_site_symmetry_multiplicity
 _atom_site_fract_x
 _atom_site_fract_y
 _atom_site_fract_z
 _atom_site_occupancy
  Er  Er0  1  0.624401  0.000612  0.000181  1
  Er  Er1  1  0.000612  0.624401  0.999819  1
  In  In2  1  0.370898  0.370898  0.000000  1
  In  In3  1  0.290687  0.998638  0.501672  1
  In  In4  1  0.998638  0.290687  0.498328  1
  In  In5  1  0.709756  0.709756  0.500000  1
  Te  Te6  1  0.002459  0.002459  0.000000  1
  Te  Te7  1  0.333849  0.663715  0.505608  1
  Te  Te8  1  0.663715  0.333849  0.494392  1
  O  O9  1  0.088541  0.882759  0.784878  1
  O  O10  1  0.120725  0.208444  0.782664  1
  O  O11  1  0.796913  0.915328  0.782772  1
  O  O12  1  0.208444  0.120725  0.217336  1
  O  O13  1  0.915328  0.796913  0.217228  1
  O  O14  1  0.882759  0.088541  0.215122  1
  O  O15  1  0.461836  0.589021  0.732614  1
  O  O16  1  0.406697  0.865222  0.727905  1
  O  O17  1  0.129251  0.537190  0.720120  1
  O  O18  1  0.865222  0.406697  0.272095  1
  O  O19  1  0.537190  0.129251  0.279880  1
  O  O20  1  0.589021  0.461836  0.267386  1
  O  O21  1  0.225445  0.761985  0.284460  1
  O  O22  1  0.237293  0.459191  0.278940  1
  O  O23  1  0.541195  0.777953  0.291549  1
  O  O24  1  0.459191  0.237293  0.721060  1
  O  O25  1  0.777953  0.541195  0.708451  1
  O  O26  1  0.761985  0.225445  0.715540  1
