# generated using pymatgen
data_Rb3OsO5
_symmetry_space_group_name_H-M   'P 1'
_cell_length_a   8.68070000
_cell_length_b   8.76821800
_cell_length_c   9.49359100
_cell_angle_alpha   90.00000000
_cell_angle_beta   90.00000000
_cell_angle_gamma   90.00000000
_symmetry_Int_Tables_number   1
_chemical_formula_structural   Rb3OsO5
_chemical_formula_sum   'Rb12 Os4 O20'
_cell_volume   722.59774857
_cell_formula_units_Z   4
loop_
 _symmetry_equiv_pos_site_id
 _symmetry_equiv_pos_as_xyz
  1  'x, y, z'
loop_
 _atom_site_type_symbol
 _atom_site_label
 _atom_site_symmetry_multiplicity
 _atom_site_fract_x
 _atom_site_fract_y
 _atom_site_fract_z
 _atom_site_occupancy
  Rb  Rb0  1  0.954174  0.250000  0.750000  1
  Rb  Rb1  1  0.545826  0.750000  0.750000  1
  Rb  Rb2  1  0.045826  0.750000  0.250000  1
  Rb  Rb3  1  0.454174  0.250000  0.250000  1
  Rb  Rb4  1  0.750000  0.500000  0.019673  1
  Rb  Rb5  1  0.750000  0.000000  0.480327  1
  Rb  Rb6  1  0.250000  0.500000  0.980327  1
  Rb  Rb7  1  0.250000  0.000000  0.519673  1
  Rb  Rb8  1  0.750000  0.500000  0.486221  1
  Rb  Rb9  1  0.750000  0.000000  0.013779  1
  Rb  Rb10  1  0.250000  0.500000  0.513779  1
  Rb  Rb11  1  0.250000  0.000000  0.986221  1
  Os  Os12  1  0.487922  0.250000  0.750000  1
  Os  Os13  1  0.012078  0.750000  0.750000  1
  Os  Os14  1  0.512078  0.750000  0.250000  1
  Os  Os15  1  0.987922  0.250000  0.250000  1
  O  O16  1  0.277087  0.250000  0.750000  1
  O  O17  1  0.222913  0.750000  0.750000  1
  O  O18  1  0.722913  0.750000  0.250000  1
  O  O19  1  0.777087  0.250000  0.250000  1
  O  O20  1  0.587067  0.068574  0.747714  1
  O  O21  1  0.912933  0.931426  0.747714  1
  O  O22  1  0.587067  0.431426  0.752286  1
  O  O23  1  0.912933  0.568574  0.752286  1
  O  O24  1  0.412933  0.931426  0.252286  1
  O  O25  1  0.087067  0.068574  0.252286  1
  O  O26  1  0.412933  0.568574  0.247714  1
  O  O27  1  0.087067  0.431426  0.247714  1
  O  O28  1  0.486225  0.247577  0.950227  1
  O  O29  1  0.013775  0.752423  0.950227  1
  O  O30  1  0.486225  0.252423  0.549773  1
  O  O31  1  0.013775  0.747577  0.549773  1
  O  O32  1  0.513775  0.752423  0.049773  1
  O  O33  1  0.986225  0.247577  0.049773  1
  O  O34  1  0.513775  0.747577  0.450227  1
  O  O35  1  0.986225  0.252423  0.450227  1
