# generated using pymatgen
data_P2Os(O3F)2
_symmetry_space_group_name_H-M   'P 1'
_cell_length_a   5.07641847
_cell_length_b   5.07250694
_cell_length_c   6.90345721
_cell_angle_alpha   90.02712375
_cell_angle_beta   89.78315284
_cell_angle_gamma   119.94429339
_symmetry_Int_Tables_number   1
_chemical_formula_structural   P2Os(O3F)2
_chemical_formula_sum   'P2 Os1 O6 F2'
_cell_volume   154.03419953
_cell_formula_units_Z   1
loop_
 _symmetry_equiv_pos_site_id
 _symmetry_equiv_pos_as_xyz
  1  'x, y, z'
loop_
 _atom_site_type_symbol
 _atom_site_label
 _atom_site_symmetry_multiplicity
 _atom_site_fract_x
 _atom_site_fract_y
 _atom_site_fract_z
 _atom_site_occupancy
  P  P0  1  0.332653  0.667267  0.225241  1
  P  P1  1  0.667346  0.332733  0.774759  1
  Os  Os2  1  0.000000  0.000000  0.000000  1
  O  O3  1  0.276991  0.351693  0.168586  1
  O  O4  1  0.072883  0.723352  0.170339  1
  O  O5  1  0.647884  0.927489  0.168837  1
  O  O6  1  0.352116  0.072509  0.831164  1
  O  O7  1  0.927117  0.276648  0.829662  1
  O  O8  1  0.723008  0.648307  0.831415  1
  F  F9  1  0.667333  0.333293  0.548504  1
  F  F10  1  0.332666  0.666707  0.451496  1
