# generated using pymatgen
data_TmLu2Si3Os2
_symmetry_space_group_name_H-M   'P 1'
_cell_length_a   5.64596617
_cell_length_b   5.64596498
_cell_length_c   13.51034300
_cell_angle_alpha   90.00000000
_cell_angle_beta   90.00000000
_cell_angle_gamma   136.79400232
_symmetry_Int_Tables_number   1
_chemical_formula_structural   TmLu2Si3Os2
_chemical_formula_sum   'Tm2 Lu4 Si6 Os4'
_cell_volume   294.84554596
_cell_formula_units_Z   2
loop_
 _symmetry_equiv_pos_site_id
 _symmetry_equiv_pos_as_xyz
  1  'x, y, z'
loop_
 _atom_site_type_symbol
 _atom_site_label
 _atom_site_symmetry_multiplicity
 _atom_site_fract_x
 _atom_site_fract_y
 _atom_site_fract_z
 _atom_site_occupancy
  Tm  Tm0  1  0.640936  0.359064  0.250000  1
  Tm  Tm1  1  0.359064  0.640936  0.750000  1
  Lu  Lu2  1  0.923881  0.076119  0.115215  1
  Lu  Lu3  1  0.076119  0.923881  0.884785  1
  Lu  Lu4  1  0.076119  0.923881  0.615215  1
  Lu  Lu5  1  0.923881  0.076119  0.384785  1
  Si  Si6  1  0.329433  0.670567  0.250000  1
  Si  Si7  1  0.670567  0.329433  0.750000  1
  Si  Si8  1  0.613759  0.386241  0.037875  1
  Si  Si9  1  0.386241  0.613759  0.962125  1
  Si  Si10  1  0.386241  0.613759  0.537875  1
  Si  Si11  1  0.613759  0.386241  0.462125  1
  Os  Os12  1  0.788153  0.211847  0.582649  1
  Os  Os13  1  0.211847  0.788153  0.417351  1
  Os  Os14  1  0.211847  0.788153  0.082649  1
  Os  Os15  1  0.788153  0.211847  0.917351  1
