# generated using pymatgen
data_Cs4Rb8Li4Si15Ge
_symmetry_space_group_name_H-M   'P 1'
_cell_length_a   8.01756721
_cell_length_b   9.99507900
_cell_length_c   13.10240534
_cell_angle_alpha   90.00001000
_cell_angle_beta   89.93062361
_cell_angle_gamma   89.99978389
_symmetry_Int_Tables_number   1
_chemical_formula_structural   Cs4Rb8Li4Si15Ge
_chemical_formula_sum   'Cs4 Rb8 Li4 Si15 Ge1'
_cell_volume   1049.97643622
_cell_formula_units_Z   1
loop_
 _symmetry_equiv_pos_site_id
 _symmetry_equiv_pos_as_xyz
  1  'x, y, z'
loop_
 _atom_site_type_symbol
 _atom_site_label
 _atom_site_symmetry_multiplicity
 _atom_site_fract_x
 _atom_site_fract_y
 _atom_site_fract_z
 _atom_site_occupancy
  Cs  Cs0  1  0.647165  0.250002  0.396097  1
  Cs  Cs1  1  0.146807  0.250001  0.103932  1
  Cs  Cs2  1  0.352384  0.750000  0.602843  1
  Cs  Cs3  1  0.854222  0.749993  0.896572  1
  Rb  Rb4  1  0.660233  0.443247  0.689354  1
  Rb  Rb5  1  0.159060  0.058307  0.810841  1
  Rb  Rb6  1  0.339811  0.943729  0.311353  1
  Rb  Rb7  1  0.839328  0.556531  0.189285  1
  Rb  Rb8  1  0.339810  0.556272  0.311355  1
  Rb  Rb9  1  0.839327  0.943472  0.189284  1
  Rb  Rb10  1  0.660232  0.056754  0.689354  1
  Rb  Rb11  1  0.159060  0.441694  0.810841  1
  Li  Li12  1  0.500029  0.498949  0.001175  1
  Li  Li13  1  0.999890  0.000030  0.500063  1
  Li  Li14  1  0.500027  0.001047  0.001172  1
  Li  Li15  1  0.999890  0.499967  0.500064  1
  Si  Si16  1  0.863637  0.750000  0.586888  1
  Si  Si17  1  0.636083  0.250001  0.086733  1
  Si  Si18  1  0.136356  0.250000  0.413265  1
  Si  Si19  1  0.727054  0.630599  0.446991  1
  Si  Si20  1  0.226929  0.869212  0.054176  1
  Si  Si21  1  0.272934  0.130614  0.553185  1
  Si  Si22  1  0.773040  0.369421  0.946861  1
  Si  Si23  1  0.011524  0.250001  0.584045  1
  Si  Si24  1  0.511902  0.250000  0.915817  1
  Si  Si25  1  0.988380  0.749999  0.415961  1
  Si  Si26  1  0.487855  0.750000  0.085063  1
  Si  Si27  1  0.226929  0.630790  0.054177  1
  Si  Si28  1  0.727053  0.869402  0.446991  1
  Si  Si29  1  0.773044  0.130580  0.946861  1
  Si  Si30  1  0.272934  0.369387  0.553185  1
  Ge  Ge31  1  0.367069  0.749999  0.906217  1
