# generated using pymatgen
data_SrPa2TiSb5
_symmetry_space_group_name_H-M   'P 1'
_cell_length_a   9.40183700
_cell_length_b   9.33058477
_cell_length_c   6.21097400
_cell_angle_alpha   90.00000000
_cell_angle_beta   90.00000000
_cell_angle_gamma   120.25293023
_symmetry_Int_Tables_number   1
_chemical_formula_structural   SrPa2TiSb5
_chemical_formula_sum   'Sr2 Pa4 Ti2 Sb10'
_cell_volume   470.65143600
_cell_formula_units_Z   2
loop_
 _symmetry_equiv_pos_site_id
 _symmetry_equiv_pos_as_xyz
  1  'x, y, z'
loop_
 _atom_site_type_symbol
 _atom_site_label
 _atom_site_symmetry_multiplicity
 _atom_site_fract_x
 _atom_site_fract_y
 _atom_site_fract_z
 _atom_site_occupancy
  Sr  Sr0  1  0.613718  0.000000  0.250000  1
  Sr  Sr1  1  0.386282  0.000000  0.750000  1
  Pa  Pa2  1  0.011249  0.617958  0.250000  1
  Pa  Pa3  1  0.988751  0.382042  0.750000  1
  Pa  Pa4  1  0.393291  0.382042  0.250000  1
  Pa  Pa5  1  0.606709  0.617958  0.750000  1
  Ti  Ti6  1  0.000000  0.000000  0.000000  1
  Ti  Ti7  1  0.000000  0.000000  0.500000  1
  Sb  Sb8  1  0.249989  0.000000  0.250000  1
  Sb  Sb9  1  0.750011  0.000000  0.750000  1
  Sb  Sb10  1  0.010777  0.265241  0.250000  1
  Sb  Sb11  1  0.989223  0.734759  0.750000  1
  Sb  Sb12  1  0.745536  0.734759  0.250000  1
  Sb  Sb13  1  0.254464  0.265241  0.750000  1
  Sb  Sb14  1  0.323892  0.647785  0.000000  1
  Sb  Sb15  1  0.676108  0.352215  0.000000  1
  Sb  Sb16  1  0.676108  0.352215  0.500000  1
  Sb  Sb17  1  0.323892  0.647785  0.500000  1
