# generated using pymatgen
data_Tb9Eu8Lu3Sn16
_symmetry_space_group_name_H-M   'P 1'
_cell_length_a   8.10183800
_cell_length_b   8.33499373
_cell_length_c   15.72679500
_cell_angle_alpha   90.00000000
_cell_angle_beta   90.00000000
_cell_angle_gamma   89.96312032
_symmetry_Int_Tables_number   1
_chemical_formula_structural   Tb9Eu8Lu3Sn16
_chemical_formula_sum   'Tb9 Eu8 Lu3 Sn16'
_cell_volume   1062.01088516
_cell_formula_units_Z   1
loop_
 _symmetry_equiv_pos_site_id
 _symmetry_equiv_pos_as_xyz
  1  'x, y, z'
loop_
 _atom_site_type_symbol
 _atom_site_label
 _atom_site_symmetry_multiplicity
 _atom_site_fract_x
 _atom_site_fract_y
 _atom_site_fract_z
 _atom_site_occupancy
  Tb  Tb0  1  0.340751  0.836372  0.876494  1
  Tb  Tb1  1  0.840174  0.663941  0.623541  1
  Tb  Tb2  1  0.659780  0.163451  0.376057  1
  Tb  Tb3  1  0.159688  0.336543  0.124285  1
  Tb  Tb4  1  0.659780  0.163451  0.123943  1
  Tb  Tb5  1  0.159688  0.336543  0.375715  1
  Tb  Tb6  1  0.340751  0.836372  0.623506  1
  Tb  Tb7  1  0.840174  0.663941  0.876459  1
  Tb  Tb8  1  0.178888  0.495416  0.750000  1
  Eu  Eu9  1  0.506012  0.321744  0.906658  1
  Eu  Eu10  1  0.005544  0.177237  0.593248  1
  Eu  Eu11  1  0.493492  0.677639  0.405996  1
  Eu  Eu12  1  0.993757  0.822538  0.093903  1
  Eu  Eu13  1  0.493492  0.677639  0.094004  1
  Eu  Eu14  1  0.993757  0.822538  0.406097  1
  Eu  Eu15  1  0.506012  0.321744  0.593342  1
  Eu  Eu16  1  0.005544  0.177237  0.906752  1
  Lu  Lu17  1  0.678249  0.004386  0.750000  1
  Lu  Lu18  1  0.822198  0.503894  0.250000  1
  Lu  Lu19  1  0.322318  0.996472  0.250000  1
  Sn  Sn20  1  0.324711  0.039128  0.043069  1
  Sn  Sn21  1  0.824837  0.460956  0.456983  1
  Sn  Sn22  1  0.674956  0.960952  0.542706  1
  Sn  Sn23  1  0.174659  0.539712  0.958510  1
  Sn  Sn24  1  0.674956  0.960952  0.957294  1
  Sn  Sn25  1  0.174659  0.539712  0.541490  1
  Sn  Sn26  1  0.324711  0.039128  0.456931  1
  Sn  Sn27  1  0.824837  0.460956  0.043017  1
  Sn  Sn28  1  0.541686  0.621585  0.750000  1
  Sn  Sn29  1  0.039049  0.880884  0.750000  1
  Sn  Sn30  1  0.461291  0.380263  0.250000  1
  Sn  Sn31  1  0.961343  0.120174  0.250000  1
  Sn  Sn32  1  0.310792  0.136773  0.750000  1
  Sn  Sn33  1  0.808112  0.359496  0.750000  1
  Sn  Sn34  1  0.689692  0.859832  0.250000  1
  Sn  Sn35  1  0.189661  0.640401  0.250000  1
