# generated using pymatgen
data_Nd8Er12Si15Hg
_symmetry_space_group_name_H-M   'P 1'
_cell_length_a   7.48957303
_cell_length_b   7.79148495
_cell_length_c   14.83287500
_cell_angle_alpha   89.91912463
_cell_angle_beta   89.37469358
_cell_angle_gamma   90.16884424
_symmetry_Int_Tables_number   1
_chemical_formula_structural   Nd8Er12Si15Hg
_chemical_formula_sum   'Nd8 Er12 Si15 Hg1'
_cell_volume   865.51466349
_cell_formula_units_Z   1
loop_
 _symmetry_equiv_pos_site_id
 _symmetry_equiv_pos_as_xyz
  1  'x, y, z'
loop_
 _atom_site_type_symbol
 _atom_site_label
 _atom_site_symmetry_multiplicity
 _atom_site_fract_x
 _atom_site_fract_y
 _atom_site_fract_z
 _atom_site_occupancy
  Nd  Nd0  1  0.020594  0.179467  0.099573  1
  Nd  Nd1  1  0.978798  0.822585  0.902767  1
  Nd  Nd2  1  0.478906  0.679272  0.902091  1
  Nd  Nd3  1  0.981670  0.828384  0.599744  1
  Nd  Nd4  1  0.519403  0.319843  0.098449  1
  Nd  Nd5  1  0.014568  0.173192  0.397887  1
  Nd  Nd6  1  0.518207  0.320329  0.397837  1
  Nd  Nd7  1  0.489798  0.684982  0.601084  1
  Er  Er8  1  0.158479  0.508342  0.753262  1
  Er  Er9  1  0.841586  0.491617  0.250869  1
  Er  Er10  1  0.342266  0.006327  0.249089  1
  Er  Er11  1  0.660443  0.991113  0.751149  1
  Er  Er12  1  0.334620  0.170379  0.626738  1
  Er  Er13  1  0.670140  0.823089  0.375176  1
  Er  Er14  1  0.172169  0.678427  0.372956  1
  Er  Er15  1  0.676161  0.822354  0.122576  1
  Er  Er16  1  0.822612  0.325965  0.623485  1
  Er  Er17  1  0.322872  0.177042  0.877738  1
  Er  Er18  1  0.822628  0.320773  0.878093  1
  Er  Er19  1  0.175543  0.677188  0.122975  1
  Si  Si20  1  0.031666  0.117991  0.752050  1
  Si  Si21  1  0.968257  0.885580  0.248124  1
  Si  Si22  1  0.469111  0.613540  0.247718  1
  Si  Si23  1  0.531562  0.387316  0.752251  1
  Si  Si24  1  0.275402  0.878117  0.751814  1
  Si  Si25  1  0.721686  0.122297  0.247800  1
  Si  Si26  1  0.222724  0.375348  0.248470  1
  Si  Si27  1  0.779054  0.622159  0.752718  1
  Si  Si28  1  0.838333  0.535844  0.457939  1
  Si  Si29  1  0.345839  0.965613  0.460081  1
  Si  Si30  1  0.851400  0.532552  0.039045  1
  Si  Si31  1  0.653755  0.036115  0.537390  1
  Si  Si32  1  0.146733  0.466667  0.961711  1
  Si  Si33  1  0.646711  0.031592  0.960674  1
  Si  Si34  1  0.351068  0.967068  0.039704  1
  Hg  Hg35  1  0.165241  0.461532  0.538969  1
