# generated using pymatgen
data_SmHfNb6(Co4P3)4
_symmetry_space_group_name_H-M   'P 1'
_cell_length_a   11.98417600
_cell_length_b   11.98417612
_cell_length_c   3.64979700
_cell_angle_alpha   90.00000000
_cell_angle_beta   90.00000000
_cell_angle_gamma   119.99999966
_symmetry_Int_Tables_number   1
_chemical_formula_structural   SmHfNb6(Co4P3)4
_chemical_formula_sum   'Sm1 Hf1 Nb6 Co16 P12'
_cell_volume   453.95803178
_cell_formula_units_Z   1
loop_
 _symmetry_equiv_pos_site_id
 _symmetry_equiv_pos_as_xyz
  1  'x, y, z'
loop_
 _atom_site_type_symbol
 _atom_site_label
 _atom_site_symmetry_multiplicity
 _atom_site_fract_x
 _atom_site_fract_y
 _atom_site_fract_z
 _atom_site_occupancy
  Sm  Sm0  1  0.333333  0.666667  0.000000  1
  Hf  Hf1  1  0.666667  0.333333  0.000000  1
  Nb  Nb2  1  0.820635  0.998612  0.500000  1
  Nb  Nb3  1  0.001388  0.822023  0.500000  1
  Nb  Nb4  1  0.177977  0.179365  0.500000  1
  Nb  Nb5  1  0.447241  0.003056  0.000000  1
  Nb  Nb6  1  0.996944  0.444185  0.000000  1
  Nb  Nb7  1  0.555815  0.552759  0.000000  1
  Co  Co8  1  0.274440  0.004911  0.500000  1
  Co  Co9  1  0.995089  0.269529  0.500000  1
  Co  Co10  1  0.730471  0.725560  0.500000  1
  Co  Co11  1  0.636101  0.809499  0.000000  1
  Co  Co12  1  0.190501  0.826602  0.000000  1
  Co  Co13  1  0.173398  0.363899  0.000000  1
  Co  Co14  1  0.370250  0.181435  0.000000  1
  Co  Co15  1  0.811185  0.629750  0.000000  1
  Co  Co16  1  0.818565  0.188815  0.000000  1
  Co  Co17  1  0.525849  0.878625  0.500000  1
  Co  Co18  1  0.121375  0.647224  0.500000  1
  Co  Co19  1  0.352776  0.474151  0.500000  1
  Co  Co20  1  0.487818  0.355885  0.500000  1
  Co  Co21  1  0.868067  0.512182  0.500000  1
  Co  Co22  1  0.644115  0.131933  0.500000  1
  Co  Co23  1  0.000000  0.000000  0.000000  1
  P  P24  1  0.174855  0.003462  0.000000  1
  P  P25  1  0.996538  0.171393  0.000000  1
  P  P26  1  0.828607  0.825145  0.000000  1
  P  P27  1  0.527124  0.691007  0.500000  1
  P  P28  1  0.308993  0.836116  0.500000  1
  P  P29  1  0.163884  0.472876  0.500000  1
  P  P30  1  0.480617  0.171570  0.500000  1
  P  P31  1  0.690952  0.519383  0.500000  1
  P  P32  1  0.828430  0.309048  0.500000  1
  P  P33  1  0.647135  0.997978  0.000000  1
  P  P34  1  0.002022  0.649157  0.000000  1
  P  P35  1  0.350843  0.352865  0.000000  1
