# generated using pymatgen
data_Sm3Th(Ga8Pt3)3
_symmetry_space_group_name_H-M   'P 1'
_cell_length_a   7.59310675
_cell_length_b   7.64187799
_cell_length_c   13.38516506
_cell_angle_alpha   84.63668475
_cell_angle_beta   79.27432888
_cell_angle_gamma   60.15590879
_symmetry_Int_Tables_number   1
_chemical_formula_structural   Sm3Th(Ga8Pt3)3
_chemical_formula_sum   'Sm3 Th1 Ga24 Pt9'
_cell_volume   661.91085715
_cell_formula_units_Z   1
loop_
 _symmetry_equiv_pos_site_id
 _symmetry_equiv_pos_as_xyz
  1  'x, y, z'
loop_
 _atom_site_type_symbol
 _atom_site_label
 _atom_site_symmetry_multiplicity
 _atom_site_fract_x
 _atom_site_fract_y
 _atom_site_fract_z
 _atom_site_occupancy
  Sm  Sm0  1  0.606796  0.831165  0.189432  1
  Sm  Sm1  1  0.732052  0.497474  0.810782  1
  Sm  Sm2  1  0.267931  0.502601  0.189116  1
  Th  Th3  1  0.393955  0.169046  0.809206  1
  Ga  Ga4  1  0.688015  0.830765  0.940803  1
  Ga  Ga5  1  0.313496  0.166511  0.061184  1
  Ga  Ga6  1  0.145431  0.833053  0.559136  1
  Ga  Ga7  1  0.854833  0.166966  0.440494  1
  Ga  Ga8  1  0.479226  0.166901  0.555506  1
  Ga  Ga9  1  0.520895  0.832715  0.443482  1
  Ga  Ga10  1  0.220833  0.165361  0.325770  1
  Ga  Ga11  1  0.782514  0.831449  0.673444  1
  Ga  Ga12  1  0.438835  0.506650  0.672076  1
  Ga  Ga13  1  0.561670  0.496835  0.326653  1
  Ga  Ga14  1  0.104144  0.163546  0.671259  1
  Ga  Ga15  1  0.893392  0.836080  0.327442  1
  Ga  Ga16  1  0.354527  0.501985  0.941313  1
  Ga  Ga17  1  0.645163  0.500644  0.059922  1
  Ga  Ga18  1  0.015385  0.168140  0.947017  1
  Ga  Ga19  1  0.981584  0.832215  0.054578  1
  Ga  Ga20  1  0.186219  0.499683  0.442585  1
  Ga  Ga21  1  0.813416  0.500818  0.557079  1
  Ga  Ga22  1  0.734728  0.164242  0.182592  1
  Ga  Ga23  1  0.264084  0.834221  0.817803  1
  Ga  Ga24  1  0.060566  0.633659  0.816782  1
  Ga  Ga25  1  0.937683  0.368751  0.183523  1
  Ga  Ga26  1  0.859976  0.037938  0.816824  1
  Ga  Ga27  1  0.142326  0.960692  0.183639  1
  Pt  Pt28  1  0.119511  0.495743  0.638637  1
  Pt  Pt29  1  0.881978  0.502834  0.361897  1
  Pt  Pt30  1  0.659007  0.169566  0.998942  1
  Pt  Pt31  1  0.340372  0.830979  0.000348  1
  Pt  Pt32  1  0.541959  0.165938  0.361130  1
  Pt  Pt33  1  0.457529  0.835287  0.639212  1
  Pt  Pt34  1  0.780394  0.170457  0.637338  1
  Pt  Pt35  1  0.218586  0.829653  0.363341  1
  Pt  Pt36  1  0.000991  0.499437  0.999714  1
