# generated using pymatgen
data_Tb12Nd8Si15Ni
_symmetry_space_group_name_H-M   'P 1'
_cell_length_a   7.40079151
_cell_length_b   14.66445700
_cell_length_c   7.80835300
_cell_angle_alpha   90.00000000
_cell_angle_beta   89.85868796
_cell_angle_gamma   90.00000000
_symmetry_Int_Tables_number   1
_chemical_formula_structural   Tb12Nd8Si15Ni
_chemical_formula_sum   'Tb12 Nd8 Si15 Ni1'
_cell_volume   847.42695493
_cell_formula_units_Z   1
loop_
 _symmetry_equiv_pos_site_id
 _symmetry_equiv_pos_as_xyz
  1  'x, y, z'
loop_
 _atom_site_type_symbol
 _atom_site_label
 _atom_site_symmetry_multiplicity
 _atom_site_fract_x
 _atom_site_fract_y
 _atom_site_fract_z
 _atom_site_occupancy
  Tb  Tb0  1  0.345161  0.250000  0.014728  1
  Tb  Tb1  1  0.311762  0.626790  0.173700  1
  Tb  Tb2  1  0.311762  0.873209  0.173700  1
  Tb  Tb3  1  0.827355  0.625309  0.317345  1
  Tb  Tb4  1  0.827355  0.874690  0.317345  1
  Tb  Tb5  1  0.845984  0.250000  0.487031  1
  Tb  Tb6  1  0.153003  0.750000  0.520468  1
  Tb  Tb7  1  0.178780  0.122816  0.680554  1
  Tb  Tb8  1  0.178780  0.377183  0.680554  1
  Tb  Tb9  1  0.679131  0.123517  0.823188  1
  Tb  Tb10  1  0.679131  0.376482  0.823188  1
  Tb  Tb11  1  0.666385  0.750000  0.989632  1
  Nd  Nd12  1  0.020233  0.096579  0.182980  1
  Nd  Nd13  1  0.020233  0.403421  0.182980  1
  Nd  Nd14  1  0.519068  0.095125  0.320792  1
  Nd  Nd15  1  0.519068  0.404875  0.320792  1
  Nd  Nd16  1  0.481536  0.595543  0.679475  1
  Nd  Nd17  1  0.481536  0.904457  0.679475  1
  Nd  Nd18  1  0.981657  0.594493  0.822028  1
  Nd  Nd19  1  0.981657  0.905507  0.822028  1
  Si  Si20  1  0.646854  0.539417  0.031851  1
  Si  Si21  1  0.646854  0.960583  0.031851  1
  Si  Si22  1  0.728338  0.250000  0.122894  1
  Si  Si23  1  0.229540  0.250000  0.378385  1
  Si  Si24  1  0.526935  0.750000  0.392040  1
  Si  Si25  1  0.149818  0.538789  0.469285  1
  Si  Si26  1  0.149818  0.961211  0.469285  1
  Si  Si27  1  0.851053  0.037149  0.532110  1
  Si  Si28  1  0.851053  0.462850  0.532110  1
  Si  Si29  1  0.472559  0.250000  0.609576  1
  Si  Si30  1  0.764950  0.750000  0.619440  1
  Si  Si31  1  0.270694  0.750000  0.876264  1
  Si  Si32  1  0.972109  0.250000  0.892465  1
  Si  Si33  1  0.351653  0.037941  0.969599  1
  Si  Si34  1  0.351653  0.462058  0.969599  1
  Ni  Ni35  1  0.026545  0.750000  0.091266  1
