# generated using pymatgen
data_Tb3Y(Zn4Ru)2
_symmetry_space_group_name_H-M   'P 1'
_cell_length_a   6.98906800
_cell_length_b   6.98906800
_cell_length_c   5.33262600
_cell_angle_alpha   90.00000000
_cell_angle_beta   90.00000000
_cell_angle_gamma   90.00000000
_symmetry_Int_Tables_number   1
_chemical_formula_structural   Tb3Y(Zn4Ru)2
_chemical_formula_sum   'Tb3 Y1 Zn8 Ru2'
_cell_volume   260.48316355
_cell_formula_units_Z   1
loop_
 _symmetry_equiv_pos_site_id
 _symmetry_equiv_pos_as_xyz
  1  'x, y, z'
loop_
 _atom_site_type_symbol
 _atom_site_label
 _atom_site_symmetry_multiplicity
 _atom_site_fract_x
 _atom_site_fract_y
 _atom_site_fract_z
 _atom_site_occupancy
  Tb  Tb0  1  0.000000  0.500000  0.767550  1
  Tb  Tb1  1  0.000000  0.000000  0.999835  1
  Tb  Tb2  1  0.500000  0.500000  0.999835  1
  Y  Y3  1  0.500000  0.000000  0.232858  1
  Zn  Zn4  1  0.187245  0.687245  0.291836  1
  Zn  Zn5  1  0.812755  0.687245  0.291836  1
  Zn  Zn6  1  0.812755  0.312755  0.291836  1
  Zn  Zn7  1  0.312895  0.187105  0.708150  1
  Zn  Zn8  1  0.187245  0.312755  0.291836  1
  Zn  Zn9  1  0.687105  0.187105  0.708150  1
  Zn  Zn10  1  0.687105  0.812895  0.708150  1
  Zn  Zn11  1  0.312895  0.812895  0.708150  1
  Ru  Ru12  1  0.500000  0.500000  0.499990  1
  Ru  Ru13  1  0.000000  0.000000  0.499990  1
