# generated using pymatgen
data_Hf6Zn23Se
_symmetry_space_group_name_H-M   'P 1'
_cell_length_a   8.74812991
_cell_length_b   8.74855377
_cell_length_c   8.74962404
_cell_angle_alpha   59.98683126
_cell_angle_beta   59.99769140
_cell_angle_gamma   59.99553380
_symmetry_Int_Tables_number   1
_chemical_formula_structural   Hf6Zn23Se
_chemical_formula_sum   'Hf6 Zn23 Se1'
_cell_volume   473.43505234
_cell_formula_units_Z   1
loop_
 _symmetry_equiv_pos_site_id
 _symmetry_equiv_pos_as_xyz
  1  'x, y, z'
loop_
 _atom_site_type_symbol
 _atom_site_label
 _atom_site_symmetry_multiplicity
 _atom_site_fract_x
 _atom_site_fract_y
 _atom_site_fract_z
 _atom_site_occupancy
  Hf  Hf0  1  0.710733  0.289274  0.289265  1
  Hf  Hf1  1  0.289267  0.710726  0.710735  1
  Hf  Hf2  1  0.289261  0.710736  0.289256  1
  Hf  Hf3  1  0.710739  0.289264  0.710744  1
  Hf  Hf4  1  0.289263  0.289274  0.710734  1
  Hf  Hf5  1  0.710737  0.710726  0.289266  1
  Zn  Zn6  1  0.121316  0.121324  0.121310  1
  Zn  Zn7  1  0.878684  0.878676  0.878690  1
  Zn  Zn8  1  0.121327  0.121317  0.636049  1
  Zn  Zn9  1  0.121329  0.636061  0.121304  1
  Zn  Zn10  1  0.878673  0.878683  0.363951  1
  Zn  Zn11  1  0.878671  0.363939  0.878696  1
  Zn  Zn12  1  0.636074  0.121331  0.121306  1
  Zn  Zn13  1  0.363926  0.878669  0.878694  1
  Zn  Zn14  1  0.500000  0.000000  0.000000  1
  Zn  Zn15  1  0.000000  0.500000  0.500000  1
  Zn  Zn16  1  0.000000  0.500000  0.000000  1
  Zn  Zn17  1  0.500000  0.000000  0.500000  1
  Zn  Zn18  1  0.000000  0.000000  0.500000  1
  Zn  Zn19  1  0.500000  0.500000  0.000000  1
  Zn  Zn20  1  0.334740  0.334745  0.334717  1
  Zn  Zn21  1  0.665260  0.665255  0.665283  1
  Zn  Zn22  1  0.334749  0.334742  0.995790  1
  Zn  Zn23  1  0.334701  0.995828  0.334733  1
  Zn  Zn24  1  0.665251  0.665258  0.004210  1
  Zn  Zn25  1  0.665299  0.004172  0.665267  1
  Zn  Zn26  1  0.995836  0.334696  0.334739  1
  Zn  Zn27  1  0.004164  0.665304  0.665261  1
  Zn  Zn28  1  0.000000  0.000000  0.000000  1
  Se  Se29  1  0.500000  0.500000  0.500000  1
