# generated using pymatgen
data_HoTm2Hf3(GaPt)6
_symmetry_space_group_name_H-M   'P 1'
_cell_length_a   7.25737865
_cell_length_b   7.25209115
_cell_length_c   7.30810000
_cell_angle_alpha   90.00000000
_cell_angle_beta   90.00000000
_cell_angle_gamma   119.97564694
_symmetry_Int_Tables_number   1
_chemical_formula_structural   HoTm2Hf3(GaPt)6
_chemical_formula_sum   'Ho1 Tm2 Hf3 Ga6 Pt6'
_cell_volume   333.18440994
_cell_formula_units_Z   1
loop_
 _symmetry_equiv_pos_site_id
 _symmetry_equiv_pos_as_xyz
  1  'x, y, z'
loop_
 _atom_site_type_symbol
 _atom_site_label
 _atom_site_symmetry_multiplicity
 _atom_site_fract_x
 _atom_site_fract_y
 _atom_site_fract_z
 _atom_site_occupancy
  Ho  Ho0  1  0.000396  0.592214  0.750000  1
  Tm  Tm1  1  0.592151  0.999463  0.750000  1
  Tm  Tm2  1  0.407451  0.407717  0.750000  1
  Hf  Hf3  1  0.390638  0.390313  0.250000  1
  Hf  Hf4  1  0.999640  0.609288  0.250000  1
  Hf  Hf5  1  0.609721  0.000392  0.250000  1
  Ga  Ga6  1  0.263764  0.000120  0.006768  1
  Ga  Ga7  1  0.263764  0.000120  0.493232  1
  Ga  Ga8  1  0.000156  0.263538  0.492919  1
  Ga  Ga9  1  0.000156  0.263538  0.007081  1
  Ga  Ga10  1  0.736083  0.736508  0.006767  1
  Ga  Ga11  1  0.736083  0.736508  0.493233  1
  Pt  Pt12  1  0.666149  0.332945  0.473044  1
  Pt  Pt13  1  0.000000  0.000823  0.750000  1
  Pt  Pt14  1  0.666149  0.332945  0.026956  1
  Pt  Pt15  1  0.333850  0.666801  0.027909  1
  Pt  Pt16  1  0.333850  0.666801  0.472091  1
  Pt  Pt17  1  0.000001  0.999965  0.250000  1
