# generated using pymatgen
data_Hf2(ScRe8)3
_symmetry_space_group_name_H-M   'P 1'
_cell_length_a   8.46237997
_cell_length_b   8.46742425
_cell_length_c   8.46237948
_cell_angle_alpha   109.47802173
_cell_angle_beta   109.43346882
_cell_angle_gamma   109.47801593
_symmetry_Int_Tables_number   1
_chemical_formula_structural   Hf2(ScRe8)3
_chemical_formula_sum   'Hf2 Sc3 Re24'
_cell_volume   466.92140371
_cell_formula_units_Z   1
loop_
 _symmetry_equiv_pos_site_id
 _symmetry_equiv_pos_as_xyz
  1  'x, y, z'
loop_
 _atom_site_type_symbol
 _atom_site_label
 _atom_site_symmetry_multiplicity
 _atom_site_fract_x
 _atom_site_fract_y
 _atom_site_fract_z
 _atom_site_occupancy
  Hf  Hf0  1  0.367876  0.367674  0.367876  1
  Hf  Hf1  1  0.000202  0.632326  0.000202  1
  Sc  Sc2  1  0.631989  0.000000  0.000261  1
  Sc  Sc3  1  0.000261  0.000000  0.631989  1
  Sc  Sc4  1  0.997644  0.000000  0.997644  1
  Re  Re5  1  0.998816  0.396644  0.677187  1
  Re  Re6  1  0.280544  0.603356  0.602173  1
  Re  Re7  1  0.720940  0.324214  0.322719  1
  Re  Re8  1  0.322547  0.720693  0.322547  1
  Re  Re9  1  0.677090  0.000000  0.396993  1
  Re  Re10  1  0.998507  0.675786  0.396727  1
  Re  Re11  1  0.602173  0.603356  0.280544  1
  Re  Re12  1  0.807839  0.808030  0.185330  1
  Re  Re13  1  0.377299  0.191970  0.999809  1
  Re  Re14  1  0.193535  0.376899  0.999887  1
  Re  Re15  1  0.623269  0.814953  0.623269  1
  Re  Re16  1  0.377755  0.000000  0.193271  1
  Re  Re17  1  0.999887  0.376899  0.193535  1
  Re  Re18  1  0.816636  0.623101  0.622987  1
  Re  Re19  1  0.185330  0.808030  0.807839  1
  Re  Re20  1  0.808316  0.185047  0.808316  1
  Re  Re21  1  0.193271  0.000000  0.377755  1
  Re  Re22  1  0.999809  0.191970  0.377299  1
  Re  Re23  1  0.622987  0.623101  0.816636  1
  Re  Re24  1  0.396993  0.000000  0.677090  1
  Re  Re25  1  0.601853  0.279307  0.601853  1
  Re  Re26  1  0.677187  0.396644  0.998816  1
  Re  Re27  1  0.396727  0.675786  0.998507  1
  Re  Re28  1  0.322719  0.324214  0.720940  1
