# generated using pymatgen
data_Er4CuPdPt2
_symmetry_space_group_name_H-M   'P 1'
_cell_length_a   4.50794700
_cell_length_b   5.52494758
_cell_length_c   6.93329135
_cell_angle_alpha   89.73934956
_cell_angle_beta   90.00000000
_cell_angle_gamma   90.00000000
_symmetry_Int_Tables_number   1
_chemical_formula_structural   Er4CuPdPt2
_chemical_formula_sum   'Er4 Cu1 Pd1 Pt2'
_cell_volume   172.67995199
_cell_formula_units_Z   1
loop_
 _symmetry_equiv_pos_site_id
 _symmetry_equiv_pos_as_xyz
  1  'x, y, z'
loop_
 _atom_site_type_symbol
 _atom_site_label
 _atom_site_symmetry_multiplicity
 _atom_site_fract_x
 _atom_site_fract_y
 _atom_site_fract_z
 _atom_site_occupancy
  Er  Er0  1  0.000000  0.643229  0.318280  1
  Er  Er1  1  0.000000  0.854091  0.818060  1
  Er  Er2  1  0.500000  0.366463  0.682639  1
  Er  Er3  1  0.500000  0.138075  0.180243  1
  Cu  Cu4  1  0.000000  0.139232  0.464206  1
  Pd  Pd5  1  0.000000  0.340206  0.956837  1
  Pt  Pt6  1  0.500000  0.865911  0.535639  1
  Pt  Pt7  1  0.500000  0.652795  0.044098  1
