# generated using pymatgen
data_Pr2BeRhI
_symmetry_space_group_name_H-M   'P 1'
_cell_length_a   4.08540100
_cell_length_b   4.08540071
_cell_length_c   17.91636800
_cell_angle_alpha   90.00000000
_cell_angle_beta   90.00000000
_cell_angle_gamma   119.99999428
_symmetry_Int_Tables_number   1
_chemical_formula_structural   Pr2BeRhI
_chemical_formula_sum   'Pr4 Be2 Rh2 I2'
_cell_volume   258.97031285
_cell_formula_units_Z   2
loop_
 _symmetry_equiv_pos_site_id
 _symmetry_equiv_pos_as_xyz
  1  'x, y, z'
loop_
 _atom_site_type_symbol
 _atom_site_label
 _atom_site_symmetry_multiplicity
 _atom_site_fract_x
 _atom_site_fract_y
 _atom_site_fract_z
 _atom_site_occupancy
  Pr  Pr0  1  0.000000  0.000000  0.606961  1
  Pr  Pr1  1  0.000000  0.000000  0.393484  1
  Pr  Pr2  1  0.000000  0.000000  0.106961  1
  Pr  Pr3  1  0.000000  0.000000  0.893484  1
  Be  Be4  1  0.666667  0.333333  0.500395  1
  Be  Be5  1  0.333333  0.666667  0.000395  1
  Rh  Rh6  1  0.666667  0.333333  0.999596  1
  Rh  Rh7  1  0.333333  0.666667  0.499596  1
  I  I8  1  0.666667  0.333333  0.249565  1
  I  I9  1  0.333333  0.666667  0.749565  1
