# generated using pymatgen
data_UNb13P9
_symmetry_space_group_name_H-M   'P 1'
_cell_length_a   11.18466800
_cell_length_b   11.18487038
_cell_length_c   3.46457000
_cell_angle_alpha   90.00000000
_cell_angle_beta   90.00000000
_cell_angle_gamma   120.00059310
_symmetry_Int_Tables_number   1
_chemical_formula_structural   UNb13P9
_chemical_formula_sum   'U1 Nb13 P9'
_cell_volume   375.34568663
_cell_formula_units_Z   1
loop_
 _symmetry_equiv_pos_site_id
 _symmetry_equiv_pos_as_xyz
  1  'x, y, z'
loop_
 _atom_site_type_symbol
 _atom_site_label
 _atom_site_symmetry_multiplicity
 _atom_site_fract_x
 _atom_site_fract_y
 _atom_site_fract_z
 _atom_site_occupancy
  U  U0  1  0.666671  0.333335  0.000000  1
  Nb  Nb1  1  0.238963  0.477931  0.500000  1
  Nb  Nb2  1  0.238963  0.761031  0.500000  1
  Nb  Nb3  1  0.525713  0.051434  0.500000  1
  Nb  Nb4  1  0.525713  0.474279  0.500000  1
  Nb  Nb5  1  0.948568  0.474284  0.500000  1
  Nb  Nb6  1  0.990374  0.283819  0.000000  1
  Nb  Nb7  1  0.716192  0.706549  0.000000  1
  Nb  Nb8  1  0.716192  0.009642  0.000000  1
  Nb  Nb9  1  0.990374  0.706555  0.000000  1
  Nb  Nb10  1  0.293444  0.283814  0.000000  1
  Nb  Nb11  1  0.000012  0.000006  0.000000  1
  Nb  Nb12  1  0.522053  0.761026  0.500000  1
  Nb  Nb13  1  0.293444  0.009630  0.000000  1
  P  P14  1  0.418187  0.209093  0.500000  1
  P  P15  1  0.134877  0.567439  0.000000  1
  P  P16  1  0.432558  0.567437  0.000000  1
  P  P17  1  0.432558  0.865122  0.000000  1
  P  P18  1  0.803415  0.901707  0.500000  1
  P  P19  1  0.098292  0.901705  0.500000  1
  P  P20  1  0.098292  0.196587  0.500000  1
  P  P21  1  0.790907  0.209096  0.500000  1
  P  P22  1  0.790907  0.581809  0.500000  1
