# generated using pymatgen
data_Er3Tm13(HgRh)4
_symmetry_space_group_name_H-M   'P 1'
_cell_length_a   9.48530119
_cell_length_b   9.47899525
_cell_length_c   9.48699999
_cell_angle_alpha   59.77462879
_cell_angle_beta   59.78600499
_cell_angle_gamma   59.76020167
_symmetry_Int_Tables_number   1
_chemical_formula_structural   Er3Tm13(HgRh)4
_chemical_formula_sum   'Er3 Tm13 Hg4 Rh4'
_cell_volume   600.05248532
_cell_formula_units_Z   1
loop_
 _symmetry_equiv_pos_site_id
 _symmetry_equiv_pos_as_xyz
  1  'x, y, z'
loop_
 _atom_site_type_symbol
 _atom_site_label
 _atom_site_symmetry_multiplicity
 _atom_site_fract_x
 _atom_site_fract_y
 _atom_site_fract_z
 _atom_site_occupancy
  Er  Er0  1  0.063234  0.063114  0.437232  1
  Er  Er1  1  0.436588  0.062319  0.436492  1
  Er  Er2  1  0.063319  0.437204  0.062965  1
  Tm  Tm3  1  0.055011  0.647505  0.647513  1
  Tm  Tm4  1  0.436721  0.436722  0.062118  1
  Tm  Tm5  1  0.647576  0.054942  0.647788  1
  Tm  Tm6  1  0.188726  0.812093  0.188555  1
  Tm  Tm7  1  0.188728  0.188650  0.812083  1
  Tm  Tm8  1  0.811421  0.811479  0.189625  1
  Tm  Tm9  1  0.437274  0.063160  0.062984  1
  Tm  Tm10  1  0.812030  0.188673  0.188613  1
  Tm  Tm11  1  0.062101  0.436848  0.436755  1
  Tm  Tm12  1  0.811385  0.189649  0.811529  1
  Tm  Tm13  1  0.189635  0.811491  0.811554  1
  Tm  Tm14  1  0.647397  0.647596  0.055061  1
  Tm  Tm15  1  0.648852  0.648767  0.648993  1
  Hg  Hg16  1  0.415616  0.416026  0.415580  1
  Hg  Hg17  1  0.754946  0.415347  0.415331  1
  Hg  Hg18  1  0.415441  0.754786  0.415171  1
  Hg  Hg19  1  0.415306  0.415067  0.755238  1
  Rh  Rh20  1  0.856281  0.856009  0.429780  1
  Rh  Rh21  1  0.856499  0.856715  0.856640  1
  Rh  Rh22  1  0.429872  0.856007  0.856293  1
  Rh  Rh23  1  0.856043  0.429833  0.856108  1
