# generated using pymatgen
data_LaY2Th(Ga3Rh)6
_symmetry_space_group_name_H-M   'P 1'
_cell_length_a   7.65263198
_cell_length_b   7.64726818
_cell_length_c   9.57013200
_cell_angle_alpha   90.00000000
_cell_angle_beta   90.00000000
_cell_angle_gamma   119.56869486
_symmetry_Int_Tables_number   1
_chemical_formula_structural   LaY2Th(Ga3Rh)6
_chemical_formula_sum   'La1 Y2 Th1 Ga18 Rh6'
_cell_volume   487.12099021
_cell_formula_units_Z   1
loop_
 _symmetry_equiv_pos_site_id
 _symmetry_equiv_pos_as_xyz
  1  'x, y, z'
loop_
 _atom_site_type_symbol
 _atom_site_label
 _atom_site_symmetry_multiplicity
 _atom_site_fract_x
 _atom_site_fract_y
 _atom_site_fract_z
 _atom_site_occupancy
  La  La0  1  0.669485  0.996648  0.250000  1
  Y  Y1  1  0.001157  0.330433  0.750000  1
  Y  Y2  1  0.330589  0.001465  0.750000  1
  Th  Th3  1  0.997023  0.669267  0.250000  1
  Ga  Ga4  1  0.331175  0.331071  0.566845  1
  Ga  Ga5  1  0.662912  0.664498  0.446283  1
  Ga  Ga6  1  0.662912  0.664498  0.053717  1
  Ga  Ga7  1  0.331175  0.331071  0.933155  1
  Ga  Ga8  1  0.338715  0.543543  0.250000  1
  Ga  Ga9  1  0.659719  0.450805  0.750000  1
  Ga  Ga10  1  0.544037  0.340155  0.250000  1
  Ga  Ga11  1  0.450324  0.660647  0.750000  1
  Ga  Ga12  1  0.004454  0.333188  0.073716  1
  Ga  Ga13  1  0.999699  0.664915  0.914682  1
  Ga  Ga14  1  0.999699  0.664915  0.585318  1
  Ga  Ga15  1  0.336476  0.005774  0.426168  1
  Ga  Ga16  1  0.004454  0.333188  0.426284  1
  Ga  Ga17  1  0.665020  0.000160  0.583810  1
  Ga  Ga18  1  0.665020  0.000160  0.916190  1
  Ga  Ga19  1  0.336476  0.005774  0.073832  1
  Ga  Ga20  1  0.130789  0.130271  0.250000  1
  Ga  Ga21  1  0.877299  0.878042  0.750000  1
  Rh  Rh22  1  0.000818  0.998028  0.999619  1
  Rh  Rh23  1  0.000818  0.998028  0.500381  1
  Rh  Rh24  1  0.673220  0.330861  0.999302  1
  Rh  Rh25  1  0.326656  0.670868  0.999013  1
  Rh  Rh26  1  0.326656  0.670868  0.500987  1
  Rh  Rh27  1  0.673220  0.330861  0.500698  1
