# generated using pymatgen
data_Cs4MnV2NiS8
_symmetry_space_group_name_H-M   'P 1'
_cell_length_a   14.49525039
_cell_length_b   12.90545207
_cell_length_c   7.65809360
_cell_angle_alpha   85.62314498
_cell_angle_beta   62.58891362
_cell_angle_gamma   31.78792722
_symmetry_Int_Tables_number   1
_chemical_formula_structural   Cs4MnV2NiS8
_chemical_formula_sum   'Cs4 Mn1 V2 Ni1 S8'
_cell_volume   495.13357183
_cell_formula_units_Z   1
loop_
 _symmetry_equiv_pos_site_id
 _symmetry_equiv_pos_as_xyz
  1  'x, y, z'
loop_
 _atom_site_type_symbol
 _atom_site_label
 _atom_site_symmetry_multiplicity
 _atom_site_fract_x
 _atom_site_fract_y
 _atom_site_fract_z
 _atom_site_occupancy
  Cs  Cs0  1  0.572894  0.572894  0.927106  1
  Cs  Cs1  1  0.927106  0.927106  0.572894  1
  Cs  Cs2  1  0.324798  0.324798  0.675202  1
  Cs  Cs3  1  0.675202  0.675202  0.324798  1
  Mn  Mn4  1  0.250000  0.250000  0.250000  1
  V  V5  1  0.750000  0.750000  0.750000  1
  V  V6  1  0.500000  0.500000  0.500000  1
  Ni  Ni7  1  0.000000  0.000000  0.000000  1
  S  S8  1  0.221520  0.876219  0.606837  1
  S  S9  1  0.295425  0.606837  0.876219  1
  S  S10  1  0.606837  0.295425  0.221520  1
  S  S11  1  0.876219  0.221520  0.295425  1
  S  S12  1  0.377636  0.021647  0.942330  1
  S  S13  1  0.942330  0.658388  0.377636  1
  S  S14  1  0.658388  0.942330  0.021647  1
  S  S15  1  0.021647  0.377636  0.658388  1
