# generated using pymatgen
data_TiMn2Be8Mo
_symmetry_space_group_name_H-M   'P 1'
_cell_length_a   4.30691300
_cell_length_b   4.30691406
_cell_length_c   7.08075100
_cell_angle_alpha   90.00000000
_cell_angle_beta   90.00000000
_cell_angle_gamma   119.99999957
_symmetry_Int_Tables_number   1
_chemical_formula_structural   TiMn2Be8Mo
_chemical_formula_sum   'Ti1 Mn2 Be8 Mo1'
_cell_volume   113.74760482
_cell_formula_units_Z   1
loop_
 _symmetry_equiv_pos_site_id
 _symmetry_equiv_pos_as_xyz
  1  'x, y, z'
loop_
 _atom_site_type_symbol
 _atom_site_label
 _atom_site_symmetry_multiplicity
 _atom_site_fract_x
 _atom_site_fract_y
 _atom_site_fract_z
 _atom_site_occupancy
  Ti  Ti0  1  0.666667  0.333333  0.562322  1
  Mn  Mn1  1  0.666667  0.333333  0.939169  1
  Mn  Mn2  1  0.333333  0.666667  0.427762  1
  Be  Be3  1  0.000000  0.000000  0.998869  1
  Be  Be4  1  0.000000  0.000000  0.501250  1
  Be  Be5  1  0.831488  0.662976  0.251354  1
  Be  Be6  1  0.169570  0.830430  0.750935  1
  Be  Be7  1  0.660860  0.830430  0.750935  1
  Be  Be8  1  0.337024  0.168512  0.251354  1
  Be  Be9  1  0.831488  0.168512  0.251354  1
  Be  Be10  1  0.169570  0.339140  0.750935  1
  Mo  Mo11  1  0.333333  0.666667  0.063758  1
