# generated using pymatgen
data_Sc8V8Re3Si16Mo
_symmetry_space_group_name_H-M   'P 1'
_cell_length_a   6.63373449
_cell_length_b   6.63373449
_cell_length_c   12.29324518
_cell_angle_alpha   89.98625045
_cell_angle_beta   90.01374955
_cell_angle_gamma   90.07545394
_symmetry_Int_Tables_number   1
_chemical_formula_structural   Sc8V8Re3Si16Mo
_chemical_formula_sum   'Sc8 V8 Re3 Si16 Mo1'
_cell_volume   540.98137281
_cell_formula_units_Z   1
loop_
 _symmetry_equiv_pos_site_id
 _symmetry_equiv_pos_as_xyz
  1  'x, y, z'
loop_
 _atom_site_type_symbol
 _atom_site_label
 _atom_site_symmetry_multiplicity
 _atom_site_fract_x
 _atom_site_fract_y
 _atom_site_fract_z
 _atom_site_occupancy
  Sc  Sc0  1  0.001274  0.664271  0.029161  1
  Sc  Sc1  1  0.835892  0.501421  0.279640  1
  Sc  Sc2  1  0.163714  0.499078  0.778977  1
  Sc  Sc3  1  0.501421  0.835892  0.720360  1
  Sc  Sc4  1  0.499078  0.163714  0.221023  1
  Sc  Sc5  1  0.998907  0.335649  0.529145  1
  Sc  Sc6  1  0.664271  0.001274  0.970839  1
  Sc  Sc7  1  0.335649  0.998907  0.470855  1
  V  V8  1  0.002028  0.160089  0.125620  1
  V  V9  1  0.340032  0.500576  0.376263  1
  V  V10  1  0.657443  0.498996  0.875932  1
  V  V11  1  0.500576  0.340032  0.623737  1
  V  V12  1  0.498996  0.657443  0.124068  1
  V  V13  1  0.999812  0.840172  0.625671  1
  V  V14  1  0.160089  0.002028  0.874380  1
  V  V15  1  0.840172  0.999812  0.374329  1
  Re  Re16  1  0.166362  0.832799  0.250784  1
  Re  Re17  1  0.832799  0.166362  0.749216  1
  Re  Re18  1  0.667454  0.667454  0.500000  1
  Si  Si19  1  0.294055  0.959338  0.065933  1
  Si  Si20  1  0.538691  0.793122  0.314913  1
  Si  Si21  1  0.462459  0.206207  0.813606  1
  Si  Si22  1  0.793122  0.538691  0.685087  1
  Si  Si23  1  0.206207  0.462459  0.186394  1
  Si  Si24  1  0.706802  0.038712  0.564827  1
  Si  Si25  1  0.959338  0.294055  0.934067  1
  Si  Si26  1  0.038712  0.706802  0.435173  1
  Si  Si27  1  0.706624  0.372089  0.070476  1
  Si  Si28  1  0.127174  0.204636  0.320130  1
  Si  Si29  1  0.872445  0.796056  0.819923  1
  Si  Si30  1  0.204636  0.127174  0.679870  1
  Si  Si31  1  0.796056  0.872445  0.180077  1
  Si  Si32  1  0.295638  0.627159  0.570015  1
  Si  Si33  1  0.372089  0.706624  0.929524  1
  Si  Si34  1  0.627159  0.295638  0.429985  1
  Mo  Mo35  1  0.332824  0.332824  0.000000  1
