# generated using pymatgen
data_Dy6Tm4InSb5
_symmetry_space_group_name_H-M   'P 1'
_cell_length_a   6.34585200
_cell_length_b   8.93830603
_cell_length_c   8.93371401
_cell_angle_alpha   120.01702631
_cell_angle_beta   90.00001806
_cell_angle_gamma   89.99997174
_symmetry_Int_Tables_number   1
_chemical_formula_structural   Dy6Tm4InSb5
_chemical_formula_sum   'Dy6 Tm4 In1 Sb5'
_cell_volume   438.76633585
_cell_formula_units_Z   1
loop_
 _symmetry_equiv_pos_site_id
 _symmetry_equiv_pos_as_xyz
  1  'x, y, z'
loop_
 _atom_site_type_symbol
 _atom_site_label
 _atom_site_symmetry_multiplicity
 _atom_site_fract_x
 _atom_site_fract_y
 _atom_site_fract_z
 _atom_site_occupancy
  Dy  Dy0  1  0.750001  0.243956  0.000000  1
  Dy  Dy1  1  0.750001  0.754232  0.757609  1
  Dy  Dy2  1  0.750001  0.996623  0.242391  1
  Dy  Dy3  1  0.249999  0.756682  0.000000  1
  Dy  Dy4  1  0.250001  0.246441  0.244912  1
  Dy  Dy5  1  0.250001  0.001529  0.755088  1
  Tm  Tm6  1  0.499408  0.335038  0.668868  1
  Tm  Tm7  1  0.499408  0.666170  0.331132  1
  Tm  Tm8  1  0.000591  0.666171  0.331132  1
  Tm  Tm9  1  0.000591  0.335039  0.668868  1
  In  In10  1  0.749999  0.604826  0.000000  1
  Sb  Sb11  1  0.750001  0.390215  0.391079  1
  Sb  Sb12  1  0.750001  0.999135  0.608921  1
  Sb  Sb13  1  0.250000  0.392135  0.000000  1
  Sb  Sb14  1  0.250000  0.610371  0.608935  1
  Sb  Sb15  1  0.250000  0.001436  0.391065  1
