# generated using pymatgen
data_La17Y2MgIr12
_symmetry_space_group_name_H-M   'P 1'
_cell_length_a   11.39890000
_cell_length_b   11.39890000
_cell_length_c   6.50816200
_cell_angle_alpha   90.00000000
_cell_angle_beta   90.00000000
_cell_angle_gamma   90.00000000
_symmetry_Int_Tables_number   1
_chemical_formula_structural   La17Y2MgIr12
_chemical_formula_sum   'La17 Y2 Mg1 Ir12'
_cell_volume   845.63751669
_cell_formula_units_Z   1
loop_
 _symmetry_equiv_pos_site_id
 _symmetry_equiv_pos_as_xyz
  1  'x, y, z'
loop_
 _atom_site_type_symbol
 _atom_site_label
 _atom_site_symmetry_multiplicity
 _atom_site_fract_x
 _atom_site_fract_y
 _atom_site_fract_z
 _atom_site_occupancy
  La  La0  1  0.278659  0.086245  0.390379  1
  La  La1  1  0.287036  0.911604  0.889138  1
  La  La2  1  0.712964  0.088396  0.889138  1
  La  La3  1  0.721341  0.913755  0.390379  1
  La  La4  1  0.590445  0.790933  0.890341  1
  La  La5  1  0.587438  0.207321  0.385613  1
  La  La6  1  0.412562  0.792679  0.385613  1
  La  La7  1  0.409555  0.209067  0.890341  1
  La  La8  1  0.207321  0.412562  0.614387  1
  La  La9  1  0.209067  0.590445  0.109659  1
  La  La10  1  0.790933  0.409555  0.109659  1
  La  La11  1  0.792679  0.587438  0.614387  1
  La  La12  1  0.911604  0.712964  0.110862  1
  La  La13  1  0.913755  0.278659  0.609621  1
  La  La14  1  0.086245  0.721341  0.609621  1
  La  La15  1  0.088396  0.287036  0.110862  1
  La  La16  1  0.500000  0.500000  0.500000  1
  Y  Y17  1  0.000000  0.000000  0.000000  1
  Y  Y18  1  0.500000  0.500000  0.000000  1
  Mg  Mg19  1  0.000000  0.000000  0.500000  1
  Ir  Ir20  1  0.849951  0.150595  0.245939  1
  Ir  Ir21  1  0.849405  0.849951  0.754061  1
  Ir  Ir22  1  0.150595  0.150049  0.754061  1
  Ir  Ir23  1  0.150049  0.849405  0.245939  1
  Ir  Ir24  1  0.652633  0.348257  0.750858  1
  Ir  Ir25  1  0.651743  0.652633  0.249142  1
  Ir  Ir26  1  0.348257  0.347367  0.249142  1
  Ir  Ir27  1  0.347367  0.651743  0.750858  1
  Ir  Ir28  1  0.500000  0.000000  0.119895  1
  Ir  Ir29  1  0.500000  0.000000  0.617336  1
  Ir  Ir30  1  0.000000  0.500000  0.880105  1
  Ir  Ir31  1  0.000000  0.500000  0.382664  1
