# generated using pymatgen
data_Tb10Be3Si15Au2
_symmetry_space_group_name_H-M   'P 1'
_cell_length_a   4.05911001
_cell_length_b   4.05354814
_cell_length_c   34.67754742
_cell_angle_alpha   86.63823516
_cell_angle_beta   86.60328965
_cell_angle_gamma   90.00123345
_symmetry_Int_Tables_number   1
_chemical_formula_structural   Tb10Be3Si15Au2
_chemical_formula_sum   'Tb10 Be3 Si15 Au2'
_cell_volume   568.59134828
_cell_formula_units_Z   1
loop_
 _symmetry_equiv_pos_site_id
 _symmetry_equiv_pos_as_xyz
  1  'x, y, z'
loop_
 _atom_site_type_symbol
 _atom_site_label
 _atom_site_symmetry_multiplicity
 _atom_site_fract_x
 _atom_site_fract_y
 _atom_site_fract_z
 _atom_site_occupancy
  Tb  Tb0  1  0.948051  0.448074  0.103696  1
  Tb  Tb1  1  0.350653  0.850507  0.298717  1
  Tb  Tb2  1  0.753468  0.253525  0.493313  1
  Tb  Tb3  1  0.149029  0.649862  0.701019  1
  Tb  Tb4  1  0.545453  0.045755  0.908855  1
  Tb  Tb5  1  0.997652  0.997240  0.005393  1
  Tb  Tb6  1  0.399928  0.399693  0.200544  1
  Tb  Tb7  1  0.802224  0.802113  0.395844  1
  Tb  Tb8  1  0.205055  0.204607  0.590538  1
  Tb  Tb9  1  0.601183  0.600951  0.797423  1
  Be  Be10  1  0.465148  0.965297  0.069251  1
  Be  Be11  1  0.867582  0.367758  0.264584  1
  Be  Be12  1  0.270043  0.770428  0.459675  1
  Si  Si13  1  0.666871  0.167076  0.665493  1
  Si  Si14  1  0.062779  0.563783  0.872724  1
  Si  Si15  1  0.915747  0.915990  0.168086  1
  Si  Si16  1  0.318117  0.318619  0.363229  1
  Si  Si17  1  0.720281  0.721008  0.558898  1
  Si  Si18  1  0.116504  0.116361  0.766781  1
  Si  Si19  1  0.513149  0.513213  0.973504  1
  Si  Si20  1  0.433684  0.933326  0.132813  1
  Si  Si21  1  0.835942  0.335520  0.328072  1
  Si  Si22  1  0.238454  0.738187  0.523044  1
  Si  Si23  1  0.633768  0.134641  0.732169  1
  Si  Si24  1  0.030608  0.530427  0.939278  1
  Si  Si25  1  0.479871  0.479414  0.040838  1
  Si  Si26  1  0.882350  0.882054  0.235715  1
  Si  Si27  1  0.284909  0.284655  0.430858  1
  Au  Au28  1  0.685955  0.685339  0.628811  1
  Au  Au29  1  0.082744  0.081781  0.836437  1
