# generated using pymatgen
data_Ba6Al7GaO18
_symmetry_space_group_name_H-M   'P 1'
_cell_length_a   7.04150105
_cell_length_b   8.27614602
_cell_length_c   9.90170204
_cell_angle_alpha   85.00050905
_cell_angle_beta   73.34713074
_cell_angle_gamma   73.76816359
_symmetry_Int_Tables_number   1
_chemical_formula_structural   Ba6Al7GaO18
_chemical_formula_sum   'Ba6 Al7 Ga1 O18'
_cell_volume   530.78233374
_cell_formula_units_Z   1
loop_
 _symmetry_equiv_pos_site_id
 _symmetry_equiv_pos_as_xyz
  1  'x, y, z'
loop_
 _atom_site_type_symbol
 _atom_site_label
 _atom_site_symmetry_multiplicity
 _atom_site_fract_x
 _atom_site_fract_y
 _atom_site_fract_z
 _atom_site_occupancy
  Ba  Ba0  1  0.046815  0.055822  0.696380  1
  Ba  Ba1  1  0.174017  0.562286  0.655248  1
  Ba  Ba2  1  0.305449  0.217372  0.960742  1
  Ba  Ba3  1  0.694292  0.782651  0.037612  1
  Ba  Ba4  1  0.821649  0.438275  0.346206  1
  Ba  Ba5  1  0.952604  0.944078  0.303410  1
  Al  Al6  1  0.336207  0.558280  0.232427  1
  Al  Al7  1  0.740356  0.278657  0.064057  1
  Al  Al8  1  0.566778  0.177998  0.590711  1
  Al  Al9  1  0.434101  0.819343  0.412786  1
  Al  Al10  1  0.261859  0.722037  0.933859  1
  Al  Al11  1  0.663953  0.444112  0.767000  1
  Al  Al12  1  0.584369  0.815794  0.694775  1
  Ga  Ga13  1  0.414161  0.183056  0.306366  1
  O  O14  1  0.273073  0.022777  0.383350  1
  O  O15  1  0.224744  0.387771  0.290478  1
  O  O16  1  0.211621  0.701220  0.120003  1
  O  O17  1  0.581477  0.131637  0.117864  1
  O  O18  1  0.039175  0.790510  0.874285  1
  O  O19  1  0.309417  0.232612  0.692371  1
  O  O20  1  0.298975  0.676751  0.384339  1
  O  O21  1  0.595812  0.199745  0.406048  1
  O  O22  1  0.602298  0.479414  0.145780  1
  O  O23  1  0.396826  0.519110  0.854499  1
  O  O24  1  0.415328  0.799472  0.595832  1
  O  O25  1  0.703808  0.319766  0.618166  1
  O  O26  1  0.688630  0.769441  0.306252  1
  O  O27  1  0.961646  0.209389  0.125066  1
  O  O28  1  0.424238  0.864892  0.873702  1
  O  O29  1  0.793770  0.304128  0.878462  1
  O  O30  1  0.766256  0.619319  0.707598  1
  O  O31  1  0.716296  0.972284  0.624327  1
