# generated using pymatgen
data_Sc4ReSi3N
_symmetry_space_group_name_H-M   'P 1'
_cell_length_a   7.69360700
_cell_length_b   7.69360666
_cell_length_c   5.54796900
_cell_angle_alpha   90.00000000
_cell_angle_beta   90.00000000
_cell_angle_gamma   119.99999718
_symmetry_Int_Tables_number   1
_chemical_formula_structural   Sc4ReSi3N
_chemical_formula_sum   'Sc8 Re2 Si6 N2'
_cell_volume   284.39676152
_cell_formula_units_Z   2
loop_
 _symmetry_equiv_pos_site_id
 _symmetry_equiv_pos_as_xyz
  1  'x, y, z'
loop_
 _atom_site_type_symbol
 _atom_site_label
 _atom_site_symmetry_multiplicity
 _atom_site_fract_x
 _atom_site_fract_y
 _atom_site_fract_z
 _atom_site_occupancy
  Sc  Sc0  1  0.224802  0.000000  0.248652  1
  Sc  Sc1  1  0.775198  0.000000  0.751348  1
  Sc  Sc2  1  0.000000  0.224802  0.248652  1
  Sc  Sc3  1  0.000000  0.775198  0.751348  1
  Sc  Sc4  1  0.775198  0.775198  0.248652  1
  Sc  Sc5  1  0.224802  0.224802  0.751348  1
  Sc  Sc6  1  0.666667  0.333333  0.500000  1
  Sc  Sc7  1  0.333333  0.666667  0.500000  1
  Re  Re8  1  0.333333  0.666667  0.000000  1
  Re  Re9  1  0.666667  0.333333  0.000000  1
  Si  Si10  1  0.586583  0.000000  0.208659  1
  Si  Si11  1  0.413417  0.000000  0.791341  1
  Si  Si12  1  0.000000  0.586583  0.208659  1
  Si  Si13  1  0.000000  0.413417  0.791341  1
  Si  Si14  1  0.413417  0.413417  0.208659  1
  Si  Si15  1  0.586583  0.586583  0.791341  1
  N  N16  1  0.000000  0.000000  0.000000  1
  N  N17  1  0.000000  0.000000  0.500000  1
