# generated using pymatgen
data_AcEr6Sn23Ir6
_symmetry_space_group_name_H-M   'P 1'
_cell_length_a   9.88666000
_cell_length_b   9.88666074
_cell_length_c   10.13231100
_cell_angle_alpha   90.00000000
_cell_angle_beta   90.00000000
_cell_angle_gamma   120.00000420
_symmetry_Int_Tables_number   1
_chemical_formula_structural   AcEr6Sn23Ir6
_chemical_formula_sum   'Ac1 Er6 Sn23 Ir6'
_cell_volume   857.70581746
_cell_formula_units_Z   1
loop_
 _symmetry_equiv_pos_site_id
 _symmetry_equiv_pos_as_xyz
  1  'x, y, z'
loop_
 _atom_site_type_symbol
 _atom_site_label
 _atom_site_symmetry_multiplicity
 _atom_site_fract_x
 _atom_site_fract_y
 _atom_site_fract_z
 _atom_site_occupancy
  Ac  Ac0  1  0.000000  0.000000  0.000000  1
  Er  Er1  1  0.481248  0.518752  0.306804  1
  Er  Er2  1  0.518752  0.481248  0.693196  1
  Er  Er3  1  0.481248  0.962497  0.306804  1
  Er  Er4  1  0.518752  0.037503  0.693196  1
  Er  Er5  1  0.037503  0.518752  0.306804  1
  Er  Er6  1  0.962497  0.481248  0.693196  1
  Sn  Sn7  1  0.120464  0.879536  0.286568  1
  Sn  Sn8  1  0.879536  0.120464  0.713432  1
  Sn  Sn9  1  0.120464  0.240928  0.286568  1
  Sn  Sn10  1  0.879536  0.759072  0.713432  1
  Sn  Sn11  1  0.759072  0.879536  0.286568  1
  Sn  Sn12  1  0.240928  0.120464  0.713432  1
  Sn  Sn13  1  0.776912  0.223088  0.456583  1
  Sn  Sn14  1  0.223088  0.776912  0.543417  1
  Sn  Sn15  1  0.776912  0.553825  0.456583  1
  Sn  Sn16  1  0.223088  0.446175  0.543417  1
  Sn  Sn17  1  0.446175  0.223088  0.456583  1
  Sn  Sn18  1  0.553825  0.776912  0.543417  1
  Sn  Sn19  1  0.355041  0.000000  0.000000  1
  Sn  Sn20  1  0.644959  0.000000  0.000000  1
  Sn  Sn21  1  0.000000  0.355041  0.000000  1
  Sn  Sn22  1  0.000000  0.644959  0.000000  1
  Sn  Sn23  1  0.644959  0.644959  0.000000  1
  Sn  Sn24  1  0.355041  0.355041  0.000000  1
  Sn  Sn25  1  0.333333  0.666667  0.125234  1
  Sn  Sn26  1  0.666667  0.333333  0.874766  1
  Sn  Sn27  1  0.333333  0.666667  0.827313  1
  Sn  Sn28  1  0.666667  0.333333  0.172687  1
  Sn  Sn29  1  0.000000  0.000000  0.500000  1
  Ir  Ir30  1  0.830061  0.169939  0.199734  1
  Ir  Ir31  1  0.169939  0.830061  0.800266  1
  Ir  Ir32  1  0.830061  0.660124  0.199734  1
  Ir  Ir33  1  0.169939  0.339876  0.800266  1
  Ir  Ir34  1  0.339876  0.169939  0.199734  1
  Ir  Ir35  1  0.660124  0.830061  0.800266  1
