# generated using pymatgen
data_SrBi3Pt3RhO14
_symmetry_space_group_name_H-M   'P 1'
_cell_length_a   7.44806792
_cell_length_b   7.37731994
_cell_length_c   7.44806800
_cell_angle_alpha   59.68225701
_cell_angle_beta   59.99999963
_cell_angle_gamma   59.68225714
_symmetry_Int_Tables_number   1
_chemical_formula_structural   SrBi3Pt3RhO14
_chemical_formula_sum   'Sr1 Bi3 Pt3 Rh1 O14'
_cell_volume   287.98397378
_cell_formula_units_Z   1
loop_
 _symmetry_equiv_pos_site_id
 _symmetry_equiv_pos_as_xyz
  1  'x, y, z'
loop_
 _atom_site_type_symbol
 _atom_site_label
 _atom_site_symmetry_multiplicity
 _atom_site_fract_x
 _atom_site_fract_y
 _atom_site_fract_z
 _atom_site_occupancy
  Sr  Sr0  1  0.125000  0.625000  0.125000  1
  Bi  Bi1  1  0.125000  0.125000  0.125000  1
  Bi  Bi2  1  0.625000  0.125000  0.125000  1
  Bi  Bi3  1  0.125000  0.125000  0.625000  1
  Pt  Pt4  1  0.625000  0.625000  0.625000  1
  Pt  Pt5  1  0.625000  0.625000  0.125000  1
  Pt  Pt6  1  0.125000  0.625000  0.625000  1
  Rh  Rh7  1  0.625000  0.125000  0.625000  1
  O  O8  1  0.256254  0.231239  0.256254  1
  O  O9  1  0.292947  0.712033  0.292947  1
  O  O10  1  0.954284  0.957997  0.543860  1
  O  O11  1  0.543860  0.957997  0.543860  1
  O  O12  1  0.702074  0.712033  0.292947  1
  O  O13  1  0.957053  0.537967  0.547926  1
  O  O14  1  0.706140  0.292003  0.706140  1
  O  O15  1  0.295716  0.292003  0.706140  1
  O  O16  1  0.706140  0.292003  0.295716  1
  O  O17  1  0.292947  0.712033  0.702074  1
  O  O18  1  0.957053  0.537967  0.957053  1
  O  O19  1  0.547926  0.537967  0.957053  1
  O  O20  1  0.993746  0.018761  0.993746  1
  O  O21  1  0.543860  0.957997  0.954284  1
