# generated using pymatgen
data_Er2Tm4GaTcNi
_symmetry_space_group_name_H-M   'P 1'
_cell_length_a   8.25031921
_cell_length_b   8.25031907
_cell_length_c   8.25032064
_cell_angle_alpha   113.01778688
_cell_angle_beta   111.49855175
_cell_angle_gamma   104.03446660
_symmetry_Int_Tables_number   1
_chemical_formula_structural   Er2Tm4GaTcNi
_chemical_formula_sum   'Er4 Tm8 Ga2 Tc2 Ni2'
_cell_volume   429.33929010
_cell_formula_units_Z   2
loop_
 _symmetry_equiv_pos_site_id
 _symmetry_equiv_pos_as_xyz
  1  'x, y, z'
loop_
 _atom_site_type_symbol
 _atom_site_label
 _atom_site_symmetry_multiplicity
 _atom_site_fract_x
 _atom_site_fract_y
 _atom_site_fract_z
 _atom_site_occupancy
  Er  Er0  1  0.180199  0.217690  0.397891  1
  Er  Er1  1  0.819801  0.217690  0.037492  1
  Er  Er2  1  0.180199  0.782310  0.962508  1
  Er  Er3  1  0.819801  0.782310  0.602109  1
  Tm  Tm4  1  0.053727  0.744039  0.309688  1
  Tm  Tm5  1  0.946273  0.255961  0.690312  1
  Tm  Tm6  1  0.565652  0.255961  0.309688  1
  Tm  Tm7  1  0.434348  0.744039  0.690312  1
  Tm  Tm8  1  0.667092  0.851107  0.184014  1
  Tm  Tm9  1  0.332908  0.516923  0.184014  1
  Tm  Tm10  1  0.332908  0.148893  0.815986  1
  Tm  Tm11  1  0.667092  0.483077  0.815986  1
  Ga  Ga12  1  0.000000  0.500000  0.500000  1
  Ga  Ga13  1  0.500000  0.000000  0.500000  1
  Tc  Tc14  1  0.680714  0.500000  0.180714  1
  Tc  Tc15  1  0.319286  0.500000  0.819286  1
  Ni  Ni16  1  0.881348  0.881348  0.000000  1
  Ni  Ni17  1  0.118652  0.118652  0.000000  1
