# generated using pymatgen
data_Nd12Si7Ni4Ge
_symmetry_space_group_name_H-M   'P 1'
_cell_length_a   4.23768300
_cell_length_b   11.74234191
_cell_length_c   11.67536817
_cell_angle_alpha   89.91746304
_cell_angle_beta   90.00000000
_cell_angle_gamma   90.00000000
_symmetry_Int_Tables_number   1
_chemical_formula_structural   Nd12Si7Ni4Ge
_chemical_formula_sum   'Nd12 Si7 Ni4 Ge1'
_cell_volume   580.96948473
_cell_formula_units_Z   1
loop_
 _symmetry_equiv_pos_site_id
 _symmetry_equiv_pos_as_xyz
  1  'x, y, z'
loop_
 _atom_site_type_symbol
 _atom_site_label
 _atom_site_symmetry_multiplicity
 _atom_site_fract_x
 _atom_site_fract_y
 _atom_site_fract_z
 _atom_site_occupancy
  Nd  Nd0  1  0.250000  0.375242  0.061379  1
  Nd  Nd1  1  0.750000  0.625936  0.942599  1
  Nd  Nd2  1  0.750000  0.875846  0.439601  1
  Nd  Nd3  1  0.250000  0.123295  0.560043  1
  Nd  Nd4  1  0.250000  0.696922  0.211887  1
  Nd  Nd5  1  0.750000  0.302580  0.787530  1
  Nd  Nd6  1  0.750000  0.195912  0.288159  1
  Nd  Nd7  1  0.250000  0.803765  0.711409  1
  Nd  Nd8  1  0.250000  0.440895  0.383376  1
  Nd  Nd9  1  0.750000  0.558081  0.614277  1
  Nd  Nd10  1  0.750000  0.941195  0.116273  1
  Nd  Nd11  1  0.250000  0.059245  0.883874  1
  Si  Si12  1  0.250000  0.686334  0.470106  1
  Si  Si13  1  0.750000  0.313014  0.529253  1
  Si  Si14  1  0.750000  0.186502  0.029621  1
  Si  Si15  1  0.250000  0.814364  0.970185  1
  Si  Si16  1  0.250000  0.008813  0.300170  1
  Si  Si17  1  0.750000  0.991018  0.699927  1
  Si  Si18  1  0.750000  0.509753  0.199627  1
  Ni  Ni19  1  0.250000  0.134060  0.129101  1
  Ni  Ni20  1  0.750000  0.866166  0.871267  1
  Ni  Ni21  1  0.750000  0.634482  0.370734  1
  Ni  Ni22  1  0.250000  0.363195  0.626267  1
  Ge  Ge23  1  0.250000  0.493384  0.803336  1
