# generated using pymatgen
data_TbScB6Mo
_symmetry_space_group_name_H-M   'P 1'
_cell_length_a   3.53275800
_cell_length_b   9.17365700
_cell_length_c   11.56984500
_cell_angle_alpha   90.00000000
_cell_angle_beta   90.00000000
_cell_angle_gamma   90.00000000
_symmetry_Int_Tables_number   1
_chemical_formula_structural   TbScB6Mo
_chemical_formula_sum   'Tb4 Sc4 B24 Mo4'
_cell_volume   374.95912522
_cell_formula_units_Z   4
loop_
 _symmetry_equiv_pos_site_id
 _symmetry_equiv_pos_as_xyz
  1  'x, y, z'
loop_
 _atom_site_type_symbol
 _atom_site_label
 _atom_site_symmetry_multiplicity
 _atom_site_fract_x
 _atom_site_fract_y
 _atom_site_fract_z
 _atom_site_occupancy
  Tb  Tb0  1  0.500000  0.320803  0.414263  1
  Tb  Tb1  1  0.500000  0.679197  0.585737  1
  Tb  Tb2  1  0.500000  0.179197  0.914263  1
  Tb  Tb3  1  0.500000  0.820803  0.085737  1
  Sc  Sc4  1  0.500000  0.445115  0.128222  1
  Sc  Sc5  1  0.500000  0.554885  0.871778  1
  Sc  Sc6  1  0.500000  0.054885  0.628222  1
  Sc  Sc7  1  0.500000  0.945115  0.371778  1
  B  B8  1  0.000000  0.094906  0.473960  1
  B  B9  1  0.000000  0.905094  0.526040  1
  B  B10  1  0.000000  0.405094  0.973960  1
  B  B11  1  0.000000  0.594906  0.026040  1
  B  B12  1  0.000000  0.129111  0.319333  1
  B  B13  1  0.000000  0.870889  0.680667  1
  B  B14  1  0.000000  0.370889  0.819333  1
  B  B15  1  0.000000  0.629111  0.180667  1
  B  B16  1  0.000000  0.052770  0.066137  1
  B  B17  1  0.000000  0.947230  0.933863  1
  B  B18  1  0.000000  0.447230  0.566137  1
  B  B19  1  0.000000  0.552770  0.433863  1
  B  B20  1  0.000000  0.479343  0.284933  1
  B  B21  1  0.000000  0.520657  0.715067  1
  B  B22  1  0.000000  0.020657  0.784933  1
  B  B23  1  0.000000  0.979343  0.215067  1
  B  B24  1  0.000000  0.256996  0.079685  1
  B  B25  1  0.000000  0.743004  0.920315  1
  B  B26  1  0.000000  0.243004  0.579685  1
  B  B27  1  0.000000  0.756996  0.420315  1
  B  B28  1  0.000000  0.298009  0.235677  1
  B  B29  1  0.000000  0.701991  0.764323  1
  B  B30  1  0.000000  0.201991  0.735677  1
  B  B31  1  0.000000  0.798009  0.264323  1
  Mo  Mo32  1  0.500000  0.141985  0.181681  1
  Mo  Mo33  1  0.500000  0.858015  0.818319  1
  Mo  Mo34  1  0.500000  0.358015  0.681681  1
  Mo  Mo35  1  0.500000  0.641985  0.318319  1
