# generated using pymatgen
data_Zr18TiCo2Re7
_symmetry_space_group_name_H-M   'P 1'
_cell_length_a   8.69310700
_cell_length_b   8.69310632
_cell_length_c   8.51050300
_cell_angle_alpha   90.00000000
_cell_angle_beta   90.00000000
_cell_angle_gamma   119.99999879
_symmetry_Int_Tables_number   1
_chemical_formula_structural   Zr18TiCo2Re7
_chemical_formula_sum   'Zr18 Ti1 Co2 Re7'
_cell_volume   556.97523119
_cell_formula_units_Z   1
loop_
 _symmetry_equiv_pos_site_id
 _symmetry_equiv_pos_as_xyz
  1  'x, y, z'
loop_
 _atom_site_type_symbol
 _atom_site_label
 _atom_site_symmetry_multiplicity
 _atom_site_fract_x
 _atom_site_fract_y
 _atom_site_fract_z
 _atom_site_occupancy
  Zr  Zr0  1  0.542548  0.085096  0.248935  1
  Zr  Zr1  1  0.457452  0.914904  0.751065  1
  Zr  Zr2  1  0.914904  0.457452  0.248935  1
  Zr  Zr3  1  0.542548  0.457452  0.248935  1
  Zr  Zr4  1  0.457452  0.542548  0.751065  1
  Zr  Zr5  1  0.085096  0.542548  0.751065  1
  Zr  Zr6  1  0.199396  0.398792  0.059865  1
  Zr  Zr7  1  0.800679  0.601360  0.557627  1
  Zr  Zr8  1  0.601208  0.800604  0.059865  1
  Zr  Zr9  1  0.199396  0.800604  0.059865  1
  Zr  Zr10  1  0.800679  0.199321  0.557627  1
  Zr  Zr11  1  0.398640  0.199321  0.557627  1
  Zr  Zr12  1  0.800604  0.601208  0.940135  1
  Zr  Zr13  1  0.800604  0.199396  0.940135  1
  Zr  Zr14  1  0.398792  0.199396  0.940135  1
  Zr  Zr15  1  0.601360  0.800679  0.442373  1
  Zr  Zr16  1  0.199321  0.800679  0.442373  1
  Zr  Zr17  1  0.199321  0.398640  0.442373  1
  Ti  Ti18  1  0.000000  0.000000  0.500000  1
  Co  Co19  1  0.333333  0.666667  0.248968  1
  Co  Co20  1  0.666667  0.333333  0.751032  1
  Re  Re21  1  0.000000  0.000000  0.000000  1
  Re  Re22  1  0.890453  0.780905  0.250603  1
  Re  Re23  1  0.109547  0.219095  0.749397  1
  Re  Re24  1  0.219095  0.109547  0.250603  1
  Re  Re25  1  0.890453  0.109547  0.250603  1
  Re  Re26  1  0.109547  0.890453  0.749397  1
  Re  Re27  1  0.780905  0.890453  0.749397  1
