# generated using pymatgen
data_La2Ho3Er3(WO6)4
_symmetry_space_group_name_H-M   'P 1'
_cell_length_a   5.45251507
_cell_length_b   7.76964098
_cell_length_c   11.55309020
_cell_angle_alpha   75.63463356
_cell_angle_beta   90.00119359
_cell_angle_gamma   90.01742788
_symmetry_Int_Tables_number   1
_chemical_formula_structural   La2Ho3Er3(WO6)4
_chemical_formula_sum   'La2 Ho3 Er3 W4 O24'
_cell_volume   474.13302001
_cell_formula_units_Z   1
loop_
 _symmetry_equiv_pos_site_id
 _symmetry_equiv_pos_as_xyz
  1  'x, y, z'
loop_
 _atom_site_type_symbol
 _atom_site_label
 _atom_site_symmetry_multiplicity
 _atom_site_fract_x
 _atom_site_fract_y
 _atom_site_fract_z
 _atom_site_occupancy
  La  La0  1  0.686855  0.500074  0.750040  1
  La  La1  1  0.313062  0.500195  0.249803  1
  Ho  Ho2  1  0.740950  0.999892  0.750199  1
  Ho  Ho3  1  0.258969  0.999890  0.249748  1
  Ho  Ho4  1  0.811659  0.199982  0.423615  1
  Er  Er5  1  0.188195  0.799584  0.576676  1
  Er  Er6  1  0.811993  0.799786  0.076593  1
  Er  Er7  1  0.188005  0.200202  0.923445  1
  W  W8  1  0.251823  0.728857  0.884423  1
  W  W9  1  0.748207  0.728959  0.384422  1
  W  W10  1  0.251729  0.271227  0.615781  1
  W  W11  1  0.748044  0.271220  0.115408  1
  O  O12  1  0.039023  0.942755  0.896074  1
  O  O13  1  0.531556  0.846523  0.931448  1
  O  O14  1  0.961968  0.942054  0.396005  1
  O  O15  1  0.454263  0.796607  0.727148  1
  O  O16  1  0.468823  0.846857  0.431432  1
  O  O17  1  0.988034  0.722380  0.768361  1
  O  O18  1  0.545839  0.796776  0.227076  1
  O  O19  1  0.861593  0.643915  0.544542  1
  O  O20  1  0.345703  0.493863  0.888719  1
  O  O21  1  0.011836  0.722198  0.268197  1
  O  O22  1  0.345890  0.506317  0.611495  1
  O  O23  1  0.861693  0.356051  0.955379  1
  O  O24  1  0.138292  0.644032  0.044488  1
  O  O25  1  0.653645  0.494239  0.388669  1
  O  O26  1  0.987816  0.277635  0.731705  1
  O  O27  1  0.654319  0.506219  0.111247  1
  O  O28  1  0.139434  0.356403  0.455610  1
  O  O29  1  0.454167  0.203507  0.773059  1
  O  O30  1  0.012195  0.277729  0.231218  1
  O  O31  1  0.530729  0.152941  0.569194  1
  O  O32  1  0.545072  0.203529  0.272353  1
  O  O33  1  0.039213  0.057067  0.604239  1
  O  O34  1  0.468517  0.153349  0.068292  1
  O  O35  1  0.960887  0.057184  0.103895  1
