# generated using pymatgen
data_Zr19Si16Ru
_symmetry_space_group_name_H-M   'P 1'
_cell_length_a   7.12955707
_cell_length_b   7.12955707
_cell_length_c   12.99249211
_cell_angle_alpha   89.78442498
_cell_angle_beta   90.21557511
_cell_angle_gamma   90.00991760
_symmetry_Int_Tables_number   1
_chemical_formula_structural   Zr19Si16Ru
_chemical_formula_sum   'Zr19 Si16 Ru1'
_cell_volume   660.40660441
_cell_formula_units_Z   1
loop_
 _symmetry_equiv_pos_site_id
 _symmetry_equiv_pos_as_xyz
  1  'x, y, z'
loop_
 _atom_site_type_symbol
 _atom_site_label
 _atom_site_symmetry_multiplicity
 _atom_site_fract_x
 _atom_site_fract_y
 _atom_site_fract_z
 _atom_site_occupancy
  Zr  Zr0  1  0.356714  0.502576  0.380005  1
  Zr  Zr1  1  0.856838  0.999567  0.373114  1
  Zr  Zr2  1  0.001910  0.145049  0.127951  1
  Zr  Zr3  1  0.999567  0.856838  0.626886  1
  Zr  Zr4  1  0.644024  0.499970  0.873916  1
  Zr  Zr5  1  0.502576  0.356714  0.619995  1
  Zr  Zr6  1  0.499970  0.644024  0.126084  1
  Zr  Zr7  1  0.145049  0.001910  0.872049  1
  Zr  Zr8  1  0.997899  0.649693  0.035925  1
  Zr  Zr9  1  0.001827  0.348044  0.533950  1
  Zr  Zr10  1  0.649693  0.997899  0.964075  1
  Zr  Zr11  1  0.149751  0.502808  0.782549  1
  Zr  Zr12  1  0.849836  0.497868  0.285262  1
  Zr  Zr13  1  0.502808  0.149751  0.217451  1
  Zr  Zr14  1  0.497868  0.849836  0.714738  1
  Zr  Zr15  1  0.348044  0.001827  0.466050  1
  Zr  Zr16  1  0.822648  0.176757  0.746564  1
  Zr  Zr17  1  0.176757  0.822648  0.253436  1
  Zr  Zr18  1  0.324361  0.324361  0.000000  1
  Si  Si19  1  0.041788  0.697391  0.440272  1
  Si  Si20  1  0.947362  0.300897  0.936649  1
  Si  Si21  1  0.697391  0.041788  0.559728  1
  Si  Si22  1  0.199664  0.449015  0.188648  1
  Si  Si23  1  0.794695  0.558509  0.680973  1
  Si  Si24  1  0.449015  0.199664  0.811352  1
  Si  Si25  1  0.558509  0.794695  0.319027  1
  Si  Si26  1  0.300897  0.947362  0.063351  1
  Si  Si27  1  0.852247  0.794634  0.821181  1
  Si  Si28  1  0.149533  0.205532  0.323163  1
  Si  Si29  1  0.794634  0.852247  0.178819  1
  Si  Si30  1  0.294505  0.647258  0.572598  1
  Si  Si31  1  0.705560  0.353379  0.072594  1
  Si  Si32  1  0.647258  0.294505  0.427402  1
  Si  Si33  1  0.353379  0.705560  0.927406  1
  Si  Si34  1  0.205532  0.149533  0.676837  1
  Ru  Ru35  1  0.679891  0.679891  0.500000  1
