# generated using pymatgen
data_Ti17Mn(Si6Mo)2
_symmetry_space_group_name_H-M   'P 1'
_cell_length_a   7.38126285
_cell_length_b   7.38126176
_cell_length_c   13.90659500
_cell_angle_alpha   90.00000000
_cell_angle_beta   90.00000000
_cell_angle_gamma   140.87387686
_symmetry_Int_Tables_number   1
_chemical_formula_structural   Ti17Mn(Si6Mo)2
_chemical_formula_sum   'Ti17 Mn1 Si12 Mo2'
_cell_volume   478.11436715
_cell_formula_units_Z   1
loop_
 _symmetry_equiv_pos_site_id
 _symmetry_equiv_pos_as_xyz
  1  'x, y, z'
loop_
 _atom_site_type_symbol
 _atom_site_label
 _atom_site_symmetry_multiplicity
 _atom_site_fract_x
 _atom_site_fract_y
 _atom_site_fract_z
 _atom_site_occupancy
  Ti  Ti0  1  0.070661  0.430025  0.399068  1
  Ti  Ti1  1  0.567792  0.926874  0.900199  1
  Ti  Ti2  1  0.430025  0.070661  0.600932  1
  Ti  Ti3  1  0.926874  0.567792  0.099801  1
  Ti  Ti4  1  0.849815  0.649482  0.681849  1
  Ti  Ti5  1  0.353091  0.152052  0.177865  1
  Ti  Ti6  1  0.649482  0.849815  0.318151  1
  Ti  Ti7  1  0.152052  0.353091  0.822135  1
  Ti  Ti8  1  0.649482  0.849815  0.681849  1
  Ti  Ti9  1  0.152052  0.353091  0.177865  1
  Ti  Ti10  1  0.849815  0.649482  0.318151  1
  Ti  Ti11  1  0.353091  0.152052  0.822135  1
  Ti  Ti12  1  0.430025  0.070661  0.399068  1
  Ti  Ti13  1  0.926874  0.567792  0.900199  1
  Ti  Ti14  1  0.070661  0.430025  0.600932  1
  Ti  Ti15  1  0.567792  0.926874  0.099801  1
  Ti  Ti16  1  0.000316  0.000316  0.500000  1
  Mn  Mn17  1  0.001737  0.001737  0.000000  1
  Si  Si18  1  0.249756  0.750178  0.751037  1
  Si  Si19  1  0.750178  0.249756  0.248963  1
  Si  Si20  1  0.750178  0.249756  0.751037  1
  Si  Si21  1  0.249756  0.750178  0.248963  1
  Si  Si22  1  0.252300  0.252300  0.661982  1
  Si  Si23  1  0.760737  0.760737  0.155373  1
  Si  Si24  1  0.252300  0.252300  0.338018  1
  Si  Si25  1  0.760737  0.760737  0.844627  1
  Si  Si26  1  0.587517  0.908857  0.500000  1
  Si  Si27  1  0.081846  0.396842  0.000000  1
  Si  Si28  1  0.908857  0.587517  0.500000  1
  Si  Si29  1  0.396842  0.081846  0.000000  1
  Mo  Mo30  1  0.497817  0.497817  0.000000  1
  Mo  Mo31  1  0.499540  0.499540  0.500000  1
