# generated using pymatgen
data_Y6Sn6Ir5Pt
_symmetry_space_group_name_H-M   'P 1'
_cell_length_a   7.53448700
_cell_length_b   7.53448799
_cell_length_c   7.91679000
_cell_angle_alpha   90.00000000
_cell_angle_beta   90.00000000
_cell_angle_gamma   120.00000005
_symmetry_Int_Tables_number   1
_chemical_formula_structural   Y6Sn6Ir5Pt
_chemical_formula_sum   'Y6 Sn6 Ir5 Pt1'
_cell_volume   389.21286711
_cell_formula_units_Z   1
loop_
 _symmetry_equiv_pos_site_id
 _symmetry_equiv_pos_as_xyz
  1  'x, y, z'
loop_
 _atom_site_type_symbol
 _atom_site_label
 _atom_site_symmetry_multiplicity
 _atom_site_fract_x
 _atom_site_fract_y
 _atom_site_fract_z
 _atom_site_occupancy
  Y  Y0  1  0.403176  0.997785  0.247638  1
  Y  Y1  1  0.594609  0.596824  0.247638  1
  Y  Y2  1  0.002215  0.405391  0.247638  1
  Y  Y3  1  0.401902  0.995257  0.752441  1
  Y  Y4  1  0.593355  0.598098  0.752441  1
  Y  Y5  1  0.004743  0.406645  0.752441  1
  Sn  Sn6  1  0.260021  0.258218  0.999868  1
  Sn  Sn7  1  0.998196  0.739979  0.999868  1
  Sn  Sn8  1  0.003611  0.743408  0.499925  1
  Sn  Sn9  1  0.739795  0.996389  0.499925  1
  Sn  Sn10  1  0.256592  0.260205  0.499925  1
  Sn  Sn11  1  0.741782  0.001804  0.999868  1
  Ir  Ir12  1  0.000000  0.000000  0.749691  1
  Ir  Ir13  1  0.000000  0.000000  0.250158  1
  Ir  Ir14  1  0.666667  0.333333  0.998187  1
  Ir  Ir15  1  0.333333  0.666667  0.498007  1
  Ir  Ir16  1  0.333333  0.666667  0.001831  1
  Pt  Pt17  1  0.666667  0.333333  0.502510  1
