# generated using pymatgen
data_Ta3MnAl2N
_symmetry_space_group_name_H-M   'P 1'
_cell_length_a   8.18081285
_cell_length_b   8.18081361
_cell_length_c   8.18081300
_cell_angle_alpha   60.00000651
_cell_angle_beta   60.00000345
_cell_angle_gamma   60.00000769
_symmetry_Int_Tables_number   1
_chemical_formula_structural   Ta3MnAl2N
_chemical_formula_sum   'Ta12 Mn4 Al8 N4'
_cell_volume   387.14573672
_cell_formula_units_Z   4
loop_
 _symmetry_equiv_pos_site_id
 _symmetry_equiv_pos_as_xyz
  1  'x, y, z'
loop_
 _atom_site_type_symbol
 _atom_site_label
 _atom_site_symmetry_multiplicity
 _atom_site_fract_x
 _atom_site_fract_y
 _atom_site_fract_z
 _atom_site_occupancy
  Ta  Ta0  1  0.553931  0.946069  0.553931  1
  Ta  Ta1  1  0.303931  0.696069  0.696069  1
  Ta  Ta2  1  0.696069  0.303931  0.303931  1
  Ta  Ta3  1  0.303931  0.696069  0.303931  1
  Ta  Ta4  1  0.696069  0.696069  0.303931  1
  Ta  Ta5  1  0.303931  0.303931  0.696069  1
  Ta  Ta6  1  0.553931  0.553931  0.946069  1
  Ta  Ta7  1  0.946069  0.553931  0.553931  1
  Ta  Ta8  1  0.553931  0.946069  0.946069  1
  Ta  Ta9  1  0.946069  0.946069  0.553931  1
  Ta  Ta10  1  0.696069  0.303931  0.696069  1
  Ta  Ta11  1  0.946069  0.553931  0.946069  1
  Mn  Mn12  1  0.125000  0.125000  0.125000  1
  Mn  Mn13  1  0.625000  0.125000  0.125000  1
  Mn  Mn14  1  0.125000  0.625000  0.125000  1
  Mn  Mn15  1  0.125000  0.125000  0.625000  1
  Al  Al16  1  0.917557  0.917557  0.917557  1
  Al  Al17  1  0.002669  0.332443  0.332443  1
  Al  Al18  1  0.332443  0.002669  0.332443  1
  Al  Al19  1  0.332443  0.332443  0.002669  1
  Al  Al20  1  0.917557  0.247331  0.917557  1
  Al  Al21  1  0.917557  0.917557  0.247331  1
  Al  Al22  1  0.247331  0.917557  0.917557  1
  Al  Al23  1  0.332443  0.332443  0.332443  1
  N  N24  1  0.625000  0.625000  0.625000  1
  N  N25  1  0.125000  0.625000  0.625000  1
  N  N26  1  0.625000  0.125000  0.625000  1
  N  N27  1  0.625000  0.625000  0.125000  1
