# generated using pymatgen
data_Zr10CuBi4PPb2
_symmetry_space_group_name_H-M   'P 1'
_cell_length_a   8.79987345
_cell_length_b   8.79987400
_cell_length_c   5.95056523
_cell_angle_alpha   90.01598936
_cell_angle_beta   90.01598217
_cell_angle_gamma   119.93630356
_symmetry_Int_Tables_number   1
_chemical_formula_structural   Zr10CuBi4PPb2
_chemical_formula_sum   'Zr10 Cu1 Bi4 P1 Pb2'
_cell_volume   399.31907645
_cell_formula_units_Z   1
loop_
 _symmetry_equiv_pos_site_id
 _symmetry_equiv_pos_as_xyz
  1  'x, y, z'
loop_
 _atom_site_type_symbol
 _atom_site_label
 _atom_site_symmetry_multiplicity
 _atom_site_fract_x
 _atom_site_fract_y
 _atom_site_fract_z
 _atom_site_occupancy
  Zr  Zr0  1  0.667015  0.332913  0.501513  1
  Zr  Zr1  1  0.332913  0.667015  0.501513  1
  Zr  Zr2  1  0.333655  0.667027  0.998920  1
  Zr  Zr3  1  0.667027  0.333655  0.998920  1
  Zr  Zr4  1  0.746715  0.746715  0.261537  1
  Zr  Zr5  1  0.252332  0.999761  0.260872  1
  Zr  Zr6  1  0.999761  0.252332  0.260872  1
  Zr  Zr7  1  0.253688  0.253688  0.738421  1
  Zr  Zr8  1  0.746445  0.000999  0.738684  1
  Zr  Zr9  1  0.000999  0.746445  0.738684  1
  Cu  Cu10  1  0.000217  0.000217  0.999120  1
  Bi  Bi11  1  0.392084  0.392084  0.246117  1
  Bi  Bi12  1  0.606555  0.000756  0.245364  1
  Bi  Bi13  1  0.000756  0.606555  0.245364  1
  Bi  Bi14  1  0.608407  0.608407  0.754503  1
  P  P15  1  0.999905  0.999905  0.501113  1
  Pb  Pb16  1  0.391289  0.000238  0.754242  1
  Pb  Pb17  1  0.000238  0.391289  0.754242  1
