# generated using pymatgen
data_TbPuC3
_symmetry_space_group_name_H-M   'P 1'
_cell_length_a   7.14305726
_cell_length_b   7.14305632
_cell_length_c   7.14305700
_cell_angle_alpha   109.47122255
_cell_angle_beta   109.47121990
_cell_angle_gamma   109.47122001
_symmetry_Int_Tables_number   1
_chemical_formula_structural   TbPuC3
_chemical_formula_sum   'Tb4 Pu4 C12'
_cell_volume   280.56302032
_cell_formula_units_Z   4
loop_
 _symmetry_equiv_pos_site_id
 _symmetry_equiv_pos_as_xyz
  1  'x, y, z'
loop_
 _atom_site_type_symbol
 _atom_site_label
 _atom_site_symmetry_multiplicity
 _atom_site_fract_x
 _atom_site_fract_y
 _atom_site_fract_z
 _atom_site_occupancy
  Tb  Tb0  1  0.100000  0.500000  0.000000  1
  Tb  Tb1  1  0.400000  0.400000  0.400000  1
  Tb  Tb2  1  0.000000  0.100000  0.500000  1
  Tb  Tb3  1  0.500000  0.000000  0.100000  1
  Pu  Pu4  1  0.893966  0.893966  0.893966  1
  Pu  Pu5  1  0.606034  0.500000  0.000000  1
  Pu  Pu6  1  0.000000  0.606034  0.500000  1
  Pu  Pu7  1  0.500000  0.000000  0.606034  1
  C  C8  1  0.750000  0.457139  0.707139  1
  C  C9  1  0.250000  0.042861  0.792861  1
  C  C10  1  0.250000  0.206540  0.956540  1
  C  C11  1  0.750000  0.293460  0.543460  1
  C  C12  1  0.042861  0.792861  0.250000  1
  C  C13  1  0.457139  0.707139  0.750000  1
  C  C14  1  0.293460  0.543460  0.750000  1
  C  C15  1  0.206540  0.956540  0.250000  1
  C  C16  1  0.707139  0.750000  0.457139  1
  C  C17  1  0.792861  0.250000  0.042861  1
  C  C18  1  0.956540  0.250000  0.206540  1
  C  C19  1  0.543460  0.750000  0.293460  1
