# generated using pymatgen
data_Er6RuAu7
_symmetry_space_group_name_H-M   'P 1'
_cell_length_a   7.97048045
_cell_length_b   7.97048150
_cell_length_c   7.97048228
_cell_angle_alpha   114.11967683
_cell_angle_beta   114.11968113
_cell_angle_gamma   114.11965405
_symmetry_Int_Tables_number   1
_chemical_formula_structural   Er6RuAu7
_chemical_formula_sum   'Er6 Ru1 Au7'
_cell_volume   304.88692430
_cell_formula_units_Z   1
loop_
 _symmetry_equiv_pos_site_id
 _symmetry_equiv_pos_as_xyz
  1  'x, y, z'
loop_
 _atom_site_type_symbol
 _atom_site_label
 _atom_site_symmetry_multiplicity
 _atom_site_fract_x
 _atom_site_fract_y
 _atom_site_fract_z
 _atom_site_occupancy
  Er  Er0  1  0.007422  0.377948  0.258368  1
  Er  Er1  1  0.377948  0.258368  0.007422  1
  Er  Er2  1  0.741632  0.992578  0.622052  1
  Er  Er3  1  0.258368  0.007422  0.377948  1
  Er  Er4  1  0.622052  0.741632  0.992578  1
  Er  Er5  1  0.992578  0.622052  0.741632  1
  Ru  Ru6  1  0.000000  0.000000  0.000000  1
  Au  Au7  1  0.500000  0.500000  0.500000  1
  Au  Au8  1  0.431053  0.921290  0.760062  1
  Au  Au9  1  0.921290  0.760062  0.431053  1
  Au  Au10  1  0.239938  0.568947  0.078710  1
  Au  Au11  1  0.760062  0.431053  0.921290  1
  Au  Au12  1  0.078710  0.239938  0.568947  1
  Au  Au13  1  0.568947  0.078710  0.239938  1
