# generated using pymatgen
data_Tb3ErMg2Ir3
_symmetry_space_group_name_H-M   'P 1'
_cell_length_a   7.45003679
_cell_length_b   7.47470333
_cell_length_c   4.10138700
_cell_angle_alpha   90.00000000
_cell_angle_beta   90.00000000
_cell_angle_gamma   120.10958434
_symmetry_Int_Tables_number   1
_chemical_formula_structural   Tb3ErMg2Ir3
_chemical_formula_sum   'Tb3 Er1 Mg2 Ir3'
_cell_volume   197.57551968
_cell_formula_units_Z   1
loop_
 _symmetry_equiv_pos_site_id
 _symmetry_equiv_pos_as_xyz
  1  'x, y, z'
loop_
 _atom_site_type_symbol
 _atom_site_label
 _atom_site_symmetry_multiplicity
 _atom_site_fract_x
 _atom_site_fract_y
 _atom_site_fract_z
 _atom_site_occupancy
  Tb  Tb0  1  0.430556  0.412154  0.000000  1
  Tb  Tb1  1  0.569444  0.981598  0.000000  1
  Tb  Tb2  1  0.000000  0.609835  0.000000  1
  Er  Er3  1  0.000000  0.247774  0.500000  1
  Mg  Mg4  1  0.748500  0.751757  0.500000  1
  Mg  Mg5  1  0.251500  0.003256  0.500000  1
  Ir  Ir6  1  0.000000  0.999049  0.000000  1
  Ir  Ir7  1  0.328936  0.661757  0.500000  1
  Ir  Ir8  1  0.671064  0.332820  0.500000  1
