# generated using pymatgen
data_Ho4Lu8Co4CuPb
_symmetry_space_group_name_H-M   'P 1'
_cell_length_a   8.19026662
_cell_length_b   8.19004302
_cell_length_c   8.19026725
_cell_angle_alpha   111.52032219
_cell_angle_beta   110.34716244
_cell_angle_gamma   106.58747774
_symmetry_Int_Tables_number   1
_chemical_formula_structural   Ho4Lu8Co4CuPb
_chemical_formula_sum   'Ho4 Lu8 Co4 Cu1 Pb1'
_cell_volume   422.07122400
_cell_formula_units_Z   1
loop_
 _symmetry_equiv_pos_site_id
 _symmetry_equiv_pos_as_xyz
  1  'x, y, z'
loop_
 _atom_site_type_symbol
 _atom_site_label
 _atom_site_symmetry_multiplicity
 _atom_site_fract_x
 _atom_site_fract_y
 _atom_site_fract_z
 _atom_site_occupancy
  Ho  Ho0  1  0.418845  0.217252  0.201587  1
  Ho  Ho1  1  0.581155  0.782748  0.798413  1
  Ho  Ho2  1  0.015665  0.217252  0.798407  1
  Ho  Ho3  1  0.984335  0.782748  0.201593  1
  Lu  Lu4  1  0.315037  0.621888  0.306851  1
  Lu  Lu5  1  0.684963  0.378112  0.693149  1
  Lu  Lu6  1  0.315029  0.008179  0.693153  1
  Lu  Lu7  1  0.684971  0.991821  0.306847  1
  Lu  Lu8  1  0.183336  0.289394  0.472742  1
  Lu  Lu9  1  0.816664  0.710606  0.527258  1
  Lu  Lu10  1  0.183347  0.710606  0.893940  1
  Lu  Lu11  1  0.816653  0.289394  0.106060  1
  Co  Co12  1  0.113550  0.613500  0.499950  1
  Co  Co13  1  0.886450  0.386500  0.500050  1
  Co  Co14  1  0.376560  0.000000  0.376560  1
  Co  Co15  1  0.623440  0.000000  0.623440  1
  Cu  Cu16  1  0.000000  0.000000  0.000000  1
  Pb  Pb17  1  0.500000  0.500000  0.000000  1
