# generated using pymatgen
data_Na6Cd32Pd
_symmetry_space_group_name_H-M   'P 1'
_cell_length_a   9.74018900
_cell_length_b   9.74018900
_cell_length_c   9.74018900
_cell_angle_alpha   90.00000000
_cell_angle_beta   90.00000000
_cell_angle_gamma   90.00000000
_symmetry_Int_Tables_number   1
_chemical_formula_structural   Na6Cd32Pd
_chemical_formula_sum   'Na6 Cd32 Pd1'
_cell_volume   924.06421497
_cell_formula_units_Z   1
loop_
 _symmetry_equiv_pos_site_id
 _symmetry_equiv_pos_as_xyz
  1  'x, y, z'
loop_
 _atom_site_type_symbol
 _atom_site_label
 _atom_site_symmetry_multiplicity
 _atom_site_fract_x
 _atom_site_fract_y
 _atom_site_fract_z
 _atom_site_occupancy
  Na  Na0  1  0.200626  0.000000  0.500000  1
  Na  Na1  1  0.799374  0.000000  0.500000  1
  Na  Na2  1  0.500000  0.200626  0.000000  1
  Na  Na3  1  0.500000  0.799374  0.000000  1
  Na  Na4  1  0.000000  0.500000  0.200626  1
  Na  Na5  1  0.000000  0.500000  0.799374  1
  Cd  Cd6  1  0.334361  0.500000  0.000000  1
  Cd  Cd7  1  0.665639  0.500000  0.000000  1
  Cd  Cd8  1  0.000000  0.334361  0.500000  1
  Cd  Cd9  1  0.000000  0.665639  0.500000  1
  Cd  Cd10  1  0.500000  0.000000  0.334361  1
  Cd  Cd11  1  0.500000  0.000000  0.665639  1
  Cd  Cd12  1  0.281478  0.281478  0.281478  1
  Cd  Cd13  1  0.718522  0.718522  0.718522  1
  Cd  Cd14  1  0.718522  0.718522  0.281478  1
  Cd  Cd15  1  0.718522  0.281478  0.718522  1
  Cd  Cd16  1  0.281478  0.281478  0.718522  1
  Cd  Cd17  1  0.281478  0.718522  0.281478  1
  Cd  Cd18  1  0.281478  0.718522  0.718522  1
  Cd  Cd19  1  0.718522  0.281478  0.281478  1
  Cd  Cd20  1  0.265654  0.500000  0.500000  1
  Cd  Cd21  1  0.734346  0.500000  0.500000  1
  Cd  Cd22  1  0.500000  0.265654  0.500000  1
  Cd  Cd23  1  0.500000  0.734346  0.500000  1
  Cd  Cd24  1  0.500000  0.500000  0.265654  1
  Cd  Cd25  1  0.500000  0.500000  0.734346  1
  Cd  Cd26  1  0.000000  0.153800  0.259229  1
  Cd  Cd27  1  0.000000  0.846200  0.740771  1
  Cd  Cd28  1  0.000000  0.846200  0.259229  1
  Cd  Cd29  1  0.000000  0.153800  0.740771  1
  Cd  Cd30  1  0.259229  0.000000  0.153800  1
  Cd  Cd31  1  0.740771  0.000000  0.846200  1
  Cd  Cd32  1  0.259229  0.000000  0.846200  1
  Cd  Cd33  1  0.740771  0.000000  0.153800  1
  Cd  Cd34  1  0.153800  0.259229  0.000000  1
  Cd  Cd35  1  0.846200  0.740771  0.000000  1
  Cd  Cd36  1  0.153800  0.740771  0.000000  1
  Cd  Cd37  1  0.846200  0.259229  0.000000  1
  Pd  Pd38  1  0.000000  0.000000  0.000000  1
