# generated using pymatgen
data_Dy3Sc3Bi2As
_symmetry_space_group_name_H-M   'P 1'
_cell_length_a   4.16219700
_cell_length_b   7.97654632
_cell_length_c   7.97654600
_cell_angle_alpha   119.99998207
_cell_angle_beta   90.00000000
_cell_angle_gamma   90.00000000
_symmetry_Int_Tables_number   1
_chemical_formula_structural   Dy3Sc3Bi2As
_chemical_formula_sum   'Dy3 Sc3 Bi2 As1'
_cell_volume   229.34174249
_cell_formula_units_Z   1
loop_
 _symmetry_equiv_pos_site_id
 _symmetry_equiv_pos_as_xyz
  1  'x, y, z'
loop_
 _atom_site_type_symbol
 _atom_site_label
 _atom_site_symmetry_multiplicity
 _atom_site_fract_x
 _atom_site_fract_y
 _atom_site_fract_z
 _atom_site_occupancy
  Dy  Dy0  1  0.000000  0.391630  0.391630  1
  Dy  Dy1  1  0.000000  0.000000  0.608370  1
  Dy  Dy2  1  0.000000  0.608370  0.000000  1
  Sc  Sc3  1  0.500000  0.763804  0.763804  1
  Sc  Sc4  1  0.500000  0.000000  0.236196  1
  Sc  Sc5  1  0.500000  0.236196  0.000000  1
  Bi  Bi6  1  0.500000  0.666667  0.333333  1
  Bi  Bi7  1  0.500000  0.333333  0.666667  1
  As  As8  1  0.000000  0.000000  0.000000  1
