# generated using pymatgen
data_Ca3Pr14(NdGa4)3
_symmetry_space_group_name_H-M   'P 1'
_cell_length_a   7.93578707
_cell_length_b   7.94131602
_cell_length_c   14.60870515
_cell_angle_alpha   90.00697837
_cell_angle_beta   90.01454330
_cell_angle_gamma   89.99522163
_symmetry_Int_Tables_number   1
_chemical_formula_structural   Ca3Pr14(NdGa4)3
_chemical_formula_sum   'Ca3 Pr14 Nd3 Ga12'
_cell_volume   920.64922164
_cell_formula_units_Z   1
loop_
 _symmetry_equiv_pos_site_id
 _symmetry_equiv_pos_as_xyz
  1  'x, y, z'
loop_
 _atom_site_type_symbol
 _atom_site_label
 _atom_site_symmetry_multiplicity
 _atom_site_fract_x
 _atom_site_fract_y
 _atom_site_fract_z
 _atom_site_occupancy
  Ca  Ca0  1  0.999944  0.500033  0.736018  1
  Ca  Ca1  1  0.000121  0.500101  0.240038  1
  Ca  Ca2  1  0.499875  0.999883  0.256036  1
  Pr  Pr3  1  0.167284  0.822414  0.397082  1
  Pr  Pr4  1  0.832538  0.177124  0.396989  1
  Pr  Pr5  1  0.677616  0.667846  0.397153  1
  Pr  Pr6  1  0.666679  0.318666  0.602627  1
  Pr  Pr7  1  0.333533  0.681672  0.602643  1
  Pr  Pr8  1  0.667451  0.676929  0.101022  1
  Pr  Pr9  1  0.678835  0.338745  0.897821  1
  Pr  Pr10  1  0.839420  0.821366  0.897849  1
  Pr  Pr11  1  0.322272  0.332144  0.397064  1
  Pr  Pr12  1  0.181085  0.166295  0.602721  1
  Pr  Pr13  1  0.823636  0.167211  0.101022  1
  Pr  Pr14  1  0.321334  0.661240  0.897818  1
  Pr  Pr15  1  0.332346  0.323292  0.100980  1
  Pr  Pr16  1  0.160976  0.178201  0.897682  1
  Nd  Nd17  1  0.818897  0.833884  0.603666  1
  Nd  Nd18  1  0.176261  0.832911  0.101940  1
  Nd  Nd19  1  0.500201  0.999980  0.783599  1
  Ga  Ga20  1  0.617500  0.382893  0.249355  1
  Ga  Ga21  1  0.119724  0.882720  0.748179  1
  Ga  Ga22  1  0.383079  0.380198  0.748432  1
  Ga  Ga23  1  0.382220  0.617367  0.249141  1
  Ga  Ga24  1  0.883012  0.882272  0.249081  1
  Ga  Ga25  1  0.617353  0.620287  0.748271  1
  Ga  Ga26  1  0.999566  0.500674  0.503599  1
  Ga  Ga27  1  0.879717  0.116665  0.748129  1
  Ga  Ga28  1  0.500547  0.999558  0.492012  1
  Ga  Ga29  1  0.499172  0.999477  0.998997  1
  Ga  Ga30  1  0.117368  0.117324  0.249076  1
  Ga  Ga31  1  0.000439  0.500630  0.003961  1
