# generated using pymatgen
data_Sr3(DySn2)2
_symmetry_space_group_name_H-M   'P 1'
_cell_length_a   8.14357800
_cell_length_b   8.72790800
_cell_length_c   16.51560700
_cell_angle_alpha   90.00000000
_cell_angle_beta   90.00000000
_cell_angle_gamma   90.00000000
_symmetry_Int_Tables_number   1
_chemical_formula_structural   Sr3(DySn2)2
_chemical_formula_sum   'Sr12 Dy8 Sn16'
_cell_volume   1173.86988235
_cell_formula_units_Z   4
loop_
 _symmetry_equiv_pos_site_id
 _symmetry_equiv_pos_as_xyz
  1  'x, y, z'
loop_
 _atom_site_type_symbol
 _atom_site_label
 _atom_site_symmetry_multiplicity
 _atom_site_fract_x
 _atom_site_fract_y
 _atom_site_fract_z
 _atom_site_occupancy
  Sr  Sr0  1  0.505541  0.682383  0.591956  1
  Sr  Sr1  1  0.005541  0.817617  0.908044  1
  Sr  Sr2  1  0.494459  0.317617  0.091956  1
  Sr  Sr3  1  0.994459  0.182383  0.408044  1
  Sr  Sr4  1  0.494459  0.317617  0.408044  1
  Sr  Sr5  1  0.994459  0.182383  0.091956  1
  Sr  Sr6  1  0.505541  0.682383  0.908044  1
  Sr  Sr7  1  0.005541  0.817617  0.591956  1
  Sr  Sr8  1  0.832845  0.514130  0.750000  1
  Sr  Sr9  1  0.332845  0.985870  0.750000  1
  Sr  Sr10  1  0.167155  0.485870  0.250000  1
  Sr  Sr11  1  0.667155  0.014130  0.250000  1
  Dy  Dy12  1  0.674030  0.168575  0.621867  1
  Dy  Dy13  1  0.174030  0.331425  0.878133  1
  Dy  Dy14  1  0.325970  0.831425  0.121867  1
  Dy  Dy15  1  0.825970  0.668575  0.378133  1
  Dy  Dy16  1  0.325970  0.831425  0.378133  1
  Dy  Dy17  1  0.825970  0.668575  0.121867  1
  Dy  Dy18  1  0.674030  0.168575  0.878133  1
  Dy  Dy19  1  0.174030  0.331425  0.621867  1
  Sn  Sn20  1  0.663146  0.958865  0.461054  1
  Sn  Sn21  1  0.163146  0.541135  0.038946  1
  Sn  Sn22  1  0.336854  0.041135  0.961054  1
  Sn  Sn23  1  0.836854  0.458865  0.538946  1
  Sn  Sn24  1  0.336854  0.041135  0.538946  1
  Sn  Sn25  1  0.836854  0.458865  0.961054  1
  Sn  Sn26  1  0.663146  0.958865  0.038946  1
  Sn  Sn27  1  0.163146  0.541135  0.461054  1
  Sn  Sn28  1  0.466654  0.362850  0.750000  1
  Sn  Sn29  1  0.966654  0.137150  0.750000  1
  Sn  Sn30  1  0.533346  0.637150  0.250000  1
  Sn  Sn31  1  0.033346  0.862850  0.250000  1
  Sn  Sn32  1  0.723985  0.889704  0.750000  1
  Sn  Sn33  1  0.223985  0.610296  0.750000  1
  Sn  Sn34  1  0.276015  0.110296  0.250000  1
  Sn  Sn35  1  0.776015  0.389704  0.250000  1
