# generated using pymatgen
data_ThSiW2C
_symmetry_space_group_name_H-M   'P 1'
_cell_length_a   6.01667386
_cell_length_b   6.01667431
_cell_length_c   7.82021000
_cell_angle_alpha   90.00000000
_cell_angle_beta   90.00000000
_cell_angle_gamma   142.93240234
_symmetry_Int_Tables_number   1
_chemical_formula_structural   ThSiW2C
_chemical_formula_sum   'Th2 Si2 W4 C2'
_cell_volume   170.63712845
_cell_formula_units_Z   2
loop_
 _symmetry_equiv_pos_site_id
 _symmetry_equiv_pos_as_xyz
  1  'x, y, z'
loop_
 _atom_site_type_symbol
 _atom_site_label
 _atom_site_symmetry_multiplicity
 _atom_site_fract_x
 _atom_site_fract_y
 _atom_site_fract_z
 _atom_site_occupancy
  Th  Th0  1  0.536813  0.463187  0.250000  1
  Th  Th1  1  0.463187  0.536813  0.750000  1
  Si  Si2  1  0.255149  0.744851  0.250000  1
  Si  Si3  1  0.744851  0.255149  0.750000  1
  W  W4  1  0.826751  0.173249  0.059682  1
  W  W5  1  0.173249  0.826751  0.940318  1
  W  W6  1  0.173249  0.826751  0.559682  1
  W  W7  1  0.826751  0.173249  0.440318  1
  C  C8  1  0.000000  0.000000  0.000000  1
  C  C9  1  0.000000  0.000000  0.500000  1
