# generated using pymatgen
data_Zr3Sc3Ga6(Pt2Rh)2
_symmetry_space_group_name_H-M   'P 1'
_cell_length_a   7.27480701
_cell_length_b   7.27079257
_cell_length_c   6.92593400
_cell_angle_alpha   90.00000000
_cell_angle_beta   90.00000000
_cell_angle_gamma   120.09066566
_symmetry_Int_Tables_number   1
_chemical_formula_structural   Zr3Sc3Ga6(Pt2Rh)2
_chemical_formula_sum   'Zr3 Sc3 Ga6 Pt4 Rh2'
_cell_volume   316.96748341
_cell_formula_units_Z   1
loop_
 _symmetry_equiv_pos_site_id
 _symmetry_equiv_pos_as_xyz
  1  'x, y, z'
loop_
 _atom_site_type_symbol
 _atom_site_label
 _atom_site_symmetry_multiplicity
 _atom_site_fract_x
 _atom_site_fract_y
 _atom_site_fract_z
 _atom_site_occupancy
  Zr  Zr0  1  0.599747  0.992885  0.750000  1
  Zr  Zr1  1  0.993561  0.603025  0.250000  1
  Zr  Zr2  1  0.397570  0.390064  0.250000  1
  Sc  Sc3  1  0.391898  0.398396  0.750000  1
  Sc  Sc4  1  0.006523  0.607728  0.750000  1
  Sc  Sc5  1  0.609898  0.005916  0.250000  1
  Ga  Ga6  1  0.267442  0.999663  0.995962  1
  Ga  Ga7  1  0.732225  0.732498  0.000879  1
  Ga  Ga8  1  0.999699  0.267588  0.001488  1
  Ga  Ga9  1  0.732225  0.732498  0.499121  1
  Ga  Ga10  1  0.267442  0.999663  0.504038  1
  Ga  Ga11  1  0.999699  0.267588  0.498512  1
  Pt  Pt12  1  0.666508  0.333716  0.991221  1
  Pt  Pt13  1  0.666508  0.333716  0.508779  1
  Pt  Pt14  1  0.334042  0.667336  0.491021  1
  Pt  Pt15  1  0.334042  0.667336  0.008979  1
  Rh  Rh16  1  0.994528  0.000491  0.750000  1
  Rh  Rh17  1  0.006446  0.999896  0.250000  1
