# generated using pymatgen
data_CeTm4Bi2Sb
_symmetry_space_group_name_H-M   'P 1'
_cell_length_a   8.10999900
_cell_length_b   9.37437300
_cell_length_c   11.86170500
_cell_angle_alpha   90.00000000
_cell_angle_beta   90.00000000
_cell_angle_gamma   90.00000000
_symmetry_Int_Tables_number   1
_chemical_formula_structural   CeTm4Bi2Sb
_chemical_formula_sum   'Ce4 Tm16 Bi8 Sb4'
_cell_volume   901.79983067
_cell_formula_units_Z   4
loop_
 _symmetry_equiv_pos_site_id
 _symmetry_equiv_pos_as_xyz
  1  'x, y, z'
loop_
 _atom_site_type_symbol
 _atom_site_label
 _atom_site_symmetry_multiplicity
 _atom_site_fract_x
 _atom_site_fract_y
 _atom_site_fract_z
 _atom_site_occupancy
  Ce  Ce0  1  0.318249  0.250000  0.221162  1
  Ce  Ce1  1  0.818249  0.250000  0.278838  1
  Ce  Ce2  1  0.681751  0.750000  0.778838  1
  Ce  Ce3  1  0.181751  0.750000  0.721162  1
  Tm  Tm4  1  0.351241  0.750000  0.214911  1
  Tm  Tm5  1  0.851241  0.750000  0.285089  1
  Tm  Tm6  1  0.648759  0.250000  0.785089  1
  Tm  Tm7  1  0.148759  0.250000  0.714911  1
  Tm  Tm8  1  0.689079  0.564129  0.058772  1
  Tm  Tm9  1  0.189079  0.935871  0.441228  1
  Tm  Tm10  1  0.310921  0.064129  0.941228  1
  Tm  Tm11  1  0.810921  0.435871  0.558772  1
  Tm  Tm12  1  0.310921  0.435871  0.941228  1
  Tm  Tm13  1  0.810921  0.064129  0.558772  1
  Tm  Tm14  1  0.689079  0.935871  0.058772  1
  Tm  Tm15  1  0.189079  0.564129  0.441228  1
  Tm  Tm16  1  0.474136  0.250000  0.487843  1
  Tm  Tm17  1  0.974136  0.250000  0.012157  1
  Tm  Tm18  1  0.525864  0.750000  0.512157  1
  Tm  Tm19  1  0.025864  0.750000  0.987843  1
  Bi  Bi20  1  0.564298  0.991501  0.326861  1
  Bi  Bi21  1  0.064298  0.508499  0.173139  1
  Bi  Bi22  1  0.435702  0.491501  0.673139  1
  Bi  Bi23  1  0.935702  0.008499  0.826861  1
  Bi  Bi24  1  0.435702  0.008499  0.673139  1
  Bi  Bi25  1  0.935702  0.491501  0.826861  1
  Bi  Bi26  1  0.564298  0.508499  0.326861  1
  Bi  Bi27  1  0.064298  0.991501  0.173139  1
  Sb  Sb28  1  0.403615  0.750000  0.961732  1
  Sb  Sb29  1  0.903615  0.750000  0.538268  1
  Sb  Sb30  1  0.596385  0.250000  0.038268  1
  Sb  Sb31  1  0.096385  0.250000  0.461732  1
