# generated using pymatgen
data_Na(FeCl3)2
_symmetry_space_group_name_H-M   'P 1'
_cell_length_a   7.15324701
_cell_length_b   6.88331045
_cell_length_c   8.35970872
_cell_angle_alpha   96.50400225
_cell_angle_beta   83.91210035
_cell_angle_gamma   75.25168800
_symmetry_Int_Tables_number   1
_chemical_formula_structural   Na(FeCl3)2
_chemical_formula_sum   'Na1 Fe2 Cl6'
_cell_volume   391.57547996
_cell_formula_units_Z   1
loop_
 _symmetry_equiv_pos_site_id
 _symmetry_equiv_pos_as_xyz
  1  'x, y, z'
loop_
 _atom_site_type_symbol
 _atom_site_label
 _atom_site_symmetry_multiplicity
 _atom_site_fract_x
 _atom_site_fract_y
 _atom_site_fract_z
 _atom_site_occupancy
  Na  Na0  1  0.330766  0.344191  0.426840  1
  Fe  Fe1  1  0.547757  0.337825  0.042411  1
  Fe  Fe2  1  0.692454  0.446891  0.743225  1
  Cl  Cl3  1  0.464973  0.615585  0.614710  1
  Cl  Cl4  1  0.231929  0.436468  0.127750  1
  Cl  Cl5  1  0.620359  0.146112  0.788345  1
  Cl  Cl6  1  0.997169  0.379086  0.627572  1
  Cl  Cl7  1  0.661577  0.615638  0.002020  1
  Cl  Cl8  1  0.690677  0.174134  0.227600  1
