# generated using pymatgen
data_Y16AlHg5Pt2
_symmetry_space_group_name_H-M   'P 1'
_cell_length_a   10.19770800
_cell_length_b   10.20955640
_cell_length_c   7.15477600
_cell_angle_alpha   90.10529194
_cell_angle_beta   90.00000000
_cell_angle_gamma   119.96161770
_symmetry_Int_Tables_number   1
_chemical_formula_structural   Y16AlHg5Pt2
_chemical_formula_sum   'Y16 Al1 Hg5 Pt2'
_cell_volume   645.36139302
_cell_formula_units_Z   1
loop_
 _symmetry_equiv_pos_site_id
 _symmetry_equiv_pos_as_xyz
  1  'x, y, z'
loop_
 _atom_site_type_symbol
 _atom_site_label
 _atom_site_symmetry_multiplicity
 _atom_site_fract_x
 _atom_site_fract_y
 _atom_site_fract_z
 _atom_site_occupancy
  Y  Y0  1  0.173651  0.830466  0.514602  1
  Y  Y1  1  0.656815  0.830466  0.514602  1
  Y  Y2  1  0.169704  0.339406  0.511666  1
  Y  Y3  1  0.832027  0.171918  0.014280  1
  Y  Y4  1  0.339891  0.171918  0.014280  1
  Y  Y5  1  0.829023  0.658044  0.008070  1
  Y  Y6  1  0.332239  0.664479  0.833369  1
  Y  Y7  1  0.666613  0.333225  0.335220  1
  Y  Y8  1  0.470080  0.536006  0.208177  1
  Y  Y9  1  0.065925  0.536006  0.208177  1
  Y  Y10  1  0.466271  0.932542  0.204136  1
  Y  Y11  1  0.533742  0.466111  0.705851  1
  Y  Y12  1  0.932372  0.466111  0.705851  1
  Y  Y13  1  0.535486  0.070971  0.707467  1
  Y  Y14  1  0.996427  0.992853  0.235635  1
  Y  Y15  1  0.996546  0.993093  0.731856  1
  Al  Al16  1  0.836250  0.672501  0.460315  1
  Hg  Hg17  1  0.166180  0.833931  0.954507  1
  Hg  Hg18  1  0.667751  0.833931  0.954507  1
  Hg  Hg19  1  0.167117  0.334236  0.953310  1
  Hg  Hg20  1  0.833042  0.166328  0.454094  1
  Hg  Hg21  1  0.333286  0.166328  0.454094  1
  Pt  Pt22  1  0.332700  0.665401  0.444383  1
  Pt  Pt23  1  0.666866  0.333731  0.946387  1
