# generated using pymatgen
data_Dy17Y(HoSn8)2
_symmetry_space_group_name_H-M   'P 1'
_cell_length_a   8.04974307
_cell_length_b   8.19619610
_cell_length_c   15.47005000
_cell_angle_alpha   90.04003479
_cell_angle_beta   89.81040507
_cell_angle_gamma   90.00893351
_symmetry_Int_Tables_number   1
_chemical_formula_structural   Dy17Y(HoSn8)2
_chemical_formula_sum   'Dy17 Y1 Ho2 Sn16'
_cell_volume   1020.66585901
_cell_formula_units_Z   1
loop_
 _symmetry_equiv_pos_site_id
 _symmetry_equiv_pos_as_xyz
  1  'x, y, z'
loop_
 _atom_site_type_symbol
 _atom_site_label
 _atom_site_symmetry_multiplicity
 _atom_site_fract_x
 _atom_site_fract_y
 _atom_site_fract_z
 _atom_site_occupancy
  Dy  Dy0  1  0.366786  0.836129  0.877681  1
  Dy  Dy1  1  0.867498  0.663988  0.621669  1
  Dy  Dy2  1  0.632419  0.163665  0.377895  1
  Dy  Dy3  1  0.133523  0.336390  0.122335  1
  Dy  Dy4  1  0.633535  0.163837  0.122378  1
  Dy  Dy5  1  0.132462  0.336292  0.377958  1
  Dy  Dy6  1  0.367722  0.836092  0.621846  1
  Dy  Dy7  1  0.867065  0.663661  0.877872  1
  Dy  Dy8  1  0.519958  0.321286  0.902213  1
  Dy  Dy9  1  0.020667  0.179112  0.598041  1
  Dy  Dy10  1  0.479668  0.679099  0.402031  1
  Dy  Dy11  1  0.980406  0.820298  0.097901  1
  Dy  Dy12  1  0.480216  0.679278  0.097887  1
  Dy  Dy13  1  0.979640  0.820936  0.402066  1
  Dy  Dy14  1  0.520317  0.321044  0.597464  1
  Dy  Dy15  1  0.198371  0.502437  0.749723  1
  Dy  Dy16  1  0.698292  0.997420  0.749627  1
  Y  Y17  1  0.018231  0.179860  0.902895  1
  Ho  Ho18  1  0.801575  0.497542  0.250122  1
  Ho  Ho19  1  0.301631  0.002424  0.250194  1
  Sn  Sn20  1  0.294224  0.035467  0.042347  1
  Sn  Sn21  1  0.792704  0.464065  0.457998  1
  Sn  Sn22  1  0.707425  0.964294  0.541464  1
  Sn  Sn23  1  0.206961  0.536917  0.958744  1
  Sn  Sn24  1  0.705110  0.962318  0.958833  1
  Sn  Sn25  1  0.207228  0.536001  0.541518  1
  Sn  Sn26  1  0.292692  0.035911  0.458097  1
  Sn  Sn27  1  0.793505  0.463927  0.041926  1
  Sn  Sn28  1  0.564877  0.618931  0.749893  1
  Sn  Sn29  1  0.065002  0.880811  0.749843  1
  Sn  Sn30  1  0.435554  0.381397  0.250135  1
  Sn  Sn31  1  0.935607  0.118754  0.250030  1
  Sn  Sn32  1  0.329358  0.147091  0.749931  1
  Sn  Sn33  1  0.827962  0.353444  0.749585  1
  Sn  Sn34  1  0.670999  0.852471  0.249907  1
  Sn  Sn35  1  0.170813  0.647406  0.249951  1
