# generated using pymatgen
data_RbNp2CuSe5
_symmetry_space_group_name_H-M   'P 1'
_cell_length_a   7.99319704
_cell_length_b   7.99319909
_cell_length_c   17.44575900
_cell_angle_alpha   90.00000000
_cell_angle_beta   90.00000000
_cell_angle_gamma   149.91146314
_symmetry_Int_Tables_number   1
_chemical_formula_structural   RbNp2CuSe5
_chemical_formula_sum   'Rb2 Np4 Cu2 Se10'
_cell_volume   558.80634316
_cell_formula_units_Z   2
loop_
 _symmetry_equiv_pos_site_id
 _symmetry_equiv_pos_as_xyz
  1  'x, y, z'
loop_
 _atom_site_type_symbol
 _atom_site_label
 _atom_site_symmetry_multiplicity
 _atom_site_fract_x
 _atom_site_fract_y
 _atom_site_fract_z
 _atom_site_occupancy
  Rb  Rb0  1  0.041589  0.958411  0.250000  1
  Rb  Rb1  1  0.958411  0.041589  0.750000  1
  Np  Np2  1  0.210189  0.789811  0.902126  1
  Np  Np3  1  0.789811  0.210189  0.402126  1
  Np  Np4  1  0.210189  0.789811  0.597874  1
  Np  Np5  1  0.789811  0.210189  0.097874  1
  Cu  Cu6  1  0.319531  0.680469  0.250000  1
  Cu  Cu7  1  0.680469  0.319531  0.750000  1
  Se  Se8  1  0.171230  0.828770  0.439065  1
  Se  Se9  1  0.828770  0.171230  0.939065  1
  Se  Se10  1  0.272849  0.727151  0.750000  1
  Se  Se11  1  0.406722  0.593278  0.366499  1
  Se  Se12  1  0.171230  0.828770  0.060935  1
  Se  Se13  1  0.593278  0.406722  0.866499  1
  Se  Se14  1  0.593278  0.406722  0.633501  1
  Se  Se15  1  0.406722  0.593278  0.133501  1
  Se  Se16  1  0.828770  0.171230  0.560935  1
  Se  Se17  1  0.727151  0.272849  0.250000  1
