# generated using pymatgen
data_YU3Ga12Ni
_symmetry_space_group_name_H-M   'P 1'
_cell_length_a   7.43492099
_cell_length_b   7.43492068
_cell_length_c   7.43492002
_cell_angle_alpha   109.34130038
_cell_angle_beta   109.34130078
_cell_angle_gamma   109.34130590
_symmetry_Int_Tables_number   1
_chemical_formula_structural   YU3Ga12Ni
_chemical_formula_sum   'Y1 U3 Ga12 Ni1'
_cell_volume   317.89131025
_cell_formula_units_Z   1
loop_
 _symmetry_equiv_pos_site_id
 _symmetry_equiv_pos_as_xyz
  1  'x, y, z'
loop_
 _atom_site_type_symbol
 _atom_site_label
 _atom_site_symmetry_multiplicity
 _atom_site_fract_x
 _atom_site_fract_y
 _atom_site_fract_z
 _atom_site_occupancy
  Y  Y0  1  0.500000  0.500000  0.500000  1
  U  U1  1  0.000000  0.000000  0.500000  1
  U  U2  1  0.000000  0.500000  0.000000  1
  U  U3  1  0.500000  0.000000  0.000000  1
  Ga  Ga4  1  0.500000  0.750274  0.249726  1
  Ga  Ga5  1  0.500000  0.249726  0.750274  1
  Ga  Ga6  1  0.249726  0.500000  0.750274  1
  Ga  Ga7  1  0.750274  0.500000  0.249726  1
  Ga  Ga8  1  0.750274  0.249726  0.500000  1
  Ga  Ga9  1  0.249726  0.750274  0.500000  1
  Ga  Ga10  1  0.997299  0.283584  0.283584  1
  Ga  Ga11  1  0.002701  0.716416  0.716416  1
  Ga  Ga12  1  0.283584  0.997299  0.283584  1
  Ga  Ga13  1  0.716416  0.002701  0.716416  1
  Ga  Ga14  1  0.283584  0.283584  0.997299  1
  Ga  Ga15  1  0.716416  0.716416  0.002701  1
  Ni  Ni16  1  0.000000  0.000000  0.000000  1
