# generated using pymatgen
data_Pr2Al16RePt8
_symmetry_space_group_name_H-M   'P 1'
_cell_length_a   11.20272466
_cell_length_b   11.20272435
_cell_length_c   11.20461241
_cell_angle_alpha   158.48891172
_cell_angle_beta   116.72372122
_cell_angle_gamma   67.64972574
_symmetry_Int_Tables_number   1
_chemical_formula_structural   Pr2Al16RePt8
_chemical_formula_sum   'Pr2 Al16 Re1 Pt8'
_cell_volume   457.42087032
_cell_formula_units_Z   1
loop_
 _symmetry_equiv_pos_site_id
 _symmetry_equiv_pos_as_xyz
  1  'x, y, z'
loop_
 _atom_site_type_symbol
 _atom_site_label
 _atom_site_symmetry_multiplicity
 _atom_site_fract_x
 _atom_site_fract_y
 _atom_site_fract_z
 _atom_site_occupancy
  Pr  Pr0  1  0.231511  0.231158  0.000492  1
  Pr  Pr1  1  0.769334  0.768982  0.000492  1
  Al  Al2  1  0.276186  0.392807  0.883484  1
  Al  Al3  1  0.089857  0.924407  0.165516  1
  Al  Al4  1  0.504880  0.200472  0.304491  1
  Al  Al5  1  0.241108  0.075658  0.165516  1
  Al  Al6  1  0.907293  0.415740  0.491301  1
  Al  Al7  1  0.723298  0.598453  0.124776  1
  Al  Al8  1  0.902650  0.209075  0.693630  1
  Al  Al9  1  0.484557  0.790980  0.693630  1
  Al  Al10  1  0.387801  0.000042  0.387843  1
  Al  Al11  1  0.628077  0.999974  0.628051  1
  Al  Al12  1  0.490678  0.607297  0.883484  1
  Al  Al13  1  0.104018  0.799610  0.304491  1
  Al  Al14  1  0.907069  0.086284  0.820825  1
  Al  Al15  1  0.734541  0.913757  0.820825  1
  Al  Al16  1  0.526321  0.401478  0.124776  1
  Al  Al17  1  0.075561  0.584008  0.491301  1
  Re  Re18  1  0.784207  0.500091  0.284297  1
  Pt  Pt19  1  0.027723  0.344201  0.683596  1
  Pt  Pt20  1  0.626268  0.123405  0.502859  1
  Pt  Pt21  1  0.252260  0.500074  0.752335  1
  Pt  Pt22  1  0.379454  0.876591  0.502859  1
  Pt  Pt23  1  0.984441  0.999654  0.984095  1
  Pt  Pt24  1  0.645818  0.335028  0.310719  1
  Pt  Pt25  1  0.339395  0.655873  0.683596  1
  Pt  Pt26  1  0.975691  0.664900  0.310719  1
