# generated using pymatgen
data_Tb17Dy(TmPb8)2
_symmetry_space_group_name_H-M   'P 1'
_cell_length_a   8.22287900
_cell_length_b   8.31266945
_cell_length_c   15.71302000
_cell_angle_alpha   90.00000000
_cell_angle_beta   90.00000000
_cell_angle_gamma   90.03383570
_symmetry_Int_Tables_number   1
_chemical_formula_structural   Tb17Dy(TmPb8)2
_chemical_formula_sum   'Tb17 Dy1 Tm2 Pb16'
_cell_volume   1074.04876106
_cell_formula_units_Z   1
loop_
 _symmetry_equiv_pos_site_id
 _symmetry_equiv_pos_as_xyz
  1  'x, y, z'
loop_
 _atom_site_type_symbol
 _atom_site_label
 _atom_site_symmetry_multiplicity
 _atom_site_fract_x
 _atom_site_fract_y
 _atom_site_fract_z
 _atom_site_occupancy
  Tb  Tb0  1  0.377750  0.841277  0.879504  1
  Tb  Tb1  1  0.876940  0.659317  0.620412  1
  Tb  Tb2  1  0.622934  0.159120  0.379544  1
  Tb  Tb3  1  0.122393  0.341236  0.120705  1
  Tb  Tb4  1  0.622934  0.159120  0.120456  1
  Tb  Tb5  1  0.122393  0.341236  0.379295  1
  Tb  Tb6  1  0.377750  0.841277  0.620496  1
  Tb  Tb7  1  0.876940  0.659317  0.879588  1
  Tb  Tb8  1  0.534732  0.323186  0.900022  1
  Tb  Tb9  1  0.034313  0.176164  0.600065  1
  Tb  Tb10  1  0.465553  0.676376  0.399795  1
  Tb  Tb11  1  0.965312  0.823355  0.099983  1
  Tb  Tb12  1  0.465553  0.676376  0.100205  1
  Tb  Tb13  1  0.965312  0.823355  0.400017  1
  Tb  Tb14  1  0.534732  0.323186  0.599978  1
  Tb  Tb15  1  0.034313  0.176164  0.899935  1
  Tb  Tb16  1  0.209040  0.503586  0.750000  1
  Dy  Dy17  1  0.290878  0.003672  0.250000  1
  Tm  Tm18  1  0.709387  0.995899  0.750000  1
  Tm  Tm19  1  0.790606  0.495959  0.250000  1
  Pb  Pb20  1  0.281033  0.033086  0.043129  1
  Pb  Pb21  1  0.781106  0.467191  0.456632  1
  Pb  Pb22  1  0.718860  0.967157  0.543370  1
  Pb  Pb23  1  0.218987  0.533232  0.957261  1
  Pb  Pb24  1  0.718860  0.967157  0.956630  1
  Pb  Pb25  1  0.218987  0.533232  0.542739  1
  Pb  Pb26  1  0.281033  0.033086  0.456871  1
  Pb  Pb27  1  0.781106  0.467191  0.043368  1
  Pb  Pb28  1  0.573692  0.626551  0.750000  1
  Pb  Pb29  1  0.072204  0.874896  0.750000  1
  Pb  Pb30  1  0.427680  0.374361  0.250000  1
  Pb  Pb31  1  0.926903  0.126091  0.250000  1
  Pb  Pb32  1  0.346923  0.152022  0.750000  1
  Pb  Pb33  1  0.845894  0.346090  0.750000  1
  Pb  Pb34  1  0.653822  0.846345  0.250000  1
  Pb  Pb35  1  0.153145  0.653136  0.250000  1
