# generated using pymatgen
data_Li(Nb2B5)2
_symmetry_space_group_name_H-M   'P 1'
_cell_length_a   6.16429479
_cell_length_b   7.01309147
_cell_length_c   7.36958525
_cell_angle_alpha   93.86974592
_cell_angle_beta   102.10599429
_cell_angle_gamma   116.05397686
_symmetry_Int_Tables_number   1
_chemical_formula_structural   Li(Nb2B5)2
_chemical_formula_sum   'Li2 Nb8 B20'
_cell_volume   275.19431681
_cell_formula_units_Z   2
loop_
 _symmetry_equiv_pos_site_id
 _symmetry_equiv_pos_as_xyz
  1  'x, y, z'
loop_
 _atom_site_type_symbol
 _atom_site_label
 _atom_site_symmetry_multiplicity
 _atom_site_fract_x
 _atom_site_fract_y
 _atom_site_fract_z
 _atom_site_occupancy
  Li  Li0  1  0.999230  0.994581  0.995798  1
  Li  Li1  1  0.000904  0.606629  0.804902  1
  Nb  Nb2  1  0.498996  0.999309  0.000070  1
  Nb  Nb3  1  0.500012  0.799947  0.399931  1
  Nb  Nb4  1  0.999100  0.396293  0.200273  1
  Nb  Nb5  1  0.502422  0.200818  0.601815  1
  Nb  Nb6  1  0.000052  0.800027  0.399893  1
  Nb  Nb7  1  0.501043  0.600598  0.799951  1
  Nb  Nb8  1  0.497519  0.399029  0.198087  1
  Nb  Nb9  1  0.000888  0.203591  0.599820  1
  B  B10  1  0.329098  0.229699  0.869486  1
  B  B11  1  0.328461  0.632645  0.062217  1
  B  B12  1  0.164386  0.365928  0.932789  1
  B  B13  1  0.328935  0.031833  0.261226  1
  B  B14  1  0.162967  0.766700  0.127111  1
  B  B15  1  0.835508  0.234163  0.866824  1
  B  B16  1  0.165538  0.165189  0.327954  1
  B  B17  1  0.836657  0.635857  0.062404  1
  B  B18  1  0.334263  0.434404  0.466027  1
  B  B19  1  0.670903  0.370176  0.930185  1
  B  B20  1  0.834184  0.031567  0.261534  1
  B  B21  1  0.668953  0.768030  0.129594  1
  B  B22  1  0.330900  0.831575  0.670525  1
  B  B23  1  0.165793  0.568389  0.538678  1
  B  B24  1  0.665888  0.165866  0.333947  1
  B  B25  1  0.834695  0.434955  0.472456  1
  B  B26  1  0.163254  0.963915  0.737392  1
  B  B27  1  0.836962  0.833117  0.672725  1
  B  B28  1  0.671177  0.568005  0.539019  1
  B  B29  1  0.671312  0.967166  0.737367  1
