# generated using pymatgen
data_Ho5TmOsRu
_symmetry_space_group_name_H-M   'P 1'
_cell_length_a   6.29815304
_cell_length_b   7.32623300
_cell_length_c   9.04221835
_cell_angle_alpha   90.00000000
_cell_angle_beta   89.88748991
_cell_angle_gamma   90.00000000
_symmetry_Int_Tables_number   1
_chemical_formula_structural   Ho5TmOsRu
_chemical_formula_sum   'Ho10 Tm2 Os2 Ru2'
_cell_volume   417.22285345
_cell_formula_units_Z   2
loop_
 _symmetry_equiv_pos_site_id
 _symmetry_equiv_pos_as_xyz
  1  'x, y, z'
loop_
 _atom_site_type_symbol
 _atom_site_label
 _atom_site_symmetry_multiplicity
 _atom_site_fract_x
 _atom_site_fract_y
 _atom_site_fract_z
 _atom_site_occupancy
  Ho  Ho0  1  0.666793  0.324947  0.562562  1
  Ho  Ho1  1  0.833207  0.824947  0.937438  1
  Ho  Ho2  1  0.666573  0.325281  0.937391  1
  Ho  Ho3  1  0.833427  0.825281  0.562609  1
  Ho  Ho4  1  0.329672  0.675979  0.435312  1
  Ho  Ho5  1  0.170328  0.175979  0.064688  1
  Ho  Ho6  1  0.868216  0.539606  0.249915  1
  Ho  Ho7  1  0.631784  0.039606  0.250085  1
  Ho  Ho8  1  0.134018  0.457768  0.750025  1
  Ho  Ho9  1  0.365982  0.957767  0.749975  1
  Tm  Tm10  1  0.329767  0.675684  0.064659  1
  Tm  Tm11  1  0.170233  0.175684  0.435341  1
  Os  Os12  1  0.038874  0.884115  0.250007  1
  Os  Os13  1  0.461126  0.384115  0.249993  1
  Ru  Ru14  1  0.963031  0.116619  0.749688  1
  Ru  Ru15  1  0.536969  0.616619  0.750312  1
