# generated using pymatgen
data_Zr9Ti4Al9(CoRh3)2
_symmetry_space_group_name_H-M   'P 1'
_cell_length_a   8.98103741
_cell_length_b   8.98103576
_cell_length_c   9.00080301
_cell_angle_alpha   59.98495706
_cell_angle_beta   59.98496058
_cell_angle_gamma   59.80902485
_symmetry_Int_Tables_number   1
_chemical_formula_structural   Zr9Ti4Al9(CoRh3)2
_chemical_formula_sum   'Zr9 Ti4 Al9 Co2 Rh6'
_cell_volume   512.49539085
_cell_formula_units_Z   1
loop_
 _symmetry_equiv_pos_site_id
 _symmetry_equiv_pos_as_xyz
  1  'x, y, z'
loop_
 _atom_site_type_symbol
 _atom_site_label
 _atom_site_symmetry_multiplicity
 _atom_site_fract_x
 _atom_site_fract_y
 _atom_site_fract_z
 _atom_site_occupancy
  Zr  Zr0  1  0.202400  0.202400  0.799607  1
  Zr  Zr1  1  0.803035  0.194402  0.196525  1
  Zr  Zr2  1  0.194402  0.803035  0.196525  1
  Zr  Zr3  1  0.806862  0.806862  0.185241  1
  Zr  Zr4  1  0.191319  0.797187  0.803294  1
  Zr  Zr5  1  0.797187  0.191319  0.803294  1
  Zr  Zr6  1  0.383411  0.383411  0.381214  1
  Zr  Zr7  1  0.383929  0.851860  0.382527  1
  Zr  Zr8  1  0.851860  0.383929  0.382527  1
  Ti  Ti9  1  0.381475  0.381475  0.855720  1
  Ti  Ti10  1  0.834724  0.501068  0.834047  1
  Ti  Ti11  1  0.501068  0.834724  0.834047  1
  Ti  Ti12  1  0.832084  0.832084  0.507093  1
  Al  Al13  1  0.166321  0.166321  0.160652  1
  Al  Al14  1  0.169033  0.500525  0.162506  1
  Al  Al15  1  0.500525  0.169033  0.162506  1
  Al  Al16  1  0.163715  0.163715  0.510867  1
  Al  Al17  1  0.615939  0.615939  0.624881  1
  Al  Al18  1  0.616240  0.146140  0.622945  1
  Al  Al19  1  0.146140  0.616240  0.622945  1
  Al  Al20  1  0.619927  0.619927  0.142799  1
  Al  Al21  1  0.829604  0.829604  0.828629  1
  Co  Co22  1  0.495048  0.495048  0.519110  1
  Co  Co23  1  0.005186  0.005186  0.991036  1
  Rh  Rh24  1  0.000894  0.000894  0.497358  1
  Rh  Rh25  1  0.498017  0.004402  0.997787  1
  Rh  Rh26  1  0.004402  0.498017  0.997787  1
  Rh  Rh27  1  0.501779  0.501779  0.996054  1
  Rh  Rh28  1  0.999638  0.503835  0.500238  1
  Rh  Rh29  1  0.503835  0.999638  0.500238  1
