# generated using pymatgen
data_PrNd5(HoAu2)2
_symmetry_space_group_name_H-M   'P 1'
_cell_length_a   5.03615400
_cell_length_b   7.33632183
_cell_length_c   9.22682907
_cell_angle_alpha   89.97975888
_cell_angle_beta   90.00000000
_cell_angle_gamma   90.00000000
_symmetry_Int_Tables_number   1
_chemical_formula_structural   PrNd5(HoAu2)2
_chemical_formula_sum   'Pr1 Nd5 Ho2 Au4'
_cell_volume   340.90221633
_cell_formula_units_Z   1
loop_
 _symmetry_equiv_pos_site_id
 _symmetry_equiv_pos_as_xyz
  1  'x, y, z'
loop_
 _atom_site_type_symbol
 _atom_site_label
 _atom_site_symmetry_multiplicity
 _atom_site_fract_x
 _atom_site_fract_y
 _atom_site_fract_z
 _atom_site_occupancy
  Pr  Pr0  1  0.250000  0.489352  0.175776  1
  Nd  Nd1  1  0.750000  0.510912  0.824438  1
  Nd  Nd2  1  0.250000  0.990718  0.323305  1
  Nd  Nd3  1  0.750000  0.009132  0.676803  1
  Nd  Nd4  1  0.750000  0.651092  0.412829  1
  Nd  Nd5  1  0.250000  0.349024  0.587577  1
  Ho  Ho6  1  0.750000  0.148936  0.078256  1
  Ho  Ho7  1  0.250000  0.850978  0.921530  1
  Au  Au8  1  0.250000  0.244043  0.909198  1
  Au  Au9  1  0.750000  0.756007  0.090164  1
  Au  Au10  1  0.250000  0.758319  0.607930  1
  Au  Au11  1  0.750000  0.241487  0.392194  1
