# generated using pymatgen
data_Nd7Y(HoBi)12
_symmetry_space_group_name_H-M   'P 1'
_cell_length_a   8.38841302
_cell_length_b   9.58554500
_cell_length_c   12.32849000
_cell_angle_alpha   90.00000000
_cell_angle_beta   89.99568322
_cell_angle_gamma   90.00000000
_symmetry_Int_Tables_number   1
_chemical_formula_structural   Nd7Y(HoBi)12
_chemical_formula_sum   'Nd7 Y1 Ho12 Bi12'
_cell_volume   991.30318654
_cell_formula_units_Z   1
loop_
 _symmetry_equiv_pos_site_id
 _symmetry_equiv_pos_as_xyz
  1  'x, y, z'
loop_
 _atom_site_type_symbol
 _atom_site_label
 _atom_site_symmetry_multiplicity
 _atom_site_fract_x
 _atom_site_fract_y
 _atom_site_fract_z
 _atom_site_occupancy
  Nd  Nd0  1  0.184143  0.750000  0.720963  1
  Nd  Nd1  1  0.685277  0.750000  0.778829  1
  Nd  Nd2  1  0.817227  0.250000  0.280047  1
  Nd  Nd3  1  0.315728  0.250000  0.221432  1
  Nd  Nd4  1  0.352205  0.750000  0.214808  1
  Nd  Nd5  1  0.852468  0.750000  0.285136  1
  Nd  Nd6  1  0.647142  0.250000  0.785185  1
  Y  Y7  1  0.147626  0.250000  0.715445  1
  Ho  Ho8  1  0.025555  0.750000  0.987277  1
  Ho  Ho9  1  0.524777  0.750000  0.512410  1
  Ho  Ho10  1  0.974949  0.250000  0.010301  1
  Ho  Ho11  1  0.474444  0.250000  0.488676  1
  Ho  Ho12  1  0.307499  0.436071  0.940613  1
  Ho  Ho13  1  0.807315  0.063610  0.559140  1
  Ho  Ho14  1  0.692669  0.936385  0.057641  1
  Ho  Ho15  1  0.192237  0.563857  0.442038  1
  Ho  Ho16  1  0.692669  0.563615  0.057641  1
  Ho  Ho17  1  0.192237  0.936143  0.442038  1
  Ho  Ho18  1  0.307499  0.063929  0.940613  1
  Ho  Ho19  1  0.807315  0.436390  0.559140  1
  Bi  Bi20  1  0.432385  0.006037  0.668498  1
  Bi  Bi21  1  0.937772  0.493263  0.829214  1
  Bi  Bi22  1  0.564744  0.504390  0.332131  1
  Bi  Bi23  1  0.064847  0.995759  0.167831  1
  Bi  Bi24  1  0.564744  0.995610  0.332131  1
  Bi  Bi25  1  0.064847  0.504241  0.167831  1
  Bi  Bi26  1  0.432385  0.493963  0.668498  1
  Bi  Bi27  1  0.937772  0.006737  0.829214  1
  Bi  Bi28  1  0.407867  0.750000  0.957539  1
  Bi  Bi29  1  0.907305  0.750000  0.542352  1
  Bi  Bi30  1  0.591914  0.250000  0.042542  1
  Bi  Bi31  1  0.092438  0.250000  0.462839  1
