# generated using pymatgen
data_Sm8Sc12Si15As
_symmetry_space_group_name_H-M   'P 1'
_cell_length_a   7.21185071
_cell_length_b   7.45236828
_cell_length_c   14.11034813
_cell_angle_alpha   90.07748780
_cell_angle_beta   89.13420462
_cell_angle_gamma   90.18305588
_symmetry_Int_Tables_number   1
_chemical_formula_structural   Sm8Sc12Si15As
_chemical_formula_sum   'Sm8 Sc12 Si15 As1'
_cell_volume   758.27474858
_cell_formula_units_Z   1
loop_
 _symmetry_equiv_pos_site_id
 _symmetry_equiv_pos_as_xyz
  1  'x, y, z'
loop_
 _atom_site_type_symbol
 _atom_site_label
 _atom_site_symmetry_multiplicity
 _atom_site_fract_x
 _atom_site_fract_y
 _atom_site_fract_z
 _atom_site_occupancy
  Sm  Sm0  1  0.012855  0.174104  0.097575  1
  Sm  Sm1  1  0.987701  0.826446  0.902121  1
  Sm  Sm2  1  0.487537  0.674005  0.902208  1
  Sm  Sm3  1  0.990951  0.823237  0.596408  1
  Sm  Sm4  1  0.512955  0.326583  0.097727  1
  Sm  Sm5  1  0.008483  0.176893  0.403308  1
  Sm  Sm6  1  0.506208  0.324269  0.401770  1
  Sm  Sm7  1  0.497450  0.674571  0.598047  1
  Sc  Sc8  1  0.162204  0.499809  0.749998  1
  Sc  Sc9  1  0.837528  0.499752  0.252645  1
  Sc  Sc10  1  0.338060  0.999277  0.250929  1
  Sc  Sc11  1  0.662206  0.000810  0.749516  1
  Sc  Sc12  1  0.336771  0.171613  0.627083  1
  Sc  Sc13  1  0.664444  0.826987  0.373567  1
  Sc  Sc14  1  0.161518  0.672862  0.377037  1
  Sc  Sc15  1  0.669309  0.824116  0.125619  1
  Sc  Sc16  1  0.835486  0.328172  0.622806  1
  Sc  Sc17  1  0.330318  0.175472  0.873914  1
  Sc  Sc18  1  0.830867  0.323610  0.874383  1
  Sc  Sc19  1  0.169304  0.676603  0.125071  1
  Si  Si20  1  0.034159  0.121236  0.748729  1
  Si  Si21  1  0.965235  0.879044  0.250225  1
  Si  Si22  1  0.461264  0.621581  0.248995  1
  Si  Si23  1  0.537861  0.378384  0.750847  1
  Si  Si24  1  0.288294  0.876054  0.750004  1
  Si  Si25  1  0.713006  0.122783  0.249500  1
  Si  Si26  1  0.211162  0.379366  0.249949  1
  Si  Si27  1  0.790199  0.621731  0.750025  1
  Si  Si28  1  0.819574  0.540725  0.455893  1
  Si  Si29  1  0.340647  0.962224  0.460977  1
  Si  Si30  1  0.846768  0.536096  0.039582  1
  Si  Si31  1  0.659399  0.037370  0.540102  1
  Si  Si32  1  0.153071  0.464535  0.959964  1
  Si  Si33  1  0.653185  0.035639  0.959727  1
  Si  Si34  1  0.346794  0.964876  0.039866  1
  As  As35  1  0.177226  0.459166  0.543882  1
