# generated using pymatgen
data_Tb2HoEr3GaCo2
_symmetry_space_group_name_H-M   'P 1'
_cell_length_a   8.24978814
_cell_length_b   8.24978806
_cell_length_c   8.24978769
_cell_angle_alpha   107.01232395
_cell_angle_beta   109.18906557
_cell_angle_gamma   112.25542144
_symmetry_Int_Tables_number   1
_chemical_formula_structural   Tb2HoEr3GaCo2
_chemical_formula_sum   'Tb4 Ho2 Er6 Ga2 Co4'
_cell_volume   431.30408331
_cell_formula_units_Z   2
loop_
 _symmetry_equiv_pos_site_id
 _symmetry_equiv_pos_as_xyz
  1  'x, y, z'
loop_
 _atom_site_type_symbol
 _atom_site_label
 _atom_site_symmetry_multiplicity
 _atom_site_fract_x
 _atom_site_fract_y
 _atom_site_fract_z
 _atom_site_occupancy
  Tb  Tb0  1  0.698023  0.261100  0.959112  1
  Tb  Tb1  1  0.301988  0.738911  0.040888  1
  Tb  Tb2  1  0.698023  0.738911  0.436924  1
  Tb  Tb3  1  0.301988  0.261100  0.563076  1
  Ho  Ho4  1  0.811961  0.139489  0.327529  1
  Ho  Ho5  1  0.811961  0.484433  0.672471  1
  Er  Er6  1  0.187708  0.859906  0.672196  1
  Er  Er7  1  0.187708  0.515512  0.327804  1
  Er  Er8  1  0.601670  0.780790  0.820880  1
  Er  Er9  1  0.959910  0.780790  0.179120  1
  Er  Er10  1  0.040844  0.219244  0.821599  1
  Er  Er11  1  0.397645  0.219244  0.178401  1
  Ga  Ga12  1  0.500775  0.500775  0.000000  1
  Ga  Ga13  1  0.498872  0.998872  0.500000  1
  Co  Co14  1  0.837563  0.500518  0.337044  1
  Co  Co15  1  0.163474  0.500518  0.662956  1
  Co  Co16  1  0.999944  0.115144  0.115200  1
  Co  Co17  1  0.999944  0.884744  0.884800  1
