# generated using pymatgen
data_TbDy5Si24Os7Ru
_symmetry_space_group_name_H-M   'P 1'
_cell_length_a   10.15100532
_cell_length_b   10.15100149
_cell_length_c   8.17750904
_cell_angle_alpha   90.00036359
_cell_angle_beta   90.01874168
_cell_angle_gamma   132.50607721
_symmetry_Int_Tables_number   1
_chemical_formula_structural   TbDy5Si24Os7Ru
_chemical_formula_sum   'Tb1 Dy5 Si24 Os7 Ru1'
_cell_volume   621.19450473
_cell_formula_units_Z   1
loop_
 _symmetry_equiv_pos_site_id
 _symmetry_equiv_pos_as_xyz
  1  'x, y, z'
loop_
 _atom_site_type_symbol
 _atom_site_label
 _atom_site_symmetry_multiplicity
 _atom_site_fract_x
 _atom_site_fract_y
 _atom_site_fract_z
 _atom_site_occupancy
  Tb  Tb0  1  0.001048  0.501211  0.749316  1
  Dy  Dy1  1  0.500138  0.500137  0.499196  1
  Dy  Dy2  1  0.000745  0.000747  0.999809  1
  Dy  Dy3  1  0.501161  0.000992  0.749289  1
  Dy  Dy4  1  0.998777  0.499050  0.250722  1
  Dy  Dy5  1  0.499044  0.998778  0.250718  1
  Si  Si6  1  0.794944  0.204672  0.499999  1
  Si  Si7  1  0.295707  0.704512  0.000287  1
  Si  Si8  1  0.204954  0.795214  0.499998  1
  Si  Si9  1  0.704227  0.295432  0.000271  1
  Si  Si10  1  0.334198  0.334197  0.831992  1
  Si  Si11  1  0.668553  0.668558  0.165201  1
  Si  Si12  1  0.167286  0.167276  0.333036  1
  Si  Si13  1  0.832114  0.832124  0.667448  1
  Si  Si14  1  0.119728  0.885402  0.727839  1
  Si  Si15  1  0.114382  0.879407  0.272328  1
  Si  Si16  1  0.611252  0.376945  0.228356  1
  Si  Si17  1  0.621880  0.388230  0.771860  1
  Si  Si18  1  0.879474  0.114438  0.272334  1
  Si  Si19  1  0.885248  0.119547  0.727823  1
  Si  Si20  1  0.388371  0.622044  0.771844  1
  Si  Si21  1  0.376864  0.611188  0.228359  1
  Si  Si22  1  0.344959  0.110732  0.503660  1
  Si  Si23  1  0.888653  0.655026  0.496887  1
  Si  Si24  1  0.388409  0.154524  0.005994  1
  Si  Si25  1  0.845105  0.611850  0.994941  1
  Si  Si26  1  0.655130  0.888731  0.496999  1
  Si  Si27  1  0.110807  0.345025  0.503537  1
  Si  Si28  1  0.611774  0.845039  0.994815  1
  Si  Si29  1  0.154420  0.388337  0.006097  1
  Os  Os30  1  0.668874  0.330894  0.499878  1
  Os  Os31  1  0.169915  0.830628  0.999926  1
  Os  Os32  1  0.331379  0.669347  0.499821  1
  Os  Os33  1  0.830151  0.169443  0.999891  1
  Os  Os34  1  0.126475  0.126449  0.626887  1
  Os  Os35  1  0.873767  0.873751  0.372864  1
  Os  Os36  1  0.372805  0.372825  0.127794  1
  Ru  Ru37  1  0.627280  0.627294  0.871986  1
