# generated using pymatgen
data_Pr8Dy7Y(ScSi4)4
_symmetry_space_group_name_H-M   'P 1'
_cell_length_a   7.39609600
_cell_length_b   7.77304600
_cell_length_c   14.73997601
_cell_angle_alpha   90.00250475
_cell_angle_beta   90.00312747
_cell_angle_gamma   89.99884439
_symmetry_Int_Tables_number   1
_chemical_formula_structural   Pr8Dy7Y(ScSi4)4
_chemical_formula_sum   'Pr8 Dy7 Y1 Sc4 Si16'
_cell_volume   847.40408499
_cell_formula_units_Z   1
loop_
 _symmetry_equiv_pos_site_id
 _symmetry_equiv_pos_as_xyz
  1  'x, y, z'
loop_
 _atom_site_type_symbol
 _atom_site_label
 _atom_site_symmetry_multiplicity
 _atom_site_fract_x
 _atom_site_fract_y
 _atom_site_fract_z
 _atom_site_occupancy
  Pr  Pr0  1  0.019183  0.180047  0.401441  1
  Pr  Pr1  1  0.519412  0.320169  0.401372  1
  Pr  Pr2  1  0.480808  0.679978  0.901466  1
  Pr  Pr3  1  0.480581  0.679959  0.598536  1
  Pr  Pr4  1  0.980783  0.820039  0.598550  1
  Pr  Pr5  1  0.980759  0.820065  0.901475  1
  Pr  Pr6  1  0.519438  0.320198  0.098568  1
  Pr  Pr7  1  0.019150  0.180088  0.098576  1
  Dy  Dy8  1  0.678334  0.821755  0.374947  1
  Dy  Dy9  1  0.178049  0.677932  0.374889  1
  Dy  Dy10  1  0.821851  0.321943  0.875007  1
  Dy  Dy11  1  0.821942  0.321912  0.625100  1
  Dy  Dy12  1  0.321821  0.178129  0.874960  1
  Dy  Dy13  1  0.178091  0.677972  0.125059  1
  Dy  Dy14  1  0.678263  0.821823  0.125064  1
  Y  Y15  1  0.321813  0.178047  0.624845  1
  Sc  Sc16  1  0.654586  0.987083  0.750090  1
  Sc  Sc17  1  0.845413  0.487096  0.249905  1
  Sc  Sc18  1  0.345199  0.012399  0.250001  1
  Sc  Sc19  1  0.154225  0.512814  0.750037  1
  Si  Si20  1  0.278279  0.873924  0.750175  1
  Si  Si21  1  0.478114  0.603932  0.250021  1
  Si  Si22  1  0.021923  0.104038  0.750097  1
  Si  Si23  1  0.522407  0.396136  0.750209  1
  Si  Si24  1  0.147237  0.468860  0.539314  1
  Si  Si25  1  0.977647  0.895731  0.250009  1
  Si  Si26  1  0.721933  0.126180  0.249974  1
  Si  Si27  1  0.852587  0.531695  0.039526  1
  Si  Si28  1  0.352588  0.968303  0.039364  1
  Si  Si29  1  0.147441  0.468289  0.960590  1
  Si  Si30  1  0.647671  0.031645  0.539281  1
  Si  Si31  1  0.352687  0.968127  0.460460  1
  Si  Si32  1  0.852610  0.531672  0.460490  1
  Si  Si33  1  0.778366  0.625916  0.750001  1
  Si  Si34  1  0.221341  0.374358  0.250011  1
  Si  Si35  1  0.647470  0.031746  0.960588  1
