# generated using pymatgen
data_Ti4NbRe24
_symmetry_space_group_name_H-M   'P 1'
_cell_length_a   8.37138434
_cell_length_b   8.37138343
_cell_length_c   8.37138400
_cell_angle_alpha   109.47121960
_cell_angle_beta   109.47121740
_cell_angle_gamma   109.47122264
_symmetry_Int_Tables_number   1
_chemical_formula_structural   Ti4NbRe24
_chemical_formula_sum   'Ti4 Nb1 Re24'
_cell_volume   451.61660350
_cell_formula_units_Z   1
loop_
 _symmetry_equiv_pos_site_id
 _symmetry_equiv_pos_as_xyz
  1  'x, y, z'
loop_
 _atom_site_type_symbol
 _atom_site_label
 _atom_site_symmetry_multiplicity
 _atom_site_fract_x
 _atom_site_fract_y
 _atom_site_fract_z
 _atom_site_occupancy
  Ti  Ti0  1  0.631745  0.000000  0.000000  1
  Ti  Ti1  1  0.000000  0.631745  0.000000  1
  Ti  Ti2  1  0.000000  0.000000  0.631745  1
  Ti  Ti3  1  0.368255  0.368255  0.368255  1
  Nb  Nb4  1  0.000000  0.000000  0.000000  1
  Re  Re5  1  0.399621  0.682128  0.000000  1
  Re  Re6  1  0.717493  0.317872  0.317872  1
  Re  Re7  1  0.399621  0.000000  0.682128  1
  Re  Re8  1  0.682128  0.399621  0.000000  1
  Re  Re9  1  0.000000  0.399621  0.682128  1
  Re  Re10  1  0.317872  0.717493  0.317872  1
  Re  Re11  1  0.317872  0.317872  0.717493  1
  Re  Re12  1  0.000000  0.682128  0.399621  1
  Re  Re13  1  0.682128  0.000000  0.399621  1
  Re  Re14  1  0.600379  0.600379  0.282507  1
  Re  Re15  1  0.282507  0.600379  0.600379  1
  Re  Re16  1  0.600379  0.282507  0.600379  1
  Re  Re17  1  0.375507  0.193282  0.000000  1
  Re  Re18  1  0.182226  0.806718  0.806718  1
  Re  Re19  1  0.375507  0.000000  0.193282  1
  Re  Re20  1  0.193282  0.375507  0.000000  1
  Re  Re21  1  0.000000  0.375507  0.193282  1
  Re  Re22  1  0.806718  0.182226  0.806718  1
  Re  Re23  1  0.806718  0.806718  0.182226  1
  Re  Re24  1  0.000000  0.193282  0.375507  1
  Re  Re25  1  0.193282  0.000000  0.375507  1
  Re  Re26  1  0.624493  0.624493  0.817774  1
  Re  Re27  1  0.817774  0.624493  0.624493  1
  Re  Re28  1  0.624493  0.817774  0.624493  1
