# generated using pymatgen
data_ErTmB6Ir
_symmetry_space_group_name_H-M   'P 1'
_cell_length_a   3.61386500
_cell_length_b   9.12886900
_cell_length_c   11.47168500
_cell_angle_alpha   90.00000000
_cell_angle_beta   90.00000000
_cell_angle_gamma   90.00000000
_symmetry_Int_Tables_number   1
_chemical_formula_structural   ErTmB6Ir
_chemical_formula_sum   'Er4 Tm4 B24 Ir4'
_cell_volume   378.45662593
_cell_formula_units_Z   4
loop_
 _symmetry_equiv_pos_site_id
 _symmetry_equiv_pos_as_xyz
  1  'x, y, z'
loop_
 _atom_site_type_symbol
 _atom_site_label
 _atom_site_symmetry_multiplicity
 _atom_site_fract_x
 _atom_site_fract_y
 _atom_site_fract_z
 _atom_site_occupancy
  Er  Er0  1  0.000000  0.321066  0.413436  1
  Er  Er1  1  0.000000  0.678934  0.586564  1
  Er  Er2  1  0.000000  0.821066  0.086564  1
  Er  Er3  1  0.000000  0.178934  0.913436  1
  Tm  Tm4  1  0.000000  0.944007  0.374168  1
  Tm  Tm5  1  0.000000  0.055993  0.625832  1
  Tm  Tm6  1  0.000000  0.444007  0.125832  1
  Tm  Tm7  1  0.000000  0.555993  0.874168  1
  B  B8  1  0.500000  0.553433  0.434279  1
  B  B9  1  0.500000  0.446567  0.565721  1
  B  B10  1  0.500000  0.053433  0.065721  1
  B  B11  1  0.500000  0.946567  0.934279  1
  B  B12  1  0.500000  0.750011  0.420848  1
  B  B13  1  0.500000  0.249989  0.579152  1
  B  B14  1  0.500000  0.250011  0.079152  1
  B  B15  1  0.500000  0.749989  0.920848  1
  B  B16  1  0.500000  0.793359  0.264809  1
  B  B17  1  0.500000  0.206641  0.735191  1
  B  B18  1  0.500000  0.293359  0.235191  1
  B  B19  1  0.500000  0.706641  0.764809  1
  B  B20  1  0.500000  0.631524  0.183676  1
  B  B21  1  0.500000  0.368476  0.816324  1
  B  B22  1  0.500000  0.131524  0.316324  1
  B  B23  1  0.500000  0.868476  0.683676  1
  B  B24  1  0.500000  0.981167  0.213285  1
  B  B25  1  0.500000  0.018833  0.786715  1
  B  B26  1  0.500000  0.481167  0.286715  1
  B  B27  1  0.500000  0.518833  0.713285  1
  B  B28  1  0.500000  0.608085  0.029528  1
  B  B29  1  0.500000  0.391915  0.970472  1
  B  B30  1  0.500000  0.108085  0.470472  1
  B  B31  1  0.500000  0.891915  0.529528  1
  Ir  Ir32  1  0.000000  0.638418  0.321050  1
  Ir  Ir33  1  0.000000  0.361582  0.678950  1
  Ir  Ir34  1  0.000000  0.138418  0.178950  1
  Ir  Ir35  1  0.000000  0.861582  0.821050  1
