# generated using pymatgen
data_Dy4Y8TcRu3
_symmetry_space_group_name_H-M   'P 1'
_cell_length_a   6.33646865
_cell_length_b   7.36906480
_cell_length_c   9.22820346
_cell_angle_alpha   90.00388573
_cell_angle_beta   90.03601251
_cell_angle_gamma   89.94121287
_symmetry_Int_Tables_number   1
_chemical_formula_structural   Dy4Y8TcRu3
_chemical_formula_sum   'Dy4 Y8 Tc1 Ru3'
_cell_volume   430.90001781
_cell_formula_units_Z   1
loop_
 _symmetry_equiv_pos_site_id
 _symmetry_equiv_pos_as_xyz
  1  'x, y, z'
loop_
 _atom_site_type_symbol
 _atom_site_label
 _atom_site_symmetry_multiplicity
 _atom_site_fract_x
 _atom_site_fract_y
 _atom_site_fract_z
 _atom_site_occupancy
  Dy  Dy0  1  0.633427  0.041740  0.249858  1
  Dy  Dy1  1  0.364333  0.955746  0.750218  1
  Dy  Dy2  1  0.135051  0.456178  0.750267  1
  Dy  Dy3  1  0.167634  0.175446  0.065044  1
  Y  Y4  1  0.871637  0.542408  0.250001  1
  Y  Y5  1  0.831562  0.823934  0.935124  1
  Y  Y6  1  0.665867  0.324212  0.936728  1
  Y  Y7  1  0.831307  0.824097  0.564879  1
  Y  Y8  1  0.332490  0.676368  0.064477  1
  Y  Y9  1  0.167687  0.175815  0.435392  1
  Y  Y10  1  0.332395  0.676135  0.435645  1
  Y  Y11  1  0.666122  0.324471  0.563399  1
  Tc  Tc12  1  0.462488  0.384355  0.249439  1
  Ru  Ru13  1  0.535808  0.616866  0.749996  1
  Ru  Ru14  1  0.965098  0.115468  0.750479  1
  Ru  Ru15  1  0.037097  0.886763  0.249054  1
