# generated using pymatgen
data_NaLa6RuBr12
_symmetry_space_group_name_H-M   'P 1'
_cell_length_a   9.55877066
_cell_length_b   9.95661147
_cell_length_c   9.76551134
_cell_angle_alpha   107.82282370
_cell_angle_beta   106.98781814
_cell_angle_gamma   107.14602747
_symmetry_Int_Tables_number   1
_chemical_formula_structural   NaLa6RuBr12
_chemical_formula_sum   'Na1 La6 Ru1 Br12'
_cell_volume   767.15549581
_cell_formula_units_Z   1
loop_
 _symmetry_equiv_pos_site_id
 _symmetry_equiv_pos_as_xyz
  1  'x, y, z'
loop_
 _atom_site_type_symbol
 _atom_site_label
 _atom_site_symmetry_multiplicity
 _atom_site_fract_x
 _atom_site_fract_y
 _atom_site_fract_z
 _atom_site_occupancy
  Na  Na0  1  0.500000  0.500000  0.500000  1
  La  La1  1  0.303593  0.106386  0.027744  1
  La  La2  1  0.030710  0.335329  0.123860  1
  La  La3  1  0.116499  0.030914  0.319041  1
  La  La4  1  0.883500  0.969086  0.680959  1
  La  La5  1  0.969290  0.664671  0.876139  1
  La  La6  1  0.696407  0.893614  0.972255  1
  Ru  Ru7  1  0.000000  0.000000  0.000000  1
  Br  Br8  1  0.680896  0.212456  0.070073  1
  Br  Br9  1  0.371402  0.450971  0.160706  1
  Br  Br10  1  0.072069  0.687213  0.212496  1
  Br  Br11  1  0.785124  0.928865  0.316122  1
  Br  Br12  1  0.459838  0.163548  0.372402  1
  Br  Br13  1  0.156910  0.368113  0.455769  1
  Br  Br14  1  0.843091  0.631887  0.544232  1
  Br  Br15  1  0.540162  0.836453  0.627598  1
  Br  Br16  1  0.214875  0.071135  0.683878  1
  Br  Br17  1  0.927931  0.312787  0.787503  1
  Br  Br18  1  0.628599  0.549030  0.839294  1
  Br  Br19  1  0.319104  0.787543  0.929927  1
