# generated using pymatgen
data_Ce4InPt4Pb
_symmetry_space_group_name_H-M   'P 1'
_cell_length_a   7.96089700
_cell_length_b   7.96089700
_cell_length_c   3.71218000
_cell_angle_alpha   90.00000000
_cell_angle_beta   90.00000000
_cell_angle_gamma   90.00000000
_symmetry_Int_Tables_number   1
_chemical_formula_structural   Ce4InPt4Pb
_chemical_formula_sum   'Ce4 In1 Pt4 Pb1'
_cell_volume   235.26267810
_cell_formula_units_Z   1
loop_
 _symmetry_equiv_pos_site_id
 _symmetry_equiv_pos_as_xyz
  1  'x, y, z'
loop_
 _atom_site_type_symbol
 _atom_site_label
 _atom_site_symmetry_multiplicity
 _atom_site_fract_x
 _atom_site_fract_y
 _atom_site_fract_z
 _atom_site_occupancy
  Ce  Ce0  1  0.674223  0.829965  0.500000  1
  Ce  Ce1  1  0.829965  0.325777  0.500000  1
  Ce  Ce2  1  0.325777  0.170035  0.500000  1
  Ce  Ce3  1  0.170035  0.674223  0.500000  1
  In  In4  1  0.000000  0.000000  0.000000  1
  Pt  Pt5  1  0.634448  0.123655  0.000000  1
  Pt  Pt6  1  0.876345  0.634448  0.000000  1
  Pt  Pt7  1  0.123655  0.365552  0.000000  1
  Pt  Pt8  1  0.365552  0.876345  0.000000  1
  Pb  Pb9  1  0.500000  0.500000  0.000000  1
