# generated using pymatgen
data_AsRh3Se7
_symmetry_space_group_name_H-M   'P 1'
_cell_length_a   6.03665603
_cell_length_b   6.03665624
_cell_length_c   6.03665580
_cell_angle_alpha   90.46651460
_cell_angle_beta   90.46651397
_cell_angle_gamma   90.46652372
_symmetry_Int_Tables_number   1
_chemical_formula_structural   AsRh3Se7
_chemical_formula_sum   'As1 Rh3 Se7'
_cell_volume   219.96109046
_cell_formula_units_Z   1
loop_
 _symmetry_equiv_pos_site_id
 _symmetry_equiv_pos_as_xyz
  1  'x, y, z'
loop_
 _atom_site_type_symbol
 _atom_site_label
 _atom_site_symmetry_multiplicity
 _atom_site_fract_x
 _atom_site_fract_y
 _atom_site_fract_z
 _atom_site_occupancy
  As  As0  1  0.379323  0.379323  0.379323  1
  Rh  Rh1  1  0.005097  0.499048  0.499033  1
  Rh  Rh2  1  0.499033  0.005097  0.499048  1
  Rh  Rh3  1  0.499050  0.499035  0.005097  1
  Se  Se4  1  0.886030  0.118940  0.614181  1
  Se  Se5  1  0.614181  0.886029  0.118940  1
  Se  Se6  1  0.118939  0.614182  0.886029  1
  Se  Se7  1  0.115600  0.882086  0.383555  1
  Se  Se8  1  0.383555  0.115601  0.882085  1
  Se  Se9  1  0.882086  0.383554  0.115600  1
  Se  Se10  1  0.617104  0.617104  0.617104  1
