# generated using pymatgen
data_Dy4MnNb4(Fe5P4)3
_symmetry_space_group_name_H-M   'P 1'
_cell_length_a   3.68709800
_cell_length_b   10.52607133
_cell_length_c   12.32000451
_cell_angle_alpha   90.03079524
_cell_angle_beta   90.00000000
_cell_angle_gamma   90.00000000
_symmetry_Int_Tables_number   1
_chemical_formula_structural   Dy4MnNb4(Fe5P4)3
_chemical_formula_sum   'Dy4 Mn1 Nb4 Fe15 P12'
_cell_volume   478.14739457
_cell_formula_units_Z   1
loop_
 _symmetry_equiv_pos_site_id
 _symmetry_equiv_pos_as_xyz
  1  'x, y, z'
loop_
 _atom_site_type_symbol
 _atom_site_label
 _atom_site_symmetry_multiplicity
 _atom_site_fract_x
 _atom_site_fract_y
 _atom_site_fract_z
 _atom_site_occupancy
  Dy  Dy0  1  0.250000  0.585125  0.712763  1
  Dy  Dy1  1  0.250000  0.915193  0.212646  1
  Dy  Dy2  1  0.750000  0.415196  0.286800  1
  Dy  Dy3  1  0.750000  0.084924  0.787490  1
  Mn  Mn4  1  0.250000  0.413370  0.492411  1
  Nb  Nb5  1  0.250000  0.705018  0.991377  1
  Nb  Nb6  1  0.250000  0.794982  0.491155  1
  Nb  Nb7  1  0.750000  0.294641  0.008506  1
  Nb  Nb8  1  0.750000  0.204015  0.508683  1
  Fe  Fe9  1  0.250000  0.083017  0.992770  1
  Fe  Fe10  1  0.750000  0.585611  0.508626  1
  Fe  Fe11  1  0.750000  0.917348  0.007382  1
  Fe  Fe12  1  0.250000  0.215678  0.172688  1
  Fe  Fe13  1  0.250000  0.284595  0.672313  1
  Fe  Fe14  1  0.750000  0.784457  0.827522  1
  Fe  Fe15  1  0.750000  0.717025  0.326462  1
  Fe  Fe16  1  0.250000  0.879155  0.699950  1
  Fe  Fe17  1  0.250000  0.620573  0.199761  1
  Fe  Fe18  1  0.750000  0.120317  0.300389  1
  Fe  Fe19  1  0.750000  0.380066  0.799920  1
  Fe  Fe20  1  0.250000  0.464040  0.933317  1
  Fe  Fe21  1  0.250000  0.035640  0.433034  1
  Fe  Fe22  1  0.750000  0.536028  0.066605  1
  Fe  Fe23  1  0.750000  0.963448  0.567173  1
  P  P24  1  0.250000  0.426733  0.112508  1
  P  P25  1  0.250000  0.072011  0.612656  1
  P  P26  1  0.750000  0.572913  0.887282  1
  P  P27  1  0.750000  0.927180  0.387567  1
  P  P28  1  0.250000  0.273788  0.856232  1
  P  P29  1  0.250000  0.227322  0.357222  1
  P  P30  1  0.750000  0.726752  0.143281  1
  P  P31  1  0.750000  0.772556  0.642892  1
  P  P32  1  0.250000  0.593173  0.379846  1
  P  P33  1  0.250000  0.905977  0.878903  1
  P  P34  1  0.750000  0.407880  0.620393  1
  P  P35  1  0.750000  0.094255  0.121478  1
