# generated using pymatgen
data_Ti17Nb2Si16Ru
_symmetry_space_group_name_H-M   'P 1'
_cell_length_a   6.69670483
_cell_length_b   6.69670472
_cell_length_c   12.20333530
_cell_angle_alpha   89.79564909
_cell_angle_beta   90.20434885
_cell_angle_gamma   89.83054609
_symmetry_Int_Tables_number   1
_chemical_formula_structural   Ti17Nb2Si16Ru
_chemical_formula_sum   'Ti17 Nb2 Si16 Ru1'
_cell_volume   547.25962764
_cell_formula_units_Z   1
loop_
 _symmetry_equiv_pos_site_id
 _symmetry_equiv_pos_as_xyz
  1  'x, y, z'
loop_
 _atom_site_type_symbol
 _atom_site_label
 _atom_site_symmetry_multiplicity
 _atom_site_fract_x
 _atom_site_fract_y
 _atom_site_fract_z
 _atom_site_occupancy
  Ti  Ti0  1  0.995801  0.148450  0.623452  1
  Ti  Ti1  1  0.353761  0.499330  0.869989  1
  Ti  Ti2  1  0.648341  0.504903  0.370906  1
  Ti  Ti3  1  0.499330  0.353761  0.130011  1
  Ti  Ti4  1  0.504903  0.648341  0.629094  1
  Ti  Ti5  1  0.005141  0.847846  0.120436  1
  Ti  Ti6  1  0.148450  0.995801  0.376548  1
  Ti  Ti7  1  0.847846  0.005141  0.879564  1
  Ti  Ti8  1  0.001412  0.345816  0.221543  1
  Ti  Ti9  1  0.156342  0.502612  0.468615  1
  Ti  Ti10  1  0.838158  0.500702  0.970321  1
  Ti  Ti11  1  0.502612  0.156342  0.531385  1
  Ti  Ti12  1  0.500702  0.838158  0.029679  1
  Ti  Ti13  1  0.997203  0.656759  0.721243  1
  Ti  Ti14  1  0.345816  0.001412  0.778457  1
  Ti  Ti15  1  0.656759  0.997203  0.278757  1
  Ti  Ti16  1  0.829969  0.829969  0.500000  1
  Nb  Nb17  1  0.327410  0.671850  0.247964  1
  Nb  Nb18  1  0.671850  0.327410  0.752036  1
  Si  Si19  1  0.050724  0.298517  0.816767  1
  Si  Si20  1  0.196324  0.536775  0.059625  1
  Si  Si21  1  0.803637  0.456551  0.562245  1
  Si  Si22  1  0.536775  0.196324  0.940375  1
  Si  Si23  1  0.456551  0.803637  0.437755  1
  Si  Si24  1  0.952674  0.700077  0.314757  1
  Si  Si25  1  0.298517  0.050724  0.183233  1
  Si  Si26  1  0.700077  0.952674  0.685243  1
  Si  Si27  1  0.291262  0.358922  0.672048  1
  Si  Si28  1  0.140908  0.794830  0.921712  1
  Si  Si29  1  0.858390  0.205690  0.423089  1
  Si  Si30  1  0.794830  0.140908  0.078288  1
  Si  Si31  1  0.205690  0.858390  0.576911  1
  Si  Si32  1  0.708842  0.642266  0.172496  1
  Si  Si33  1  0.358922  0.291262  0.327952  1
  Si  Si34  1  0.642266  0.708842  0.827504  1
  Ru  Ru35  1  0.171806  0.171806  0.000000  1
