# generated using pymatgen
data_Ho16MgCd3PdRu3
_symmetry_space_group_name_H-M   'P 1'
_cell_length_a   9.64381263
_cell_length_b   9.66364330
_cell_length_c   9.66412624
_cell_angle_alpha   59.55715703
_cell_angle_beta   59.37132132
_cell_angle_gamma   59.37132949
_symmetry_Int_Tables_number   1
_chemical_formula_structural   Ho16MgCd3PdRu3
_chemical_formula_sum   'Ho16 Mg1 Cd3 Pd1 Ru3'
_cell_volume   628.63399087
_cell_formula_units_Z   1
loop_
 _symmetry_equiv_pos_site_id
 _symmetry_equiv_pos_as_xyz
  1  'x, y, z'
loop_
 _atom_site_type_symbol
 _atom_site_label
 _atom_site_symmetry_multiplicity
 _atom_site_fract_x
 _atom_site_fract_y
 _atom_site_fract_z
 _atom_site_occupancy
  Ho  Ho0  1  0.345343  0.352298  0.352291  1
  Ho  Ho1  1  0.344467  0.350787  0.955774  1
  Ho  Ho2  1  0.344473  0.955804  0.350770  1
  Ho  Ho3  1  0.966925  0.344236  0.344180  1
  Ho  Ho4  1  0.815147  0.190148  0.190138  1
  Ho  Ho5  1  0.184465  0.812450  0.812485  1
  Ho  Ho6  1  0.187285  0.810787  0.189683  1
  Ho  Ho7  1  0.816799  0.189027  0.805455  1
  Ho  Ho8  1  0.187282  0.189679  0.810797  1
  Ho  Ho9  1  0.816815  0.805446  0.189031  1
  Ho  Ho10  1  0.936687  0.562370  0.562386  1
  Ho  Ho11  1  0.558089  0.937925  0.937925  1
  Ho  Ho12  1  0.557404  0.938661  0.566775  1
  Ho  Ho13  1  0.936091  0.562902  0.938446  1
  Ho  Ho14  1  0.557371  0.566747  0.938692  1
  Ho  Ho15  1  0.936085  0.938451  0.562912  1
  Mg  Mg16  1  0.575633  0.574536  0.574503  1
  Cd  Cd17  1  0.581645  0.580539  0.256634  1
  Cd  Cd18  1  0.581632  0.256624  0.580573  1
  Cd  Cd19  1  0.254126  0.581785  0.581812  1
  Pd  Pd20  1  0.574131  0.143254  0.143205  1
  Ru  Ru21  1  0.146240  0.138019  0.138003  1
  Ru  Ru22  1  0.147911  0.140085  0.577471  1
  Ru  Ru23  1  0.147955  0.577443  0.140060  1
