# generated using pymatgen
data_Ho3Er(As4O9)2
_symmetry_space_group_name_H-M   'P 1'
_cell_length_a   6.72414084
_cell_length_b   7.52990727
_cell_length_c   9.78753248
_cell_angle_alpha   94.92776393
_cell_angle_beta   104.08990114
_cell_angle_gamma   104.73403215
_symmetry_Int_Tables_number   1
_chemical_formula_structural   Ho3Er(As4O9)2
_chemical_formula_sum   'Ho3 Er1 As8 O18'
_cell_volume   459.04148364
_cell_formula_units_Z   1
loop_
 _symmetry_equiv_pos_site_id
 _symmetry_equiv_pos_as_xyz
  1  'x, y, z'
loop_
 _atom_site_type_symbol
 _atom_site_label
 _atom_site_symmetry_multiplicity
 _atom_site_fract_x
 _atom_site_fract_y
 _atom_site_fract_z
 _atom_site_occupancy
  Ho  Ho0  1  0.243649  0.939509  0.614983  1
  Ho  Ho1  1  0.756633  0.060827  0.384962  1
  Ho  Ho2  1  0.721279  0.529915  0.410082  1
  Er  Er3  1  0.278809  0.470647  0.590259  1
  As  As4  1  0.682573  0.774237  0.078083  1
  As  As5  1  0.317436  0.226205  0.921377  1
  As  As6  1  0.170488  0.752448  0.912915  1
  As  As7  1  0.829616  0.247566  0.086668  1
  As  As8  1  0.742879  0.914879  0.709962  1
  As  As9  1  0.256747  0.084738  0.289965  1
  As  As10  1  0.810006  0.351351  0.702127  1
  As  As11  1  0.189760  0.648335  0.298267  1
  O  O12  1  0.722696  0.749119  0.259437  1
  O  O13  1  0.277546  0.252009  0.740343  1
  O  O14  1  0.314911  0.978539  0.868960  1
  O  O15  1  0.684801  0.021671  0.130491  1
  O  O16  1  0.608067  0.325045  0.985411  1
  O  O17  1  0.391867  0.675134  0.014498  1
  O  O18  1  0.126352  0.644283  0.737654  1
  O  O19  1  0.874074  0.355332  0.262226  1
  O  O20  1  0.847428  0.875467  0.559448  1
  O  O21  1  0.152744  0.124724  0.440626  1
  O  O22  1  0.481557  0.767391  0.666382  1
  O  O23  1  0.518515  0.231992  0.333377  1
  O  O24  1  0.371857  0.532025  0.380054  1
  O  O25  1  0.626664  0.466742  0.620759  1
  O  O26  1  0.089562  0.670039  0.454422  1
  O  O27  1  0.911521  0.330175  0.546305  1
  O  O28  1  0.377984  0.899145  0.358390  1
  O  O29  1  0.621980  0.100512  0.641569  1
