# generated using pymatgen
data_YbTm3(Sc3Pt4)2
_symmetry_space_group_name_H-M   'P 1'
_cell_length_a   7.29877717
_cell_length_b   7.34020609
_cell_length_c   13.87777784
_cell_angle_alpha   90.22570712
_cell_angle_beta   90.31461090
_cell_angle_gamma   89.83333367
_symmetry_Int_Tables_number   1
_chemical_formula_structural   YbTm3(Sc3Pt4)2
_chemical_formula_sum   'Yb2 Tm6 Sc12 Pt16'
_cell_volume   743.47533004
_cell_formula_units_Z   2
loop_
 _symmetry_equiv_pos_site_id
 _symmetry_equiv_pos_as_xyz
  1  'x, y, z'
loop_
 _atom_site_type_symbol
 _atom_site_label
 _atom_site_symmetry_multiplicity
 _atom_site_fract_x
 _atom_site_fract_y
 _atom_site_fract_z
 _atom_site_occupancy
  Yb  Yb0  1  0.004417  0.176761  0.093392  1
  Yb  Yb1  1  0.995583  0.823239  0.906608  1
  Tm  Tm2  1  0.493386  0.676525  0.905950  1
  Tm  Tm3  1  0.993220  0.822566  0.594600  1
  Tm  Tm4  1  0.506614  0.323475  0.094050  1
  Tm  Tm5  1  0.006780  0.177434  0.405400  1
  Tm  Tm6  1  0.507893  0.322417  0.405520  1
  Tm  Tm7  1  0.492107  0.677583  0.594480  1
  Sc  Sc8  1  0.164484  0.500997  0.749935  1
  Sc  Sc9  1  0.835516  0.499003  0.250065  1
  Sc  Sc10  1  0.333624  0.001753  0.250070  1
  Sc  Sc11  1  0.666376  0.998247  0.749930  1
  Sc  Sc12  1  0.333243  0.165233  0.623378  1
  Sc  Sc13  1  0.666757  0.834767  0.376622  1
  Sc  Sc14  1  0.166526  0.664812  0.376340  1
  Sc  Sc15  1  0.666073  0.834498  0.124079  1
  Sc  Sc16  1  0.833474  0.335188  0.623660  1
  Sc  Sc17  1  0.333927  0.165502  0.875921  1
  Sc  Sc18  1  0.833900  0.335021  0.876173  1
  Sc  Sc19  1  0.166100  0.664979  0.123827  1
  Pt  Pt20  1  0.029409  0.122888  0.749156  1
  Pt  Pt21  1  0.970591  0.877112  0.250844  1
  Pt  Pt22  1  0.471286  0.622897  0.249356  1
  Pt  Pt23  1  0.528714  0.377103  0.750644  1
  Pt  Pt24  1  0.298344  0.854306  0.749264  1
  Pt  Pt25  1  0.701656  0.145694  0.250736  1
  Pt  Pt26  1  0.204647  0.355694  0.251638  1
  Pt  Pt27  1  0.795353  0.644306  0.748362  1
  Pt  Pt28  1  0.176091  0.459420  0.542723  1
  Pt  Pt29  1  0.823909  0.540580  0.457277  1
  Pt  Pt30  1  0.323611  0.959419  0.457138  1
  Pt  Pt31  1  0.821120  0.541178  0.043562  1
  Pt  Pt32  1  0.676389  0.040581  0.542862  1
  Pt  Pt33  1  0.178880  0.458822  0.956438  1
  Pt  Pt34  1  0.667312  0.044673  0.955125  1
  Pt  Pt35  1  0.332688  0.955327  0.044875  1
