# generated using pymatgen
data_Nd2Sc3Si7(Pt2Rh)3
_symmetry_space_group_name_H-M   'P 1'
_cell_length_a   10.10495700
_cell_length_b   10.10495635
_cell_length_c   3.96744700
_cell_angle_alpha   90.00000000
_cell_angle_beta   90.00000000
_cell_angle_gamma   119.99999887
_symmetry_Int_Tables_number   1
_chemical_formula_structural   Nd2Sc3Si7(Pt2Rh)3
_chemical_formula_sum   'Nd2 Sc3 Si7 Pt6 Rh3'
_cell_volume   350.84127610
_cell_formula_units_Z   1
loop_
 _symmetry_equiv_pos_site_id
 _symmetry_equiv_pos_as_xyz
  1  'x, y, z'
loop_
 _atom_site_type_symbol
 _atom_site_label
 _atom_site_symmetry_multiplicity
 _atom_site_fract_x
 _atom_site_fract_y
 _atom_site_fract_z
 _atom_site_occupancy
  Nd  Nd0  1  0.000000  0.000000  0.000000  1
  Nd  Nd1  1  0.333333  0.666667  0.500000  1
  Sc  Sc2  1  0.892643  0.451843  0.500000  1
  Sc  Sc3  1  0.559199  0.107357  0.500000  1
  Sc  Sc4  1  0.548157  0.440801  0.500000  1
  Si  Si5  1  0.250398  0.203916  0.500000  1
  Si  Si6  1  0.796084  0.046483  0.500000  1
  Si  Si7  1  0.953517  0.749602  0.500000  1
  Si  Si8  1  0.562752  0.650723  0.000000  1
  Si  Si9  1  0.349277  0.912029  0.000000  1
  Si  Si10  1  0.087971  0.437248  0.000000  1
  Si  Si11  1  0.666667  0.333333  0.000000  1
  Pt  Pt12  1  0.311859  0.407439  0.000000  1
  Pt  Pt13  1  0.592561  0.904420  0.000000  1
  Pt  Pt14  1  0.095580  0.688141  0.000000  1
  Pt  Pt15  1  0.386087  0.173656  0.000000  1
  Pt  Pt16  1  0.826344  0.212431  0.000000  1
  Pt  Pt17  1  0.787569  0.613913  0.000000  1
  Rh  Rh18  1  0.223497  0.939831  0.500000  1
  Rh  Rh19  1  0.060169  0.283667  0.500000  1
  Rh  Rh20  1  0.716333  0.776503  0.500000  1
