# generated using pymatgen
data_Th4Zn9CuSn2
_symmetry_space_group_name_H-M   'P 1'
_cell_length_a   8.53239604
_cell_length_b   8.53239554
_cell_length_c   9.02478300
_cell_angle_alpha   90.00000000
_cell_angle_beta   90.00000000
_cell_angle_gamma   149.50379733
_symmetry_Int_Tables_number   1
_chemical_formula_structural   Th4Zn9CuSn2
_chemical_formula_sum   'Th4 Zn9 Cu1 Sn2'
_cell_volume   333.42546086
_cell_formula_units_Z   1
loop_
 _symmetry_equiv_pos_site_id
 _symmetry_equiv_pos_as_xyz
  1  'x, y, z'
loop_
 _atom_site_type_symbol
 _atom_site_label
 _atom_site_symmetry_multiplicity
 _atom_site_fract_x
 _atom_site_fract_y
 _atom_site_fract_z
 _atom_site_occupancy
  Th  Th0  1  0.206278  0.793722  0.250000  1
  Th  Th1  1  0.795006  0.204994  0.750000  1
  Th  Th2  1  0.998910  0.001090  0.496796  1
  Th  Th3  1  0.998910  0.001090  0.003204  1
  Zn  Zn4  1  0.817319  0.182681  0.390434  1
  Zn  Zn5  1  0.184388  0.815612  0.606986  1
  Zn  Zn6  1  0.817319  0.182681  0.109566  1
  Zn  Zn7  1  0.184388  0.815612  0.893014  1
  Zn  Zn8  1  0.657173  0.342827  0.482047  1
  Zn  Zn9  1  0.343666  0.656334  0.513699  1
  Zn  Zn10  1  0.657173  0.342827  0.017953  1
  Zn  Zn11  1  0.343666  0.656334  0.986301  1
  Zn  Zn12  1  0.604666  0.395334  0.750000  1
  Cu  Cu13  1  0.393985  0.606015  0.250000  1
  Sn  Sn14  1  0.552530  0.447470  0.250000  1
  Sn  Sn15  1  0.444624  0.555376  0.750000  1
