# generated using pymatgen
data_Dy4Tm(SnSb)2
_symmetry_space_group_name_H-M   'P 1'
_cell_length_a   8.71204594
_cell_length_b   8.71204681
_cell_length_c   8.12790800
_cell_angle_alpha   90.00000000
_cell_angle_beta   90.00000000
_cell_angle_gamma   124.76827704
_symmetry_Int_Tables_number   1
_chemical_formula_structural   Dy4Tm(SnSb)2
_chemical_formula_sum   'Dy8 Tm2 Sn4 Sb4'
_cell_volume   506.76689644
_cell_formula_units_Z   2
loop_
 _symmetry_equiv_pos_site_id
 _symmetry_equiv_pos_as_xyz
  1  'x, y, z'
loop_
 _atom_site_type_symbol
 _atom_site_label
 _atom_site_symmetry_multiplicity
 _atom_site_fract_x
 _atom_site_fract_y
 _atom_site_fract_z
 _atom_site_occupancy
  Dy  Dy0  1  0.030662  0.302426  0.335070  1
  Dy  Dy1  1  0.969338  0.697574  0.664930  1
  Dy  Dy2  1  0.469338  0.197574  0.835070  1
  Dy  Dy3  1  0.802426  0.530662  0.164930  1
  Dy  Dy4  1  0.530662  0.802426  0.164930  1
  Dy  Dy5  1  0.197574  0.469338  0.835070  1
  Dy  Dy6  1  0.697574  0.969338  0.664930  1
  Dy  Dy7  1  0.302426  0.030662  0.335070  1
  Tm  Tm8  1  0.000000  0.000000  0.000000  1
  Tm  Tm9  1  0.500000  0.500000  0.500000  1
  Sn  Sn10  1  0.363869  0.363869  0.135794  1
  Sn  Sn11  1  0.636131  0.636131  0.864206  1
  Sn  Sn12  1  0.136131  0.136131  0.635794  1
  Sn  Sn13  1  0.863869  0.863869  0.364206  1
  Sb  Sb14  1  0.797961  0.202039  0.000000  1
  Sb  Sb15  1  0.202039  0.797961  0.000000  1
  Sb  Sb16  1  0.702039  0.297961  0.500000  1
  Sb  Sb17  1  0.297961  0.702039  0.500000  1
