# generated using pymatgen
data_ErLu3Zn4Ir3Rh
_symmetry_space_group_name_H-M   'P 1'
_cell_length_a   4.00340700
_cell_length_b   6.90863558
_cell_length_c   8.04070602
_cell_angle_alpha   89.75581581
_cell_angle_beta   90.00000000
_cell_angle_gamma   90.00000000
_symmetry_Int_Tables_number   1
_chemical_formula_structural   ErLu3Zn4Ir3Rh
_chemical_formula_sum   'Er1 Lu3 Zn4 Ir3 Rh1'
_cell_volume   222.38847097
_cell_formula_units_Z   1
loop_
 _symmetry_equiv_pos_site_id
 _symmetry_equiv_pos_as_xyz
  1  'x, y, z'
loop_
 _atom_site_type_symbol
 _atom_site_label
 _atom_site_symmetry_multiplicity
 _atom_site_fract_x
 _atom_site_fract_y
 _atom_site_fract_z
 _atom_site_occupancy
  Er  Er0  1  0.750000  0.466805  0.819950  1
  Lu  Lu1  1  0.250000  0.535862  0.181567  1
  Lu  Lu2  1  0.750000  0.962202  0.680737  1
  Lu  Lu3  1  0.250000  0.034096  0.317337  1
  Zn  Zn4  1  0.250000  0.638634  0.564947  1
  Zn  Zn5  1  0.750000  0.360490  0.434813  1
  Zn  Zn6  1  0.750000  0.861135  0.065933  1
  Zn  Zn7  1  0.250000  0.139505  0.935054  1
  Ir  Ir8  1  0.250000  0.759784  0.874677  1
  Ir  Ir9  1  0.750000  0.243469  0.125328  1
  Ir  Ir10  1  0.750000  0.742992  0.376653  1
  Rh  Rh11  1  0.250000  0.255028  0.623004  1
