# generated using pymatgen
data_Y2Tm2OsWC4
_symmetry_space_group_name_H-M   'P 1'
_cell_length_a   5.07360900
_cell_length_b   6.59404491
_cell_length_c   9.83641025
_cell_angle_alpha   89.26766044
_cell_angle_beta   90.00000000
_cell_angle_gamma   90.00000000
_symmetry_Int_Tables_number   1
_chemical_formula_structural   Y2Tm2OsWC4
_chemical_formula_sum   'Y4 Tm4 Os2 W2 C8'
_cell_volume   329.05618048
_cell_formula_units_Z   2
loop_
 _symmetry_equiv_pos_site_id
 _symmetry_equiv_pos_as_xyz
  1  'x, y, z'
loop_
 _atom_site_type_symbol
 _atom_site_label
 _atom_site_symmetry_multiplicity
 _atom_site_fract_x
 _atom_site_fract_y
 _atom_site_fract_z
 _atom_site_occupancy
  Y  Y0  1  0.250000  0.540346  0.217312  1
  Y  Y1  1  0.750000  0.459654  0.782688  1
  Y  Y2  1  0.750000  0.966881  0.715432  1
  Y  Y3  1  0.250000  0.033119  0.284568  1
  Tm  Tm4  1  0.250000  0.674071  0.558802  1
  Tm  Tm5  1  0.750000  0.325929  0.441198  1
  Tm  Tm6  1  0.750000  0.826926  0.059159  1
  Tm  Tm7  1  0.250000  0.173074  0.940841  1
  Os  Os8  1  0.750000  0.779097  0.367113  1
  Os  Os9  1  0.250000  0.220903  0.632887  1
  W  W10  1  0.250000  0.716768  0.868151  1
  W  W11  1  0.750000  0.283232  0.131849  1
  C  C12  1  0.250000  0.449070  0.759048  1
  C  C13  1  0.750000  0.550930  0.240952  1
  C  C14  1  0.750000  0.047598  0.260704  1
  C  C15  1  0.250000  0.952402  0.739296  1
  C  C16  1  0.250000  0.829251  0.053013  1
  C  C17  1  0.750000  0.170749  0.946987  1
  C  C18  1  0.750000  0.672035  0.548718  1
  C  C19  1  0.250000  0.327965  0.451282  1
