# generated using pymatgen
data_Y3Ti(Co4P3)2
_symmetry_space_group_name_H-M   'P 1'
_cell_length_a   3.69621200
_cell_length_b   10.60821000
_cell_length_c   12.28603400
_cell_angle_alpha   90.00000000
_cell_angle_beta   90.00000000
_cell_angle_gamma   90.00000000
_symmetry_Int_Tables_number   1
_chemical_formula_structural   Y3Ti(Co4P3)2
_chemical_formula_sum   'Y6 Ti2 Co16 P12'
_cell_volume   481.73776558
_cell_formula_units_Z   2
loop_
 _symmetry_equiv_pos_site_id
 _symmetry_equiv_pos_as_xyz
  1  'x, y, z'
loop_
 _atom_site_type_symbol
 _atom_site_label
 _atom_site_symmetry_multiplicity
 _atom_site_fract_x
 _atom_site_fract_y
 _atom_site_fract_z
 _atom_site_occupancy
  Y  Y0  1  0.000000  0.500000  0.525029  1
  Y  Y1  1  0.500000  0.000000  0.474971  1
  Y  Y2  1  0.500000  0.819865  0.204210  1
  Y  Y3  1  0.500000  0.180135  0.204210  1
  Y  Y4  1  0.000000  0.680135  0.795790  1
  Y  Y5  1  0.000000  0.319865  0.795790  1
  Ti  Ti6  1  0.500000  0.500000  0.153655  1
  Ti  Ti7  1  0.000000  0.000000  0.846345  1
  Co  Co8  1  0.500000  0.500000  0.702721  1
  Co  Co9  1  0.000000  0.000000  0.297279  1
  Co  Co10  1  0.000000  0.500000  0.987480  1
  Co  Co11  1  0.500000  0.000000  0.012520  1
  Co  Co12  1  0.500000  0.332230  0.994028  1
  Co  Co13  1  0.500000  0.667770  0.994028  1
  Co  Co14  1  0.000000  0.167770  0.005972  1
  Co  Co15  1  0.000000  0.832230  0.005972  1
  Co  Co16  1  0.500000  0.295817  0.431879  1
  Co  Co17  1  0.500000  0.704183  0.431879  1
  Co  Co18  1  0.000000  0.204183  0.568121  1
  Co  Co19  1  0.000000  0.795817  0.568121  1
  Co  Co20  1  0.500000  0.878647  0.705966  1
  Co  Co21  1  0.500000  0.121353  0.705966  1
  Co  Co22  1  0.000000  0.621353  0.294034  1
  Co  Co23  1  0.000000  0.378647  0.294034  1
  P  P24  1  0.500000  0.500000  0.883430  1
  P  P25  1  0.000000  0.000000  0.116570  1
  P  P26  1  0.500000  0.500000  0.352844  1
  P  P27  1  0.000000  0.000000  0.647156  1
  P  P28  1  0.500000  0.310253  0.615781  1
  P  P29  1  0.500000  0.689747  0.615781  1
  P  P30  1  0.000000  0.189747  0.384219  1
  P  P31  1  0.000000  0.810253  0.384219  1
  P  P32  1  0.500000  0.843121  0.892260  1
  P  P33  1  0.500000  0.156879  0.892260  1
  P  P34  1  0.000000  0.656879  0.107740  1
  P  P35  1  0.000000  0.343121  0.107740  1
