# generated using pymatgen
data_TmPa3Co4
_symmetry_space_group_name_H-M   'P 1'
_cell_length_a   3.71295700
_cell_length_b   5.63414863
_cell_length_c   7.14621934
_cell_angle_alpha   89.81229787
_cell_angle_beta   90.00000000
_cell_angle_gamma   90.00000000
_symmetry_Int_Tables_number   1
_chemical_formula_structural   TmPa3Co4
_chemical_formula_sum   'Tm1 Pa3 Co4'
_cell_volume   149.49347286
_cell_formula_units_Z   1
loop_
 _symmetry_equiv_pos_site_id
 _symmetry_equiv_pos_as_xyz
  1  'x, y, z'
loop_
 _atom_site_type_symbol
 _atom_site_label
 _atom_site_symmetry_multiplicity
 _atom_site_fract_x
 _atom_site_fract_y
 _atom_site_fract_z
 _atom_site_occupancy
  Tm  Tm0  1  0.250000  0.834323  0.674211  1
  Pa  Pa1  1  0.250000  0.681051  0.173169  1
  Pa  Pa2  1  0.750000  0.327945  0.820518  1
  Pa  Pa3  1  0.750000  0.176843  0.327882  1
  Co  Co4  1  0.250000  0.179138  0.057563  1
  Co  Co5  1  0.750000  0.840738  0.965284  1
  Co  Co6  1  0.750000  0.633837  0.422088  1
  Co  Co7  1  0.250000  0.326124  0.559285  1
