# generated using pymatgen
data_Y2Ho3Co19(SiP)6
_symmetry_space_group_name_H-M   'P 1'
_cell_length_a   12.06049500
_cell_length_b   12.06049744
_cell_length_c   3.67812400
_cell_angle_alpha   90.00000000
_cell_angle_beta   90.00000000
_cell_angle_gamma   120.00000154
_symmetry_Int_Tables_number   1
_chemical_formula_structural   Y2Ho3Co19(SiP)6
_chemical_formula_sum   'Y2 Ho3 Co19 Si6 P6'
_cell_volume   463.32671830
_cell_formula_units_Z   1
loop_
 _symmetry_equiv_pos_site_id
 _symmetry_equiv_pos_as_xyz
  1  'x, y, z'
loop_
 _atom_site_type_symbol
 _atom_site_label
 _atom_site_symmetry_multiplicity
 _atom_site_fract_x
 _atom_site_fract_y
 _atom_site_fract_z
 _atom_site_occupancy
  Y  Y0  1  0.666667  0.333333  0.000000  1
  Y  Y1  1  0.333333  0.666667  0.000000  1
  Ho  Ho2  1  0.815845  0.815845  0.500000  1
  Ho  Ho3  1  0.184155  0.000000  0.500000  1
  Ho  Ho4  1  0.000000  0.184155  0.500000  1
  Co  Co5  1  0.878463  0.354432  0.500000  1
  Co  Co6  1  0.645568  0.524032  0.500000  1
  Co  Co7  1  0.475968  0.121537  0.500000  1
  Co  Co8  1  0.354432  0.878463  0.500000  1
  Co  Co9  1  0.524032  0.645568  0.500000  1
  Co  Co10  1  0.121537  0.475968  0.500000  1
  Co  Co11  1  0.447654  0.447654  0.000000  1
  Co  Co12  1  0.552346  0.000000  0.000000  1
  Co  Co13  1  0.000000  0.552346  0.000000  1
  Co  Co14  1  0.805568  0.178382  0.000000  1
  Co  Co15  1  0.821618  0.627185  0.000000  1
  Co  Co16  1  0.372815  0.194432  0.000000  1
  Co  Co17  1  0.178382  0.805568  0.000000  1
  Co  Co18  1  0.627185  0.821618  0.000000  1
  Co  Co19  1  0.194432  0.372815  0.000000  1
  Co  Co20  1  0.277298  0.277298  0.500000  1
  Co  Co21  1  0.722702  0.000000  0.500000  1
  Co  Co22  1  0.000000  0.722702  0.500000  1
  Co  Co23  1  0.000000  0.000000  0.000000  1
  Si  Si24  1  0.680537  0.158624  0.500000  1
  Si  Si25  1  0.841376  0.521914  0.500000  1
  Si  Si26  1  0.478086  0.319463  0.500000  1
  Si  Si27  1  0.158624  0.680537  0.500000  1
  Si  Si28  1  0.521914  0.841376  0.500000  1
  Si  Si29  1  0.319463  0.478086  0.500000  1
  P  P30  1  0.180582  0.180582  0.000000  1
  P  P31  1  0.819418  0.000000  0.000000  1
  P  P32  1  0.000000  0.819418  0.000000  1
  P  P33  1  0.632218  0.632218  0.000000  1
  P  P34  1  0.367782  0.000000  0.000000  1
  P  P35  1  0.000000  0.367782  0.000000  1
