# generated using pymatgen
data_LaNdTh5Te12
_symmetry_space_group_name_H-M   'P 1'
_cell_length_a   12.64901159
_cell_length_b   12.62602242
_cell_length_c   4.36954100
_cell_angle_alpha   90.00000000
_cell_angle_beta   90.00000000
_cell_angle_gamma   119.71566335
_symmetry_Int_Tables_number   1
_chemical_formula_structural   LaNdTh5Te12
_chemical_formula_sum   'La1 Nd1 Th5 Te12'
_cell_volume   606.07560763
_cell_formula_units_Z   1
loop_
 _symmetry_equiv_pos_site_id
 _symmetry_equiv_pos_as_xyz
  1  'x, y, z'
loop_
 _atom_site_type_symbol
 _atom_site_label
 _atom_site_symmetry_multiplicity
 _atom_site_fract_x
 _atom_site_fract_y
 _atom_site_fract_z
 _atom_site_occupancy
  La  La0  1  0.725711  0.159743  0.000000  1
  Nd  Nd1  1  0.844345  0.565703  0.000000  1
  Th  Th2  1  0.431806  0.276164  0.000000  1
  Th  Th3  1  0.552191  0.712014  0.500000  1
  Th  Th4  1  0.289168  0.841257  0.500000  1
  Th  Th5  1  0.157925  0.448365  0.500000  1
  Th  Th6  1  0.994308  0.994382  0.000000  1
  Te  Te7  1  0.742319  0.747698  0.000000  1
  Te  Te8  1  0.246498  0.993716  0.000000  1
  Te  Te9  1  0.010639  0.254329  0.000000  1
  Te  Te10  1  0.490349  0.864115  0.000000  1
  Te  Te11  1  0.136745  0.628426  0.000000  1
  Te  Te12  1  0.373084  0.509055  0.000000  1
  Te  Te13  1  0.867093  0.389504  0.500000  1
  Te  Te14  1  0.215343  0.212512  0.500000  1
  Te  Te15  1  0.000109  0.791688  0.500000  1
  Te  Te16  1  0.793129  0.999246  0.500000  1
  Te  Te17  1  0.518959  0.137455  0.500000  1
  Te  Te18  1  0.610281  0.474625  0.500000  1
