# generated using pymatgen
data_LiZn6In6Rh11
_symmetry_space_group_name_H-M   'P 1'
_cell_length_a   4.46826300
_cell_length_b   6.25751400
_cell_length_c   13.38727000
_cell_angle_alpha   90.00000000
_cell_angle_beta   90.00119758
_cell_angle_gamma   90.00000000
_symmetry_Int_Tables_number   1
_chemical_formula_structural   LiZn6In6Rh11
_chemical_formula_sum   'Li1 Zn6 In6 Rh11'
_cell_volume   374.31099131
_cell_formula_units_Z   1
loop_
 _symmetry_equiv_pos_site_id
 _symmetry_equiv_pos_as_xyz
  1  'x, y, z'
loop_
 _atom_site_type_symbol
 _atom_site_label
 _atom_site_symmetry_multiplicity
 _atom_site_fract_x
 _atom_site_fract_y
 _atom_site_fract_z
 _atom_site_occupancy
  Li  Li0  1  0.500001  0.249820  0.000000  1
  Zn  Zn1  1  0.000000  0.506879  0.000000  1
  Zn  Zn2  1  0.499875  0.997659  0.170737  1
  Zn  Zn3  1  0.999887  0.500635  0.333767  1
  Zn  Zn4  1  0.500001  0.000638  0.500000  1
  Zn  Zn5  1  0.000113  0.500635  0.666233  1
  Zn  Zn6  1  0.500125  0.997659  0.829263  1
  In  In7  1  0.000000  0.998152  0.000000  1
  In  In8  1  0.499901  0.499775  0.168708  1
  In  In9  1  0.999798  0.999862  0.333111  1
  In  In10  1  0.500001  0.498989  0.500000  1
  In  In11  1  0.000202  0.999862  0.666888  1
  In  In12  1  0.500099  0.499775  0.831292  1
  Rh  Rh13  1  0.500001  0.749726  0.000000  1
  Rh  Rh14  1  0.999873  0.250972  0.161950  1
  Rh  Rh15  1  0.999886  0.749649  0.163714  1
  Rh  Rh16  1  0.499877  0.249262  0.332832  1
  Rh  Rh17  1  0.499872  0.750120  0.333843  1
  Rh  Rh18  1  0.000000  0.250474  0.500000  1
  Rh  Rh19  1  0.000000  0.749452  0.500000  1
  Rh  Rh20  1  0.500123  0.249262  0.667168  1
  Rh  Rh21  1  0.500128  0.750120  0.666157  1
  Rh  Rh22  1  0.000127  0.250972  0.838050  1
  Rh  Rh23  1  0.000114  0.749649  0.836286  1
