# generated using pymatgen
data_Sm2Tm2LuPb4
_symmetry_space_group_name_H-M   'P 1'
_cell_length_a   8.18893100
_cell_length_b   8.27764000
_cell_length_c   15.60536900
_cell_angle_alpha   90.00000000
_cell_angle_beta   90.00000000
_cell_angle_gamma   90.00000000
_symmetry_Int_Tables_number   1
_chemical_formula_structural   Sm2Tm2LuPb4
_chemical_formula_sum   'Sm8 Tm8 Lu4 Pb16'
_cell_volume   1057.81029351
_cell_formula_units_Z   4
loop_
 _symmetry_equiv_pos_site_id
 _symmetry_equiv_pos_as_xyz
  1  'x, y, z'
loop_
 _atom_site_type_symbol
 _atom_site_label
 _atom_site_symmetry_multiplicity
 _atom_site_fract_x
 _atom_site_fract_y
 _atom_site_fract_z
 _atom_site_occupancy
  Sm  Sm0  1  0.467574  0.677620  0.598685  1
  Sm  Sm1  1  0.967574  0.822380  0.901315  1
  Sm  Sm2  1  0.532426  0.322380  0.098685  1
  Sm  Sm3  1  0.032426  0.177620  0.401315  1
  Sm  Sm4  1  0.532426  0.322380  0.401315  1
  Sm  Sm5  1  0.032426  0.177620  0.098685  1
  Sm  Sm6  1  0.467574  0.677620  0.901315  1
  Sm  Sm7  1  0.967574  0.822380  0.598685  1
  Tm  Tm8  1  0.627180  0.158505  0.622026  1
  Tm  Tm9  1  0.127180  0.341495  0.877974  1
  Tm  Tm10  1  0.372820  0.841495  0.122026  1
  Tm  Tm11  1  0.872820  0.658505  0.377974  1
  Tm  Tm12  1  0.372820  0.841495  0.377974  1
  Tm  Tm13  1  0.872820  0.658505  0.122026  1
  Tm  Tm14  1  0.627180  0.158505  0.877974  1
  Tm  Tm15  1  0.127180  0.341495  0.622026  1
  Lu  Lu16  1  0.794711  0.493932  0.750000  1
  Lu  Lu17  1  0.294711  0.006068  0.750000  1
  Lu  Lu18  1  0.205289  0.506068  0.250000  1
  Lu  Lu19  1  0.705289  0.993932  0.250000  1
  Pb  Pb20  1  0.712291  0.962647  0.456754  1
  Pb  Pb21  1  0.212291  0.537353  0.043246  1
  Pb  Pb22  1  0.287709  0.037353  0.956754  1
  Pb  Pb23  1  0.787709  0.462647  0.543246  1
  Pb  Pb24  1  0.287709  0.037353  0.543246  1
  Pb  Pb25  1  0.787709  0.462647  0.956754  1
  Pb  Pb26  1  0.712291  0.962647  0.043246  1
  Pb  Pb27  1  0.212291  0.537353  0.456754  1
  Pb  Pb28  1  0.432164  0.371004  0.750000  1
  Pb  Pb29  1  0.932164  0.128996  0.750000  1
  Pb  Pb30  1  0.567836  0.628996  0.250000  1
  Pb  Pb31  1  0.067836  0.871004  0.250000  1
  Pb  Pb32  1  0.657080  0.847847  0.750000  1
  Pb  Pb33  1  0.157080  0.652153  0.750000  1
  Pb  Pb34  1  0.342920  0.152153  0.250000  1
  Pb  Pb35  1  0.842920  0.347847  0.250000  1
