# generated using pymatgen
data_Er2Tm6Si12AgRh3
_symmetry_space_group_name_H-M   'P 1'
_cell_length_a   8.16722400
_cell_length_b   8.16722360
_cell_length_c   7.78080700
_cell_angle_alpha   90.00000000
_cell_angle_beta   90.00000000
_cell_angle_gamma   120.00000162
_symmetry_Int_Tables_number   1
_chemical_formula_structural   Er2Tm6Si12AgRh3
_chemical_formula_sum   'Er2 Tm6 Si12 Ag1 Rh3'
_cell_volume   449.47359162
_cell_formula_units_Z   1
loop_
 _symmetry_equiv_pos_site_id
 _symmetry_equiv_pos_as_xyz
  1  'x, y, z'
loop_
 _atom_site_type_symbol
 _atom_site_label
 _atom_site_symmetry_multiplicity
 _atom_site_fract_x
 _atom_site_fract_y
 _atom_site_fract_z
 _atom_site_occupancy
  Er  Er0  1  0.000000  0.000000  0.746683  1
  Er  Er1  1  0.000000  0.000000  0.249011  1
  Tm  Tm2  1  0.973683  0.486842  0.255556  1
  Tm  Tm3  1  0.513158  0.486842  0.255556  1
  Tm  Tm4  1  0.492866  0.985731  0.746251  1
  Tm  Tm5  1  0.014269  0.507134  0.746251  1
  Tm  Tm6  1  0.492866  0.507134  0.746251  1
  Tm  Tm7  1  0.513158  0.026317  0.255556  1
  Si  Si8  1  0.167212  0.832788  0.496416  1
  Si  Si9  1  0.167212  0.334423  0.496416  1
  Si  Si10  1  0.665577  0.832788  0.496416  1
  Si  Si11  1  0.337485  0.168743  0.001166  1
  Si  Si12  1  0.833899  0.667799  0.502452  1
  Si  Si13  1  0.831257  0.168743  0.001166  1
  Si  Si14  1  0.831257  0.662515  0.001166  1
  Si  Si15  1  0.160806  0.321613  0.995316  1
  Si  Si16  1  0.678387  0.839194  0.995316  1
  Si  Si17  1  0.332201  0.166101  0.502452  1
  Si  Si18  1  0.833899  0.166101  0.502452  1
  Si  Si19  1  0.160806  0.839194  0.995316  1
  Ag  Ag20  1  0.333333  0.666667  0.046123  1
  Rh  Rh21  1  0.666667  0.333333  0.960334  1
  Rh  Rh22  1  0.666667  0.333333  0.535001  1
  Rh  Rh23  1  0.333333  0.666667  0.471381  1
