# generated using pymatgen
data_TbMg4Sn18(Ir2Rh)2
_symmetry_space_group_name_H-M   'P 1'
_cell_length_a   9.81688934
_cell_length_b   9.81688977
_cell_length_c   9.80958064
_cell_angle_alpha   59.52199894
_cell_angle_beta   59.52199584
_cell_angle_gamma   59.57581904
_symmetry_Int_Tables_number   1
_chemical_formula_structural   TbMg4Sn18(Ir2Rh)2
_chemical_formula_sum   'Tb1 Mg4 Sn18 Ir4 Rh2'
_cell_volume   661.47909962
_cell_formula_units_Z   1
loop_
 _symmetry_equiv_pos_site_id
 _symmetry_equiv_pos_as_xyz
  1  'x, y, z'
loop_
 _atom_site_type_symbol
 _atom_site_label
 _atom_site_symmetry_multiplicity
 _atom_site_fract_x
 _atom_site_fract_y
 _atom_site_fract_z
 _atom_site_occupancy
  Tb  Tb0  1  0.498315  0.498315  0.492400  1
  Mg  Mg1  1  0.871092  0.871092  0.384684  1
  Mg  Mg2  1  0.872905  0.384989  0.872173  1
  Mg  Mg3  1  0.384989  0.872905  0.872173  1
  Mg  Mg4  1  0.870286  0.870286  0.874494  1
  Sn  Sn5  1  0.083899  0.083899  0.751637  1
  Sn  Sn6  1  0.085557  0.748954  0.084941  1
  Sn  Sn7  1  0.748954  0.085557  0.084941  1
  Sn  Sn8  1  0.085054  0.085054  0.086535  1
  Sn  Sn9  1  0.250631  0.250631  0.248312  1
  Sn  Sn10  1  0.493656  0.862616  0.152174  1
  Sn  Sn11  1  0.492617  0.492617  0.149020  1
  Sn  Sn12  1  0.862616  0.493656  0.152174  1
  Sn  Sn13  1  0.495378  0.153912  0.858693  1
  Sn  Sn14  1  0.858867  0.151502  0.496576  1
  Sn  Sn15  1  0.490795  0.151638  0.491288  1
  Sn  Sn16  1  0.151638  0.490795  0.491288  1
  Sn  Sn17  1  0.151502  0.858867  0.496576  1
  Sn  Sn18  1  0.153912  0.495378  0.858693  1
  Sn  Sn19  1  0.859229  0.491720  0.494051  1
  Sn  Sn20  1  0.492422  0.492422  0.857963  1
  Sn  Sn21  1  0.491720  0.859229  0.494051  1
  Sn  Sn22  1  0.750264  0.750264  0.750638  1
  Ir  Ir23  1  0.755649  0.755649  0.244490  1
  Ir  Ir24  1  0.247498  0.754032  0.246989  1
  Ir  Ir25  1  0.754032  0.247498  0.246989  1
  Ir  Ir26  1  0.246331  0.246331  0.755018  1
  Rh  Rh27  1  0.755919  0.244267  0.755515  1
  Rh  Rh28  1  0.244267  0.755919  0.755515  1
