# generated using pymatgen
data_Li8Y8Sn5Bi2Pb
_symmetry_space_group_name_H-M   'P 1'
_cell_length_a   9.45646072
_cell_length_b   9.45408377
_cell_length_c   7.30758958
_cell_angle_alpha   90.11186236
_cell_angle_beta   89.78814799
_cell_angle_gamma   120.02332337
_symmetry_Int_Tables_number   1
_chemical_formula_structural   Li8Y8Sn5Bi2Pb
_chemical_formula_sum   'Li8 Y8 Sn5 Bi2 Pb1'
_cell_volume   565.64995994
_cell_formula_units_Z   1
loop_
 _symmetry_equiv_pos_site_id
 _symmetry_equiv_pos_as_xyz
  1  'x, y, z'
loop_
 _atom_site_type_symbol
 _atom_site_label
 _atom_site_symmetry_multiplicity
 _atom_site_fract_x
 _atom_site_fract_y
 _atom_site_fract_z
 _atom_site_occupancy
  Li  Li0  1  0.165401  0.829230  0.196234  1
  Li  Li1  1  0.335702  0.171238  0.696460  1
  Li  Li2  1  0.829425  0.663645  0.693358  1
  Li  Li3  1  0.165818  0.336389  0.192634  1
  Li  Li4  1  0.665115  0.832469  0.196814  1
  Li  Li5  1  0.833551  0.168025  0.697046  1
  Li  Li6  1  0.334531  0.664232  0.813989  1
  Li  Li7  1  0.669874  0.334820  0.314198  1
  Y  Y8  1  0.513994  0.491678  0.988278  1
  Y  Y9  1  0.023582  0.507019  0.489843  1
  Y  Y10  1  0.495523  0.975590  0.491464  1
  Y  Y11  1  0.519928  0.024431  0.991437  1
  Y  Y12  1  0.972512  0.481502  0.992279  1
  Y  Y13  1  0.488391  0.517152  0.493850  1
  Y  Y14  1  0.993442  0.001530  0.984551  1
  Y  Y15  1  0.993253  0.001123  0.486108  1
  Sn  Sn16  1  0.166438  0.333029  0.754677  1
  Sn  Sn17  1  0.666925  0.833780  0.754459  1
  Sn  Sn18  1  0.833145  0.166198  0.254411  1
  Sn  Sn19  1  0.333582  0.667446  0.223804  1
  Sn  Sn20  1  0.666154  0.332578  0.723727  1
  Bi  Bi21  1  0.167156  0.834032  0.753008  1
  Bi  Bi22  1  0.333108  0.165968  0.252983  1
  Pb  Pb23  1  0.833454  0.666895  0.254392  1
