# generated using pymatgen
data_Ho16In4PdRu3
_symmetry_space_group_name_H-M   'P 1'
_cell_length_a   9.59755863
_cell_length_b   9.59755923
_cell_length_c   9.61421922
_cell_angle_alpha   60.05730677
_cell_angle_beta   60.05730208
_cell_angle_gamma   59.99999908
_symmetry_Int_Tables_number   1
_chemical_formula_structural   Ho16In4PdRu3
_chemical_formula_sum   'Ho16 In4 Pd1 Ru3'
_cell_volume   626.75270770
_cell_formula_units_Z   1
loop_
 _symmetry_equiv_pos_site_id
 _symmetry_equiv_pos_as_xyz
  1  'x, y, z'
loop_
 _atom_site_type_symbol
 _atom_site_label
 _atom_site_symmetry_multiplicity
 _atom_site_fract_x
 _atom_site_fract_y
 _atom_site_fract_z
 _atom_site_occupancy
  Ho  Ho0  1  0.188334  0.188334  0.808070  1
  Ho  Ho1  1  0.599135  0.599135  0.202594  1
  Ho  Ho2  1  0.439956  0.060450  0.439143  1
  Ho  Ho3  1  0.439912  0.439912  0.066762  1
  Ho  Ho4  1  0.815261  0.188334  0.808070  1
  Ho  Ho5  1  0.190695  0.809991  0.189323  1
  Ho  Ho6  1  0.439912  0.053413  0.066762  1
  Ho  Ho7  1  0.188334  0.815261  0.808070  1
  Ho  Ho8  1  0.053413  0.439912  0.066762  1
  Ho  Ho9  1  0.809991  0.809991  0.189323  1
  Ho  Ho10  1  0.198200  0.602709  0.596382  1
  Ho  Ho11  1  0.060450  0.439956  0.439143  1
  Ho  Ho12  1  0.060450  0.060450  0.439143  1
  Ho  Ho13  1  0.809991  0.190695  0.189323  1
  Ho  Ho14  1  0.602709  0.198200  0.596382  1
  Ho  Ho15  1  0.602709  0.602709  0.596382  1
  In  In16  1  0.832588  0.832588  0.832355  1
  In  In17  1  0.833414  0.833414  0.499759  1
  In  In18  1  0.502469  0.832588  0.832355  1
  In  In19  1  0.832588  0.502469  0.832355  1
  Pd  Pd20  1  0.392473  0.392473  0.822581  1
  Ru  Ru21  1  0.391646  0.823720  0.392987  1
  Ru  Ru22  1  0.391646  0.391646  0.392987  1
  Ru  Ru23  1  0.823720  0.391646  0.392987  1
