# generated using pymatgen
data_PrTh3(Al8Pt3)3
_symmetry_space_group_name_H-M   'P 1'
_cell_length_a   7.62408434
_cell_length_b   7.63587926
_cell_length_c   13.25208237
_cell_angle_alpha   84.50895166
_cell_angle_beta   78.96629798
_cell_angle_gamma   59.93909463
_symmetry_Int_Tables_number   1
_chemical_formula_structural   PrTh3(Al8Pt3)3
_chemical_formula_sum   'Pr1 Th3 Al24 Pt9'
_cell_volume   655.37741696
_cell_formula_units_Z   1
loop_
 _symmetry_equiv_pos_site_id
 _symmetry_equiv_pos_as_xyz
  1  'x, y, z'
loop_
 _atom_site_type_symbol
 _atom_site_label
 _atom_site_symmetry_multiplicity
 _atom_site_fract_x
 _atom_site_fract_y
 _atom_site_fract_z
 _atom_site_occupancy
  Pr  Pr0  1  0.266899  0.501365  0.191487  1
  Th  Th1  1  0.395041  0.167953  0.806653  1
  Th  Th2  1  0.604166  0.832372  0.194137  1
  Th  Th3  1  0.733998  0.498442  0.806585  1
  Al  Al4  1  0.687555  0.833543  0.946168  1
  Al  Al5  1  0.312979  0.166871  0.055214  1
  Al  Al6  1  0.146079  0.833150  0.559969  1
  Al  Al7  1  0.853982  0.166880  0.438263  1
  Al  Al8  1  0.481488  0.167179  0.557261  1
  Al  Al9  1  0.518707  0.833219  0.442410  1
  Al  Al10  1  0.211619  0.168126  0.335617  1
  Al  Al11  1  0.788592  0.834386  0.663437  1
  Al  Al12  1  0.436216  0.510163  0.663508  1
  Al  Al13  1  0.561672  0.489908  0.335562  1
  Al  Al14  1  0.112544  0.155739  0.661954  1
  Al  Al15  1  0.890445  0.841229  0.336853  1
  Al  Al16  1  0.348453  0.503087  0.946166  1
  Al  Al17  1  0.650123  0.497789  0.055199  1
  Al  Al18  1  0.014350  0.164533  0.957028  1
  Al  Al19  1  0.984697  0.834490  0.046211  1
  Al  Al20  1  0.186569  0.499539  0.441189  1
  Al  Al21  1  0.814077  0.500100  0.557224  1
  Al  Al22  1  0.736992  0.163808  0.184311  1
  Al  Al23  1  0.261785  0.836233  0.816326  1
  Al  Al24  1  0.061733  0.634729  0.814689  1
  Al  Al25  1  0.937753  0.366408  0.185671  1
  Al  Al26  1  0.860570  0.037067  0.815552  1
  Al  Al27  1  0.140840  0.962035  0.184612  1
  Pt  Pt28  1  0.120409  0.491190  0.638680  1
  Pt  Pt29  1  0.877361  0.508523  0.362357  1
  Pt  Pt30  1  0.657758  0.171175  0.998991  1
  Pt  Pt31  1  0.343689  0.829275  0.999271  1
  Pt  Pt32  1  0.538758  0.164874  0.362454  1
  Pt  Pt33  1  0.463031  0.833129  0.638949  1
  Pt  Pt34  1  0.778534  0.175368  0.637583  1
  Pt  Pt35  1  0.220890  0.826500  0.363297  1
  Pt  Pt36  1  0.999643  0.499621  0.999159  1
