# generated using pymatgen
data_Tb4YTe9
_symmetry_space_group_name_H-M   'P 1'
_cell_length_a   13.24115373
_cell_length_b   13.27274477
_cell_length_c   10.96796300
_cell_angle_alpha   79.96876218
_cell_angle_beta   79.97039382
_cell_angle_gamma   26.97220606
_symmetry_Int_Tables_number   1
_chemical_formula_structural   Tb4YTe9
_chemical_formula_sum   'Tb8 Y2 Te18'
_cell_volume   860.13230062
_cell_formula_units_Z   2
loop_
 _symmetry_equiv_pos_site_id
 _symmetry_equiv_pos_as_xyz
  1  'x, y, z'
loop_
 _atom_site_type_symbol
 _atom_site_label
 _atom_site_symmetry_multiplicity
 _atom_site_fract_x
 _atom_site_fract_y
 _atom_site_fract_z
 _atom_site_occupancy
  Tb  Tb0  1  0.948189  0.042429  0.241698  1
  Tb  Tb1  1  0.147233  0.247845  0.842176  1
  Tb  Tb2  1  0.344834  0.451157  0.436410  1
  Tb  Tb3  1  0.537543  0.655104  0.036635  1
  Tb  Tb4  1  0.756386  0.833784  0.638679  1
  Tb  Tb5  1  0.344742  0.462911  0.963287  1
  Tb  Tb6  1  0.547580  0.656567  0.563150  1
  Tb  Tb7  1  0.751435  0.853286  0.157943  1
  Y  Y8  1  0.955294  0.052950  0.758574  1
  Y  Y9  1  0.165928  0.244534  0.361774  1
  Te  Te10  1  0.472993  0.572536  0.821925  1
  Te  Te11  1  0.070730  0.178692  0.621588  1
  Te  Te12  1  0.869420  0.979334  0.021060  1
  Te  Te13  1  0.681785  0.762906  0.423123  1
  Te  Te14  1  0.272738  0.376474  0.221947  1
  Te  Te15  1  0.019569  0.130874  0.979539  1
  Te  Te16  1  0.623556  0.727185  0.778135  1
  Te  Te17  1  0.428914  0.525564  0.177650  1
  Te  Te18  1  0.237861  0.317644  0.576941  1
  Te  Te19  1  0.821602  0.928210  0.378979  1
  Te  Te20  1  0.699525  0.300992  0.499330  1
  Te  Te21  1  0.301017  0.899054  0.300395  1
  Te  Te22  1  0.100821  0.699423  0.699623  1
  Te  Te23  1  0.892946  0.492606  0.114878  1
  Te  Te24  1  0.508080  0.107131  0.885142  1
  Te  Te25  1  0.001883  0.601374  0.896730  1
  Te  Te26  1  0.198982  0.800920  0.499612  1
  Te  Te27  1  0.398412  0.998516  0.103074  1
