# generated using pymatgen
data_Sc3Al7ZnSi4Os3
_symmetry_space_group_name_H-M   'P 1'
_cell_length_a   8.45010416
_cell_length_b   8.46057485
_cell_length_c   9.26303200
_cell_angle_alpha   90.00000000
_cell_angle_beta   90.00000000
_cell_angle_gamma   120.04099146
_symmetry_Int_Tables_number   1
_chemical_formula_structural   Sc3Al7ZnSi4Os3
_chemical_formula_sum   'Sc6 Al14 Zn2 Si8 Os6'
_cell_volume   573.27921218
_cell_formula_units_Z   2
loop_
 _symmetry_equiv_pos_site_id
 _symmetry_equiv_pos_as_xyz
  1  'x, y, z'
loop_
 _atom_site_type_symbol
 _atom_site_label
 _atom_site_symmetry_multiplicity
 _atom_site_fract_x
 _atom_site_fract_y
 _atom_site_fract_z
 _atom_site_occupancy
  Sc  Sc0  1  0.199786  0.801651  0.250000  1
  Sc  Sc1  1  0.199786  0.398135  0.250000  1
  Sc  Sc2  1  0.602807  0.801404  0.250000  1
  Sc  Sc3  1  0.800262  0.202153  0.750000  1
  Sc  Sc4  1  0.800262  0.598109  0.750000  1
  Sc  Sc5  1  0.402685  0.201342  0.750000  1
  Al  Al6  1  0.158454  0.840129  0.919619  1
  Al  Al7  1  0.158454  0.318325  0.919619  1
  Al  Al8  1  0.681205  0.840603  0.917477  1
  Al  Al9  1  0.836022  0.159363  0.083568  1
  Al  Al10  1  0.836022  0.676659  0.083568  1
  Al  Al11  1  0.326047  0.163024  0.084669  1
  Al  Al12  1  0.836022  0.159363  0.416432  1
  Al  Al13  1  0.836022  0.676659  0.416432  1
  Al  Al14  1  0.326047  0.163024  0.415331  1
  Al  Al15  1  0.158454  0.840129  0.580381  1
  Al  Al16  1  0.158454  0.318325  0.580381  1
  Al  Al17  1  0.681205  0.840603  0.582523  1
  Al  Al18  1  0.000107  0.000053  0.250000  1
  Al  Al19  1  0.000003  0.000001  0.750000  1
  Zn  Zn20  1  0.566716  0.437941  0.250000  1
  Zn  Zn21  1  0.566716  0.128776  0.250000  1
  Si  Si22  1  0.870333  0.435166  0.250000  1
  Si  Si23  1  0.433672  0.567412  0.750000  1
  Si  Si24  1  0.433672  0.866259  0.750000  1
  Si  Si25  1  0.130479  0.565239  0.750000  1
  Si  Si26  1  0.335392  0.667696  0.452997  1
  Si  Si27  1  0.665585  0.332792  0.545351  1
  Si  Si28  1  0.665585  0.332792  0.954649  1
  Si  Si29  1  0.335392  0.667696  0.047003  1
  Os  Os30  1  0.498717  0.501233  0.512495  1
  Os  Os31  1  0.498717  0.997484  0.512495  1
  Os  Os32  1  0.001742  0.500871  0.502147  1
  Os  Os33  1  0.498717  0.501233  0.987505  1
  Os  Os34  1  0.498717  0.997484  0.987505  1
  Os  Os35  1  0.001742  0.500871  0.997853  1
