# generated using pymatgen
data_Sr2Yb2DyPt4
_symmetry_space_group_name_H-M   'P 1'
_cell_length_a   7.72180400
_cell_length_b   7.83464500
_cell_length_c   14.92642800
_cell_angle_alpha   90.00000000
_cell_angle_beta   90.00000000
_cell_angle_gamma   90.00000000
_symmetry_Int_Tables_number   1
_chemical_formula_structural   Sr2Yb2DyPt4
_chemical_formula_sum   'Sr8 Yb8 Dy4 Pt16'
_cell_volume   903.01296757
_cell_formula_units_Z   4
loop_
 _symmetry_equiv_pos_site_id
 _symmetry_equiv_pos_as_xyz
  1  'x, y, z'
loop_
 _atom_site_type_symbol
 _atom_site_label
 _atom_site_symmetry_multiplicity
 _atom_site_fract_x
 _atom_site_fract_y
 _atom_site_fract_z
 _atom_site_occupancy
  Sr  Sr0  1  0.500531  0.324878  0.904567  1
  Sr  Sr1  1  0.000531  0.175122  0.595433  1
  Sr  Sr2  1  0.499469  0.675122  0.404567  1
  Sr  Sr3  1  0.999469  0.824878  0.095433  1
  Sr  Sr4  1  0.500112  0.676838  0.097029  1
  Sr  Sr5  1  0.000112  0.823162  0.402971  1
  Sr  Sr6  1  0.499888  0.323162  0.597029  1
  Sr  Sr7  1  0.999888  0.176838  0.902971  1
  Yb  Yb8  1  0.661420  0.166917  0.122776  1
  Yb  Yb9  1  0.161420  0.333083  0.377224  1
  Yb  Yb10  1  0.338580  0.833083  0.622777  1
  Yb  Yb11  1  0.838580  0.666917  0.877223  1
  Yb  Yb12  1  0.177700  0.494620  0.749895  1
  Yb  Yb13  1  0.677700  0.005380  0.750105  1
  Yb  Yb14  1  0.822300  0.505380  0.249895  1
  Yb  Yb15  1  0.322300  0.994620  0.250105  1
  Dy  Dy16  1  0.338659  0.834405  0.875702  1
  Dy  Dy17  1  0.838659  0.665595  0.624298  1
  Dy  Dy18  1  0.661341  0.165595  0.375703  1
  Dy  Dy19  1  0.161341  0.334405  0.124297  1
  Pt  Pt20  1  0.329469  0.045229  0.041898  1
  Pt  Pt21  1  0.829469  0.454771  0.458102  1
  Pt  Pt22  1  0.670531  0.954771  0.541898  1
  Pt  Pt23  1  0.170531  0.545229  0.958102  1
  Pt  Pt24  1  0.655976  0.958459  0.955601  1
  Pt  Pt25  1  0.155976  0.541541  0.544399  1
  Pt  Pt26  1  0.344024  0.041541  0.455601  1
  Pt  Pt27  1  0.844024  0.458459  0.044399  1
  Pt  Pt28  1  0.545395  0.635750  0.751962  1
  Pt  Pt29  1  0.045395  0.864250  0.748038  1
  Pt  Pt30  1  0.454605  0.364250  0.251962  1
  Pt  Pt31  1  0.954605  0.135750  0.248038  1
  Pt  Pt32  1  0.303041  0.120099  0.753042  1
  Pt  Pt33  1  0.803041  0.379901  0.746958  1
  Pt  Pt34  1  0.696959  0.879901  0.253042  1
  Pt  Pt35  1  0.196959  0.620099  0.246958  1
