# generated using pymatgen
data_Er3Sc4(IrSe)2
_symmetry_space_group_name_H-M   'P 1'
_cell_length_a   8.67536914
_cell_length_b   8.67536838
_cell_length_c   8.67536921
_cell_angle_alpha   154.45268796
_cell_angle_beta   119.74149638
_cell_angle_gamma   66.52699121
_symmetry_Int_Tables_number   1
_chemical_formula_structural   Er3Sc4(IrSe)2
_chemical_formula_sum   'Er3 Sc4 Ir2 Se2'
_cell_volume   242.36122315
_cell_formula_units_Z   1
loop_
 _symmetry_equiv_pos_site_id
 _symmetry_equiv_pos_as_xyz
  1  'x, y, z'
loop_
 _atom_site_type_symbol
 _atom_site_label
 _atom_site_symmetry_multiplicity
 _atom_site_fract_x
 _atom_site_fract_y
 _atom_site_fract_z
 _atom_site_occupancy
  Er  Er0  1  0.607200  0.355324  0.251875  1
  Er  Er1  1  0.896550  0.644676  0.251875  1
  Er  Er2  1  0.005978  0.000000  0.005978  1
  Sc  Sc3  1  0.534786  0.125499  0.409287  1
  Sc  Sc4  1  0.283787  0.874501  0.409287  1
  Sc  Sc5  1  0.950395  0.319504  0.630891  1
  Sc  Sc6  1  0.311388  0.680496  0.630891  1
  Ir  Ir7  1  0.184824  0.243735  0.941090  1
  Ir  Ir8  1  0.697355  0.756265  0.941090  1
  Se  Se9  1  0.264589  0.500000  0.764589  1
  Se  Se10  1  0.654009  0.000000  0.654009  1
