# generated using pymatgen
data_Li3Si(AsRh3)2
_symmetry_space_group_name_H-M   'P 1'
_cell_length_a   4.16587200
_cell_length_b   5.90561300
_cell_length_c   12.50007100
_cell_angle_alpha   90.00000000
_cell_angle_beta   89.99985789
_cell_angle_gamma   90.00000000
_symmetry_Int_Tables_number   1
_chemical_formula_structural   Li3Si(AsRh3)2
_chemical_formula_sum   'Li6 Si2 As4 Rh12'
_cell_volume   307.52709474
_cell_formula_units_Z   2
loop_
 _symmetry_equiv_pos_site_id
 _symmetry_equiv_pos_as_xyz
  1  'x, y, z'
loop_
 _atom_site_type_symbol
 _atom_site_label
 _atom_site_symmetry_multiplicity
 _atom_site_fract_x
 _atom_site_fract_y
 _atom_site_fract_z
 _atom_site_occupancy
  Li  Li0  1  0.999995  0.500001  0.997989  1
  Li  Li1  1  0.499813  0.000000  0.165759  1
  Li  Li2  1  0.999811  0.500001  0.334238  1
  Li  Li3  1  0.499995  0.000000  0.502015  1
  Li  Li4  1  0.000180  0.500001  0.667753  1
  Li  Li5  1  0.500176  0.000000  0.832243  1
  Si  Si6  1  0.000144  0.000000  0.669465  1
  Si  Si7  1  0.500146  0.500001  0.830534  1
  As  As8  1  0.000004  0.000000  0.994699  1
  As  As9  1  0.499872  0.500001  0.164820  1
  As  As10  1  0.999873  0.000000  0.335184  1
  As  As11  1  0.499998  0.500001  0.505296  1
  Rh  Rh12  1  0.500000  0.252410  0.998285  1
  Rh  Rh13  1  0.500000  0.747590  0.998285  1
  Rh  Rh14  1  0.999882  0.249415  0.166544  1
  Rh  Rh15  1  0.999882  0.750585  0.166544  1
  Rh  Rh16  1  0.499874  0.250578  0.333460  1
  Rh  Rh17  1  0.499874  0.749422  0.333460  1
  Rh  Rh18  1  0.000008  0.247590  0.501715  1
  Rh  Rh19  1  0.000008  0.752410  0.501715  1
  Rh  Rh20  1  0.500118  0.247543  0.668197  1
  Rh  Rh21  1  0.500118  0.752457  0.668197  1
  Rh  Rh22  1  0.000113  0.252457  0.831801  1
  Rh  Rh23  1  0.000113  0.747543  0.831801  1
