# generated using pymatgen
data_Lu2Hf5(ZrSn2)3
_symmetry_space_group_name_H-M   'P 1'
_cell_length_a   8.58268260
_cell_length_b   8.60698486
_cell_length_c   5.83165300
_cell_angle_alpha   90.00000000
_cell_angle_beta   90.00000000
_cell_angle_gamma   120.70149413
_symmetry_Int_Tables_number   1
_chemical_formula_structural   Lu2Hf5(ZrSn2)3
_chemical_formula_sum   'Lu2 Hf5 Zr3 Sn6'
_cell_volume   370.41015406
_cell_formula_units_Z   1
loop_
 _symmetry_equiv_pos_site_id
 _symmetry_equiv_pos_as_xyz
  1  'x, y, z'
loop_
 _atom_site_type_symbol
 _atom_site_label
 _atom_site_symmetry_multiplicity
 _atom_site_fract_x
 _atom_site_fract_y
 _atom_site_fract_z
 _atom_site_occupancy
  Lu  Lu0  1  0.765946  0.765621  0.750000  1
  Lu  Lu1  1  0.234396  0.234432  0.250000  1
  Hf  Hf2  1  0.999758  0.751060  0.250000  1
  Hf  Hf3  1  0.666479  0.332289  0.999971  1
  Hf  Hf4  1  0.333547  0.667169  0.000017  1
  Hf  Hf5  1  0.333547  0.667169  0.499983  1
  Hf  Hf6  1  0.666479  0.332289  0.500029  1
  Zr  Zr7  1  0.247072  0.999851  0.750000  1
  Zr  Zr8  1  0.000499  0.250378  0.750000  1
  Zr  Zr9  1  0.752580  0.999579  0.250000  1
  Sn  Sn10  1  0.392263  0.392386  0.750000  1
  Sn  Sn11  1  0.605859  0.001225  0.750000  1
  Sn  Sn12  1  0.001020  0.605727  0.750000  1
  Sn  Sn13  1  0.608630  0.607744  0.250000  1
  Sn  Sn14  1  0.393146  0.997851  0.250000  1
  Sn  Sn15  1  0.998781  0.395229  0.250000  1
