# generated using pymatgen
data_Th5Ga2Os3
_symmetry_space_group_name_H-M   'P 1'
_cell_length_a   8.55388805
_cell_length_b   8.55388753
_cell_length_c   8.55388800
_cell_angle_alpha   109.47122175
_cell_angle_beta   109.47122052
_cell_angle_gamma   109.47121864
_symmetry_Int_Tables_number   1
_chemical_formula_structural   Th5Ga2Os3
_chemical_formula_sum   'Th10 Ga4 Os6'
_cell_volume   481.80219221
_cell_formula_units_Z   2
loop_
 _symmetry_equiv_pos_site_id
 _symmetry_equiv_pos_as_xyz
  1  'x, y, z'
loop_
 _atom_site_type_symbol
 _atom_site_label
 _atom_site_symmetry_multiplicity
 _atom_site_fract_x
 _atom_site_fract_y
 _atom_site_fract_z
 _atom_site_occupancy
  Th  Th0  1  0.776027  0.776027  0.776027  1
  Th  Th1  1  0.308067  0.558067  0.750000  1
  Th  Th2  1  0.750000  0.308067  0.558067  1
  Th  Th3  1  0.558067  0.750000  0.308067  1
  Th  Th4  1  0.723973  0.500000  0.000000  1
  Th  Th5  1  0.000000  0.723973  0.500000  1
  Th  Th6  1  0.500000  0.000000  0.723973  1
  Th  Th7  1  0.250000  0.191933  0.941933  1
  Th  Th8  1  0.941933  0.250000  0.191933  1
  Th  Th9  1  0.191933  0.941933  0.250000  1
  Ga  Ga10  1  0.388828  0.388828  0.388828  1
  Ga  Ga11  1  0.111172  0.500000  0.000000  1
  Ga  Ga12  1  0.000000  0.111172  0.500000  1
  Ga  Ga13  1  0.500000  0.000000  0.111172  1
  Os  Os14  1  0.869736  0.119736  0.750000  1
  Os  Os15  1  0.750000  0.869736  0.119736  1
  Os  Os16  1  0.119736  0.750000  0.869736  1
  Os  Os17  1  0.250000  0.630264  0.380264  1
  Os  Os18  1  0.380264  0.250000  0.630264  1
  Os  Os19  1  0.630264  0.380264  0.250000  1
