# generated using pymatgen
data_Sc11IrOs2Pt
_symmetry_space_group_name_H-M   'P 1'
_cell_length_a   9.50230193
_cell_length_b   9.53277974
_cell_length_c   9.47280300
_cell_angle_alpha   59.99559891
_cell_angle_beta   60.31538735
_cell_angle_gamma   59.68900336
_symmetry_Int_Tables_number   1
_chemical_formula_structural   Sc11IrOs2Pt
_chemical_formula_sum   'Sc22 Ir2 Os4 Pt2'
_cell_volume   606.71662634
_cell_formula_units_Z   2
loop_
 _symmetry_equiv_pos_site_id
 _symmetry_equiv_pos_as_xyz
  1  'x, y, z'
loop_
 _atom_site_type_symbol
 _atom_site_label
 _atom_site_symmetry_multiplicity
 _atom_site_fract_x
 _atom_site_fract_y
 _atom_site_fract_z
 _atom_site_occupancy
  Sc  Sc0  1  0.803033  0.803033  0.196967  1
  Sc  Sc1  1  0.197017  0.802983  0.197017  1
  Sc  Sc2  1  0.803051  0.196949  0.196949  1
  Sc  Sc3  1  0.196967  0.196967  0.803033  1
  Sc  Sc4  1  0.802983  0.197017  0.802983  1
  Sc  Sc5  1  0.196949  0.803051  0.803051  1
  Sc  Sc6  1  0.618682  0.616939  0.150473  1
  Sc  Sc7  1  0.613907  0.150473  0.616939  1
  Sc  Sc8  1  0.150473  0.613907  0.618682  1
  Sc  Sc9  1  0.616939  0.618682  0.613907  1
  Sc  Sc10  1  0.381318  0.383061  0.849527  1
  Sc  Sc11  1  0.386093  0.849527  0.383061  1
  Sc  Sc12  1  0.849527  0.386093  0.381318  1
  Sc  Sc13  1  0.383061  0.381318  0.386093  1
  Sc  Sc14  1  0.839899  0.841839  0.470594  1
  Sc  Sc15  1  0.847666  0.470594  0.841839  1
  Sc  Sc16  1  0.470594  0.847666  0.839899  1
  Sc  Sc17  1  0.841839  0.839899  0.847666  1
  Sc  Sc18  1  0.160101  0.158161  0.529406  1
  Sc  Sc19  1  0.152334  0.529406  0.158161  1
  Sc  Sc20  1  0.529406  0.152334  0.160101  1
  Sc  Sc21  1  0.158161  0.160101  0.152334  1
  Ir  Ir22  1  0.000000  0.500000  0.500000  1
  Ir  Ir23  1  0.500000  0.000000  0.000000  1
  Os  Os24  1  0.000000  0.000000  0.000000  1
  Os  Os25  1  0.500000  0.500000  0.500000  1
  Os  Os26  1  0.500000  0.000000  0.500000  1
  Os  Os27  1  0.000000  0.500000  0.000000  1
  Pt  Pt28  1  0.000000  0.000000  0.500000  1
  Pt  Pt29  1  0.500000  0.500000  0.000000  1
