# generated using pymatgen
data_PrThAl6
_symmetry_space_group_name_H-M   'P 1'
_cell_length_a   6.51021400
_cell_length_b   6.51021462
_cell_length_c   4.66362400
_cell_angle_alpha   90.00000000
_cell_angle_beta   90.00000000
_cell_angle_gamma   119.99998669
_symmetry_Int_Tables_number   1
_chemical_formula_structural   PrThAl6
_chemical_formula_sum   'Pr1 Th1 Al6'
_cell_volume   171.17675499
_cell_formula_units_Z   1
loop_
 _symmetry_equiv_pos_site_id
 _symmetry_equiv_pos_as_xyz
  1  'x, y, z'
loop_
 _atom_site_type_symbol
 _atom_site_label
 _atom_site_symmetry_multiplicity
 _atom_site_fract_x
 _atom_site_fract_y
 _atom_site_fract_z
 _atom_site_occupancy
  Pr  Pr0  1  0.333333  0.666667  0.250000  1
  Th  Th1  1  0.666667  0.333333  0.750000  1
  Al  Al2  1  0.859641  0.719281  0.250000  1
  Al  Al3  1  0.140833  0.859167  0.750000  1
  Al  Al4  1  0.718335  0.859167  0.750000  1
  Al  Al5  1  0.280719  0.140359  0.250000  1
  Al  Al6  1  0.859641  0.140359  0.250000  1
  Al  Al7  1  0.140833  0.281665  0.750000  1
