# generated using pymatgen
data_Nb4Co4B3P
_symmetry_space_group_name_H-M   'P 1'
_cell_length_a   3.40934100
_cell_length_b   5.93431579
_cell_length_c   6.85016684
_cell_angle_alpha   90.02725703
_cell_angle_beta   90.00000000
_cell_angle_gamma   90.00000000
_symmetry_Int_Tables_number   1
_chemical_formula_structural   Nb4Co4B3P
_chemical_formula_sum   'Nb4 Co4 B3 P1'
_cell_volume   138.59328690
_cell_formula_units_Z   1
loop_
 _symmetry_equiv_pos_site_id
 _symmetry_equiv_pos_as_xyz
  1  'x, y, z'
loop_
 _atom_site_type_symbol
 _atom_site_label
 _atom_site_symmetry_multiplicity
 _atom_site_fract_x
 _atom_site_fract_y
 _atom_site_fract_z
 _atom_site_occupancy
  Nb  Nb0  1  0.250000  0.017336  0.831099  1
  Nb  Nb1  1  0.250000  0.540298  0.681404  1
  Nb  Nb2  1  0.750000  0.976143  0.179276  1
  Nb  Nb3  1  0.750000  0.482800  0.311654  1
  Co  Co4  1  0.250000  0.136331  0.431346  1
  Co  Co5  1  0.250000  0.640005  0.058542  1
  Co  Co6  1  0.750000  0.850331  0.554499  1
  Co  Co7  1  0.750000  0.358727  0.946319  1
  B  B8  1  0.250000  0.272809  0.119153  1
  B  B9  1  0.250000  0.773957  0.378357  1
  B  B10  1  0.750000  0.724467  0.888042  1
  P  P11  1  0.750000  0.226797  0.620308  1
