# generated using pymatgen
data_Ce3Zn2Pd3Au
_symmetry_space_group_name_H-M   'P 1'
_cell_length_a   7.42347448
_cell_length_b   7.61747710
_cell_length_c   3.89322000
_cell_angle_alpha   90.00000000
_cell_angle_beta   90.00000000
_cell_angle_gamma   120.86831701
_symmetry_Int_Tables_number   1
_chemical_formula_structural   Ce3Zn2Pd3Au
_chemical_formula_sum   'Ce3 Zn2 Pd3 Au1'
_cell_volume   188.96923348
_cell_formula_units_Z   1
loop_
 _symmetry_equiv_pos_site_id
 _symmetry_equiv_pos_as_xyz
  1  'x, y, z'
loop_
 _atom_site_type_symbol
 _atom_site_label
 _atom_site_symmetry_multiplicity
 _atom_site_fract_x
 _atom_site_fract_y
 _atom_site_fract_z
 _atom_site_occupancy
  Ce  Ce0  1  0.000000  0.408027  0.000000  1
  Ce  Ce1  1  0.603577  0.598103  0.000000  1
  Ce  Ce2  1  0.396423  0.994526  0.000000  1
  Zn  Zn3  1  0.253334  0.253003  0.500000  1
  Zn  Zn4  1  0.746666  0.999669  0.500000  1
  Pd  Pd5  1  0.000000  0.027105  0.000000  1
  Pd  Pd6  1  0.654487  0.314383  0.500000  1
  Pd  Pd7  1  0.345513  0.659897  0.500000  1
  Au  Au8  1  0.000000  0.745287  0.500000  1
