# generated using pymatgen
data_Pu5(PaH10)3
_symmetry_space_group_name_H-M   'P 1'
_cell_length_a   7.56181819
_cell_length_b   7.55095768
_cell_length_c   7.55511400
_cell_angle_alpha   109.52326124
_cell_angle_beta   109.49061361
_cell_angle_gamma   109.43864539
_symmetry_Int_Tables_number   1
_chemical_formula_structural   Pu5(PaH10)3
_chemical_formula_sum   'Pu5 Pa3 H30'
_cell_volume   331.92408844
_cell_formula_units_Z   1
loop_
 _symmetry_equiv_pos_site_id
 _symmetry_equiv_pos_as_xyz
  1  'x, y, z'
loop_
 _atom_site_type_symbol
 _atom_site_label
 _atom_site_symmetry_multiplicity
 _atom_site_fract_x
 _atom_site_fract_y
 _atom_site_fract_z
 _atom_site_occupancy
  Pu  Pu0  1  0.084163  0.501161  0.002716  1
  Pu  Pu1  1  0.000379  0.583366  0.498552  1
  Pu  Pu2  1  0.582509  0.497843  0.999625  1
  Pu  Pu3  1  0.499410  0.998914  0.581574  1
  Pu  Pu4  1  0.417180  0.418031  0.417312  1
  Pa  Pa5  1  0.917992  0.917515  0.917393  1
  Pa  Pa6  1  0.500285  0.001324  0.081088  1
  Pa  Pa7  1  0.001640  0.082109  0.500833  1
  H  H8  1  0.653358  0.967530  0.362955  1
  H  H9  1  0.212798  0.307959  0.846225  1
  H  H10  1  0.180523  0.395028  0.532749  1
  H  H11  1  0.093850  0.276333  0.125310  1
  H  H12  1  0.278422  0.122979  0.093590  1
  H  H13  1  0.123113  0.092294  0.278635  1
  H  H14  1  0.463474  0.147945  0.870322  1
  H  H15  1  0.715152  0.348595  0.809251  1
  H  H16  1  0.621040  0.367545  0.246378  1
  H  H17  1  0.248999  0.624450  0.375556  1
  H  H18  1  0.754444  0.885187  0.127260  1
  H  H19  1  0.129490  0.760673  0.880394  1
  H  H20  1  0.365407  0.244119  0.621811  1
  H  H21  1  0.877746  0.118734  0.747380  1
  H  H22  1  0.787247  0.602537  0.638908  1
  H  H23  1  0.317010  0.853328  0.212438  1
  H  H24  1  0.368784  0.656281  0.964335  1
  H  H25  1  0.966460  0.361806  0.650267  1
  H  H26  1  0.534237  0.182697  0.395390  1
  H  H27  1  0.403732  0.536268  0.187421  1
  H  H28  1  0.848152  0.210982  0.314812  1
  H  H29  1  0.907223  0.696034  0.043180  1
  H  H30  1  0.815000  0.722949  0.349480  1
  H  H31  1  0.151302  0.873973  0.467129  1
  H  H32  1  0.688378  0.032726  0.907744  1
  H  H33  1  0.349370  0.815315  0.722643  1
  H  H34  1  0.864262  0.457374  0.148151  1
  H  H35  1  0.640170  0.787177  0.603070  1
  H  H36  1  0.602682  0.641800  0.789317  1
  H  H37  1  0.034616  0.909116  0.688806  1
