# generated using pymatgen
data_Ba3TmScSe6
_symmetry_space_group_name_H-M   'P 1'
_cell_length_a   8.72617028
_cell_length_b   8.72616829
_cell_length_c   8.72617011
_cell_angle_alpha   93.04049193
_cell_angle_beta   93.04049246
_cell_angle_gamma   93.04049020
_symmetry_Int_Tables_number   1
_chemical_formula_structural   Ba3TmScSe6
_chemical_formula_sum   'Ba6 Tm2 Sc2 Se12'
_cell_volume   661.55356516
_cell_formula_units_Z   2
loop_
 _symmetry_equiv_pos_site_id
 _symmetry_equiv_pos_as_xyz
  1  'x, y, z'
loop_
 _atom_site_type_symbol
 _atom_site_label
 _atom_site_symmetry_multiplicity
 _atom_site_fract_x
 _atom_site_fract_y
 _atom_site_fract_z
 _atom_site_occupancy
  Ba  Ba0  1  0.366744  0.750000  0.133256  1
  Ba  Ba1  1  0.133256  0.366744  0.750000  1
  Ba  Ba2  1  0.750000  0.133256  0.366744  1
  Ba  Ba3  1  0.633256  0.250000  0.866744  1
  Ba  Ba4  1  0.866744  0.633256  0.250000  1
  Ba  Ba5  1  0.250000  0.866744  0.633256  1
  Tm  Tm6  1  0.250000  0.250000  0.250000  1
  Tm  Tm7  1  0.750000  0.750000  0.750000  1
  Sc  Sc8  1  0.500000  0.500000  0.500000  1
  Sc  Sc9  1  0.000000  0.000000  0.000000  1
  Se  Se10  1  0.536130  0.410437  0.200261  1
  Se  Se11  1  0.200261  0.536130  0.410437  1
  Se  Se12  1  0.410437  0.200261  0.536130  1
  Se  Se13  1  0.963870  0.299739  0.089563  1
  Se  Se14  1  0.089563  0.963870  0.299739  1
  Se  Se15  1  0.299739  0.089563  0.963870  1
  Se  Se16  1  0.463870  0.589563  0.799739  1
  Se  Se17  1  0.799739  0.463870  0.589563  1
  Se  Se18  1  0.589563  0.799739  0.463870  1
  Se  Se19  1  0.036130  0.700261  0.910437  1
  Se  Se20  1  0.700261  0.910437  0.036130  1
  Se  Se21  1  0.910437  0.036130  0.700261  1
