# generated using pymatgen
data_Ho2Sc2CrB12Os
_symmetry_space_group_name_H-M   'P 1'
_cell_length_a   3.50818900
_cell_length_b   8.97984036
_cell_length_c   11.35367801
_cell_angle_alpha   90.01842392
_cell_angle_beta   90.00000000
_cell_angle_gamma   90.00000000
_symmetry_Int_Tables_number   1
_chemical_formula_structural   Ho2Sc2CrB12Os
_chemical_formula_sum   'Ho4 Sc4 Cr2 B24 Os2'
_cell_volume   357.67464055
_cell_formula_units_Z   2
loop_
 _symmetry_equiv_pos_site_id
 _symmetry_equiv_pos_as_xyz
  1  'x, y, z'
loop_
 _atom_site_type_symbol
 _atom_site_label
 _atom_site_symmetry_multiplicity
 _atom_site_fract_x
 _atom_site_fract_y
 _atom_site_fract_z
 _atom_site_occupancy
  Ho  Ho0  1  0.000000  0.819346  0.086751  1
  Ho  Ho1  1  0.000000  0.180654  0.913249  1
  Ho  Ho2  1  0.000000  0.322488  0.414677  1
  Ho  Ho3  1  0.000000  0.677512  0.585323  1
  Sc  Sc4  1  0.000000  0.445929  0.129329  1
  Sc  Sc5  1  0.000000  0.554071  0.870671  1
  Sc  Sc6  1  0.000000  0.942179  0.372259  1
  Sc  Sc7  1  0.000000  0.057821  0.627741  1
  Cr  Cr8  1  0.000000  0.640760  0.317889  1
  Cr  Cr9  1  0.000000  0.359240  0.682111  1
  B  B10  1  0.500000  0.054292  0.067197  1
  B  B11  1  0.500000  0.945708  0.932803  1
  B  B12  1  0.500000  0.554319  0.432425  1
  B  B13  1  0.500000  0.445681  0.567575  1
  B  B14  1  0.500000  0.253733  0.081567  1
  B  B15  1  0.500000  0.746267  0.918433  1
  B  B16  1  0.500000  0.751961  0.418353  1
  B  B17  1  0.500000  0.248039  0.581647  1
  B  B18  1  0.500000  0.294781  0.235306  1
  B  B19  1  0.500000  0.705219  0.764694  1
  B  B20  1  0.500000  0.793860  0.265524  1
  B  B21  1  0.500000  0.206140  0.734476  1
  B  B22  1  0.500000  0.128969  0.316905  1
  B  B23  1  0.500000  0.871031  0.683095  1
  B  B24  1  0.500000  0.629112  0.183981  1
  B  B25  1  0.500000  0.370888  0.816019  1
  B  B26  1  0.500000  0.481811  0.286558  1
  B  B27  1  0.500000  0.518189  0.713442  1
  B  B28  1  0.500000  0.980625  0.214246  1
  B  B29  1  0.500000  0.019375  0.785754  1
  B  B30  1  0.500000  0.097673  0.473213  1
  B  B31  1  0.500000  0.902327  0.526787  1
  B  B32  1  0.500000  0.597586  0.026622  1
  B  B33  1  0.500000  0.402414  0.973378  1
  Os  Os34  1  0.000000  0.140221  0.181008  1
  Os  Os35  1  0.000000  0.859779  0.818992  1
