# generated using pymatgen
data_Sm2ErCo8TcP6
_symmetry_space_group_name_H-M   'P 1'
_cell_length_a   3.73697800
_cell_length_b   10.56827000
_cell_length_c   12.29954700
_cell_angle_alpha   90.00000000
_cell_angle_beta   90.00000000
_cell_angle_gamma   90.00000000
_symmetry_Int_Tables_number   1
_chemical_formula_structural   Sm2ErCo8TcP6
_chemical_formula_sum   'Sm4 Er2 Co16 Tc2 P12'
_cell_volume   485.75083710
_cell_formula_units_Z   2
loop_
 _symmetry_equiv_pos_site_id
 _symmetry_equiv_pos_as_xyz
  1  'x, y, z'
loop_
 _atom_site_type_symbol
 _atom_site_label
 _atom_site_symmetry_multiplicity
 _atom_site_fract_x
 _atom_site_fract_y
 _atom_site_fract_z
 _atom_site_occupancy
  Sm  Sm0  1  0.000000  0.500000  0.522623  1
  Sm  Sm1  1  0.500000  0.000000  0.475666  1
  Sm  Sm2  1  0.000000  0.682953  0.794420  1
  Sm  Sm3  1  0.000000  0.317047  0.794420  1
  Er  Er4  1  0.500000  0.817918  0.205487  1
  Er  Er5  1  0.500000  0.182082  0.205487  1
  Co  Co6  1  0.500000  0.500000  0.703843  1
  Co  Co7  1  0.000000  0.000000  0.295103  1
  Co  Co8  1  0.000000  0.500000  0.989541  1
  Co  Co9  1  0.500000  0.000000  0.015294  1
  Co  Co10  1  0.500000  0.331067  0.992725  1
  Co  Co11  1  0.500000  0.668933  0.992725  1
  Co  Co12  1  0.000000  0.166938  0.012129  1
  Co  Co13  1  0.000000  0.833062  0.012129  1
  Co  Co14  1  0.500000  0.296065  0.427998  1
  Co  Co15  1  0.500000  0.703935  0.427998  1
  Co  Co16  1  0.000000  0.203436  0.567493  1
  Co  Co17  1  0.000000  0.796564  0.567493  1
  Co  Co18  1  0.500000  0.880493  0.708395  1
  Co  Co19  1  0.500000  0.119507  0.708395  1
  Co  Co20  1  0.000000  0.621027  0.289720  1
  Co  Co21  1  0.000000  0.378973  0.289720  1
  Tc  Tc22  1  0.500000  0.500000  0.155662  1
  Tc  Tc23  1  0.000000  0.000000  0.845230  1
  P  P24  1  0.500000  0.500000  0.884980  1
  P  P25  1  0.000000  0.000000  0.119802  1
  P  P26  1  0.500000  0.500000  0.345439  1
  P  P27  1  0.000000  0.000000  0.653838  1
  P  P28  1  0.500000  0.308638  0.613779  1
  P  P29  1  0.500000  0.691362  0.613779  1
  P  P30  1  0.000000  0.189842  0.381333  1
  P  P31  1  0.000000  0.810158  0.381333  1
  P  P32  1  0.500000  0.848080  0.895272  1
  P  P33  1  0.500000  0.151920  0.895272  1
  P  P34  1  0.000000  0.654918  0.107738  1
  P  P35  1  0.000000  0.345082  0.107738  1
