# generated using pymatgen
data_CsRb3(Pt3Se4)2
_symmetry_space_group_name_H-M   'P 1'
_cell_length_a   6.68598000
_cell_length_b   6.68597904
_cell_length_c   14.64515900
_cell_angle_alpha   90.00000000
_cell_angle_beta   90.00000000
_cell_angle_gamma   119.99999485
_symmetry_Int_Tables_number   1
_chemical_formula_structural   CsRb3(Pt3Se4)2
_chemical_formula_sum   'Cs1 Rb3 Pt6 Se8'
_cell_volume   566.96314572
_cell_formula_units_Z   1
loop_
 _symmetry_equiv_pos_site_id
 _symmetry_equiv_pos_as_xyz
  1  'x, y, z'
loop_
 _atom_site_type_symbol
 _atom_site_label
 _atom_site_symmetry_multiplicity
 _atom_site_fract_x
 _atom_site_fract_y
 _atom_site_fract_z
 _atom_site_occupancy
  Cs  Cs0  1  0.333333  0.666667  0.608282  1
  Rb  Rb1  1  0.333333  0.666667  0.886031  1
  Rb  Rb2  1  0.666667  0.333333  0.385087  1
  Rb  Rb3  1  0.666667  0.333333  0.112789  1
  Pt  Pt4  1  0.166435  0.833565  0.248775  1
  Pt  Pt5  1  0.833574  0.667149  0.752380  1
  Pt  Pt6  1  0.833574  0.166426  0.752380  1
  Pt  Pt7  1  0.166435  0.332871  0.248775  1
  Pt  Pt8  1  0.332851  0.166426  0.752380  1
  Pt  Pt9  1  0.667129  0.833565  0.248775  1
  Se  Se10  1  0.333333  0.666667  0.356613  1
  Se  Se11  1  0.666667  0.333333  0.860659  1
  Se  Se12  1  0.666667  0.333333  0.643869  1
  Se  Se13  1  0.333333  0.666667  0.140413  1
  Se  Se14  1  0.000000  0.000000  0.645401  1
  Se  Se15  1  0.000000  0.000000  0.141256  1
  Se  Se16  1  0.000000  0.000000  0.859823  1
  Se  Se17  1  0.000000  0.000000  0.356312  1
