# generated using pymatgen
data_NdTh4(NpSe4)3
_symmetry_space_group_name_H-M   'P 1'
_cell_length_a   11.39074580
_cell_length_b   4.11178900
_cell_length_c   11.08995341
_cell_angle_alpha   90.00000000
_cell_angle_beta   89.85835399
_cell_angle_gamma   90.00000000
_symmetry_Int_Tables_number   1
_chemical_formula_structural   NdTh4(NpSe4)3
_chemical_formula_sum   'Nd1 Th4 Np3 Se12'
_cell_volume   519.41127740
_cell_formula_units_Z   1
loop_
 _symmetry_equiv_pos_site_id
 _symmetry_equiv_pos_as_xyz
  1  'x, y, z'
loop_
 _atom_site_type_symbol
 _atom_site_label
 _atom_site_symmetry_multiplicity
 _atom_site_fract_x
 _atom_site_fract_y
 _atom_site_fract_z
 _atom_site_occupancy
  Nd  Nd0  1  0.483121  0.250000  0.185915  1
  Th  Th1  1  0.698011  0.750000  0.497354  1
  Th  Th2  1  0.193210  0.750000  0.000691  1
  Th  Th3  1  0.302594  0.250000  0.508058  1
  Th  Th4  1  0.805960  0.250000  0.993417  1
  Np  Np5  1  0.986049  0.250000  0.317129  1
  Np  Np6  1  0.514574  0.750000  0.813396  1
  Np  Np7  1  0.013867  0.750000  0.682777  1
  Se  Se8  1  0.550513  0.250000  0.626660  1
  Se  Se9  1  0.049083  0.250000  0.870108  1
  Se  Se10  1  0.450439  0.750000  0.379385  1
  Se  Se11  1  0.949585  0.750000  0.127694  1
  Se  Se12  1  0.624451  0.750000  0.054410  1
  Se  Se13  1  0.122570  0.750000  0.441748  1
  Se  Se14  1  0.378280  0.250000  0.941798  1
  Se  Se15  1  0.879972  0.250000  0.558594  1
  Se  Se16  1  0.724628  0.250000  0.300311  1
  Se  Se17  1  0.221170  0.250000  0.200068  1
  Se  Se18  1  0.275085  0.750000  0.705647  1
  Se  Se19  1  0.776840  0.750000  0.794839  1
