# generated using pymatgen
data_La2Sb4Ir2Ru
_symmetry_space_group_name_H-M   'P 1'
_cell_length_a   4.65918100
_cell_length_b   11.02109500
_cell_length_c   16.49983500
_cell_angle_alpha   90.00000000
_cell_angle_beta   90.00000000
_cell_angle_gamma   90.00000000
_symmetry_Int_Tables_number   1
_chemical_formula_structural   La2Sb4Ir2Ru
_chemical_formula_sum   'La8 Sb16 Ir8 Ru4'
_cell_volume   847.25458835
_cell_formula_units_Z   4
loop_
 _symmetry_equiv_pos_site_id
 _symmetry_equiv_pos_as_xyz
  1  'x, y, z'
loop_
 _atom_site_type_symbol
 _atom_site_label
 _atom_site_symmetry_multiplicity
 _atom_site_fract_x
 _atom_site_fract_y
 _atom_site_fract_z
 _atom_site_occupancy
  La  La0  1  0.250000  0.750716  0.506479  1
  La  La1  1  0.250000  0.749284  0.006479  1
  La  La2  1  0.750000  0.249284  0.493521  1
  La  La3  1  0.750000  0.250716  0.993521  1
  La  La4  1  0.250000  0.587535  0.749196  1
  La  La5  1  0.250000  0.912465  0.249196  1
  La  La6  1  0.750000  0.412465  0.250804  1
  La  La7  1  0.750000  0.087535  0.750804  1
  Sb  Sb8  1  0.250000  0.279087  0.651386  1
  Sb  Sb9  1  0.250000  0.220913  0.151386  1
  Sb  Sb10  1  0.750000  0.720913  0.348614  1
  Sb  Sb11  1  0.750000  0.779087  0.848614  1
  Sb  Sb12  1  0.250000  0.884402  0.708272  1
  Sb  Sb13  1  0.250000  0.615598  0.208272  1
  Sb  Sb14  1  0.750000  0.115598  0.291728  1
  Sb  Sb15  1  0.750000  0.384402  0.791728  1
  Sb  Sb16  1  0.250000  0.057795  0.896606  1
  Sb  Sb17  1  0.250000  0.442205  0.396606  1
  Sb  Sb18  1  0.750000  0.942205  0.103394  1
  Sb  Sb19  1  0.750000  0.557795  0.603394  1
  Sb  Sb20  1  0.250000  0.449562  0.931802  1
  Sb  Sb21  1  0.250000  0.050438  0.431802  1
  Sb  Sb22  1  0.750000  0.550438  0.068198  1
  Sb  Sb23  1  0.750000  0.949562  0.568198  1
  Ir  Ir24  1  0.250000  0.057735  0.592041  1
  Ir  Ir25  1  0.250000  0.442265  0.092041  1
  Ir  Ir26  1  0.750000  0.942265  0.407959  1
  Ir  Ir27  1  0.750000  0.557735  0.907959  1
  Ir  Ir28  1  0.250000  0.275747  0.818777  1
  Ir  Ir29  1  0.250000  0.224253  0.318777  1
  Ir  Ir30  1  0.750000  0.724253  0.181223  1
  Ir  Ir31  1  0.750000  0.775747  0.681223  1
  Ru  Ru32  1  0.250000  0.466372  0.555450  1
  Ru  Ru33  1  0.250000  0.033628  0.055450  1
  Ru  Ru34  1  0.750000  0.533628  0.444550  1
  Ru  Ru35  1  0.750000  0.966372  0.944550  1
