# generated using pymatgen
data_CePr5(CCl5)2
_symmetry_space_group_name_H-M   'P 1'
_cell_length_a   7.42629984
_cell_length_b   8.87549264
_cell_length_c   8.94393600
_cell_angle_alpha   108.28979625
_cell_angle_beta   96.66313398
_cell_angle_gamma   105.83690348
_symmetry_Int_Tables_number   1
_chemical_formula_structural   CePr5(CCl5)2
_chemical_formula_sum   'Ce1 Pr5 C2 Cl10'
_cell_volume   525.19739373
_cell_formula_units_Z   1
loop_
 _symmetry_equiv_pos_site_id
 _symmetry_equiv_pos_as_xyz
  1  'x, y, z'
loop_
 _atom_site_type_symbol
 _atom_site_label
 _atom_site_symmetry_multiplicity
 _atom_site_fract_x
 _atom_site_fract_y
 _atom_site_fract_z
 _atom_site_occupancy
  Ce  Ce0  1  0.399152  0.159543  0.211598  1
  Pr  Pr1  1  0.876741  0.949848  0.235006  1
  Pr  Pr2  1  0.122412  0.049799  0.764386  1
  Pr  Pr3  1  0.029375  0.711166  0.911029  1
  Pr  Pr4  1  0.969536  0.288714  0.088138  1
  Pr  Pr5  1  0.603785  0.841327  0.789979  1
  C  C6  1  0.908390  0.966722  0.953057  1
  C  C7  1  0.096656  0.035666  0.049603  1
  Cl  Cl8  1  0.757543  0.916468  0.538326  1
  Cl  Cl9  1  0.240497  0.083447  0.460577  1
  Cl  Cl10  1  0.454712  0.822717  0.079604  1
  Cl  Cl11  1  0.543037  0.175903  0.918758  1
  Cl  Cl12  1  0.815293  0.263300  0.357816  1
  Cl  Cl13  1  0.183385  0.737004  0.642214  1
  Cl  Cl14  1  0.908229  0.626468  0.170794  1
  Cl  Cl15  1  0.092477  0.373978  0.829485  1
  Cl  Cl16  1  0.655823  0.533526  0.719395  1
  Cl  Cl17  1  0.342957  0.464403  0.280233  1
