# generated using pymatgen
data_K(ScI3)2
_symmetry_space_group_name_H-M   'P 1'
_cell_length_a   8.26296600
_cell_length_b   8.26296596
_cell_length_c   13.82822800
_cell_angle_alpha   90.00000000
_cell_angle_beta   90.00000000
_cell_angle_gamma   119.99999215
_symmetry_Int_Tables_number   1
_chemical_formula_structural   K(ScI3)2
_chemical_formula_sum   'K2 Sc4 I12'
_cell_volume   817.65317437
_cell_formula_units_Z   2
loop_
 _symmetry_equiv_pos_site_id
 _symmetry_equiv_pos_as_xyz
  1  'x, y, z'
loop_
 _atom_site_type_symbol
 _atom_site_label
 _atom_site_symmetry_multiplicity
 _atom_site_fract_x
 _atom_site_fract_y
 _atom_site_fract_z
 _atom_site_occupancy
  K  K0  1  0.333333  0.666667  0.872604  1
  K  K1  1  0.666667  0.333333  0.372604  1
  Sc  Sc2  1  0.000000  0.000000  0.125678  1
  Sc  Sc3  1  0.000000  0.000000  0.376026  1
  Sc  Sc4  1  0.000000  0.000000  0.625678  1
  Sc  Sc5  1  0.000000  0.000000  0.876026  1
  I  I6  1  0.981450  0.704749  0.001966  1
  I  I7  1  0.272960  0.975126  0.249841  1
  I  I8  1  0.024874  0.297834  0.249841  1
  I  I9  1  0.295251  0.276702  0.001966  1
  I  I10  1  0.276702  0.295251  0.501966  1
  I  I11  1  0.723298  0.018550  0.001966  1
  I  I12  1  0.297834  0.024874  0.749841  1
  I  I13  1  0.702166  0.727040  0.249841  1
  I  I14  1  0.727040  0.702166  0.749841  1
  I  I15  1  0.018550  0.723298  0.501966  1
  I  I16  1  0.704749  0.981450  0.501966  1
  I  I17  1  0.975126  0.272960  0.749841  1
