# generated using pymatgen
data_TbNb(BiRh)2
_symmetry_space_group_name_H-M   'P 1'
_cell_length_a   6.50300200
_cell_length_b   4.59804500
_cell_length_c   9.16995200
_cell_angle_alpha   90.00000000
_cell_angle_beta   90.00000000
_cell_angle_gamma   90.00000000
_symmetry_Int_Tables_number   1
_chemical_formula_structural   TbNb(BiRh)2
_chemical_formula_sum   'Tb2 Nb2 Bi4 Rh4'
_cell_volume   274.19161352
_cell_formula_units_Z   2
loop_
 _symmetry_equiv_pos_site_id
 _symmetry_equiv_pos_as_xyz
  1  'x, y, z'
loop_
 _atom_site_type_symbol
 _atom_site_label
 _atom_site_symmetry_multiplicity
 _atom_site_fract_x
 _atom_site_fract_y
 _atom_site_fract_z
 _atom_site_occupancy
  Tb  Tb0  1  0.011309  0.000000  0.374902  1
  Tb  Tb1  1  0.511308  0.499999  0.625097  1
  Nb  Nb2  1  0.489872  0.499999  0.120784  1
  Nb  Nb3  1  0.989873  0.000000  0.879216  1
  Bi  Bi4  1  0.978318  0.499999  0.125255  1
  Bi  Bi5  1  0.515788  0.000000  0.372794  1
  Bi  Bi6  1  0.015789  0.499999  0.627205  1
  Bi  Bi7  1  0.478318  0.000000  0.874745  1
  Rh  Rh8  1  0.730772  0.000000  0.108557  1
  Rh  Rh9  1  0.273941  0.499999  0.350750  1
  Rh  Rh10  1  0.773942  0.000000  0.649250  1
  Rh  Rh11  1  0.230771  0.499999  0.891442  1
