# generated using pymatgen
data_Nd7UBePd24
_symmetry_space_group_name_H-M   'P 1'
_cell_length_a   8.44688800
_cell_length_b   8.44688698
_cell_length_c   8.44688700
_cell_angle_alpha   89.90751287
_cell_angle_beta   90.09248711
_cell_angle_gamma   90.09249385
_symmetry_Int_Tables_number   1
_chemical_formula_structural   Nd7UBePd24
_chemical_formula_sum   'Nd7 U1 Be1 Pd24'
_cell_volume   602.68225949
_cell_formula_units_Z   1
loop_
 _symmetry_equiv_pos_site_id
 _symmetry_equiv_pos_as_xyz
  1  'x, y, z'
loop_
 _atom_site_type_symbol
 _atom_site_label
 _atom_site_symmetry_multiplicity
 _atom_site_fract_x
 _atom_site_fract_y
 _atom_site_fract_z
 _atom_site_occupancy
  Nd  Nd0  1  0.249915  0.251726  0.251726  1
  Nd  Nd1  1  0.748522  0.748733  0.748733  1
  Nd  Nd2  1  0.748274  0.750085  0.251726  1
  Nd  Nd3  1  0.748274  0.251726  0.750085  1
  Nd  Nd4  1  0.251267  0.251478  0.748733  1
  Nd  Nd5  1  0.251267  0.748733  0.251478  1
  Nd  Nd6  1  0.252348  0.747652  0.747652  1
  U  U7  1  0.745446  0.254554  0.254554  1
  Be  Be8  1  0.003698  0.996302  0.996302  1
  Pd  Pd9  1  0.253847  0.498761  0.000438  1
  Pd  Pd10  1  0.745717  0.493973  0.008188  1
  Pd  Pd11  1  0.991812  0.254283  0.493973  1
  Pd  Pd12  1  0.506027  0.254283  0.008188  1
  Pd  Pd13  1  0.999562  0.746153  0.498761  1
  Pd  Pd14  1  0.501239  0.746153  0.000438  1
  Pd  Pd15  1  0.506027  0.008188  0.254283  1
  Pd  Pd16  1  0.253847  0.000438  0.498761  1
  Pd  Pd17  1  0.501239  0.000438  0.746153  1
  Pd  Pd18  1  0.745717  0.008188  0.493973  1
  Pd  Pd19  1  0.991812  0.493973  0.254283  1
  Pd  Pd20  1  0.999562  0.498761  0.746153  1
  Pd  Pd21  1  0.250896  0.499187  0.499187  1
  Pd  Pd22  1  0.748196  0.493628  0.493628  1
  Pd  Pd23  1  0.506372  0.251804  0.493628  1
  Pd  Pd24  1  0.500813  0.749104  0.499187  1
  Pd  Pd25  1  0.506372  0.493628  0.251804  1
  Pd  Pd26  1  0.500813  0.499187  0.749104  1
  Pd  Pd27  1  0.270873  0.999881  0.999881  1
  Pd  Pd28  1  0.734189  0.007091  0.007091  1
  Pd  Pd29  1  0.992909  0.265811  0.007091  1
  Pd  Pd30  1  0.000119  0.729127  0.999881  1
  Pd  Pd31  1  0.992909  0.007091  0.265811  1
  Pd  Pd32  1  0.000119  0.999881  0.729127  1
