# generated using pymatgen
data_ErZnCu3Ag
_symmetry_space_group_name_H-M   'P 1'
_cell_length_a   5.09481060
_cell_length_b   5.09481056
_cell_length_c   5.06157972
_cell_angle_alpha   59.78258310
_cell_angle_beta   59.78257834
_cell_angle_gamma   59.99999366
_symmetry_Int_Tables_number   1
_chemical_formula_structural   ErZnCu3Ag
_chemical_formula_sum   'Er1 Zn1 Cu3 Ag1'
_cell_volume   92.59596954
_cell_formula_units_Z   1
loop_
 _symmetry_equiv_pos_site_id
 _symmetry_equiv_pos_as_xyz
  1  'x, y, z'
loop_
 _atom_site_type_symbol
 _atom_site_label
 _atom_site_symmetry_multiplicity
 _atom_site_fract_x
 _atom_site_fract_y
 _atom_site_fract_z
 _atom_site_occupancy
  Er  Er0  1  0.002350  0.002350  0.992950  1
  Zn  Zn1  1  0.622200  0.622200  0.133399  1
  Cu  Cu2  1  0.623686  0.127574  0.625053  1
  Cu  Cu3  1  0.127574  0.623686  0.625053  1
  Cu  Cu4  1  0.623686  0.623686  0.625053  1
  Ag  Ag5  1  0.250503  0.250503  0.248491  1
