# generated using pymatgen
data_Zr5ZnInSb2
_symmetry_space_group_name_H-M   'P 1'
_cell_length_a   8.69890474
_cell_length_b   8.69890344
_cell_length_c   5.88219300
_cell_angle_alpha   90.00000000
_cell_angle_beta   90.00000000
_cell_angle_gamma   119.81930966
_symmetry_Int_Tables_number   1
_chemical_formula_structural   Zr5ZnInSb2
_chemical_formula_sum   'Zr10 Zn2 In2 Sb4'
_cell_volume   386.17740082
_cell_formula_units_Z   2
loop_
 _symmetry_equiv_pos_site_id
 _symmetry_equiv_pos_as_xyz
  1  'x, y, z'
loop_
 _atom_site_type_symbol
 _atom_site_label
 _atom_site_symmetry_multiplicity
 _atom_site_fract_x
 _atom_site_fract_y
 _atom_site_fract_z
 _atom_site_occupancy
  Zr  Zr0  1  0.666490  0.335462  0.001078  1
  Zr  Zr1  1  0.335462  0.666490  0.001078  1
  Zr  Zr2  1  0.335462  0.666490  0.498922  1
  Zr  Zr3  1  0.666490  0.335462  0.498922  1
  Zr  Zr4  1  0.732428  0.732428  0.750000  1
  Zr  Zr5  1  0.266673  0.999807  0.750000  1
  Zr  Zr6  1  0.999807  0.266673  0.750000  1
  Zr  Zr7  1  0.273151  0.273151  0.250000  1
  Zr  Zr8  1  0.727120  0.997320  0.250000  1
  Zr  Zr9  1  0.997320  0.727120  0.250000  1
  Zn  Zn10  1  0.002329  0.002329  0.007715  1
  Zn  Zn11  1  0.002329  0.002329  0.492285  1
  In  In12  1  0.379987  0.999121  0.250000  1
  In  In13  1  0.999121  0.379987  0.250000  1
  Sb  Sb14  1  0.383588  0.383588  0.750000  1
  Sb  Sb15  1  0.613609  0.002288  0.750000  1
  Sb  Sb16  1  0.002288  0.613609  0.750000  1
  Sb  Sb17  1  0.616349  0.616349  0.250000  1
