# generated using pymatgen
data_Cs3BSeS2
_symmetry_space_group_name_H-M   'P 1'
_cell_length_a   6.81365800
_cell_length_b   11.06219465
_cell_length_c   14.03955586
_cell_angle_alpha   77.14241542
_cell_angle_beta   90.00000000
_cell_angle_gamma   90.00000000
_symmetry_Int_Tables_number   1
_chemical_formula_structural   Cs3BSeS2
_chemical_formula_sum   'Cs12 B4 Se4 S8'
_cell_volume   1031.68409779
_cell_formula_units_Z   4
loop_
 _symmetry_equiv_pos_site_id
 _symmetry_equiv_pos_as_xyz
  1  'x, y, z'
loop_
 _atom_site_type_symbol
 _atom_site_label
 _atom_site_symmetry_multiplicity
 _atom_site_fract_x
 _atom_site_fract_y
 _atom_site_fract_z
 _atom_site_occupancy
  Cs  Cs0  1  0.645191  0.251500  0.503728  1
  Cs  Cs1  1  0.145191  0.748500  0.996272  1
  Cs  Cs2  1  0.354809  0.748500  0.496272  1
  Cs  Cs3  1  0.854809  0.251500  0.003728  1
  Cs  Cs4  1  0.286443  0.035473  0.142906  1
  Cs  Cs5  1  0.786443  0.964527  0.357094  1
  Cs  Cs6  1  0.713557  0.964527  0.857094  1
  Cs  Cs7  1  0.213557  0.035473  0.642906  1
  Cs  Cs8  1  0.442610  0.405327  0.192330  1
  Cs  Cs9  1  0.942610  0.594673  0.307670  1
  Cs  Cs10  1  0.557390  0.594673  0.807670  1
  Cs  Cs11  1  0.057390  0.405327  0.692330  1
  B  B12  1  0.133167  0.231297  0.377073  1
  B  B13  1  0.633167  0.768703  0.122927  1
  B  B14  1  0.866833  0.768703  0.622927  1
  B  B15  1  0.366833  0.231297  0.877073  1
  Se  Se16  1  0.938860  0.279987  0.265867  1
  Se  Se17  1  0.438860  0.720013  0.234133  1
  Se  Se18  1  0.061140  0.720013  0.734133  1
  Se  Se19  1  0.561140  0.279987  0.765867  1
  S  S20  1  0.287925  0.095156  0.382912  1
  S  S21  1  0.787925  0.904844  0.117088  1
  S  S22  1  0.712075  0.904844  0.617088  1
  S  S23  1  0.212075  0.095156  0.882912  1
  S  S24  1  0.349415  0.328200  0.966120  1
  S  S25  1  0.849415  0.671800  0.533880  1
  S  S26  1  0.650585  0.671800  0.033880  1
  S  S27  1  0.150585  0.328200  0.466120  1
