# generated using pymatgen
data_Er2TiFe8P6Ru
_symmetry_space_group_name_H-M   'P 1'
_cell_length_a   3.68794600
_cell_length_b   10.39365900
_cell_length_c   11.91676700
_cell_angle_alpha   90.00000000
_cell_angle_beta   90.00000000
_cell_angle_gamma   90.00000000
_symmetry_Int_Tables_number   1
_chemical_formula_structural   Er2TiFe8P6Ru
_chemical_formula_sum   'Er4 Ti2 Fe16 P12 Ru2'
_cell_volume   456.78461242
_cell_formula_units_Z   2
loop_
 _symmetry_equiv_pos_site_id
 _symmetry_equiv_pos_as_xyz
  1  'x, y, z'
loop_
 _atom_site_type_symbol
 _atom_site_label
 _atom_site_symmetry_multiplicity
 _atom_site_fract_x
 _atom_site_fract_y
 _atom_site_fract_z
 _atom_site_occupancy
  Er  Er0  1  0.250000  0.573174  0.704586  1
  Er  Er1  1  0.250000  0.926826  0.204586  1
  Er  Er2  1  0.750000  0.410866  0.292868  1
  Er  Er3  1  0.750000  0.089134  0.792868  1
  Ti  Ti4  1  0.250000  0.704600  0.988608  1
  Ti  Ti5  1  0.250000  0.795400  0.488608  1
  Fe  Fe6  1  0.250000  0.399049  0.491299  1
  Fe  Fe7  1  0.250000  0.100952  0.991299  1
  Fe  Fe8  1  0.750000  0.584307  0.507513  1
  Fe  Fe9  1  0.750000  0.915693  0.007513  1
  Fe  Fe10  1  0.250000  0.226666  0.174439  1
  Fe  Fe11  1  0.250000  0.273334  0.674439  1
  Fe  Fe12  1  0.750000  0.787162  0.822549  1
  Fe  Fe13  1  0.750000  0.712838  0.322549  1
  Fe  Fe14  1  0.250000  0.872802  0.705866  1
  Fe  Fe15  1  0.250000  0.627198  0.205866  1
  Fe  Fe16  1  0.750000  0.118597  0.299192  1
  Fe  Fe17  1  0.750000  0.381403  0.799192  1
  Fe  Fe18  1  0.250000  0.466175  0.933980  1
  Fe  Fe19  1  0.250000  0.033825  0.433980  1
  Fe  Fe20  1  0.750000  0.540857  0.069130  1
  Fe  Fe21  1  0.750000  0.959143  0.569130  1
  P  P22  1  0.250000  0.427315  0.113998  1
  P  P23  1  0.250000  0.072685  0.613998  1
  P  P24  1  0.750000  0.573874  0.884585  1
  P  P25  1  0.750000  0.926126  0.384585  1
  P  P26  1  0.250000  0.271916  0.863398  1
  P  P27  1  0.250000  0.228084  0.363398  1
  P  P28  1  0.750000  0.741688  0.131513  1
  P  P29  1  0.750000  0.758312  0.631513  1
  P  P30  1  0.250000  0.581576  0.395189  1
  P  P31  1  0.250000  0.918424  0.895189  1
  P  P32  1  0.750000  0.392372  0.610926  1
  P  P33  1  0.750000  0.107628  0.110926  1
  Ru  Ru34  1  0.750000  0.297633  0.010360  1
  Ru  Ru35  1  0.750000  0.202367  0.510360  1
