# generated using pymatgen
data_SmLu5(AuO7)2
_symmetry_space_group_name_H-M   'P 1'
_cell_length_a   6.39578160
_cell_length_b   6.39578285
_cell_length_c   7.34284236
_cell_angle_alpha   90.07480711
_cell_angle_beta   89.92519151
_cell_angle_gamma   108.61008704
_symmetry_Int_Tables_number   1
_chemical_formula_structural   SmLu5(AuO7)2
_chemical_formula_sum   'Sm1 Lu5 Au2 O14'
_cell_volume   284.66067148
_cell_formula_units_Z   1
loop_
 _symmetry_equiv_pos_site_id
 _symmetry_equiv_pos_as_xyz
  1  'x, y, z'
loop_
 _atom_site_type_symbol
 _atom_site_label
 _atom_site_symmetry_multiplicity
 _atom_site_fract_x
 _atom_site_fract_y
 _atom_site_fract_z
 _atom_site_occupancy
  Sm  Sm0  1  0.499311  0.499311  0.000000  1
  Lu  Lu1  1  0.528253  0.998820  0.747458  1
  Lu  Lu2  1  0.471568  0.001365  0.253760  1
  Lu  Lu3  1  0.001365  0.471568  0.746240  1
  Lu  Lu4  1  0.998820  0.528253  0.252542  1
  Lu  Lu5  1  0.502244  0.502244  0.500000  1
  Au  Au6  1  0.000057  0.000057  0.000000  1
  Au  Au7  1  0.999774  0.999774  0.500000  1
  O  O8  1  0.642470  0.357559  0.740790  1
  O  O9  1  0.357559  0.642470  0.259210  1
  O  O10  1  0.916183  0.083727  0.749880  1
  O  O11  1  0.083727  0.916183  0.250120  1
  O  O12  1  0.334447  0.078136  0.975843  1
  O  O13  1  0.665355  0.914283  0.475673  1
  O  O14  1  0.914283  0.665355  0.524327  1
  O  O15  1  0.078136  0.334447  0.024157  1
  O  O16  1  0.363179  0.636955  0.740258  1
  O  O17  1  0.636955  0.363179  0.259742  1
  O  O18  1  0.333528  0.084086  0.525293  1
  O  O19  1  0.666216  0.922482  0.025123  1
  O  O20  1  0.922482  0.666216  0.974877  1
  O  O21  1  0.084086  0.333528  0.474707  1
