# generated using pymatgen
data_Hf15Sc(Pt2N)4
_symmetry_space_group_name_H-M   'P 1'
_cell_length_a   8.76929814
_cell_length_b   8.78202695
_cell_length_c   8.76929700
_cell_angle_alpha   60.04793524
_cell_angle_beta   60.00000052
_cell_angle_gamma   60.04793724
_symmetry_Int_Tables_number   1
_chemical_formula_structural   Hf15Sc(Pt2N)4
_chemical_formula_sum   'Hf15 Sc1 Pt8 N4'
_cell_volume   477.88530338
_cell_formula_units_Z   1
loop_
 _symmetry_equiv_pos_site_id
 _symmetry_equiv_pos_as_xyz
  1  'x, y, z'
loop_
 _atom_site_type_symbol
 _atom_site_label
 _atom_site_symmetry_multiplicity
 _atom_site_fract_x
 _atom_site_fract_y
 _atom_site_fract_z
 _atom_site_occupancy
  Hf  Hf0  1  0.125000  0.625000  0.625000  1
  Hf  Hf1  1  0.625000  0.625000  0.125000  1
  Hf  Hf2  1  0.625000  0.625000  0.625000  1
  Hf  Hf3  1  0.817466  0.817974  0.182280  1
  Hf  Hf4  1  0.183165  0.182251  0.817292  1
  Hf  Hf5  1  0.817292  0.182251  0.817292  1
  Hf  Hf6  1  0.182280  0.817974  0.182280  1
  Hf  Hf7  1  0.182280  0.817974  0.817466  1
  Hf  Hf8  1  0.817292  0.182251  0.183165  1
  Hf  Hf9  1  0.432534  0.432026  0.067720  1
  Hf  Hf10  1  0.066835  0.067749  0.432708  1
  Hf  Hf11  1  0.432708  0.067749  0.432708  1
  Hf  Hf12  1  0.067720  0.432026  0.067720  1
  Hf  Hf13  1  0.067720  0.432026  0.432534  1
  Hf  Hf14  1  0.432708  0.067749  0.066835  1
  Sc  Sc15  1  0.625000  0.125000  0.625000  1
  Pt  Pt16  1  0.782301  0.406365  0.405667  1
  Pt  Pt17  1  0.406204  0.781388  0.406204  1
  Pt  Pt18  1  0.405667  0.406365  0.782301  1
  Pt  Pt19  1  0.405667  0.406365  0.405667  1
  Pt  Pt20  1  0.467699  0.843635  0.844333  1
  Pt  Pt21  1  0.843796  0.468612  0.843796  1
  Pt  Pt22  1  0.844333  0.843635  0.467699  1
  Pt  Pt23  1  0.844333  0.843635  0.844333  1
  N  N24  1  0.625000  0.125000  0.125000  1
  N  N25  1  0.125000  0.625000  0.125000  1
  N  N26  1  0.125000  0.125000  0.625000  1
  N  N27  1  0.125000  0.125000  0.125000  1
