# generated using pymatgen
data_Rb4Ba4Sc5In3(PO4)12
_symmetry_space_group_name_H-M   'P 1'
_cell_length_a   10.28998100
_cell_length_b   10.28998100
_cell_length_c   10.28998100
_cell_angle_alpha   90.00000000
_cell_angle_beta   90.00000000
_cell_angle_gamma   90.00000000
_symmetry_Int_Tables_number   1
_chemical_formula_structural   Rb4Ba4Sc5In3(PO4)12
_chemical_formula_sum   'Rb4 Ba4 Sc5 In3 P12 O48'
_cell_volume   1089.54135362
_cell_formula_units_Z   1
loop_
 _symmetry_equiv_pos_site_id
 _symmetry_equiv_pos_as_xyz
  1  'x, y, z'
loop_
 _atom_site_type_symbol
 _atom_site_label
 _atom_site_symmetry_multiplicity
 _atom_site_fract_x
 _atom_site_fract_y
 _atom_site_fract_z
 _atom_site_occupancy
  Rb  Rb0  1  0.199072  0.701073  0.798945  1
  Rb  Rb1  1  0.300523  0.299258  0.299052  1
  Rb  Rb2  1  0.701283  0.800340  0.199679  1
  Rb  Rb3  1  0.797874  0.200530  0.700163  1
  Ba  Ba4  1  0.072050  0.070857  0.066830  1
  Ba  Ba5  1  0.432832  0.927288  0.569560  1
  Ba  Ba6  1  0.569032  0.431314  0.930401  1
  Ba  Ba7  1  0.930385  0.566087  0.427674  1
  Sc  Sc8  1  0.417220  0.083770  0.916103  1
  Sc  Sc9  1  0.583652  0.583112  0.583827  1
  Sc  Sc10  1  0.647921  0.147144  0.353401  1
  Sc  Sc11  1  0.852126  0.853075  0.853138  1
  Sc  Sc12  1  0.915881  0.416089  0.082588  1
  In  In13  1  0.082514  0.917496  0.417150  1
  In  In14  1  0.149092  0.349916  0.650566  1
  In  In15  1  0.350730  0.650135  0.150396  1
  P  P16  1  0.036610  0.730994  0.127057  1
  P  P17  1  0.128275  0.037412  0.732728  1
  P  P18  1  0.231902  0.371238  0.963435  1
  P  P19  1  0.268467  0.628233  0.463743  1
  P  P20  1  0.373127  0.963933  0.231391  1
  P  P21  1  0.462645  0.268171  0.627685  1
  P  P22  1  0.538127  0.769061  0.870187  1
  P  P23  1  0.629998  0.461295  0.269456  1
  P  P24  1  0.730942  0.128625  0.038804  1
  P  P25  1  0.768450  0.870537  0.539414  1
  P  P26  1  0.870023  0.539060  0.769018  1
  P  P27  1  0.960943  0.231867  0.369397  1
  O  O28  1  0.001646  0.090363  0.338912  1
  O  O29  1  0.011182  0.798529  0.259737  1
  O  O30  1  0.026616  0.948333  0.798469  1
  O  O31  1  0.047943  0.302210  0.469905  1
  O  O32  1  0.076018  0.178308  0.744432  1
  O  O33  1  0.088995  0.348725  0.002477  1
  O  O34  1  0.159958  0.001070  0.590505  1
  O  O35  1  0.178816  0.746133  0.079615  1
  O  O36  1  0.204883  0.763211  0.487925  1
  O  O37  1  0.193089  0.531662  0.550891  1
  O  O38  1  0.240258  0.989564  0.298279  1
  O  O39  1  0.243723  0.422742  0.822346  1
  O  O40  1  0.253372  0.580086  0.321883  1
  O  O41  1  0.256924  0.018438  0.808686  1
  O  O42  1  0.305959  0.467635  0.052090  1
  O  O43  1  0.301321  0.238418  0.981563  1
  O  O44  1  0.321287  0.257324  0.576923  1
  O  O45  1  0.353158  0.000920  0.087641  1
  O  O46  1  0.412239  0.646008  0.501116  1
  O  O47  1  0.420657  0.821765  0.246643  1
  O  O48  1  0.452986  0.694081  0.969404  1
  O  O49  1  0.473972  0.050017  0.302462  1
  O  O50  1  0.481105  0.195973  0.758840  1
  O  O51  1  0.495174  0.911158  0.847788  1
  O  O52  1  0.502466  0.410639  0.652073  1
  O  O53  1  0.517072  0.698774  0.738247  1
  O  O54  1  0.531009  0.546833  0.194800  1
  O  O55  1  0.550612  0.197806  0.527937  1
  O  O56  1  0.584066  0.318516  0.263142  1
  O  O57  1  0.589253  0.152963  0.995309  1
  O  O58  1  0.652887  0.504522  0.411384  1
  O  O59  1  0.680915  0.762376  0.916044  1
  O  O60  1  0.690713  0.743134  0.518369  1
  O  O61  1  0.702439  0.974559  0.452886  1
  O  O62  1  0.737955  0.519371  0.698502  1
  O  O63  1  0.736891  0.083533  0.181815  1
  O  O64  1  0.761932  0.917315  0.681935  1
  O  O65  1  0.761717  0.481695  0.198353  1
  O  O66  1  0.802047  0.026313  0.953970  1
  O  O67  1  0.804081  0.258859  0.017610  1
  O  O68  1  0.818751  0.238435  0.416913  1
  O  O69  1  0.847481  0.495043  0.910693  1
  O  O70  1  0.909682  0.838077  0.498876  1
  O  O71  1  0.915936  0.681734  0.763452  1
  O  O72  1  0.950091  0.801679  0.026343  1
  O  O73  1  0.968425  0.453449  0.693727  1
  O  O74  1  0.981094  0.306432  0.239950  1
  O  O75  1  0.999514  0.587358  0.147349  1
