# generated using pymatgen
data_EuGa3CoRu
_symmetry_space_group_name_H-M   'P 1'
_cell_length_a   6.34267906
_cell_length_b   6.34267918
_cell_length_c   5.54610600
_cell_angle_alpha   90.00000000
_cell_angle_beta   90.00000000
_cell_angle_gamma   103.15228669
_symmetry_Int_Tables_number   1
_chemical_formula_structural   EuGa3CoRu
_chemical_formula_sum   'Eu2 Ga6 Co2 Ru2'
_cell_volume   217.26484962
_cell_formula_units_Z   2
loop_
 _symmetry_equiv_pos_site_id
 _symmetry_equiv_pos_as_xyz
  1  'x, y, z'
loop_
 _atom_site_type_symbol
 _atom_site_label
 _atom_site_symmetry_multiplicity
 _atom_site_fract_x
 _atom_site_fract_y
 _atom_site_fract_z
 _atom_site_occupancy
  Eu  Eu0  1  0.344388  0.344388  0.250000  1
  Eu  Eu1  1  0.655612  0.655612  0.750000  1
  Ga  Ga2  1  0.915038  0.530017  0.244482  1
  Ga  Ga3  1  0.084962  0.469983  0.744482  1
  Ga  Ga4  1  0.047800  0.047800  0.750000  1
  Ga  Ga5  1  0.952200  0.952200  0.250000  1
  Ga  Ga6  1  0.469983  0.084962  0.755518  1
  Ga  Ga7  1  0.530017  0.915038  0.255518  1
  Co  Co8  1  0.795794  0.204206  0.000000  1
  Co  Co9  1  0.204206  0.795794  0.500000  1
  Ru  Ru10  1  0.206659  0.793341  0.000000  1
  Ru  Ru11  1  0.793341  0.206659  0.500000  1
