# generated using pymatgen
data_Sm4Ga10PdPt5
_symmetry_space_group_name_H-M   'P 1'
_cell_length_a   8.64086890
_cell_length_b   8.64086821
_cell_length_c   8.64086900
_cell_angle_alpha   140.49650443
_cell_angle_beta   107.79701202
_cell_angle_gamma   85.57055062
_symmetry_Int_Tables_number   1
_chemical_formula_structural   Sm4Ga10PdPt5
_chemical_formula_sum   'Sm4 Ga10 Pd1 Pt5'
_cell_volume   377.13243938
_cell_formula_units_Z   1
loop_
 _symmetry_equiv_pos_site_id
 _symmetry_equiv_pos_as_xyz
  1  'x, y, z'
loop_
 _atom_site_type_symbol
 _atom_site_label
 _atom_site_symmetry_multiplicity
 _atom_site_fract_x
 _atom_site_fract_y
 _atom_site_fract_z
 _atom_site_occupancy
  Sm  Sm0  1  0.862658  0.640986  0.226609  1
  Sm  Sm1  1  0.137342  0.363951  0.778328  1
  Sm  Sm2  1  0.414378  0.136049  0.273391  1
  Sm  Sm3  1  0.585622  0.859014  0.721672  1
  Ga  Ga4  1  0.500000  0.750000  0.250000  1
  Ga  Ga5  1  0.500000  0.250000  0.750000  1
  Ga  Ga6  1  0.211261  0.961261  0.750000  1
  Ga  Ga7  1  0.788739  0.538739  0.750000  1
  Ga  Ga8  1  0.788878  0.038878  0.250000  1
  Ga  Ga9  1  0.211122  0.461122  0.250000  1
  Ga  Ga10  1  0.067509  0.903119  0.164004  1
  Ga  Ga11  1  0.932491  0.096495  0.835610  1
  Ga  Ga12  1  0.739115  0.403505  0.335996  1
  Ga  Ga13  1  0.260885  0.596881  0.664390  1
  Pd  Pd14  1  0.000000  0.750000  0.750000  1
  Pt  Pt15  1  0.000000  0.250000  0.250000  1
  Pt  Pt16  1  0.254612  0.855933  0.400009  1
  Pt  Pt17  1  0.745388  0.145397  0.601320  1
  Pt  Pt18  1  0.455924  0.354603  0.099991  1
  Pt  Pt19  1  0.544076  0.644067  0.898680  1
