# generated using pymatgen
data_La5IrPb3
_symmetry_space_group_name_H-M   'P 1'
_cell_length_a   9.71606100
_cell_length_b   9.71606155
_cell_length_c   7.26678100
_cell_angle_alpha   90.00000000
_cell_angle_beta   90.00000000
_cell_angle_gamma   120.00000152
_symmetry_Int_Tables_number   1
_chemical_formula_structural   La5IrPb3
_chemical_formula_sum   'La10 Ir2 Pb6'
_cell_volume   594.09129277
_cell_formula_units_Z   2
loop_
 _symmetry_equiv_pos_site_id
 _symmetry_equiv_pos_as_xyz
  1  'x, y, z'
loop_
 _atom_site_type_symbol
 _atom_site_label
 _atom_site_symmetry_multiplicity
 _atom_site_fract_x
 _atom_site_fract_y
 _atom_site_fract_z
 _atom_site_occupancy
  La  La0  1  0.234100  0.000000  0.250000  1
  La  La1  1  0.234100  0.234100  0.750000  1
  La  La2  1  0.000000  0.765900  0.750000  1
  La  La3  1  0.000000  0.234100  0.250000  1
  La  La4  1  0.765900  0.765900  0.250000  1
  La  La5  1  0.765900  0.000000  0.750000  1
  La  La6  1  0.333333  0.666667  0.000000  1
  La  La7  1  0.666667  0.333333  0.500000  1
  La  La8  1  0.666667  0.333333  0.000000  1
  La  La9  1  0.333333  0.666667  0.500000  1
  Ir  Ir10  1  0.000000  0.000000  0.000000  1
  Ir  Ir11  1  0.000000  0.000000  0.500000  1
  Pb  Pb12  1  0.593756  0.000000  0.250000  1
  Pb  Pb13  1  0.593756  0.593756  0.750000  1
  Pb  Pb14  1  0.000000  0.406244  0.750000  1
  Pb  Pb15  1  0.000000  0.593756  0.250000  1
  Pb  Pb16  1  0.406244  0.406244  0.250000  1
  Pb  Pb17  1  0.406244  0.000000  0.750000  1
