# generated using pymatgen
data_Y4Ir5OsRu2
_symmetry_space_group_name_H-M   'P 1'
_cell_length_a   5.34944850
_cell_length_b   5.34944830
_cell_length_c   8.74435700
_cell_angle_alpha   90.00000000
_cell_angle_beta   90.00000000
_cell_angle_gamma   119.28031310
_symmetry_Int_Tables_number   1
_chemical_formula_structural   Y4Ir5OsRu2
_chemical_formula_sum   'Y4 Ir5 Os1 Ru2'
_cell_volume   218.26322969
_cell_formula_units_Z   1
loop_
 _symmetry_equiv_pos_site_id
 _symmetry_equiv_pos_as_xyz
  1  'x, y, z'
loop_
 _atom_site_type_symbol
 _atom_site_label
 _atom_site_symmetry_multiplicity
 _atom_site_fract_x
 _atom_site_fract_y
 _atom_site_fract_z
 _atom_site_occupancy
  Y  Y0  1  0.332851  0.667149  0.435157  1
  Y  Y1  1  0.665653  0.334347  0.566993  1
  Y  Y2  1  0.665653  0.334347  0.933007  1
  Y  Y3  1  0.332851  0.667149  0.064843  1
  Ir  Ir4  1  0.167123  0.336996  0.750000  1
  Ir  Ir5  1  0.169610  0.830390  0.750000  1
  Ir  Ir6  1  0.345057  0.164915  0.250000  1
  Ir  Ir7  1  0.835085  0.654943  0.250000  1
  Ir  Ir8  1  0.663004  0.832877  0.750000  1
  Os  Os9  1  0.833933  0.166067  0.250000  1
  Ru  Ru10  1  0.994590  0.005410  0.000940  1
  Ru  Ru11  1  0.994590  0.005410  0.499060  1
