# generated using pymatgen
data_Eu5TlIr2
_symmetry_space_group_name_H-M   'P 1'
_cell_length_a   9.22570440
_cell_length_b   9.22570473
_cell_length_c   9.22570302
_cell_angle_alpha   128.62303369
_cell_angle_beta   128.62303880
_cell_angle_gamma   75.61788149
_symmetry_Int_Tables_number   1
_chemical_formula_structural   Eu5TlIr2
_chemical_formula_sum   'Eu10 Tl2 Ir4'
_cell_volume   466.28587401
_cell_formula_units_Z   2
loop_
 _symmetry_equiv_pos_site_id
 _symmetry_equiv_pos_as_xyz
  1  'x, y, z'
loop_
 _atom_site_type_symbol
 _atom_site_label
 _atom_site_symmetry_multiplicity
 _atom_site_fract_x
 _atom_site_fract_y
 _atom_site_fract_z
 _atom_site_occupancy
  Eu  Eu0  1  0.500000  0.500000  0.000000  1
  Eu  Eu1  1  0.000000  0.000000  0.000000  1
  Eu  Eu2  1  0.536903  0.036903  0.834019  1
  Eu  Eu3  1  0.202884  0.702884  0.165981  1
  Eu  Eu4  1  0.036903  0.202884  0.500000  1
  Eu  Eu5  1  0.702884  0.536903  0.500000  1
  Eu  Eu6  1  0.463097  0.963097  0.165981  1
  Eu  Eu7  1  0.797116  0.297116  0.834019  1
  Eu  Eu8  1  0.963097  0.797116  0.500000  1
  Eu  Eu9  1  0.297116  0.463097  0.500000  1
  Tl  Tl10  1  0.250000  0.250000  0.000000  1
  Tl  Tl11  1  0.750000  0.750000  0.000000  1
  Ir  Ir12  1  0.129737  0.629737  0.759471  1
  Ir  Ir13  1  0.870263  0.370263  0.240529  1
  Ir  Ir14  1  0.629737  0.870263  0.500000  1
  Ir  Ir15  1  0.370263  0.129737  0.500000  1
