# generated using pymatgen
data_HoLu7(ScSb3)2
_symmetry_space_group_name_H-M   'P 1'
_cell_length_a   7.85958300
_cell_length_b   9.07600900
_cell_length_c   11.56235200
_cell_angle_alpha   90.00000000
_cell_angle_beta   90.00000000
_cell_angle_gamma   90.00000000
_symmetry_Int_Tables_number   1
_chemical_formula_structural   HoLu7(ScSb3)2
_chemical_formula_sum   'Ho2 Lu14 Sc4 Sb12'
_cell_volume   824.78472501
_cell_formula_units_Z   2
loop_
 _symmetry_equiv_pos_site_id
 _symmetry_equiv_pos_as_xyz
  1  'x, y, z'
loop_
 _atom_site_type_symbol
 _atom_site_label
 _atom_site_symmetry_multiplicity
 _atom_site_fract_x
 _atom_site_fract_y
 _atom_site_fract_z
 _atom_site_occupancy
  Ho  Ho0  1  0.183077  0.750000  0.721449  1
  Ho  Ho1  1  0.683077  0.750000  0.778551  1
  Lu  Lu2  1  0.196889  0.562851  0.438786  1
  Lu  Lu3  1  0.696889  0.937149  0.061214  1
  Lu  Lu4  1  0.803588  0.062992  0.560650  1
  Lu  Lu5  1  0.303588  0.437008  0.939350  1
  Lu  Lu6  1  0.803588  0.437008  0.560650  1
  Lu  Lu7  1  0.303588  0.062992  0.939350  1
  Lu  Lu8  1  0.196889  0.937149  0.438786  1
  Lu  Lu9  1  0.696889  0.562851  0.061214  1
  Lu  Lu10  1  0.815758  0.250000  0.279593  1
  Lu  Lu11  1  0.315758  0.250000  0.220407  1
  Lu  Lu12  1  0.855882  0.750000  0.283956  1
  Lu  Lu13  1  0.355882  0.750000  0.216044  1
  Lu  Lu14  1  0.144076  0.250000  0.715464  1
  Lu  Lu15  1  0.644076  0.250000  0.784536  1
  Sc  Sc16  1  0.027389  0.750000  0.989462  1
  Sc  Sc17  1  0.527389  0.750000  0.510538  1
  Sc  Sc18  1  0.972698  0.250000  0.012448  1
  Sc  Sc19  1  0.472698  0.250000  0.487552  1
  Sb  Sb20  1  0.932260  0.494835  0.831890  1
  Sb  Sb21  1  0.432260  0.005165  0.668110  1
  Sb  Sb22  1  0.067845  0.996660  0.169534  1
  Sb  Sb23  1  0.567845  0.503340  0.330466  1
  Sb  Sb24  1  0.067845  0.503340  0.169534  1
  Sb  Sb25  1  0.567845  0.996660  0.330466  1
  Sb  Sb26  1  0.932260  0.005165  0.831890  1
  Sb  Sb27  1  0.432260  0.494835  0.668110  1
  Sb  Sb28  1  0.906498  0.750000  0.539073  1
  Sb  Sb29  1  0.406498  0.750000  0.960927  1
  Sb  Sb30  1  0.093458  0.250000  0.459024  1
  Sb  Sb31  1  0.593458  0.250000  0.040976  1
