# generated using pymatgen
data_Tm3Ni8As6Ru
_symmetry_space_group_name_H-M   'P 1'
_cell_length_a   3.86499500
_cell_length_b   10.87442600
_cell_length_c   12.75624700
_cell_angle_alpha   90.00000000
_cell_angle_beta   90.00000000
_cell_angle_gamma   90.00000000
_symmetry_Int_Tables_number   1
_chemical_formula_structural   Tm3Ni8As6Ru
_chemical_formula_sum   'Tm6 Ni16 As12 Ru2'
_cell_volume   536.13998593
_cell_formula_units_Z   2
loop_
 _symmetry_equiv_pos_site_id
 _symmetry_equiv_pos_as_xyz
  1  'x, y, z'
loop_
 _atom_site_type_symbol
 _atom_site_label
 _atom_site_symmetry_multiplicity
 _atom_site_fract_x
 _atom_site_fract_y
 _atom_site_fract_z
 _atom_site_occupancy
  Tm  Tm0  1  0.000000  0.500000  0.524917  1
  Tm  Tm1  1  0.500000  0.000000  0.475083  1
  Tm  Tm2  1  0.500000  0.816509  0.208520  1
  Tm  Tm3  1  0.500000  0.183491  0.208520  1
  Tm  Tm4  1  0.000000  0.683491  0.791480  1
  Tm  Tm5  1  0.000000  0.316509  0.791480  1
  Ni  Ni6  1  0.500000  0.500000  0.698414  1
  Ni  Ni7  1  0.000000  0.000000  0.301586  1
  Ni  Ni8  1  0.000000  0.500000  0.979809  1
  Ni  Ni9  1  0.500000  0.000000  0.020191  1
  Ni  Ni10  1  0.500000  0.331905  0.991419  1
  Ni  Ni11  1  0.500000  0.668095  0.991419  1
  Ni  Ni12  1  0.000000  0.168095  0.008581  1
  Ni  Ni13  1  0.000000  0.831905  0.008581  1
  Ni  Ni14  1  0.500000  0.304144  0.428219  1
  Ni  Ni15  1  0.500000  0.695856  0.428219  1
  Ni  Ni16  1  0.000000  0.195856  0.571781  1
  Ni  Ni17  1  0.000000  0.804144  0.571781  1
  Ni  Ni18  1  0.500000  0.877860  0.707425  1
  Ni  Ni19  1  0.500000  0.122140  0.707425  1
  Ni  Ni20  1  0.000000  0.622140  0.292575  1
  Ni  Ni21  1  0.000000  0.377860  0.292575  1
  As  As22  1  0.500000  0.500000  0.874618  1
  As  As23  1  0.000000  0.000000  0.125382  1
  As  As24  1  0.500000  0.500000  0.350682  1
  As  As25  1  0.000000  0.000000  0.649318  1
  As  As26  1  0.500000  0.315162  0.614211  1
  As  As27  1  0.500000  0.684838  0.614211  1
  As  As28  1  0.000000  0.184838  0.385789  1
  As  As29  1  0.000000  0.815162  0.385789  1
  As  As30  1  0.500000  0.848229  0.889828  1
  As  As31  1  0.500000  0.151771  0.889828  1
  As  As32  1  0.000000  0.651771  0.110172  1
  As  As33  1  0.000000  0.348229  0.110172  1
  Ru  Ru34  1  0.500000  0.500000  0.157419  1
  Ru  Ru35  1  0.000000  0.000000  0.842581  1
