# generated using pymatgen
data_TiNb3V4GaP3
_symmetry_space_group_name_H-M   'P 1'
_cell_length_a   3.39121300
_cell_length_b   6.50033577
_cell_length_c   7.84365351
_cell_angle_alpha   89.81144337
_cell_angle_beta   90.00000000
_cell_angle_gamma   90.00000000
_symmetry_Int_Tables_number   1
_chemical_formula_structural   TiNb3V4GaP3
_chemical_formula_sum   'Ti1 Nb3 V4 Ga1 P3'
_cell_volume   172.90474333
_cell_formula_units_Z   1
loop_
 _symmetry_equiv_pos_site_id
 _symmetry_equiv_pos_as_xyz
  1  'x, y, z'
loop_
 _atom_site_type_symbol
 _atom_site_label
 _atom_site_symmetry_multiplicity
 _atom_site_fract_x
 _atom_site_fract_y
 _atom_site_fract_z
 _atom_site_occupancy
  Ti  Ti0  1  0.250000  0.038557  0.330158  1
  Nb  Nb1  1  0.250000  0.541246  0.173384  1
  Nb  Nb2  1  0.750000  0.441826  0.829471  1
  Nb  Nb3  1  0.750000  0.967037  0.658328  1
  V  V4  1  0.250000  0.626623  0.551270  1
  V  V5  1  0.750000  0.367750  0.439542  1
  V  V6  1  0.750000  0.877201  0.069043  1
  V  V7  1  0.250000  0.139752  0.945192  1
  Ga  Ga8  1  0.250000  0.753592  0.860614  1
  P  P9  1  0.750000  0.243860  0.145294  1
  P  P10  1  0.750000  0.748075  0.361921  1
  P  P11  1  0.250000  0.254480  0.635784  1
