# generated using pymatgen
data_Tb2Dy3Mg2P12Ir17
_symmetry_space_group_name_H-M   'P 1'
_cell_length_a   12.66894900
_cell_length_b   12.82861940
_cell_length_c   3.98128900
_cell_angle_alpha   90.00000000
_cell_angle_beta   90.00000000
_cell_angle_gamma   119.58912531
_symmetry_Int_Tables_number   1
_chemical_formula_structural   Tb2Dy3Mg2P12Ir17
_chemical_formula_sum   'Tb2 Dy3 Mg2 P12 Ir17'
_cell_volume   562.67559898
_cell_formula_units_Z   1
loop_
 _symmetry_equiv_pos_site_id
 _symmetry_equiv_pos_as_xyz
  1  'x, y, z'
loop_
 _atom_site_type_symbol
 _atom_site_label
 _atom_site_symmetry_multiplicity
 _atom_site_fract_x
 _atom_site_fract_y
 _atom_site_fract_z
 _atom_site_occupancy
  Tb  Tb0  1  0.002153  0.813237  0.000000  1
  Tb  Tb1  1  0.188916  0.186763  0.000000  1
  Dy  Dy2  1  0.332919  0.664155  0.500000  1
  Dy  Dy3  1  0.668763  0.335845  0.500000  1
  Dy  Dy4  1  0.810249  0.000000  0.000000  1
  Mg  Mg5  1  0.997830  0.444300  0.500000  1
  Mg  Mg6  1  0.553530  0.555700  0.500000  1
  P  P7  1  0.002930  0.643192  0.500000  1
  P  P8  1  0.359737  0.356808  0.500000  1
  P  P9  1  0.642539  0.000000  0.500000  1
  P  P10  1  0.513978  0.685893  0.000000  1
  P  P11  1  0.308337  0.824308  0.000000  1
  P  P12  1  0.168736  0.481381  0.000000  1
  P  P13  1  0.484030  0.175692  0.000000  1
  P  P14  1  0.687355  0.518619  0.000000  1
  P  P15  1  0.828085  0.314107  0.000000  1
  P  P16  1  0.998516  0.175921  0.500000  1
  P  P17  1  0.822595  0.824079  0.500000  1
  P  P18  1  0.178967  0.000000  0.500000  1
  Ir  Ir19  1  0.504943  0.866073  0.000000  1
  Ir  Ir20  1  0.128475  0.639999  0.000000  1
  Ir  Ir21  1  0.357651  0.492377  0.000000  1
  Ir  Ir22  1  0.488478  0.360001  0.000000  1
  Ir  Ir23  1  0.865276  0.507623  0.000000  1
  Ir  Ir24  1  0.638871  0.133927  0.000000  1
  Ir  Ir25  1  0.461780  0.000000  0.500000  1
  Ir  Ir26  1  0.996379  0.279362  0.000000  1
  Ir  Ir27  1  0.717017  0.720638  0.000000  1
  Ir  Ir28  1  0.287580  0.000000  0.000000  1
  Ir  Ir29  1  0.623121  0.807393  0.500000  1
  Ir  Ir30  1  0.201396  0.824978  0.500000  1
  Ir  Ir31  1  0.177143  0.367912  0.500000  1
  Ir  Ir32  1  0.376418  0.175022  0.500000  1
  Ir  Ir33  1  0.809231  0.632088  0.500000  1
  Ir  Ir34  1  0.815728  0.192607  0.500000  1
  Ir  Ir35  1  0.000343  0.000000  0.500000  1
