# generated using pymatgen
data_DyYB6Ru
_symmetry_space_group_name_H-M   'P 1'
_cell_length_a   3.66472200
_cell_length_b   9.15540900
_cell_length_c   11.52577800
_cell_angle_alpha   90.00000000
_cell_angle_beta   90.00000000
_cell_angle_gamma   90.00000000
_symmetry_Int_Tables_number   1
_chemical_formula_structural   DyYB6Ru
_chemical_formula_sum   'Dy4 Y4 B24 Ru4'
_cell_volume   386.71323518
_cell_formula_units_Z   4
loop_
 _symmetry_equiv_pos_site_id
 _symmetry_equiv_pos_as_xyz
  1  'x, y, z'
loop_
 _atom_site_type_symbol
 _atom_site_label
 _atom_site_symmetry_multiplicity
 _atom_site_fract_x
 _atom_site_fract_y
 _atom_site_fract_z
 _atom_site_occupancy
  Dy  Dy0  1  0.000000  0.944250  0.372137  1
  Dy  Dy1  1  0.000000  0.055750  0.627863  1
  Dy  Dy2  1  0.000000  0.444250  0.127863  1
  Dy  Dy3  1  0.000000  0.555750  0.872137  1
  Y  Y4  1  0.000000  0.322932  0.414055  1
  Y  Y5  1  0.000000  0.677068  0.585945  1
  Y  Y6  1  0.000000  0.822932  0.085945  1
  Y  Y7  1  0.000000  0.177068  0.914055  1
  B  B8  1  0.500000  0.554606  0.432937  1
  B  B9  1  0.500000  0.445394  0.567063  1
  B  B10  1  0.500000  0.054606  0.067063  1
  B  B11  1  0.500000  0.945394  0.932937  1
  B  B12  1  0.500000  0.748206  0.419735  1
  B  B13  1  0.500000  0.251794  0.580265  1
  B  B14  1  0.500000  0.248206  0.080265  1
  B  B15  1  0.500000  0.751794  0.919735  1
  B  B16  1  0.500000  0.791548  0.266484  1
  B  B17  1  0.500000  0.208452  0.733516  1
  B  B18  1  0.500000  0.291548  0.233516  1
  B  B19  1  0.500000  0.708452  0.766484  1
  B  B20  1  0.500000  0.632608  0.185452  1
  B  B21  1  0.500000  0.367392  0.814548  1
  B  B22  1  0.500000  0.132608  0.314548  1
  B  B23  1  0.500000  0.867392  0.685452  1
  B  B24  1  0.500000  0.984647  0.212788  1
  B  B25  1  0.500000  0.015353  0.787212  1
  B  B26  1  0.500000  0.484647  0.287212  1
  B  B27  1  0.500000  0.515353  0.712788  1
  B  B28  1  0.500000  0.609336  0.030159  1
  B  B29  1  0.500000  0.390664  0.969841  1
  B  B30  1  0.500000  0.109336  0.469841  1
  B  B31  1  0.500000  0.890664  0.530159  1
  Ru  Ru32  1  0.000000  0.638469  0.321213  1
  Ru  Ru33  1  0.000000  0.361531  0.678787  1
  Ru  Ru34  1  0.000000  0.138469  0.178787  1
  Ru  Ru35  1  0.000000  0.861531  0.821213  1
