# generated using pymatgen
data_La12Tc3Hg2
_symmetry_space_group_name_H-M   'P 1'
_cell_length_a   8.87572614
_cell_length_b   8.87572769
_cell_length_c   8.87572670
_cell_angle_alpha   109.44915308
_cell_angle_beta   109.44916890
_cell_angle_gamma   109.51534626
_symmetry_Int_Tables_number   1
_chemical_formula_structural   La12Tc3Hg2
_chemical_formula_sum   'La12 Tc3 Hg2'
_cell_volume   538.25703470
_cell_formula_units_Z   1
loop_
 _symmetry_equiv_pos_site_id
 _symmetry_equiv_pos_as_xyz
  1  'x, y, z'
loop_
 _atom_site_type_symbol
 _atom_site_label
 _atom_site_symmetry_multiplicity
 _atom_site_fract_x
 _atom_site_fract_y
 _atom_site_fract_z
 _atom_site_occupancy
  La  La0  1  0.321568  0.321568  0.643138  1
  La  La1  1  0.678432  0.678432  0.356862  1
  La  La2  1  0.678432  0.321568  0.000000  1
  La  La3  1  0.321568  0.678432  0.000000  1
  La  La4  1  0.183806  0.426382  0.242575  1
  La  La5  1  0.816194  0.573618  0.757425  1
  La  La6  1  0.183806  0.941230  0.757425  1
  La  La7  1  0.941230  0.183806  0.757425  1
  La  La8  1  0.816194  0.058770  0.242575  1
  La  La9  1  0.058770  0.816194  0.242575  1
  La  La10  1  0.426382  0.183806  0.242575  1
  La  La11  1  0.573618  0.816194  0.757425  1
  Tc  Tc12  1  0.335145  0.335145  0.000000  1
  Tc  Tc13  1  0.664855  0.664855  0.000000  1
  Tc  Tc14  1  0.000000  0.000000  0.000000  1
  Hg  Hg15  1  0.000000  0.500000  0.500000  1
  Hg  Hg16  1  0.500000  0.000000  0.500000  1
