# generated using pymatgen
data_Dy3Co2Re(NiP)6
_symmetry_space_group_name_H-M   'P 1'
_cell_length_a   3.77706100
_cell_length_b   10.53262200
_cell_length_c   12.34011000
_cell_angle_alpha   90.00000000
_cell_angle_beta   90.00000000
_cell_angle_gamma   90.00000000
_symmetry_Int_Tables_number   1
_chemical_formula_structural   Dy3Co2Re(NiP)6
_chemical_formula_sum   'Dy6 Co4 Re2 Ni12 P12'
_cell_volume   490.91864643
_cell_formula_units_Z   2
loop_
 _symmetry_equiv_pos_site_id
 _symmetry_equiv_pos_as_xyz
  1  'x, y, z'
loop_
 _atom_site_type_symbol
 _atom_site_label
 _atom_site_symmetry_multiplicity
 _atom_site_fract_x
 _atom_site_fract_y
 _atom_site_fract_z
 _atom_site_occupancy
  Dy  Dy0  1  0.000000  0.500000  0.521480  1
  Dy  Dy1  1  0.500000  0.000000  0.476413  1
  Dy  Dy2  1  0.500000  0.815548  0.207577  1
  Dy  Dy3  1  0.500000  0.184452  0.207577  1
  Dy  Dy4  1  0.000000  0.683375  0.792787  1
  Dy  Dy5  1  0.000000  0.316625  0.792787  1
  Co  Co6  1  0.000000  0.500000  0.985324  1
  Co  Co7  1  0.500000  0.000000  0.015605  1
  Co  Co8  1  0.000000  0.618964  0.288877  1
  Co  Co9  1  0.000000  0.381036  0.288877  1
  Re  Re10  1  0.500000  0.500000  0.153979  1
  Re  Re11  1  0.000000  0.000000  0.847742  1
  Ni  Ni12  1  0.500000  0.500000  0.702046  1
  Ni  Ni13  1  0.000000  0.000000  0.299268  1
  Ni  Ni14  1  0.500000  0.331420  0.987998  1
  Ni  Ni15  1  0.500000  0.668580  0.987998  1
  Ni  Ni16  1  0.000000  0.169202  0.013609  1
  Ni  Ni17  1  0.000000  0.830798  0.013609  1
  Ni  Ni18  1  0.500000  0.303382  0.427734  1
  Ni  Ni19  1  0.500000  0.696618  0.427734  1
  Ni  Ni20  1  0.000000  0.198223  0.569770  1
  Ni  Ni21  1  0.000000  0.801777  0.569770  1
  Ni  Ni22  1  0.500000  0.880200  0.710675  1
  Ni  Ni23  1  0.500000  0.119800  0.710675  1
  P  P24  1  0.500000  0.500000  0.879518  1
  P  P25  1  0.000000  0.000000  0.121757  1
  P  P26  1  0.500000  0.500000  0.344792  1
  P  P27  1  0.000000  0.000000  0.652689  1
  P  P28  1  0.500000  0.313858  0.614793  1
  P  P29  1  0.500000  0.686142  0.614793  1
  P  P30  1  0.000000  0.189312  0.383887  1
  P  P31  1  0.000000  0.810688  0.383887  1
  P  P32  1  0.500000  0.849563  0.892659  1
  P  P33  1  0.500000  0.150437  0.892659  1
  P  P34  1  0.000000  0.650335  0.109327  1
  P  P35  1  0.000000  0.349665  0.109327  1
