# generated using pymatgen
data_PrGaPtO5
_symmetry_space_group_name_H-M   'P 1'
_cell_length_a   6.07295200
_cell_length_b   7.55993500
_cell_length_c   8.89840200
_cell_angle_alpha   90.00000000
_cell_angle_beta   90.00000000
_cell_angle_gamma   90.00000000
_symmetry_Int_Tables_number   1
_chemical_formula_structural   PrGaPtO5
_chemical_formula_sum   'Pr4 Ga4 Pt4 O20'
_cell_volume   408.53562319
_cell_formula_units_Z   4
loop_
 _symmetry_equiv_pos_site_id
 _symmetry_equiv_pos_as_xyz
  1  'x, y, z'
loop_
 _atom_site_type_symbol
 _atom_site_label
 _atom_site_symmetry_multiplicity
 _atom_site_fract_x
 _atom_site_fract_y
 _atom_site_fract_z
 _atom_site_occupancy
  Pr  Pr0  1  0.000000  0.366757  0.668440  1
  Pr  Pr1  1  0.000000  0.633243  0.331560  1
  Pr  Pr2  1  0.000000  0.866757  0.831560  1
  Pr  Pr3  1  0.000000  0.133243  0.168440  1
  Ga  Ga4  1  0.500000  0.101319  0.856771  1
  Ga  Ga5  1  0.500000  0.898681  0.143229  1
  Ga  Ga6  1  0.500000  0.601319  0.643229  1
  Ga  Ga7  1  0.500000  0.398681  0.356771  1
  Pt  Pt8  1  0.252565  0.500000  0.000000  1
  Pt  Pt9  1  0.747435  0.000000  0.500000  1
  Pt  Pt10  1  0.747435  0.500000  0.000000  1
  Pt  Pt11  1  0.252565  0.000000  0.500000  1
  O  O12  1  0.247459  0.898557  0.284909  1
  O  O13  1  0.247459  0.101443  0.715091  1
  O  O14  1  0.752541  0.398557  0.215091  1
  O  O15  1  0.752541  0.601443  0.784909  1
  O  O16  1  0.752541  0.101443  0.715091  1
  O  O17  1  0.752541  0.898557  0.284909  1
  O  O18  1  0.247459  0.601443  0.784909  1
  O  O19  1  0.247459  0.398557  0.215091  1
  O  O20  1  0.500000  0.341772  0.931814  1
  O  O21  1  0.500000  0.658228  0.068186  1
  O  O22  1  0.500000  0.841772  0.568186  1
  O  O23  1  0.500000  0.158228  0.431814  1
  O  O24  1  0.282129  0.000000  0.000000  1
  O  O25  1  0.717871  0.500000  0.500000  1
  O  O26  1  0.717871  0.000000  0.000000  1
  O  O27  1  0.282129  0.500000  0.500000  1
  O  O28  1  0.000000  0.165716  0.442039  1
  O  O29  1  0.000000  0.834284  0.557961  1
  O  O30  1  0.000000  0.665716  0.057961  1
  O  O31  1  0.000000  0.334284  0.942039  1
