# generated using pymatgen
data_Dy4Er2B14OsW
_symmetry_space_group_name_H-M   'P 1'
_cell_length_a   8.10028982
_cell_length_b   8.10029033
_cell_length_c   9.38029784
_cell_angle_alpha   89.93003670
_cell_angle_beta   90.06996232
_cell_angle_gamma   155.08743965
_symmetry_Int_Tables_number   1
_chemical_formula_structural   Dy4Er2B14OsW
_chemical_formula_sum   'Dy4 Er2 B14 Os1 W1'
_cell_volume   259.26358039
_cell_formula_units_Z   1
loop_
 _symmetry_equiv_pos_site_id
 _symmetry_equiv_pos_as_xyz
  1  'x, y, z'
loop_
 _atom_site_type_symbol
 _atom_site_label
 _atom_site_symmetry_multiplicity
 _atom_site_fract_x
 _atom_site_fract_y
 _atom_site_fract_z
 _atom_site_occupancy
  Dy  Dy0  1  0.893916  0.106084  0.437097  1
  Dy  Dy1  1  0.107230  0.892770  0.558435  1
  Dy  Dy2  1  0.893660  0.106340  0.062804  1
  Dy  Dy3  1  0.754378  0.245622  0.750158  1
  Er  Er4  1  0.106855  0.893145  0.942524  1
  Er  Er5  1  0.242586  0.757414  0.249866  1
  B  B6  1  0.726765  0.273235  0.463607  1
  B  B7  1  0.271994  0.728006  0.530960  1
  B  B8  1  0.726162  0.273838  0.035861  1
  B  B9  1  0.271227  0.728773  0.968594  1
  B  B10  1  0.631957  0.368043  0.150765  1
  B  B11  1  0.365099  0.634901  0.852716  1
  B  B12  1  0.632032  0.367968  0.348226  1
  B  B13  1  0.365231  0.634769  0.647446  1
  B  B14  1  0.521348  0.478652  0.096039  1
  B  B15  1  0.480919  0.519081  0.909541  1
  B  B16  1  0.521348  0.478652  0.403262  1
  B  B17  1  0.480650  0.519350  0.591485  1
  B  B18  1  0.458293  0.541707  0.249661  1
  B  B19  1  0.546237  0.453763  0.751001  1
  Os  Os20  1  0.054404  0.945596  0.249507  1
  W  W21  1  0.947713  0.052287  0.750445  1
