# generated using pymatgen
data_Sm4Al4PdRh3
_symmetry_space_group_name_H-M   'P 1'
_cell_length_a   4.32746800
_cell_length_b   7.03200700
_cell_length_c   8.00710600
_cell_angle_alpha   89.99781609
_cell_angle_beta   90.00000000
_cell_angle_gamma   90.00000000
_symmetry_Int_Tables_number   1
_chemical_formula_structural   Sm4Al4PdRh3
_chemical_formula_sum   'Sm4 Al4 Pd1 Rh3'
_cell_volume   243.66252323
_cell_formula_units_Z   1
loop_
 _symmetry_equiv_pos_site_id
 _symmetry_equiv_pos_as_xyz
  1  'x, y, z'
loop_
 _atom_site_type_symbol
 _atom_site_label
 _atom_site_symmetry_multiplicity
 _atom_site_fract_x
 _atom_site_fract_y
 _atom_site_fract_z
 _atom_site_occupancy
  Sm  Sm0  1  0.250000  0.032092  0.322695  1
  Sm  Sm1  1  0.250000  0.540378  0.180844  1
  Sm  Sm2  1  0.750000  0.965019  0.680508  1
  Sm  Sm3  1  0.750000  0.468127  0.816020  1
  Al  Al4  1  0.250000  0.135827  0.934347  1
  Al  Al5  1  0.250000  0.636769  0.562761  1
  Al  Al6  1  0.750000  0.858489  0.062482  1
  Al  Al7  1  0.750000  0.365224  0.439387  1
  Pd  Pd8  1  0.750000  0.226617  0.118110  1
  Rh  Rh9  1  0.250000  0.269407  0.616002  1
  Rh  Rh10  1  0.250000  0.769944  0.884134  1
  Rh  Rh11  1  0.750000  0.732107  0.382711  1
