# generated using pymatgen
data_ErTm2In3Pt2Rh
_symmetry_space_group_name_H-M   'P 1'
_cell_length_a   7.65447105
_cell_length_b   7.65288404
_cell_length_c   3.78997300
_cell_angle_alpha   90.00000000
_cell_angle_beta   90.00000000
_cell_angle_gamma   119.99314333
_symmetry_Int_Tables_number   1
_chemical_formula_structural   ErTm2In3Pt2Rh
_chemical_formula_sum   'Er1 Tm2 In3 Pt2 Rh1'
_cell_volume   192.28130800
_cell_formula_units_Z   1
loop_
 _symmetry_equiv_pos_site_id
 _symmetry_equiv_pos_as_xyz
  1  'x, y, z'
loop_
 _atom_site_type_symbol
 _atom_site_label
 _atom_site_symmetry_multiplicity
 _atom_site_fract_x
 _atom_site_fract_y
 _atom_site_fract_z
 _atom_site_occupancy
  Er  Er0  1  0.000000  0.403702  0.500000  1
  Tm  Tm1  1  0.596343  0.596338  0.500000  1
  Tm  Tm2  1  0.403657  0.999995  0.500000  1
  In  In3  1  0.258602  0.258515  0.000000  1
  In  In4  1  0.000000  0.741546  0.000000  1
  In  In5  1  0.741398  0.999912  0.000000  1
  Pt  Pt6  1  0.333525  0.666815  0.000000  1
  Pt  Pt7  1  0.666475  0.333289  0.000000  1
  Rh  Rh8  1  0.000000  0.999889  0.500000  1
