# generated using pymatgen
data_CaLaTaMnO6
_symmetry_space_group_name_H-M   'P 1'
_cell_length_a   5.61854945
_cell_length_b   8.06119747
_cell_length_c   11.61610701
_cell_angle_alpha   89.99909132
_cell_angle_beta   89.99734468
_cell_angle_gamma   89.89523717
_symmetry_Int_Tables_number   1
_chemical_formula_structural   CaLaTaMnO6
_chemical_formula_sum   'Ca4 La4 Ta4 Mn4 O24'
_cell_volume   526.11858671
_cell_formula_units_Z   4
loop_
 _symmetry_equiv_pos_site_id
 _symmetry_equiv_pos_as_xyz
  1  'x, y, z'
loop_
 _atom_site_type_symbol
 _atom_site_label
 _atom_site_symmetry_multiplicity
 _atom_site_fract_x
 _atom_site_fract_y
 _atom_site_fract_z
 _atom_site_occupancy
  Ca  Ca0  1  0.513398  0.251225  0.276900  1
  Ca  Ca1  1  0.513395  0.251413  0.776931  1
  Ca  Ca2  1  0.013390  0.751219  0.473084  1
  Ca  Ca3  1  0.013476  0.751372  0.973052  1
  La  La4  1  0.987987  0.247567  0.026137  1
  La  La5  1  0.987694  0.247542  0.526164  1
  La  La6  1  0.487749  0.747555  0.223831  1
  La  La7  1  0.488044  0.747522  0.723850  1
  Ta  Ta8  1  0.999622  0.498459  0.251740  1
  Ta  Ta9  1  0.999863  0.498470  0.751827  1
  Ta  Ta10  1  0.499543  0.998453  0.498238  1
  Ta  Ta11  1  0.499817  0.998430  0.998178  1
  Mn  Mn12  1  0.998780  0.000328  0.750822  1
  Mn  Mn13  1  0.498824  0.500342  0.999214  1
  Mn  Mn14  1  0.998665  0.000298  0.250836  1
  Mn  Mn15  1  0.498713  0.500308  0.499151  1
  O  O16  1  0.605060  0.762447  0.017676  1
  O  O17  1  0.604995  0.762473  0.517714  1
  O  O18  1  0.105028  0.262479  0.232265  1
  O  O19  1  0.104960  0.262412  0.732328  1
  O  O20  1  0.209605  0.950128  0.092422  1
  O  O21  1  0.209506  0.950019  0.592436  1
  O  O22  1  0.709476  0.450044  0.157617  1
  O  O23  1  0.709487  0.450173  0.657651  1
  O  O24  1  0.182978  0.557795  0.107909  1
  O  O25  1  0.182987  0.557598  0.607848  1
  O  O26  1  0.683096  0.057696  0.142091  1
  O  O27  1  0.682994  0.057834  0.642049  1
  O  O28  1  0.899391  0.737747  0.270532  1
  O  O29  1  0.899763  0.737776  0.770485  1
  O  O30  1  0.399356  0.237748  0.479504  1
  O  O31  1  0.399706  0.237784  0.979518  1
  O  O32  1  0.288247  0.551160  0.345860  1
  O  O33  1  0.288629  0.550962  0.845756  1
  O  O34  1  0.788256  0.051141  0.404136  1
  O  O35  1  0.788598  0.051021  0.904206  1
  O  O36  1  0.314582  0.943209  0.355505  1
  O  O37  1  0.314871  0.943233  0.855492  1
  O  O38  1  0.814563  0.443224  0.394501  1
  O  O39  1  0.814897  0.443384  0.894543  1
