# generated using pymatgen
data_Nd4Al24Pt8Au
_symmetry_space_group_name_H-M   'P 1'
_cell_length_a   7.58360395
_cell_length_b   7.61365842
_cell_length_c   13.33720767
_cell_angle_alpha   84.59728469
_cell_angle_beta   79.20419003
_cell_angle_gamma   59.87976079
_symmetry_Int_Tables_number   1
_chemical_formula_structural   Nd4Al24Pt8Au
_chemical_formula_sum   'Nd4 Al24 Pt8 Au1'
_cell_volume   654.30714603
_cell_formula_units_Z   1
loop_
 _symmetry_equiv_pos_site_id
 _symmetry_equiv_pos_as_xyz
  1  'x, y, z'
loop_
 _atom_site_type_symbol
 _atom_site_label
 _atom_site_symmetry_multiplicity
 _atom_site_fract_x
 _atom_site_fract_y
 _atom_site_fract_z
 _atom_site_occupancy
  Nd  Nd0  1  0.392454  0.169725  0.809272  1
  Nd  Nd1  1  0.606125  0.831635  0.191292  1
  Nd  Nd2  1  0.734976  0.498288  0.809497  1
  Nd  Nd3  1  0.266373  0.501736  0.190489  1
  Al  Al4  1  0.685403  0.834393  0.947225  1
  Al  Al5  1  0.313101  0.166043  0.054211  1
  Al  Al6  1  0.146387  0.839251  0.558308  1
  Al  Al7  1  0.854565  0.166700  0.438069  1
  Al  Al8  1  0.488514  0.159573  0.556526  1
  Al  Al9  1  0.519722  0.833596  0.440804  1
  Al  Al10  1  0.216119  0.165328  0.331924  1
  Al  Al11  1  0.779299  0.839334  0.669998  1
  Al  Al12  1  0.440789  0.507465  0.669973  1
  Al  Al13  1  0.562747  0.493126  0.331712  1
  Al  Al14  1  0.109360  0.152994  0.669264  1
  Al  Al15  1  0.890024  0.840397  0.332914  1
  Al  Al16  1  0.350430  0.501865  0.947276  1
  Al  Al17  1  0.650171  0.497676  0.054055  1
  Al  Al18  1  0.014714  0.165357  0.956845  1
  Al  Al19  1  0.984651  0.834777  0.044737  1
  Al  Al20  1  0.188178  0.500089  0.436875  1
  Al  Al21  1  0.806766  0.499313  0.556895  1
  Al  Al22  1  0.735124  0.163807  0.184222  1
  Al  Al23  1  0.265719  0.835692  0.815998  1
  Al  Al24  1  0.060407  0.635544  0.818303  1
  Al  Al25  1  0.938198  0.366970  0.185509  1
  Al  Al26  1  0.857011  0.039839  0.815583  1
  Al  Al27  1  0.141892  0.960613  0.184509  1
  Pt  Pt28  1  0.878953  0.505762  0.363463  1
  Pt  Pt29  1  0.658124  0.170623  0.999379  1
  Pt  Pt30  1  0.342156  0.829285  0.999702  1
  Pt  Pt31  1  0.539555  0.166671  0.363290  1
  Pt  Pt32  1  0.460774  0.833200  0.636054  1
  Pt  Pt33  1  0.781738  0.172835  0.634844  1
  Pt  Pt34  1  0.218529  0.827403  0.364308  1
  Pt  Pt35  1  0.999888  0.499995  0.000398  1
  Au  Au36  1  0.121068  0.493096  0.636284  1
