# generated using pymatgen
data_U3WF24
_symmetry_space_group_name_H-M   'P 1'
_cell_length_a   5.46672902
_cell_length_b   9.39961900
_cell_length_c   10.34954204
_cell_angle_alpha   90.00000000
_cell_angle_beta   90.01004153
_cell_angle_gamma   90.00000000
_symmetry_Int_Tables_number   1
_chemical_formula_structural   U3WF24
_chemical_formula_sum   'U3 W1 F24'
_cell_volume   531.81296869
_cell_formula_units_Z   1
loop_
 _symmetry_equiv_pos_site_id
 _symmetry_equiv_pos_as_xyz
  1  'x, y, z'
loop_
 _atom_site_type_symbol
 _atom_site_label
 _atom_site_symmetry_multiplicity
 _atom_site_fract_x
 _atom_site_fract_y
 _atom_site_fract_z
 _atom_site_occupancy
  U  U0  1  0.585584  0.750000  0.371990  1
  U  U1  1  0.085556  0.250000  0.127912  1
  U  U2  1  0.414661  0.250000  0.628067  1
  W  W3  1  0.914484  0.750000  0.871958  1
  F  F4  1  0.568942  0.402196  0.739506  1
  F  F5  1  0.058097  0.608578  0.768416  1
  F  F6  1  0.430971  0.902179  0.260423  1
  F  F7  1  0.930949  0.097800  0.239475  1
  F  F8  1  0.191662  0.750000  0.979549  1
  F  F9  1  0.713027  0.250000  0.512190  1
  F  F10  1  0.786951  0.250000  0.012174  1
  F  F11  1  0.287098  0.750000  0.487854  1
  F  F12  1  0.636764  0.750000  0.764443  1
  F  F13  1  0.115405  0.250000  0.743845  1
  F  F14  1  0.384648  0.250000  0.243856  1
  F  F15  1  0.884545  0.750000  0.256185  1
  F  F16  1  0.770082  0.891197  0.975704  1
  F  F17  1  0.259186  0.098018  0.516413  1
  F  F18  1  0.240814  0.401921  0.016387  1
  F  F19  1  0.740767  0.598066  0.483665  1
  F  F20  1  0.240814  0.098079  0.016387  1
  F  F21  1  0.740767  0.901934  0.483665  1
  F  F22  1  0.770082  0.608803  0.975704  1
  F  F23  1  0.259186  0.401982  0.516413  1
  F  F24  1  0.058097  0.891422  0.768416  1
  F  F25  1  0.568942  0.097804  0.739506  1
  F  F26  1  0.930949  0.402200  0.239475  1
  F  F27  1  0.430971  0.597821  0.260423  1
