# generated using pymatgen
data_Na3Tm(PO4)2
_symmetry_space_group_name_H-M   'P 1'
_cell_length_a   5.25907224
_cell_length_b   5.25907141
_cell_length_c   7.14604048
_cell_angle_alpha   89.84369546
_cell_angle_beta   89.84369475
_cell_angle_gamma   64.63622743
_symmetry_Int_Tables_number   1
_chemical_formula_structural   Na3Tm(PO4)2
_chemical_formula_sum   'Na3 Tm1 P2 O8'
_cell_volume   178.59145474
_cell_formula_units_Z   1
loop_
 _symmetry_equiv_pos_site_id
 _symmetry_equiv_pos_as_xyz
  1  'x, y, z'
loop_
 _atom_site_type_symbol
 _atom_site_label
 _atom_site_symmetry_multiplicity
 _atom_site_fract_x
 _atom_site_fract_y
 _atom_site_fract_z
 _atom_site_occupancy
  Na  Na0  1  0.686100  0.686100  0.285934  1
  Na  Na1  1  0.000000  0.000000  0.500000  1
  Na  Na2  1  0.313900  0.313900  0.714066  1
  Tm  Tm3  1  0.000000  0.000000  0.000000  1
  P  P4  1  0.653330  0.653330  0.773750  1
  P  P5  1  0.346670  0.346670  0.226250  1
  O  O6  1  0.249478  0.249478  0.402502  1
  O  O7  1  0.750522  0.750522  0.597498  1
  O  O8  1  0.226855  0.677446  0.222037  1
  O  O9  1  0.322554  0.773145  0.777963  1
  O  O10  1  0.773145  0.322554  0.777963  1
  O  O11  1  0.677446  0.226855  0.222037  1
  O  O12  1  0.245819  0.245819  0.049432  1
  O  O13  1  0.754181  0.754181  0.950568  1
