# generated using pymatgen
data_Dy8Sc12Ga15Ge
_symmetry_space_group_name_H-M   'P 1'
_cell_length_a   7.28845489
_cell_length_b   7.53472009
_cell_length_c   14.46846100
_cell_angle_alpha   90.00000000
_cell_angle_beta   90.00000000
_cell_angle_gamma   90.10204500
_symmetry_Int_Tables_number   1
_chemical_formula_structural   Dy8Sc12Ga15Ge
_chemical_formula_sum   'Dy8 Sc12 Ga15 Ge1'
_cell_volume   794.55550751
_cell_formula_units_Z   1
loop_
 _symmetry_equiv_pos_site_id
 _symmetry_equiv_pos_as_xyz
  1  'x, y, z'
loop_
 _atom_site_type_symbol
 _atom_site_label
 _atom_site_symmetry_multiplicity
 _atom_site_fract_x
 _atom_site_fract_y
 _atom_site_fract_z
 _atom_site_occupancy
  Dy  Dy0  1  0.011626  0.179100  0.095152  1
  Dy  Dy1  1  0.987467  0.818910  0.903915  1
  Dy  Dy2  1  0.487940  0.679578  0.904319  1
  Dy  Dy3  1  0.987467  0.818910  0.596085  1
  Dy  Dy4  1  0.511772  0.319960  0.094588  1
  Dy  Dy5  1  0.011626  0.179100  0.404848  1
  Dy  Dy6  1  0.511772  0.319960  0.405412  1
  Dy  Dy7  1  0.487940  0.679578  0.595681  1
  Sc  Sc8  1  0.160402  0.501641  0.750000  1
  Sc  Sc9  1  0.836292  0.497660  0.250000  1
  Sc  Sc10  1  0.337555  0.001700  0.250000  1
  Sc  Sc11  1  0.664315  0.996426  0.750000  1
  Sc  Sc12  1  0.332726  0.173109  0.623721  1
  Sc  Sc13  1  0.669942  0.827604  0.376007  1
  Sc  Sc14  1  0.169892  0.671948  0.375280  1
  Sc  Sc15  1  0.669942  0.827604  0.123993  1
  Sc  Sc16  1  0.828284  0.329605  0.623825  1
  Sc  Sc17  1  0.332726  0.173109  0.876279  1
  Sc  Sc18  1  0.828284  0.329605  0.876175  1
  Sc  Sc19  1  0.169892  0.671948  0.124720  1
  Ga  Ga20  1  0.032401  0.119631  0.750000  1
  Ga  Ga21  1  0.968224  0.882460  0.250000  1
  Ga  Ga22  1  0.468131  0.617253  0.250000  1
  Ga  Ga23  1  0.529567  0.387013  0.750000  1
  Ga  Ga24  1  0.285507  0.872416  0.750000  1
  Ga  Ga25  1  0.715210  0.128284  0.250000  1
  Ga  Ga26  1  0.215547  0.370460  0.250000  1
  Ga  Ga27  1  0.160997  0.464807  0.540943  1
  Ga  Ga28  1  0.838834  0.535212  0.459587  1
  Ga  Ga29  1  0.338291  0.963440  0.460142  1
  Ga  Ga30  1  0.838834  0.535212  0.040413  1
  Ga  Ga31  1  0.662830  0.035432  0.541283  1
  Ga  Ga32  1  0.160997  0.464807  0.959057  1
  Ga  Ga33  1  0.662830  0.035432  0.958717  1
  Ga  Ga34  1  0.338291  0.963440  0.039858  1
  Ge  Ge35  1  0.785649  0.627644  0.750000  1
