# generated using pymatgen
data_OsSe23
_symmetry_space_group_name_H-M   'P 1'
_cell_length_a   5.47981727
_cell_length_b   10.19867044
_cell_length_c   16.83485300
_cell_angle_alpha   90.13933130
_cell_angle_beta   87.65978431
_cell_angle_gamma   90.47881021
_symmetry_Int_Tables_number   1
_chemical_formula_structural   OsSe23
_chemical_formula_sum   'Os1 Se23'
_cell_volume   940.02734465
_cell_formula_units_Z   1
loop_
 _symmetry_equiv_pos_site_id
 _symmetry_equiv_pos_as_xyz
  1  'x, y, z'
loop_
 _atom_site_type_symbol
 _atom_site_label
 _atom_site_symmetry_multiplicity
 _atom_site_fract_x
 _atom_site_fract_y
 _atom_site_fract_z
 _atom_site_occupancy
  Os  Os0  1  0.515939  0.353552  0.423145  1
  Se  Se1  1  0.507275  0.773705  0.401084  1
  Se  Se2  1  0.019931  0.318307  0.116866  1
  Se  Se3  1  0.846618  0.228173  0.456186  1
  Se  Se4  1  0.249957  0.776790  0.512511  1
  Se  Se5  1  0.241381  0.253982  0.999748  1
  Se  Se6  1  0.743778  0.720587  0.002180  1
  Se  Se7  1  0.188256  0.266255  0.354649  1
  Se  Se8  1  0.745375  0.563759  0.408254  1
  Se  Se9  1  0.762804  0.138976  0.154713  1
  Se  Se10  1  0.219074  0.860008  0.136132  1
  Se  Se11  1  0.745780  0.647835  0.627180  1
  Se  Se12  1  0.184494  0.423422  0.648384  1
  Se  Se13  1  0.226641  0.855701  0.856483  1
  Se  Se14  1  0.774458  0.134787  0.854016  1
  Se  Se15  1  0.979382  0.671148  0.112241  1
  Se  Se16  1  0.500326  0.835885  0.620657  1
  Se  Se17  1  0.301431  0.268911  0.542914  1
  Se  Se18  1  0.982908  0.668954  0.886412  1
  Se  Se19  1  0.027513  0.314343  0.886525  1
  Se  Se20  1  0.683747  0.450615  0.289862  1
  Se  Se21  1  0.001135  0.993851  0.228236  1
  Se  Se22  1  0.539957  0.487424  0.710237  1
  Se  Se23  1  0.011837  0.993028  0.771387  1
