# generated using pymatgen
data_HoEr15CdIn3Ir4
_symmetry_space_group_name_H-M   'P 1'
_cell_length_a   9.57240954
_cell_length_b   9.57718800
_cell_length_c   9.58296800
_cell_angle_alpha   59.98002689
_cell_angle_beta   59.96349912
_cell_angle_gamma   59.97731383
_symmetry_Int_Tables_number   1
_chemical_formula_structural   HoEr15CdIn3Ir4
_chemical_formula_sum   'Ho1 Er15 Cd1 In3 Ir4'
_cell_volume   620.84668184
_cell_formula_units_Z   1
loop_
 _symmetry_equiv_pos_site_id
 _symmetry_equiv_pos_as_xyz
  1  'x, y, z'
loop_
 _atom_site_type_symbol
 _atom_site_label
 _atom_site_symmetry_multiplicity
 _atom_site_fract_x
 _atom_site_fract_y
 _atom_site_fract_z
 _atom_site_occupancy
  Ho  Ho0  1  0.190997  0.187818  0.810592  1
  Er  Er1  1  0.599535  0.599101  0.597201  1
  Er  Er2  1  0.599535  0.599101  0.204164  1
  Er  Er3  1  0.600483  0.201912  0.598803  1
  Er  Er4  1  0.201492  0.600402  0.599054  1
  Er  Er5  1  0.058196  0.440304  0.441866  1
  Er  Er6  1  0.439145  0.059608  0.060610  1
  Er  Er7  1  0.439145  0.059608  0.440637  1
  Er  Er8  1  0.058196  0.440304  0.059633  1
  Er  Er9  1  0.440085  0.439803  0.060056  1
  Er  Er10  1  0.058418  0.058748  0.441416  1
  Er  Er11  1  0.190271  0.811332  0.811418  1
  Er  Er12  1  0.811962  0.188550  0.188626  1
  Er  Er13  1  0.811962  0.188550  0.810861  1
  Er  Er14  1  0.190271  0.811332  0.186978  1
  Er  Er15  1  0.813081  0.811158  0.187880  1
  Cd  Cd16  1  0.502717  0.831920  0.832680  1
  In  In17  1  0.831290  0.833208  0.833441  1
  In  In18  1  0.831290  0.833208  0.502060  1
  In  In19  1  0.831006  0.502198  0.833398  1
  Ir  Ir20  1  0.391733  0.392045  0.391031  1
  Ir  Ir21  1  0.391733  0.392045  0.825192  1
  Ir  Ir22  1  0.391329  0.826150  0.391261  1
  Ir  Ir23  1  0.826126  0.391594  0.391141  1
