# generated using pymatgen
data_Ba2LiReMoH17
_symmetry_space_group_name_H-M   'P 1'
_cell_length_a   5.24994269
_cell_length_b   5.24994424
_cell_length_c   9.73392169
_cell_angle_alpha   90.18798050
_cell_angle_beta   89.81201985
_cell_angle_gamma   119.72673088
_symmetry_Int_Tables_number   1
_chemical_formula_structural   Ba2LiReMoH17
_chemical_formula_sum   'Ba2 Li1 Re1 Mo1 H17'
_cell_volume   232.97747019
_cell_formula_units_Z   1
loop_
 _symmetry_equiv_pos_site_id
 _symmetry_equiv_pos_as_xyz
  1  'x, y, z'
loop_
 _atom_site_type_symbol
 _atom_site_label
 _atom_site_symmetry_multiplicity
 _atom_site_fract_x
 _atom_site_fract_y
 _atom_site_fract_z
 _atom_site_occupancy
  Ba  Ba0  1  0.992822  0.007178  0.990255  1
  Ba  Ba1  1  0.990521  0.009479  0.492185  1
  Li  Li2  1  0.655930  0.344070  0.248115  1
  Re  Re3  1  0.648317  0.351683  0.746821  1
  Mo  Mo4  1  0.323648  0.676352  0.247208  1
  H  H5  1  0.520547  0.479453  0.877744  1
  H  H6  1  0.442446  0.557554  0.388554  1
  H  H7  1  0.520283  0.479717  0.619261  1
  H  H8  1  0.491455  0.976043  0.366346  1
  H  H9  1  0.917487  0.485741  0.624362  1
  H  H10  1  0.490952  0.970699  0.126897  1
  H  H11  1  0.923697  0.485998  0.866655  1
  H  H12  1  0.514259  0.082513  0.624362  1
  H  H13  1  0.023957  0.508545  0.366346  1
  H  H14  1  0.514002  0.076303  0.866655  1
  H  H15  1  0.029301  0.509048  0.126897  1
  H  H16  1  0.686820  0.750996  0.222962  1
  H  H17  1  0.818424  0.719532  0.744857  1
  H  H18  1  0.280468  0.181576  0.744857  1
  H  H19  1  0.249004  0.313180  0.222962  1
  H  H20  1  0.133911  0.866089  0.242046  1
  H  H21  1  0.831749  0.168251  0.743653  1
