# generated using pymatgen
data_Sr6Zn(RhO6)2
_symmetry_space_group_name_H-M   'P 1'
_cell_length_a   8.91522392
_cell_length_b   8.91522385
_cell_length_c   6.91359387
_cell_angle_alpha   67.26434525
_cell_angle_beta   67.26434397
_cell_angle_gamma   36.87281478
_symmetry_Int_Tables_number   1
_chemical_formula_structural   Sr6Zn(RhO6)2
_chemical_formula_sum   'Sr6 Zn1 Rh2 O12'
_cell_volume   301.12096036
_cell_formula_units_Z   1
loop_
 _symmetry_equiv_pos_site_id
 _symmetry_equiv_pos_as_xyz
  1  'x, y, z'
loop_
 _atom_site_type_symbol
 _atom_site_label
 _atom_site_symmetry_multiplicity
 _atom_site_fract_x
 _atom_site_fract_y
 _atom_site_fract_z
 _atom_site_occupancy
  Sr  Sr0  1  0.208304  0.208304  0.711137  1
  Sr  Sr1  1  0.886533  0.886533  0.711085  1
  Sr  Sr2  1  0.547908  0.547908  0.715413  1
  Sr  Sr3  1  0.791696  0.791696  0.288863  1
  Sr  Sr4  1  0.452092  0.452092  0.284587  1
  Sr  Sr5  1  0.113467  0.113467  0.288915  1
  Zn  Zn6  1  0.000000  0.000000  0.000000  1
  Rh  Rh7  1  0.667222  0.667222  0.000925  1
  Rh  Rh8  1  0.332778  0.332778  0.999075  1
  O  O9  1  0.279440  0.279440  0.322806  1
  O  O10  1  0.944963  0.944963  0.327942  1
  O  O11  1  0.612954  0.612954  0.322809  1
  O  O12  1  0.720560  0.720560  0.677194  1
  O  O13  1  0.387046  0.387046  0.677191  1
  O  O14  1  0.055037  0.055037  0.672058  1
  O  O15  1  0.000000  0.500000  0.000000  1
  O  O16  1  0.653999  0.172829  0.000593  1
  O  O17  1  0.346001  0.827171  0.999407  1
  O  O18  1  0.500000  0.000000  0.000000  1
  O  O19  1  0.172829  0.653999  0.000593  1
  O  O20  1  0.827171  0.346001  0.999407  1
