# generated using pymatgen
data_Sc3FeH12Ir
_symmetry_space_group_name_H-M   'P 1'
_cell_length_a   4.50888300
_cell_length_b   4.50888256
_cell_length_c   7.98854100
_cell_angle_alpha   90.00000000
_cell_angle_beta   90.00000000
_cell_angle_gamma   119.99999590
_symmetry_Int_Tables_number   1
_chemical_formula_structural   Sc3FeH12Ir
_chemical_formula_sum   'Sc3 Fe1 H12 Ir1'
_cell_volume   140.64879241
_cell_formula_units_Z   1
loop_
 _symmetry_equiv_pos_site_id
 _symmetry_equiv_pos_as_xyz
  1  'x, y, z'
loop_
 _atom_site_type_symbol
 _atom_site_label
 _atom_site_symmetry_multiplicity
 _atom_site_fract_x
 _atom_site_fract_y
 _atom_site_fract_z
 _atom_site_occupancy
  Sc  Sc0  1  0.000000  0.000000  0.931977  1
  Sc  Sc1  1  0.666667  0.333333  0.383884  1
  Sc  Sc2  1  0.333333  0.666667  0.651097  1
  Fe  Fe3  1  0.666667  0.333333  0.745344  1
  H  H4  1  0.156290  0.843710  0.386857  1
  H  H5  1  0.687419  0.843710  0.386857  1
  H  H6  1  0.156290  0.312581  0.386857  1
  H  H7  1  0.830666  0.169334  0.622961  1
  H  H8  1  0.338668  0.169334  0.622961  1
  H  H9  1  0.830666  0.661332  0.622961  1
  H  H10  1  0.497344  0.994689  0.864138  1
  H  H11  1  0.497344  0.502656  0.864138  1
  H  H12  1  0.005311  0.502656  0.864138  1
  H  H13  1  0.500591  0.001182  0.133850  1
  H  H14  1  0.500591  0.499409  0.133850  1
  H  H15  1  0.998818  0.499409  0.133850  1
  Ir  Ir16  1  0.333333  0.666667  0.264280  1
