# generated using pymatgen
data_Y6HoEr13Pb16
_symmetry_space_group_name_H-M   'P 1'
_cell_length_a   8.18066384
_cell_length_b   8.25210866
_cell_length_c   15.57821100
_cell_angle_alpha   90.01044947
_cell_angle_beta   90.03842988
_cell_angle_gamma   89.97955231
_symmetry_Int_Tables_number   1
_chemical_formula_structural   Y6HoEr13Pb16
_chemical_formula_sum   'Y6 Ho1 Er13 Pb16'
_cell_volume   1051.64929342
_cell_formula_units_Z   1
loop_
 _symmetry_equiv_pos_site_id
 _symmetry_equiv_pos_as_xyz
  1  'x, y, z'
loop_
 _atom_site_type_symbol
 _atom_site_label
 _atom_site_symmetry_multiplicity
 _atom_site_fract_x
 _atom_site_fract_y
 _atom_site_fract_z
 _atom_site_occupancy
  Y  Y0  1  0.036424  0.176828  0.599964  1
  Y  Y1  1  0.463712  0.676769  0.400063  1
  Y  Y2  1  0.963326  0.823460  0.100021  1
  Y  Y3  1  0.463556  0.676610  0.099872  1
  Y  Y4  1  0.963424  0.823276  0.400006  1
  Y  Y5  1  0.536221  0.323231  0.599810  1
  Ho  Ho6  1  0.036765  0.176373  0.900038  1
  Er  Er7  1  0.376339  0.841670  0.878719  1
  Er  Er8  1  0.876290  0.658390  0.621324  1
  Er  Er9  1  0.623665  0.158479  0.378881  1
  Er  Er10  1  0.123252  0.341351  0.121055  1
  Er  Er11  1  0.623295  0.158634  0.120946  1
  Er  Er12  1  0.123636  0.341469  0.378869  1
  Er  Er13  1  0.376337  0.841658  0.621359  1
  Er  Er14  1  0.876330  0.658326  0.878717  1
  Er  Er15  1  0.537022  0.323838  0.899861  1
  Er  Er16  1  0.208388  0.504577  0.750187  1
  Er  Er17  1  0.708234  0.995340  0.750173  1
  Er  Er18  1  0.791723  0.495199  0.249961  1
  Er  Er19  1  0.291749  0.004820  0.249964  1
  Pb  Pb20  1  0.281995  0.034150  0.042780  1
  Pb  Pb21  1  0.782335  0.465939  0.457061  1
  Pb  Pb22  1  0.717678  0.966061  0.543029  1
  Pb  Pb23  1  0.218636  0.532833  0.956707  1
  Pb  Pb24  1  0.717763  0.966977  0.956758  1
  Pb  Pb25  1  0.217718  0.534056  0.543029  1
  Pb  Pb26  1  0.282430  0.034015  0.457099  1
  Pb  Pb27  1  0.781847  0.465446  0.042471  1
  Pb  Pb28  1  0.571093  0.626748  0.750016  1
  Pb  Pb29  1  0.071068  0.873130  0.750037  1
  Pb  Pb30  1  0.428845  0.372898  0.250018  1
  Pb  Pb31  1  0.928818  0.127184  0.250044  1
  Pb  Pb32  1  0.348402  0.154228  0.750619  1
  Pb  Pb33  1  0.847978  0.346037  0.750482  1
  Pb  Pb34  1  0.651855  0.846531  0.250026  1
  Pb  Pb35  1  0.151851  0.653469  0.250032  1
