# generated using pymatgen
data_Pr3Nd(AuO3)4
_symmetry_space_group_name_H-M   'P 1'
_cell_length_a   3.97263233
_cell_length_b   5.68349400
_cell_length_c   13.08453800
_cell_angle_alpha   90.00000000
_cell_angle_beta   89.66889799
_cell_angle_gamma   90.00000000
_symmetry_Int_Tables_number   1
_chemical_formula_structural   Pr3Nd(AuO3)4
_chemical_formula_sum   'Pr3 Nd1 Au4 O12'
_cell_volume   295.42341895
_cell_formula_units_Z   1
loop_
 _symmetry_equiv_pos_site_id
 _symmetry_equiv_pos_as_xyz
  1  'x, y, z'
loop_
 _atom_site_type_symbol
 _atom_site_label
 _atom_site_symmetry_multiplicity
 _atom_site_fract_x
 _atom_site_fract_y
 _atom_site_fract_z
 _atom_site_occupancy
  Pr  Pr0  1  0.261219  0.750000  0.080584  1
  Pr  Pr1  1  0.259872  0.250000  0.419579  1
  Pr  Pr2  1  0.740479  0.250000  0.919806  1
  Nd  Nd3  1  0.736844  0.750000  0.579696  1
  Au  Au4  1  0.068887  0.750000  0.829750  1
  Au  Au5  1  0.067556  0.250000  0.670009  1
  Au  Au6  1  0.933514  0.250000  0.170334  1
  Au  Au7  1  0.932870  0.750000  0.329479  1
  O  O8  1  0.188551  0.499869  0.249727  1
  O  O9  1  0.814171  0.998692  0.749781  1
  O  O10  1  0.814171  0.501308  0.749781  1
  O  O11  1  0.188551  0.000131  0.249727  1
  O  O12  1  0.741708  0.495823  0.078086  1
  O  O13  1  0.740460  0.504977  0.422896  1
  O  O14  1  0.259140  0.995944  0.922698  1
  O  O15  1  0.255350  0.001538  0.577193  1
  O  O16  1  0.740460  0.995023  0.422896  1
  O  O17  1  0.741708  0.004177  0.078086  1
  O  O18  1  0.255350  0.498462  0.577193  1
  O  O19  1  0.259140  0.504056  0.922698  1
