# generated using pymatgen
data_PrNd2Sn3Pd2Rh
_symmetry_space_group_name_H-M   'P 1'
_cell_length_a   7.65234107
_cell_length_b   7.65408520
_cell_length_c   4.13158000
_cell_angle_alpha   90.00000000
_cell_angle_beta   90.00000000
_cell_angle_gamma   120.00754320
_symmetry_Int_Tables_number   1
_chemical_formula_structural   PrNd2Sn3Pd2Rh
_chemical_formula_sum   'Pr1 Nd2 Sn3 Pd2 Rh1'
_cell_volume   209.55662390
_cell_formula_units_Z   1
loop_
 _symmetry_equiv_pos_site_id
 _symmetry_equiv_pos_as_xyz
  1  'x, y, z'
loop_
 _atom_site_type_symbol
 _atom_site_label
 _atom_site_symmetry_multiplicity
 _atom_site_fract_x
 _atom_site_fract_y
 _atom_site_fract_z
 _atom_site_occupancy
  Pr  Pr0  1  0.000000  0.589574  0.000000  1
  Nd  Nd1  1  0.410129  0.410085  0.000000  1
  Nd  Nd2  1  0.589871  0.999956  0.000000  1
  Sn  Sn3  1  0.750730  0.751188  0.500000  1
  Sn  Sn4  1  0.000000  0.248501  0.500000  1
  Sn  Sn5  1  0.249270  0.000458  0.500000  1
  Pd  Pd6  1  0.666119  0.332964  0.500000  1
  Pd  Pd7  1  0.333881  0.666846  0.500000  1
  Rh  Rh8  1  0.000000  0.000428  0.000000  1
