# generated using pymatgen
data_LaNd3Rh4F28
_symmetry_space_group_name_H-M   'P 1'
_cell_length_a   5.66426509
_cell_length_b   9.19515977
_cell_length_c   12.27544009
_cell_angle_alpha   62.10607400
_cell_angle_beta   89.88672659
_cell_angle_gamma   89.97695250
_symmetry_Int_Tables_number   1
_chemical_formula_structural   LaNd3Rh4F28
_chemical_formula_sum   'La1 Nd3 Rh4 F28'
_cell_volume   565.06769322
_cell_formula_units_Z   1
loop_
 _symmetry_equiv_pos_site_id
 _symmetry_equiv_pos_as_xyz
  1  'x, y, z'
loop_
 _atom_site_type_symbol
 _atom_site_label
 _atom_site_symmetry_multiplicity
 _atom_site_fract_x
 _atom_site_fract_y
 _atom_site_fract_z
 _atom_site_occupancy
  La  La0  1  0.739410  0.810985  0.265397  1
  Nd  Nd1  1  0.760526  0.811356  0.765097  1
  Nd  Nd2  1  0.260692  0.189745  0.734785  1
  Nd  Nd3  1  0.239231  0.191890  0.234458  1
  Rh  Rh4  1  0.756304  0.276095  0.955608  1
  Rh  Rh5  1  0.256295  0.725627  0.545518  1
  Rh  Rh6  1  0.244742  0.725712  0.040832  1
  Rh  Rh7  1  0.743962  0.271469  0.458073  1
  F  F8  1  0.434571  0.707741  0.915289  1
  F  F9  1  0.936154  0.290405  0.582510  1
  F  F10  1  0.563132  0.291960  0.081549  1
  F  F11  1  0.069195  0.706713  0.419851  1
  F  F12  1  0.453431  0.281593  0.541793  1
  F  F13  1  0.952735  0.716948  0.958685  1
  F  F14  1  0.547618  0.715733  0.463433  1
  F  F15  1  0.045328  0.283437  0.040720  1
  F  F16  1  0.765171  0.513477  0.862136  1
  F  F17  1  0.263953  0.487768  0.640119  1
  F  F18  1  0.236136  0.487840  0.135980  1
  F  F19  1  0.735450  0.508505  0.363235  1
  F  F20  1  0.758815  0.039093  0.045704  1
  F  F21  1  0.259138  0.963156  0.451970  1
  F  F22  1  0.241072  0.963612  0.950089  1
  F  F23  1  0.740745  0.033998  0.549689  1
  F  F24  1  0.968616  0.730568  0.631931  1
  F  F25  1  0.472252  0.271327  0.867372  1
  F  F26  1  0.029966  0.268051  0.369598  1
  F  F27  1  0.530822  0.729677  0.127022  1
  F  F28  1  0.059524  0.741017  0.169192  1
  F  F29  1  0.554503  0.255370  0.330960  1
  F  F30  1  0.946581  0.260136  0.828565  1
  F  F31  1  0.442532  0.743091  0.672671  1
  F  F32  1  0.401291  0.969241  0.229575  1
  F  F33  1  0.905885  0.035683  0.270315  1
  F  F34  1  0.592205  0.032000  0.770206  1
  F  F35  1  0.092020  0.968982  0.730077  1
