# generated using pymatgen
data_PrY2Sn6Ru
_symmetry_space_group_name_H-M   'P 1'
_cell_length_a   8.59419209
_cell_length_b   8.59419287
_cell_length_c   13.37416456
_cell_angle_alpha   90.05176677
_cell_angle_beta   89.94823406
_cell_angle_gamma   148.43800385
_symmetry_Int_Tables_number   1
_chemical_formula_structural   PrY2Sn6Ru
_chemical_formula_sum   'Pr2 Y4 Sn12 Ru2'
_cell_volume   517.04416240
_cell_formula_units_Z   2
loop_
 _symmetry_equiv_pos_site_id
 _symmetry_equiv_pos_as_xyz
  1  'x, y, z'
loop_
 _atom_site_type_symbol
 _atom_site_label
 _atom_site_symmetry_multiplicity
 _atom_site_fract_x
 _atom_site_fract_y
 _atom_site_fract_z
 _atom_site_occupancy
  Pr  Pr0  1  0.401805  0.598195  0.403786  1
  Pr  Pr1  1  0.598195  0.401805  0.596214  1
  Y  Y2  1  0.601962  0.398038  0.247526  1
  Y  Y3  1  0.398038  0.601962  0.752474  1
  Y  Y4  1  0.396986  0.603014  0.096996  1
  Y  Y5  1  0.603014  0.396986  0.903004  1
  Sn  Sn6  1  0.925207  0.074793  0.927562  1
  Sn  Sn7  1  0.074793  0.925207  0.072438  1
  Sn  Sn8  1  0.925451  0.074549  0.580267  1
  Sn  Sn9  1  0.074549  0.925451  0.419733  1
  Sn  Sn10  1  0.960231  0.039769  0.244636  1
  Sn  Sn11  1  0.039769  0.960231  0.755364  1
  Sn  Sn12  1  0.745435  0.254566  0.431444  1
  Sn  Sn13  1  0.254566  0.745434  0.568556  1
  Sn  Sn14  1  0.741846  0.258155  0.066072  1
  Sn  Sn15  1  0.258155  0.741845  0.933928  1
  Sn  Sn16  1  0.230073  0.769927  0.248752  1
  Sn  Sn17  1  0.769927  0.230073  0.751248  1
  Ru  Ru18  1  0.800396  0.199604  0.246964  1
  Ru  Ru19  1  0.199604  0.800396  0.753036  1
