# generated using pymatgen
data_Zr6Al7Au16
_symmetry_space_group_name_H-M   'P 1'
_cell_length_a   9.08117822
_cell_length_b   9.08112943
_cell_length_c   9.08115400
_cell_angle_alpha   60.00009911
_cell_angle_beta   59.99933082
_cell_angle_gamma   59.99998487
_symmetry_Int_Tables_number   1
_chemical_formula_structural   Zr6Al7Au16
_chemical_formula_sum   'Zr6 Al7 Au16'
_cell_volume   529.54904124
_cell_formula_units_Z   1
loop_
 _symmetry_equiv_pos_site_id
 _symmetry_equiv_pos_as_xyz
  1  'x, y, z'
loop_
 _atom_site_type_symbol
 _atom_site_label
 _atom_site_symmetry_multiplicity
 _atom_site_fract_x
 _atom_site_fract_y
 _atom_site_fract_z
 _atom_site_occupancy
  Zr  Zr0  1  0.707691  0.707706  0.292296  1
  Zr  Zr1  1  0.292316  0.707700  0.292290  1
  Zr  Zr2  1  0.707703  0.292295  0.292285  1
  Zr  Zr3  1  0.292309  0.292294  0.707704  1
  Zr  Zr4  1  0.707684  0.292300  0.707710  1
  Zr  Zr5  1  0.292297  0.707705  0.707715  1
  Al  Al6  1  0.000000  0.000000  0.000000  1
  Al  Al7  1  0.000000  0.000000  0.500000  1
  Al  Al8  1  0.500000  0.000000  0.500000  1
  Al  Al9  1  0.000000  0.500000  0.500000  1
  Al  Al10  1  0.500000  0.500000  0.000000  1
  Al  Al11  1  0.000000  0.500000  0.000000  1
  Al  Al12  1  0.500000  0.000000  0.000000  1
  Au  Au13  1  0.883471  0.883471  0.349645  1
  Au  Au14  1  0.883416  0.349645  0.883471  1
  Au  Au15  1  0.349632  0.883413  0.883469  1
  Au  Au16  1  0.883488  0.883465  0.883411  1
  Au  Au17  1  0.116529  0.116529  0.650355  1
  Au  Au18  1  0.116584  0.650355  0.116529  1
  Au  Au19  1  0.650368  0.116587  0.116531  1
  Au  Au20  1  0.116512  0.116535  0.116589  1
  Au  Au21  1  0.658432  0.658374  0.024712  1
  Au  Au22  1  0.658483  0.024716  0.658372  1
  Au  Au23  1  0.024714  0.658483  0.658428  1
  Au  Au24  1  0.658374  0.658427  0.658482  1
  Au  Au25  1  0.341568  0.341626  0.975288  1
  Au  Au26  1  0.341517  0.975284  0.341628  1
  Au  Au27  1  0.975286  0.341517  0.341572  1
  Au  Au28  1  0.341626  0.341573  0.341518  1
