# generated using pymatgen
data_La6Nd2YPt6
_symmetry_space_group_name_H-M   'P 1'
_cell_length_a   7.79173720
_cell_length_b   7.79173750
_cell_length_c   7.79173701
_cell_angle_alpha   71.90760643
_cell_angle_beta   71.90760193
_cell_angle_gamma   71.90760373
_symmetry_Int_Tables_number   1
_chemical_formula_structural   La6Nd2YPt6
_chemical_formula_sum   'La6 Nd2 Y1 Pt6'
_cell_volume   415.25079489
_cell_formula_units_Z   1
loop_
 _symmetry_equiv_pos_site_id
 _symmetry_equiv_pos_as_xyz
  1  'x, y, z'
loop_
 _atom_site_type_symbol
 _atom_site_label
 _atom_site_symmetry_multiplicity
 _atom_site_fract_x
 _atom_site_fract_y
 _atom_site_fract_z
 _atom_site_occupancy
  La  La0  1  0.327321  0.609905  0.837442  1
  La  La1  1  0.837442  0.327321  0.609905  1
  La  La2  1  0.609905  0.837442  0.327321  1
  La  La3  1  0.672679  0.390095  0.162558  1
  La  La4  1  0.162558  0.672679  0.390095  1
  La  La5  1  0.390095  0.162558  0.672679  1
  Nd  Nd6  1  0.801143  0.801143  0.801143  1
  Nd  Nd7  1  0.198857  0.198857  0.198857  1
  Y  Y8  1  0.000000  0.000000  0.000000  1
  Pt  Pt9  1  0.161065  0.960444  0.594994  1
  Pt  Pt10  1  0.594994  0.161065  0.960444  1
  Pt  Pt11  1  0.960444  0.594994  0.161065  1
  Pt  Pt12  1  0.838935  0.039556  0.405006  1
  Pt  Pt13  1  0.405006  0.838935  0.039556  1
  Pt  Pt14  1  0.039556  0.405006  0.838935  1
