# generated using pymatgen
data_La13Yb3Cd4(CoTc)2
_symmetry_space_group_name_H-M   'P 1'
_cell_length_a   10.01787322
_cell_length_b   9.89295049
_cell_length_c   10.01787357
_cell_angle_alpha   59.99524510
_cell_angle_beta   60.97381479
_cell_angle_gamma   59.99524359
_symmetry_Int_Tables_number   1
_chemical_formula_structural   La13Yb3Cd4(CoTc)2
_chemical_formula_sum   'La13 Yb3 Cd4 Co2 Tc2'
_cell_volume   707.00880621
_cell_formula_units_Z   1
loop_
 _symmetry_equiv_pos_site_id
 _symmetry_equiv_pos_as_xyz
  1  'x, y, z'
loop_
 _atom_site_type_symbol
 _atom_site_label
 _atom_site_symmetry_multiplicity
 _atom_site_fract_x
 _atom_site_fract_y
 _atom_site_fract_z
 _atom_site_occupancy
  La  La0  1  0.687309  0.690477  0.309401  1
  La  La1  1  0.161509  0.147318  0.538259  1
  La  La2  1  0.309401  0.690477  0.687309  1
  La  La3  1  0.159926  0.146107  0.159926  1
  La  La4  1  0.538259  0.147318  0.161509  1
  La  La5  1  0.310025  0.691685  0.310025  1
  La  La6  1  0.311167  0.309125  0.688227  1
  La  La7  1  0.688924  0.310403  0.688924  1
  La  La8  1  0.937031  0.563965  0.555707  1
  La  La9  1  0.555707  0.563965  0.937031  1
  La  La10  1  0.160615  0.533002  0.160615  1
  La  La11  1  0.688227  0.309125  0.311167  1
  La  La12  1  0.942855  0.555231  0.942855  1
  Yb  Yb13  1  0.937249  0.937304  0.564391  1
  Yb  Yb14  1  0.562360  0.935426  0.562360  1
  Yb  Yb15  1  0.564391  0.937304  0.937249  1
  Cd  Cd16  1  0.233834  0.923300  0.922559  1
  Cd  Cd17  1  0.920308  0.921355  0.920308  1
  Cd  Cd18  1  0.922559  0.923300  0.233834  1
  Cd  Cd19  1  0.921219  0.237024  0.921219  1
  Co  Co20  1  0.362736  0.915513  0.362736  1
  Co  Co21  1  0.365313  0.360379  0.365313  1
  Tc  Tc22  1  0.897658  0.375447  0.361416  1
  Tc  Tc23  1  0.361416  0.375447  0.897658  1
