# generated using pymatgen
data_Ce4MnAl2Au
_symmetry_space_group_name_H-M   'P 1'
_cell_length_a   7.87173800
_cell_length_b   7.87173743
_cell_length_c   9.78892500
_cell_angle_alpha   90.00000000
_cell_angle_beta   90.00000000
_cell_angle_gamma   119.99999399
_symmetry_Int_Tables_number   1
_chemical_formula_structural   Ce4MnAl2Au
_chemical_formula_sum   'Ce12 Mn3 Al6 Au3'
_cell_volume   525.29938121
_cell_formula_units_Z   3
loop_
 _symmetry_equiv_pos_site_id
 _symmetry_equiv_pos_as_xyz
  1  'x, y, z'
loop_
 _atom_site_type_symbol
 _atom_site_label
 _atom_site_symmetry_multiplicity
 _atom_site_fract_x
 _atom_site_fract_y
 _atom_site_fract_z
 _atom_site_occupancy
  Ce  Ce0  1  0.000000  0.566873  0.484154  1
  Ce  Ce1  1  0.566873  0.000000  0.484154  1
  Ce  Ce2  1  0.433127  0.433127  0.484154  1
  Ce  Ce3  1  0.000000  0.383445  0.034296  1
  Ce  Ce4  1  0.383445  0.000000  0.034296  1
  Ce  Ce5  1  0.616555  0.616555  0.034296  1
  Ce  Ce6  1  0.000000  0.745546  0.178905  1
  Ce  Ce7  1  0.745546  0.000000  0.178905  1
  Ce  Ce8  1  0.254454  0.254454  0.178905  1
  Ce  Ce9  1  0.000000  0.272712  0.651661  1
  Ce  Ce10  1  0.272712  0.000000  0.651661  1
  Ce  Ce11  1  0.727288  0.727288  0.651661  1
  Mn  Mn12  1  0.000000  0.352448  0.340695  1
  Mn  Mn13  1  0.352448  0.000000  0.340695  1
  Mn  Mn14  1  0.647552  0.647552  0.340695  1
  Al  Al15  1  0.666667  0.333333  0.265982  1
  Al  Al16  1  0.333333  0.666667  0.265982  1
  Al  Al17  1  0.333333  0.666667  0.785555  1
  Al  Al18  1  0.666667  0.333333  0.785555  1
  Al  Al19  1  0.000000  0.000000  0.420408  1
  Al  Al20  1  0.000000  0.000000  0.911413  1
  Au  Au21  1  0.000000  0.667635  0.841739  1
  Au  Au22  1  0.667635  0.000000  0.841739  1
  Au  Au23  1  0.332365  0.332365  0.841739  1
