# generated using pymatgen
data_TbYb3(TcB4)4
_symmetry_space_group_name_H-M   'P 1'
_cell_length_a   3.56875000
_cell_length_b   5.98078708
_cell_length_c   11.56302406
_cell_angle_alpha   89.97545661
_cell_angle_beta   90.00000000
_cell_angle_gamma   90.00000000
_symmetry_Int_Tables_number   1
_chemical_formula_structural   TbYb3(TcB4)4
_chemical_formula_sum   'Tb1 Yb3 Tc4 B16'
_cell_volume   246.80039868
_cell_formula_units_Z   1
loop_
 _symmetry_equiv_pos_site_id
 _symmetry_equiv_pos_as_xyz
  1  'x, y, z'
loop_
 _atom_site_type_symbol
 _atom_site_label
 _atom_site_symmetry_multiplicity
 _atom_site_fract_x
 _atom_site_fract_y
 _atom_site_fract_z
 _atom_site_occupancy
  Tb  Tb0  1  0.000000  0.872211  0.849113  1
  Yb  Yb1  1  0.000000  0.627905  0.350255  1
  Yb  Yb2  1  0.000000  0.372720  0.648609  1
  Yb  Yb3  1  0.000000  0.128184  0.151427  1
  Tc  Tc4  1  0.000000  0.630618  0.083525  1
  Tc  Tc5  1  0.000000  0.370745  0.915689  1
  Tc  Tc6  1  0.000000  0.130404  0.416816  1
  Tc  Tc7  1  0.000000  0.870963  0.583332  1
  B  B8  1  0.500000  0.783319  0.185874  1
  B  B9  1  0.500000  0.216583  0.814597  1
  B  B10  1  0.500000  0.283997  0.314865  1
  B  B11  1  0.500000  0.714886  0.684436  1
  B  B12  1  0.500000  0.864379  0.032950  1
  B  B13  1  0.500000  0.135579  0.968413  1
  B  B14  1  0.500000  0.365217  0.467266  1
  B  B15  1  0.500000  0.634337  0.532145  1
  B  B16  1  0.500000  0.885513  0.452917  1
  B  B17  1  0.500000  0.114090  0.547390  1
  B  B18  1  0.500000  0.385162  0.047828  1
  B  B19  1  0.500000  0.611968  0.953016  1
  B  B20  1  0.500000  0.976169  0.307517  1
  B  B21  1  0.500000  0.025101  0.692043  1
  B  B22  1  0.500000  0.476109  0.192834  1
  B  B23  1  0.500000  0.523836  0.807144  1
