# generated using pymatgen
data_CaAl10RuRh
_symmetry_space_group_name_H-M   'P 1'
_cell_length_a   6.89588257
_cell_length_b   6.89685237
_cell_length_c   9.15872700
_cell_angle_alpha   90.00000000
_cell_angle_beta   90.00000000
_cell_angle_gamma   96.79923042
_symmetry_Int_Tables_number   1
_chemical_formula_structural   CaAl10RuRh
_chemical_formula_sum   'Ca2 Al20 Ru2 Rh2'
_cell_volume   432.52454621
_cell_formula_units_Z   2
loop_
 _symmetry_equiv_pos_site_id
 _symmetry_equiv_pos_as_xyz
  1  'x, y, z'
loop_
 _atom_site_type_symbol
 _atom_site_label
 _atom_site_symmetry_multiplicity
 _atom_site_fract_x
 _atom_site_fract_y
 _atom_site_fract_z
 _atom_site_occupancy
  Ca  Ca0  1  0.872579  0.123343  0.750000  1
  Ca  Ca1  1  0.127421  0.876657  0.250000  1
  Al  Al2  1  0.620841  0.376001  0.548290  1
  Al  Al3  1  0.379159  0.623999  0.451710  1
  Al  Al4  1  0.379159  0.623999  0.048290  1
  Al  Al5  1  0.620841  0.376001  0.951710  1
  Al  Al6  1  0.226300  0.223828  0.498811  1
  Al  Al7  1  0.773700  0.776172  0.501189  1
  Al  Al8  1  0.773700  0.776172  0.998811  1
  Al  Al9  1  0.226300  0.223828  0.001189  1
  Al  Al10  1  0.841979  0.156771  0.099584  1
  Al  Al11  1  0.158021  0.843229  0.900416  1
  Al  Al12  1  0.158021  0.843229  0.599584  1
  Al  Al13  1  0.841979  0.156771  0.400416  1
  Al  Al14  1  0.857797  0.588056  0.750000  1
  Al  Al15  1  0.142203  0.411944  0.250000  1
  Al  Al16  1  0.412341  0.140224  0.750000  1
  Al  Al17  1  0.587659  0.859776  0.250000  1
  Al  Al18  1  0.223807  0.479309  0.750000  1
  Al  Al19  1  0.776193  0.520691  0.250000  1
  Al  Al20  1  0.520065  0.779004  0.750000  1
  Al  Al21  1  0.479935  0.220996  0.250000  1
  Ru  Ru22  1  0.500000  0.000000  0.000000  1
  Ru  Ru23  1  0.500000  0.000000  0.500000  1
  Rh  Rh24  1  0.000000  0.500000  0.500000  1
  Rh  Rh25  1  0.000000  0.500000  0.000000  1
