# generated using pymatgen
data_NaCaMn3Ni9As7
_symmetry_space_group_name_H-M   'P 1'
_cell_length_a   9.48672400
_cell_length_b   9.48672538
_cell_length_c   3.80147800
_cell_angle_alpha   90.00000000
_cell_angle_beta   90.00000000
_cell_angle_gamma   120.00000216
_symmetry_Int_Tables_number   1
_chemical_formula_structural   NaCaMn3Ni9As7
_chemical_formula_sum   'Na1 Ca1 Mn3 Ni9 As7'
_cell_volume   296.28911609
_cell_formula_units_Z   1
loop_
 _symmetry_equiv_pos_site_id
 _symmetry_equiv_pos_as_xyz
  1  'x, y, z'
loop_
 _atom_site_type_symbol
 _atom_site_label
 _atom_site_symmetry_multiplicity
 _atom_site_fract_x
 _atom_site_fract_y
 _atom_site_fract_z
 _atom_site_occupancy
  Na  Na0  1  0.666667  0.333333  0.500000  1
  Ca  Ca1  1  0.333333  0.666667  0.000000  1
  Mn  Mn2  1  0.219510  0.119777  0.500000  1
  Mn  Mn3  1  0.880223  0.099734  0.500000  1
  Mn  Mn4  1  0.900266  0.780490  0.500000  1
  Ni  Ni5  1  0.121071  0.279728  0.000000  1
  Ni  Ni6  1  0.720272  0.841343  0.000000  1
  Ni  Ni7  1  0.158657  0.878929  0.000000  1
  Ni  Ni8  1  0.429049  0.373533  0.000000  1
  Ni  Ni9  1  0.626467  0.055517  0.000000  1
  Ni  Ni10  1  0.944483  0.570951  0.000000  1
  Ni  Ni11  1  0.047610  0.428599  0.500000  1
  Ni  Ni12  1  0.571401  0.619010  0.500000  1
  Ni  Ni13  1  0.380990  0.952390  0.500000  1
  As  As14  1  0.293477  0.408663  0.500000  1
  As  As15  1  0.591337  0.884814  0.500000  1
  As  As16  1  0.115186  0.706523  0.500000  1
  As  As17  1  0.416031  0.119460  0.000000  1
  As  As18  1  0.880540  0.296572  0.000000  1
  As  As19  1  0.703428  0.583969  0.000000  1
  As  As20  1  0.000000  0.000000  0.000000  1
