# generated using pymatgen
data_Ho14Tm6Co3Bi8Os
_symmetry_space_group_name_H-M   'P 1'
_cell_length_a   7.93677341
_cell_length_b   8.91218292
_cell_length_c   12.40541876
_cell_angle_alpha   89.96235602
_cell_angle_beta   89.76255945
_cell_angle_gamma   90.06511435
_symmetry_Int_Tables_number   1
_chemical_formula_structural   Ho14Tm6Co3Bi8Os
_chemical_formula_sum   'Ho14 Tm6 Co3 Bi8 Os1'
_cell_volume   877.47630456
_cell_formula_units_Z   1
loop_
 _symmetry_equiv_pos_site_id
 _symmetry_equiv_pos_as_xyz
  1  'x, y, z'
loop_
 _atom_site_type_symbol
 _atom_site_label
 _atom_site_symmetry_multiplicity
 _atom_site_fract_x
 _atom_site_fract_y
 _atom_site_fract_z
 _atom_site_occupancy
  Ho  Ho0  1  0.347036  0.749946  0.700556  1
  Ho  Ho1  1  0.651804  0.250047  0.301277  1
  Ho  Ho2  1  0.848032  0.250620  0.799986  1
  Ho  Ho3  1  0.154586  0.749599  0.206261  1
  Ho  Ho4  1  0.881055  0.749008  0.806266  1
  Ho  Ho5  1  0.114681  0.251083  0.188222  1
  Ho  Ho6  1  0.385283  0.249933  0.686474  1
  Ho  Ho7  1  0.614677  0.750186  0.314757  1
  Ho  Ho8  1  0.824959  0.962658  0.063774  1
  Ho  Ho9  1  0.176110  0.042148  0.935159  1
  Ho  Ho10  1  0.054416  0.749954  0.497838  1
  Ho  Ho11  1  0.944928  0.250026  0.502702  1
  Ho  Ho12  1  0.556247  0.250921  0.003232  1
  Ho  Ho13  1  0.443520  0.749014  0.996470  1
  Tm  Tm14  1  0.672274  0.536848  0.562941  1
  Tm  Tm15  1  0.326496  0.461555  0.437187  1
  Tm  Tm16  1  0.174142  0.456837  0.935375  1
  Tm  Tm17  1  0.326403  0.038398  0.437309  1
  Tm  Tm18  1  0.826868  0.538119  0.063553  1
  Tm  Tm19  1  0.672313  0.963138  0.562796  1
  Co  Co20  1  0.931335  0.250819  0.008452  1
  Co  Co21  1  0.563384  0.250012  0.507022  1
  Co  Co22  1  0.435018  0.750015  0.493484  1
  Bi  Bi23  1  0.570419  0.507978  0.826090  1
  Bi  Bi24  1  0.431193  0.491557  0.173627  1
  Bi  Bi25  1  0.071131  0.490566  0.671630  1
  Bi  Bi26  1  0.429647  0.008657  0.173339  1
  Bi  Bi27  1  0.928605  0.508500  0.327862  1
  Bi  Bi28  1  0.571854  0.991922  0.826363  1
  Bi  Bi29  1  0.929310  0.991770  0.327884  1
  Bi  Bi30  1  0.070378  0.009231  0.671730  1
  Os  Os31  1  0.071896  0.748935  0.990381  1
