# generated using pymatgen
data_Tb2ErIn3Hg2Pd
_symmetry_space_group_name_H-M   'P 1'
_cell_length_a   7.73201048
_cell_length_b   7.78789619
_cell_length_c   4.14841500
_cell_angle_alpha   90.00000000
_cell_angle_beta   90.00000000
_cell_angle_gamma   120.23937913
_symmetry_Int_Tables_number   1
_chemical_formula_structural   Tb2ErIn3Hg2Pd
_chemical_formula_sum   'Tb2 Er1 In3 Hg2 Pd1'
_cell_volume   215.81060065
_cell_formula_units_Z   1
loop_
 _symmetry_equiv_pos_site_id
 _symmetry_equiv_pos_as_xyz
  1  'x, y, z'
loop_
 _atom_site_type_symbol
 _atom_site_label
 _atom_site_symmetry_multiplicity
 _atom_site_fract_x
 _atom_site_fract_y
 _atom_site_fract_z
 _atom_site_occupancy
  Tb  Tb0  1  0.398886  0.999796  0.500000  1
  Tb  Tb1  1  0.601114  0.600910  0.500000  1
  Er  Er2  1  0.000000  0.396719  0.500000  1
  In  In3  1  0.247156  0.247549  0.000000  1
  In  In4  1  0.752844  0.000393  0.000000  1
  In  In5  1  0.000000  0.753217  0.000000  1
  Hg  Hg6  1  0.669594  0.334487  0.000000  1
  Hg  Hg7  1  0.330406  0.664893  0.000000  1
  Pd  Pd8  1  0.000000  0.002036  0.500000  1
