# generated using pymatgen
data_Ca3SmIr8
_symmetry_space_group_name_H-M   'P 1'
_cell_length_a   5.36882600
_cell_length_b   5.36882539
_cell_length_c   8.76738800
_cell_angle_alpha   90.00000000
_cell_angle_beta   90.00000000
_cell_angle_gamma   120.00000376
_symmetry_Int_Tables_number   1
_chemical_formula_structural   Ca3SmIr8
_chemical_formula_sum   'Ca3 Sm1 Ir8'
_cell_volume   218.85650047
_cell_formula_units_Z   1
loop_
 _symmetry_equiv_pos_site_id
 _symmetry_equiv_pos_as_xyz
  1  'x, y, z'
loop_
 _atom_site_type_symbol
 _atom_site_label
 _atom_site_symmetry_multiplicity
 _atom_site_fract_x
 _atom_site_fract_y
 _atom_site_fract_z
 _atom_site_occupancy
  Ca  Ca0  1  0.333334  0.666667  0.437446  1
  Ca  Ca1  1  0.666666  0.333334  0.568297  1
  Ca  Ca2  1  0.666666  0.333334  0.927364  1
  Sm  Sm3  1  0.333334  0.666667  0.069360  1
  Ir  Ir4  1  0.000000  0.000000  0.998560  1
  Ir  Ir5  1  0.340979  0.170490  0.249213  1
  Ir  Ir6  1  0.829510  0.170490  0.249213  1
  Ir  Ir7  1  0.829510  0.659020  0.249213  1
  Ir  Ir8  1  0.000000  0.000000  0.499776  1
  Ir  Ir9  1  0.170176  0.340353  0.750521  1
  Ir  Ir10  1  0.170177  0.829823  0.750521  1
  Ir  Ir11  1  0.659645  0.829823  0.750521  1
