# generated using pymatgen
data_Cs6NdDyBr12
_symmetry_space_group_name_H-M   'P 1'
_cell_length_a   10.07475610
_cell_length_b   10.06945945
_cell_length_c   8.36644800
_cell_angle_alpha   90.00000000
_cell_angle_beta   90.00000000
_cell_angle_gamma   89.98432293
_symmetry_Int_Tables_number   1
_chemical_formula_structural   Cs6NdDyBr12
_chemical_formula_sum   'Cs6 Nd1 Dy1 Br12'
_cell_volume   848.75393019
_cell_formula_units_Z   1
loop_
 _symmetry_equiv_pos_site_id
 _symmetry_equiv_pos_as_xyz
  1  'x, y, z'
loop_
 _atom_site_type_symbol
 _atom_site_label
 _atom_site_symmetry_multiplicity
 _atom_site_fract_x
 _atom_site_fract_y
 _atom_site_fract_z
 _atom_site_occupancy
  Cs  Cs0  1  0.000000  0.000000  0.500000  1
  Cs  Cs1  1  0.000000  0.000000  0.000000  1
  Cs  Cs2  1  0.233372  0.584782  0.500000  1
  Cs  Cs3  1  0.766628  0.415218  0.500000  1
  Cs  Cs4  1  0.414718  0.236413  0.000000  1
  Cs  Cs5  1  0.585282  0.763587  0.000000  1
  Nd  Nd6  1  0.500000  0.000000  0.500000  1
  Dy  Dy7  1  0.000000  0.500000  0.000000  1
  Br  Br8  1  0.696539  0.059251  0.745453  1
  Br  Br9  1  0.303461  0.940749  0.745453  1
  Br  Br10  1  0.942581  0.690870  0.239190  1
  Br  Br11  1  0.057419  0.309130  0.239190  1
  Br  Br12  1  0.303461  0.940749  0.254547  1
  Br  Br13  1  0.696539  0.059251  0.254547  1
  Br  Br14  1  0.057419  0.309130  0.760810  1
  Br  Br15  1  0.942581  0.690870  0.760810  1
  Br  Br16  1  0.570461  0.721657  0.500000  1
  Br  Br17  1  0.429539  0.278343  0.500000  1
  Br  Br18  1  0.269657  0.569115  0.000000  1
  Br  Br19  1  0.730343  0.430885  0.000000  1
