# generated using pymatgen
data_RbLa3CBr6
_symmetry_space_group_name_H-M   'P 1'
_cell_length_a   9.20364264
_cell_length_b   9.23674492
_cell_length_c   9.89795869
_cell_angle_alpha   69.09562323
_cell_angle_beta   86.79447381
_cell_angle_gamma   89.65757476
_symmetry_Int_Tables_number   1
_chemical_formula_structural   RbLa3CBr6
_chemical_formula_sum   'Rb2 La6 C2 Br12'
_cell_volume   784.73822908
_cell_formula_units_Z   2
loop_
 _symmetry_equiv_pos_site_id
 _symmetry_equiv_pos_as_xyz
  1  'x, y, z'
loop_
 _atom_site_type_symbol
 _atom_site_label
 _atom_site_symmetry_multiplicity
 _atom_site_fract_x
 _atom_site_fract_y
 _atom_site_fract_z
 _atom_site_occupancy
  Rb  Rb0  1  0.482054  0.320825  0.347097  1
  Rb  Rb1  1  0.517947  0.679175  0.652903  1
  La  La2  1  0.913677  0.735343  0.003758  1
  La  La3  1  0.086323  0.264657  0.996241  1
  La  La4  1  0.734946  0.087074  0.999936  1
  La  La5  1  0.265053  0.912926  0.000065  1
  La  La6  1  0.982691  0.872257  0.329213  1
  La  La7  1  0.017308  0.127743  0.670788  1
  C  C8  1  0.003997  0.029069  0.923201  1
  C  C9  1  0.996002  0.970931  0.076799  1
  Br  Br10  1  0.092456  0.188287  0.327392  1
  Br  Br11  1  0.907544  0.811713  0.672608  1
  Br  Br12  1  0.208960  0.591578  0.998713  1
  Br  Br13  1  0.791041  0.408422  0.001287  1
  Br  Br14  1  0.407138  0.204282  0.009637  1
  Br  Br15  1  0.592861  0.795719  0.990362  1
  Br  Br16  1  0.673169  0.993400  0.327719  1
  Br  Br17  1  0.326831  0.006600  0.672281  1
  Br  Br18  1  0.291987  0.760513  0.325535  1
  Br  Br19  1  0.708013  0.239487  0.674465  1
  Br  Br20  1  0.851877  0.577325  0.326467  1
  Br  Br21  1  0.148122  0.422675  0.673533  1
