# generated using pymatgen
data_TbY5Er14(Cd3Ru)2
_symmetry_space_group_name_H-M   'P 1'
_cell_length_a   9.55674404
_cell_length_b   9.55674367
_cell_length_c   9.77287000
_cell_angle_alpha   90.00000000
_cell_angle_beta   90.00000000
_cell_angle_gamma   120.00179003
_symmetry_Int_Tables_number   1
_chemical_formula_structural   TbY5Er14(Cd3Ru)2
_chemical_formula_sum   'Tb1 Y5 Er14 Cd6 Ru2'
_cell_volume   772.97386723
_cell_formula_units_Z   1
loop_
 _symmetry_equiv_pos_site_id
 _symmetry_equiv_pos_as_xyz
  1  'x, y, z'
loop_
 _atom_site_type_symbol
 _atom_site_label
 _atom_site_symmetry_multiplicity
 _atom_site_fract_x
 _atom_site_fract_y
 _atom_site_fract_z
 _atom_site_occupancy
  Tb  Tb0  1  0.540596  0.459404  0.250000  1
  Y  Y1  1  0.540808  0.081665  0.250000  1
  Y  Y2  1  0.918335  0.459192  0.250000  1
  Y  Y3  1  0.459290  0.540710  0.750000  1
  Y  Y4  1  0.459257  0.918581  0.750000  1
  Y  Y5  1  0.081419  0.540743  0.750000  1
  Er  Er6  1  0.000046  0.999954  0.500006  1
  Er  Er7  1  0.000046  0.999954  0.999994  1
  Er  Er8  1  0.209841  0.790159  0.439972  1
  Er  Er9  1  0.209966  0.419607  0.439871  1
  Er  Er10  1  0.580393  0.790034  0.439871  1
  Er  Er11  1  0.790183  0.209817  0.560100  1
  Er  Er12  1  0.789972  0.580217  0.559940  1
  Er  Er13  1  0.419783  0.210028  0.559940  1
  Er  Er14  1  0.790183  0.209817  0.939900  1
  Er  Er15  1  0.789972  0.580217  0.940060  1
  Er  Er16  1  0.419783  0.210028  0.940060  1
  Er  Er17  1  0.209841  0.790159  0.060028  1
  Er  Er18  1  0.209966  0.419607  0.060129  1
  Er  Er19  1  0.580393  0.790034  0.060129  1
  Cd  Cd20  1  0.885708  0.114292  0.250000  1
  Cd  Cd21  1  0.885441  0.771229  0.250000  1
  Cd  Cd22  1  0.228771  0.114559  0.250000  1
  Cd  Cd23  1  0.114302  0.885698  0.750000  1
  Cd  Cd24  1  0.114240  0.228605  0.750000  1
  Cd  Cd25  1  0.771395  0.885760  0.750000  1
  Ru  Ru26  1  0.333418  0.666582  0.250000  1
  Ru  Ru27  1  0.666651  0.333349  0.750000  1
