# generated using pymatgen
data_Gd2CrTcB8
_symmetry_space_group_name_H-M   'P 1'
_cell_length_a   5.98096083
_cell_length_b   11.56258679
_cell_length_c   3.55400100
_cell_angle_alpha   90.00000000
_cell_angle_beta   90.00000000
_cell_angle_gamma   89.69833408
_symmetry_Int_Tables_number   1
_chemical_formula_structural   Gd2CrTcB8
_chemical_formula_sum   'Gd4 Cr2 Tc2 B16'
_cell_volume   245.77487833
_cell_formula_units_Z   2
loop_
 _symmetry_equiv_pos_site_id
 _symmetry_equiv_pos_as_xyz
  1  'x, y, z'
loop_
 _atom_site_type_symbol
 _atom_site_label
 _atom_site_symmetry_multiplicity
 _atom_site_fract_x
 _atom_site_fract_y
 _atom_site_fract_z
 _atom_site_occupancy
  Gd  Gd0  1  0.624524  0.352027  0.000000  1
  Gd  Gd1  1  0.375476  0.647973  0.000000  1
  Gd  Gd2  1  0.126702  0.153154  0.000000  1
  Gd  Gd3  1  0.873298  0.846846  0.000000  1
  Cr  Cr4  1  0.121394  0.421224  0.000000  1
  Cr  Cr5  1  0.878606  0.578776  0.000000  1
  Tc  Tc6  1  0.633223  0.086879  0.000000  1
  Tc  Tc7  1  0.366777  0.913121  0.000000  1
  B  B8  1  0.784325  0.186812  0.500000  1
  B  B9  1  0.215675  0.813188  0.500000  1
  B  B10  1  0.280870  0.318074  0.500000  1
  B  B11  1  0.719130  0.681926  0.500000  1
  B  B12  1  0.864299  0.031810  0.500000  1
  B  B13  1  0.135701  0.968190  0.500000  1
  B  B14  1  0.361280  0.467442  0.500000  1
  B  B15  1  0.638720  0.532558  0.500000  1
  B  B16  1  0.887725  0.453828  0.500000  1
  B  B17  1  0.112275  0.546172  0.500000  1
  B  B18  1  0.386637  0.047246  0.500000  1
  B  B19  1  0.613363  0.952754  0.500000  1
  B  B20  1  0.977809  0.310168  0.500000  1
  B  B21  1  0.022191  0.689832  0.500000  1
  B  B22  1  0.473731  0.193256  0.500000  1
  B  B23  1  0.526269  0.806744  0.500000  1
