# generated using pymatgen
data_Lu3Al12(OsRu)2
_symmetry_space_group_name_H-M   'P 1'
_cell_length_a   8.74878000
_cell_length_b   8.74121869
_cell_length_c   9.55115500
_cell_angle_alpha   90.00000000
_cell_angle_beta   90.00000000
_cell_angle_gamma   120.02861112
_symmetry_Int_Tables_number   1
_chemical_formula_structural   Lu3Al12(OsRu)2
_chemical_formula_sum   'Lu6 Al24 Os4 Ru4'
_cell_volume   632.38378364
_cell_formula_units_Z   2
loop_
 _symmetry_equiv_pos_site_id
 _symmetry_equiv_pos_as_xyz
  1  'x, y, z'
loop_
 _atom_site_type_symbol
 _atom_site_label
 _atom_site_symmetry_multiplicity
 _atom_site_fract_x
 _atom_site_fract_y
 _atom_site_fract_z
 _atom_site_occupancy
  Lu  Lu0  1  0.195367  0.390734  0.250000  1
  Lu  Lu1  1  0.804633  0.609266  0.750000  1
  Lu  Lu2  1  0.610191  0.803261  0.250000  1
  Lu  Lu3  1  0.389809  0.196739  0.750000  1
  Lu  Lu4  1  0.193072  0.803261  0.250000  1
  Lu  Lu5  1  0.806928  0.196739  0.750000  1
  Al  Al6  1  0.333780  0.667560  0.019914  1
  Al  Al7  1  0.666220  0.332440  0.980086  1
  Al  Al8  1  0.666220  0.332440  0.519914  1
  Al  Al9  1  0.333780  0.667560  0.480086  1
  Al  Al10  1  0.162780  0.325561  0.577634  1
  Al  Al11  1  0.837220  0.674439  0.422366  1
  Al  Al12  1  0.674885  0.837568  0.578124  1
  Al  Al13  1  0.837220  0.674439  0.077634  1
  Al  Al14  1  0.325115  0.162432  0.421876  1
  Al  Al15  1  0.162780  0.325561  0.922366  1
  Al  Al16  1  0.162682  0.837568  0.578124  1
  Al  Al17  1  0.325115  0.162432  0.078124  1
  Al  Al18  1  0.837318  0.162432  0.421876  1
  Al  Al19  1  0.674885  0.837568  0.921876  1
  Al  Al20  1  0.837318  0.162432  0.078124  1
  Al  Al21  1  0.162682  0.837568  0.921876  1
  Al  Al22  1  0.560428  0.120855  0.250000  1
  Al  Al23  1  0.439572  0.879145  0.750000  1
  Al  Al24  1  0.876899  0.438305  0.250000  1
  Al  Al25  1  0.123101  0.561695  0.750000  1
  Al  Al26  1  0.561407  0.438305  0.250000  1
  Al  Al27  1  0.438593  0.561695  0.750000  1
  Al  Al28  1  0.999920  0.999840  0.250000  1
  Al  Al29  1  0.000080  0.000160  0.750000  1
  Os  Os30  1  0.000000  0.500000  0.000000  1
  Os  Os31  1  0.500000  0.500000  0.000000  1
  Os  Os32  1  0.000000  0.500000  0.500000  1
  Os  Os33  1  0.500000  0.500000  0.500000  1
  Ru  Ru34  1  0.500000  0.000000  0.000000  1
  Ru  Ru35  1  0.500000  0.000000  0.500000  1
  Ru  Ru36  1  0.000000  0.000000  0.000000  1
  Ru  Ru37  1  0.000000  0.000000  0.500000  1
