# generated using pymatgen
data_KV8NiS16
_symmetry_space_group_name_H-M   'P 1'
_cell_length_a   6.37275800
_cell_length_b   6.37275859
_cell_length_c   13.08785500
_cell_angle_alpha   90.00000000
_cell_angle_beta   90.00000000
_cell_angle_gamma   119.99999694
_symmetry_Int_Tables_number   1
_chemical_formula_structural   KV8NiS16
_chemical_formula_sum   'K1 V8 Ni1 S16'
_cell_volume   460.31381975
_cell_formula_units_Z   1
loop_
 _symmetry_equiv_pos_site_id
 _symmetry_equiv_pos_as_xyz
  1  'x, y, z'
loop_
 _atom_site_type_symbol
 _atom_site_label
 _atom_site_symmetry_multiplicity
 _atom_site_fract_x
 _atom_site_fract_y
 _atom_site_fract_z
 _atom_site_occupancy
  K  K0  1  0.000000  0.000000  0.000000  1
  V  V1  1  0.988097  0.494048  0.286547  1
  V  V2  1  0.011903  0.505952  0.713453  1
  V  V3  1  0.494048  0.505952  0.713453  1
  V  V4  1  0.505952  0.011903  0.286547  1
  V  V5  1  0.000000  0.000000  0.717509  1
  V  V6  1  0.000000  0.000000  0.282491  1
  V  V7  1  0.505952  0.494048  0.286547  1
  V  V8  1  0.494048  0.988097  0.713453  1
  Ni  Ni9  1  0.000000  0.000000  0.500000  1
  S  S10  1  0.333333  0.666667  0.598783  1
  S  S11  1  0.666667  0.333333  0.168275  1
  S  S12  1  0.666667  0.333333  0.401217  1
  S  S13  1  0.333333  0.666667  0.831725  1
  S  S14  1  0.167403  0.334808  0.394154  1
  S  S15  1  0.830014  0.169986  0.825899  1
  S  S16  1  0.339975  0.169986  0.825899  1
  S  S17  1  0.665192  0.832597  0.394154  1
  S  S18  1  0.167403  0.832597  0.394154  1
  S  S19  1  0.830014  0.660025  0.825899  1
  S  S20  1  0.169986  0.339975  0.174101  1
  S  S21  1  0.832597  0.167403  0.605846  1
  S  S22  1  0.334808  0.167403  0.605846  1
  S  S23  1  0.660025  0.830014  0.174101  1
  S  S24  1  0.169986  0.830014  0.174101  1
  S  S25  1  0.832597  0.665192  0.605846  1
