# generated using pymatgen
data_DyEr7C10
_symmetry_space_group_name_H-M   'P 1'
_cell_length_a   3.63000500
_cell_length_b   6.51276152
_cell_length_c   11.83901716
_cell_angle_alpha   88.94673898
_cell_angle_beta   90.00000000
_cell_angle_gamma   90.00000000
_symmetry_Int_Tables_number   1
_chemical_formula_structural   DyEr7C10
_chemical_formula_sum   'Dy1 Er7 C10'
_cell_volume   279.84313936
_cell_formula_units_Z   1
loop_
 _symmetry_equiv_pos_site_id
 _symmetry_equiv_pos_as_xyz
  1  'x, y, z'
loop_
 _atom_site_type_symbol
 _atom_site_label
 _atom_site_symmetry_multiplicity
 _atom_site_fract_x
 _atom_site_fract_y
 _atom_site_fract_z
 _atom_site_occupancy
  Dy  Dy0  1  0.500000  0.895174  0.197446  1
  Er  Er1  1  0.500000  0.390641  0.305023  1
  Er  Er2  1  0.500000  0.609128  0.695620  1
  Er  Er3  1  0.500000  0.104038  0.802563  1
  Er  Er4  1  0.000000  0.244159  0.041841  1
  Er  Er5  1  0.000000  0.756329  0.957362  1
  Er  Er6  1  0.000000  0.256962  0.543233  1
  Er  Er7  1  0.000000  0.743387  0.457083  1
  C  C8  1  0.500000  0.000639  0.998934  1
  C  C9  1  0.500000  0.500416  0.500295  1
  C  C10  1  0.000000  0.139382  0.234834  1
  C  C11  1  0.000000  0.862803  0.765146  1
  C  C12  1  0.000000  0.357013  0.737087  1
  C  C13  1  0.000000  0.640926  0.263223  1
  C  C14  1  0.000000  0.110037  0.347225  1
  C  C15  1  0.000000  0.891459  0.652750  1
  C  C16  1  0.000000  0.419028  0.843808  1
  C  C17  1  0.000000  0.578482  0.156525  1
