# generated using pymatgen
data_Sc3Bi3(SbO7)2
_symmetry_space_group_name_H-M   'P 1'
_cell_length_a   6.34309692
_cell_length_b   6.51202059
_cell_length_c   7.46323836
_cell_angle_alpha   106.88491534
_cell_angle_beta   89.55173809
_cell_angle_gamma   99.25509163
_symmetry_Int_Tables_number   1
_chemical_formula_structural   Sc3Bi3(SbO7)2
_chemical_formula_sum   'Sc3 Bi3 Sb2 O14'
_cell_volume   290.90235538
_cell_formula_units_Z   1
loop_
 _symmetry_equiv_pos_site_id
 _symmetry_equiv_pos_as_xyz
  1  'x, y, z'
loop_
 _atom_site_type_symbol
 _atom_site_label
 _atom_site_symmetry_multiplicity
 _atom_site_fract_x
 _atom_site_fract_y
 _atom_site_fract_z
 _atom_site_occupancy
  Sc  Sc0  1  0.532618  0.989479  0.751531  1
  Sc  Sc1  1  0.465336  0.003077  0.247418  1
  Sc  Sc2  1  0.260818  0.530714  0.883493  1
  Bi  Bi3  1  0.737001  0.468154  0.109778  1
  Bi  Bi4  1  0.727590  0.463071  0.616884  1
  Bi  Bi5  1  0.254949  0.532101  0.385224  1
  Sb  Sb6  1  0.003558  0.008355  0.504382  1
  Sb  Sb7  1  0.009062  0.001819  0.998409  1
  O  O8  1  0.437470  0.664367  0.156129  1
  O  O9  1  0.525248  0.326522  0.822596  1
  O  O10  1  0.307028  0.945256  0.953152  1
  O  O11  1  0.708400  0.044847  0.054708  1
  O  O12  1  0.297947  0.933696  0.519875  1
  O  O13  1  0.706140  0.068332  0.479164  1
  O  O14  1  0.525470  0.342198  0.341138  1
  O  O15  1  0.453855  0.653364  0.675395  1
  O  O16  1  0.952688  0.673989  0.945507  1
  O  O17  1  0.090434  0.323441  0.034402  1
  O  O18  1  0.096766  0.326229  0.632436  1
  O  O19  1  0.907508  0.689390  0.383773  1
  O  O20  1  0.883792  0.948426  0.738133  1
  O  O21  1  0.116323  0.063174  0.266470  1
