# generated using pymatgen
data_Hf9Zr3As8
_symmetry_space_group_name_H-M   'P 1'
_cell_length_a   3.70891900
_cell_length_b   10.12872737
_cell_length_c   10.53234439
_cell_angle_alpha   90.03091841
_cell_angle_beta   90.00000000
_cell_angle_gamma   90.00000000
_symmetry_Int_Tables_number   1
_chemical_formula_structural   Hf9Zr3As8
_chemical_formula_sum   'Hf9 Zr3 As8'
_cell_volume   395.66462038
_cell_formula_units_Z   1
loop_
 _symmetry_equiv_pos_site_id
 _symmetry_equiv_pos_as_xyz
  1  'x, y, z'
loop_
 _atom_site_type_symbol
 _atom_site_label
 _atom_site_symmetry_multiplicity
 _atom_site_fract_x
 _atom_site_fract_y
 _atom_site_fract_z
 _atom_site_occupancy
  Hf  Hf0  1  0.750000  0.205803  0.213668  1
  Hf  Hf1  1  0.250000  0.706572  0.285704  1
  Hf  Hf2  1  0.750000  0.293926  0.714166  1
  Hf  Hf3  1  0.250000  0.793849  0.786352  1
  Hf  Hf4  1  0.250000  0.432516  0.124961  1
  Hf  Hf5  1  0.750000  0.931598  0.373924  1
  Hf  Hf6  1  0.250000  0.067972  0.626076  1
  Hf  Hf7  1  0.750000  0.568398  0.875139  1
  Hf  Hf8  1  0.750000  0.875188  0.045138  1
  Zr  Zr9  1  0.250000  0.374698  0.454112  1
  Zr  Zr10  1  0.750000  0.625178  0.545920  1
  Zr  Zr11  1  0.250000  0.124530  0.954571  1
  As  As12  1  0.750000  0.501485  0.304340  1
  As  As13  1  0.250000  0.999763  0.194491  1
  As  As14  1  0.250000  0.498767  0.695859  1
  As  As15  1  0.750000  0.997980  0.805190  1
  As  As16  1  0.750000  0.323290  0.969664  1
  As  As17  1  0.250000  0.823470  0.530491  1
  As  As18  1  0.750000  0.176246  0.469546  1
  As  As19  1  0.250000  0.678774  0.030687  1
