# generated using pymatgen
data_Dy3Si3Pd2
_symmetry_space_group_name_H-M   'P 1'
_cell_length_a   5.64349078
_cell_length_b   5.64349036
_cell_length_c   14.12865500
_cell_angle_alpha   90.00000000
_cell_angle_beta   90.00000000
_cell_angle_gamma   135.62243070
_symmetry_Int_Tables_number   1
_chemical_formula_structural   Dy3Si3Pd2
_chemical_formula_sum   'Dy6 Si6 Pd4'
_cell_volume   314.71095343
_cell_formula_units_Z   2
loop_
 _symmetry_equiv_pos_site_id
 _symmetry_equiv_pos_as_xyz
  1  'x, y, z'
loop_
 _atom_site_type_symbol
 _atom_site_label
 _atom_site_symmetry_multiplicity
 _atom_site_fract_x
 _atom_site_fract_y
 _atom_site_fract_z
 _atom_site_occupancy
  Dy  Dy0  1  0.412951  0.587049  0.389020  1
  Dy  Dy1  1  0.587049  0.412951  0.610980  1
  Dy  Dy2  1  0.865463  0.134537  0.750000  1
  Dy  Dy3  1  0.134537  0.865463  0.250000  1
  Dy  Dy4  1  0.412951  0.587049  0.110980  1
  Dy  Dy5  1  0.587049  0.412951  0.889020  1
  Si  Si6  1  0.838612  0.161388  0.250000  1
  Si  Si7  1  0.161388  0.838612  0.750000  1
  Si  Si8  1  0.894343  0.105657  0.539085  1
  Si  Si9  1  0.105657  0.894343  0.460915  1
  Si  Si10  1  0.105657  0.894343  0.039085  1
  Si  Si11  1  0.894343  0.105657  0.960915  1
  Pd  Pd12  1  0.295318  0.704682  0.594559  1
  Pd  Pd13  1  0.704682  0.295318  0.405441  1
  Pd  Pd14  1  0.704682  0.295318  0.094559  1
  Pd  Pd15  1  0.295318  0.704682  0.905441  1
