# generated using pymatgen
data_HoLu9(CoSb2)2
_symmetry_space_group_name_H-M   'P 1'
_cell_length_a   7.68823300
_cell_length_b   8.71411900
_cell_length_c   11.97847800
_cell_angle_alpha   90.00000000
_cell_angle_beta   90.00000000
_cell_angle_gamma   90.00000000
_symmetry_Int_Tables_number   1
_chemical_formula_structural   HoLu9(CoSb2)2
_chemical_formula_sum   'Ho2 Lu18 Co4 Sb8'
_cell_volume   802.51223541
_cell_formula_units_Z   2
loop_
 _symmetry_equiv_pos_site_id
 _symmetry_equiv_pos_as_xyz
  1  'x, y, z'
loop_
 _atom_site_type_symbol
 _atom_site_label
 _atom_site_symmetry_multiplicity
 _atom_site_fract_x
 _atom_site_fract_y
 _atom_site_fract_z
 _atom_site_occupancy
  Ho  Ho0  1  0.377083  0.250000  0.691708  1
  Ho  Ho1  1  0.877083  0.750000  0.808292  1
  Lu  Lu2  1  0.156512  0.750000  0.204236  1
  Lu  Lu3  1  0.656512  0.250000  0.295764  1
  Lu  Lu4  1  0.843625  0.250000  0.795473  1
  Lu  Lu5  1  0.343625  0.750000  0.704527  1
  Lu  Lu6  1  0.447487  0.750000  0.998131  1
  Lu  Lu7  1  0.947487  0.250000  0.501869  1
  Lu  Lu8  1  0.552035  0.250000  0.002408  1
  Lu  Lu9  1  0.052035  0.750000  0.497592  1
  Lu  Lu10  1  0.622024  0.750000  0.308970  1
  Lu  Lu11  1  0.122024  0.250000  0.191030  1
  Lu  Lu12  1  0.824550  0.962954  0.066561  1
  Lu  Lu13  1  0.324550  0.037046  0.433439  1
  Lu  Lu14  1  0.175928  0.461535  0.935108  1
  Lu  Lu15  1  0.675928  0.538465  0.564892  1
  Lu  Lu16  1  0.175928  0.038465  0.935108  1
  Lu  Lu17  1  0.675928  0.961535  0.564892  1
  Lu  Lu18  1  0.824550  0.537046  0.066561  1
  Lu  Lu19  1  0.324550  0.462954  0.433439  1
  Co  Co20  1  0.432402  0.750000  0.490895  1
  Co  Co21  1  0.932402  0.250000  0.009105  1
  Co  Co22  1  0.568390  0.250000  0.508066  1
  Co  Co23  1  0.068390  0.750000  0.991934  1
  Sb  Sb24  1  0.932021  0.991768  0.327915  1
  Sb  Sb25  1  0.432021  0.008232  0.172085  1
  Sb  Sb26  1  0.067722  0.491668  0.671607  1
  Sb  Sb27  1  0.567722  0.508332  0.828393  1
  Sb  Sb28  1  0.067722  0.008332  0.671607  1
  Sb  Sb29  1  0.567722  0.991668  0.828393  1
  Sb  Sb30  1  0.932021  0.508232  0.327915  1
  Sb  Sb31  1  0.432021  0.491768  0.172085  1
