# generated using pymatgen
data_TbDyMn2Fe10P7
_symmetry_space_group_name_H-M   'P 1'
_cell_length_a   9.00443749
_cell_length_b   9.00988371
_cell_length_c   3.63426400
_cell_angle_alpha   90.00000000
_cell_angle_beta   90.00000000
_cell_angle_gamma   119.94472835
_symmetry_Int_Tables_number   1
_chemical_formula_structural   TbDyMn2Fe10P7
_chemical_formula_sum   'Tb1 Dy1 Mn2 Fe10 P7'
_cell_volume   255.48446030
_cell_formula_units_Z   1
loop_
 _symmetry_equiv_pos_site_id
 _symmetry_equiv_pos_as_xyz
  1  'x, y, z'
loop_
 _atom_site_type_symbol
 _atom_site_label
 _atom_site_symmetry_multiplicity
 _atom_site_fract_x
 _atom_site_fract_y
 _atom_site_fract_z
 _atom_site_occupancy
  Tb  Tb0  1  0.331974  0.666330  0.500000  1
  Dy  Dy1  1  0.669010  0.334587  0.000000  1
  Mn  Mn2  1  0.781772  0.894738  0.500000  1
  Mn  Mn3  1  0.117243  0.217279  0.500000  1
  Fe  Fe4  1  0.056680  0.633665  0.000000  1
  Fe  Fe5  1  0.574795  0.943906  0.000000  1
  Fe  Fe6  1  0.368069  0.423977  0.000000  1
  Fe  Fe7  1  0.273429  0.119572  0.000000  1
  Fe  Fe8  1  0.845641  0.726330  0.000000  1
  Fe  Fe9  1  0.880178  0.152219  0.000000  1
  Fe  Fe10  1  0.433641  0.049901  0.500000  1
  Fe  Fe11  1  0.616483  0.565564  0.500000  1
  Fe  Fe12  1  0.950009  0.384909  0.500000  1
  Fe  Fe13  1  0.097008  0.884289  0.500000  1
  P  P14  1  0.299992  0.889866  0.000000  1
  P  P15  1  0.586220  0.696583  0.000000  1
  P  P16  1  0.108982  0.412736  0.000000  1
  P  P17  1  0.407978  0.290250  0.500000  1
  P  P18  1  0.890437  0.601192  0.500000  1
  P  P19  1  0.709757  0.114670  0.500000  1
  P  P20  1  0.000704  0.997437  0.000000  1
