# generated using pymatgen
data_YHoLu2(B6Rh)2
_symmetry_space_group_name_H-M   'P 1'
_cell_length_a   3.62199800
_cell_length_b   9.11002100
_cell_length_c   11.45486900
_cell_angle_alpha   89.99939300
_cell_angle_beta   90.00000000
_cell_angle_gamma   90.00000000
_symmetry_Int_Tables_number   1
_chemical_formula_structural   YHoLu2(B6Rh)2
_chemical_formula_sum   'Y2 Ho2 Lu4 B24 Rh4'
_cell_volume   377.97033113
_cell_formula_units_Z   2
loop_
 _symmetry_equiv_pos_site_id
 _symmetry_equiv_pos_as_xyz
  1  'x, y, z'
loop_
 _atom_site_type_symbol
 _atom_site_label
 _atom_site_symmetry_multiplicity
 _atom_site_fract_x
 _atom_site_fract_y
 _atom_site_fract_z
 _atom_site_occupancy
  Y  Y0  1  0.500000  0.321577  0.413813  1
  Y  Y1  1  0.500000  0.678423  0.586187  1
  Ho  Ho2  1  0.500000  0.178464  0.913863  1
  Ho  Ho3  1  0.500000  0.821536  0.086137  1
  Lu  Lu4  1  0.500000  0.444425  0.126754  1
  Lu  Lu5  1  0.500000  0.555575  0.873246  1
  Lu  Lu6  1  0.500000  0.055617  0.627014  1
  Lu  Lu7  1  0.500000  0.944383  0.372986  1
  B  B8  1  0.000000  0.105708  0.471470  1
  B  B9  1  0.000000  0.894292  0.528530  1
  B  B10  1  0.000000  0.393687  0.971311  1
  B  B11  1  0.000000  0.606313  0.028689  1
  B  B12  1  0.000000  0.132001  0.316644  1
  B  B13  1  0.000000  0.867999  0.683356  1
  B  B14  1  0.000000  0.367647  0.817043  1
  B  B15  1  0.000000  0.632353  0.182957  1
  B  B16  1  0.000000  0.054334  0.065419  1
  B  B17  1  0.000000  0.945666  0.934581  1
  B  B18  1  0.000000  0.445529  0.565756  1
  B  B19  1  0.000000  0.554471  0.434244  1
  B  B20  1  0.000000  0.482929  0.285809  1
  B  B21  1  0.000000  0.517071  0.714191  1
  B  B22  1  0.000000  0.017378  0.786235  1
  B  B23  1  0.000000  0.982622  0.213765  1
  B  B24  1  0.000000  0.250980  0.079752  1
  B  B25  1  0.000000  0.749020  0.920248  1
  B  B26  1  0.000000  0.248802  0.580217  1
  B  B27  1  0.000000  0.751198  0.419783  1
  B  B28  1  0.000000  0.294860  0.235562  1
  B  B29  1  0.000000  0.705140  0.764438  1
  B  B30  1  0.000000  0.204937  0.736131  1
  B  B31  1  0.000000  0.795063  0.263869  1
  Rh  Rh32  1  0.500000  0.140078  0.179499  1
  Rh  Rh33  1  0.500000  0.859922  0.820501  1
  Rh  Rh34  1  0.500000  0.359271  0.680351  1
  Rh  Rh35  1  0.500000  0.640729  0.319649  1
