# generated using pymatgen
data_CaLa5DyIrBr12
_symmetry_space_group_name_H-M   'P 1'
_cell_length_a   9.77989714
_cell_length_b   9.68175841
_cell_length_c   9.55350801
_cell_angle_alpha   107.03830873
_cell_angle_beta   107.66860570
_cell_angle_gamma   106.49267143
_symmetry_Int_Tables_number   1
_chemical_formula_structural   CaLa5DyIrBr12
_chemical_formula_sum   'Ca1 La5 Dy1 Ir1 Br12'
_cell_volume   751.91780889
_cell_formula_units_Z   1
loop_
 _symmetry_equiv_pos_site_id
 _symmetry_equiv_pos_as_xyz
  1  'x, y, z'
loop_
 _atom_site_type_symbol
 _atom_site_label
 _atom_site_symmetry_multiplicity
 _atom_site_fract_x
 _atom_site_fract_y
 _atom_site_fract_z
 _atom_site_occupancy
  Ca  Ca0  1  0.499001  0.501114  0.496973  1
  La  La1  1  0.319768  0.022313  0.112354  1
  La  La2  1  0.027479  0.109911  0.311690  1
  La  La3  1  0.974644  0.897031  0.691593  1
  La  La4  1  0.680582  0.976258  0.888592  1
  La  La5  1  0.890054  0.675586  0.974707  1
  Dy  Dy6  1  0.107278  0.309743  0.026897  1
  Ir  Ir7  1  0.000744  0.000256  0.002089  1
  Br  Br8  1  0.214611  0.670644  0.069586  1
  Br  Br9  1  0.444580  0.377778  0.159573  1
  Br  Br10  1  0.684513  0.074670  0.220809  1
  Br  Br11  1  0.928819  0.784138  0.320912  1
  Br  Br12  1  0.168881  0.461191  0.367470  1
  Br  Br13  1  0.382203  0.173426  0.465381  1
  Br  Br14  1  0.618818  0.830301  0.535518  1
  Br  Br15  1  0.827399  0.539595  0.616441  1
  Br  Br16  1  0.075782  0.228760  0.697047  1
  Br  Br17  1  0.315782  0.926631  0.780340  1
  Br  Br18  1  0.540985  0.621327  0.830389  1
  Br  Br19  1  0.798084  0.319328  0.931645  1
