# generated using pymatgen
data_Sm10PPb6Cl
_symmetry_space_group_name_H-M   'P 1'
_cell_length_a   9.36795300
_cell_length_b   9.36795337
_cell_length_c   6.87259700
_cell_angle_alpha   90.00000000
_cell_angle_beta   90.00000000
_cell_angle_gamma   119.99999515
_symmetry_Int_Tables_number   1
_chemical_formula_structural   Sm10PPb6Cl
_chemical_formula_sum   'Sm10 P1 Pb6 Cl1'
_cell_volume   522.32517063
_cell_formula_units_Z   1
loop_
 _symmetry_equiv_pos_site_id
 _symmetry_equiv_pos_as_xyz
  1  'x, y, z'
loop_
 _atom_site_type_symbol
 _atom_site_label
 _atom_site_symmetry_multiplicity
 _atom_site_fract_x
 _atom_site_fract_y
 _atom_site_fract_z
 _atom_site_occupancy
  Sm  Sm0  1  0.246321  0.246321  0.760531  1
  Sm  Sm1  1  0.000000  0.753679  0.760531  1
  Sm  Sm2  1  0.246321  0.000000  0.239469  1
  Sm  Sm3  1  0.753679  0.000000  0.760531  1
  Sm  Sm4  1  0.333333  0.666667  0.500000  1
  Sm  Sm5  1  0.666667  0.333333  0.500000  1
  Sm  Sm6  1  0.753679  0.753679  0.239469  1
  Sm  Sm7  1  0.000000  0.246321  0.239469  1
  Sm  Sm8  1  0.333333  0.666667  0.000000  1
  Sm  Sm9  1  0.666667  0.333333  0.000000  1
  P  P10  1  0.000000  0.000000  0.000000  1
  Pb  Pb11  1  0.604577  0.000000  0.249961  1
  Pb  Pb12  1  0.000000  0.604577  0.249961  1
  Pb  Pb13  1  0.604577  0.604577  0.750039  1
  Pb  Pb14  1  0.395423  0.395423  0.249961  1
  Pb  Pb15  1  0.000000  0.395423  0.750039  1
  Pb  Pb16  1  0.395423  0.000000  0.750039  1
  Cl  Cl17  1  0.000000  0.000000  0.500000  1
