# generated using pymatgen
data_Mg3Se2(BrO3)2
_symmetry_space_group_name_H-M   'P 1'
_cell_length_a   6.38475974
_cell_length_b   8.36586628
_cell_length_c   8.69484409
_cell_angle_alpha   93.76068386
_cell_angle_beta   96.34180354
_cell_angle_gamma   96.34518542
_symmetry_Int_Tables_number   1
_chemical_formula_structural   Mg3Se2(BrO3)2
_chemical_formula_sum   'Mg6 Se4 Br4 O12'
_cell_volume   457.33216044
_cell_formula_units_Z   2
loop_
 _symmetry_equiv_pos_site_id
 _symmetry_equiv_pos_as_xyz
  1  'x, y, z'
loop_
 _atom_site_type_symbol
 _atom_site_label
 _atom_site_symmetry_multiplicity
 _atom_site_fract_x
 _atom_site_fract_y
 _atom_site_fract_z
 _atom_site_occupancy
  Mg  Mg0  1  0.620928  0.852480  0.948826  1
  Mg  Mg1  1  0.867311  0.580028  0.107646  1
  Mg  Mg2  1  0.379072  0.147520  0.051174  1
  Mg  Mg3  1  0.682647  0.412029  0.423847  1
  Mg  Mg4  1  0.132689  0.419972  0.892354  1
  Mg  Mg5  1  0.317353  0.587971  0.576153  1
  Se  Se6  1  0.100242  0.820585  0.833576  1
  Se  Se7  1  0.899758  0.179415  0.166424  1
  Se  Se8  1  0.379582  0.680960  0.220060  1
  Se  Se9  1  0.620418  0.319040  0.779940  1
  Br  Br10  1  0.020469  0.296796  0.581850  1
  Br  Br11  1  0.979531  0.703204  0.418150  1
  Br  Br12  1  0.571874  0.865626  0.652766  1
  Br  Br13  1  0.428126  0.134374  0.347234  1
  O  O14  1  0.314876  0.910690  0.964925  1
  O  O15  1  0.548899  0.443763  0.635751  1
  O  O16  1  0.184564  0.555168  0.104016  1
  O  O17  1  0.685124  0.089310  0.035075  1
  O  O18  1  0.810764  0.364232  0.213505  1
  O  O19  1  0.080295  0.218768  0.035202  1
  O  O20  1  0.451101  0.556237  0.364249  1
  O  O21  1  0.589873  0.679757  0.107393  1
  O  O22  1  0.815436  0.444832  0.895984  1
  O  O23  1  0.189236  0.635768  0.786495  1
  O  O24  1  0.410127  0.320243  0.892607  1
  O  O25  1  0.919705  0.781232  0.964798  1
