# generated using pymatgen
data_Lu3Al12(CoOs)2
_symmetry_space_group_name_H-M   'P 1'
_cell_length_a   8.68797463
_cell_length_b   8.68797407
_cell_length_c   9.35542071
_cell_angle_alpha   90.37925586
_cell_angle_beta   89.62074518
_cell_angle_gamma   120.29244683
_symmetry_Int_Tables_number   1
_chemical_formula_structural   Lu3Al12(CoOs)2
_chemical_formula_sum   'Lu6 Al24 Co4 Os4'
_cell_volume   609.72077173
_cell_formula_units_Z   2
loop_
 _symmetry_equiv_pos_site_id
 _symmetry_equiv_pos_as_xyz
  1  'x, y, z'
loop_
 _atom_site_type_symbol
 _atom_site_label
 _atom_site_symmetry_multiplicity
 _atom_site_fract_x
 _atom_site_fract_y
 _atom_site_fract_z
 _atom_site_occupancy
  Lu  Lu0  1  0.200767  0.392213  0.248430  1
  Lu  Lu1  1  0.799233  0.607787  0.751570  1
  Lu  Lu2  1  0.607787  0.799233  0.248430  1
  Lu  Lu3  1  0.392213  0.200767  0.751570  1
  Lu  Lu4  1  0.195342  0.804658  0.252156  1
  Lu  Lu5  1  0.804658  0.195342  0.747844  1
  Al  Al6  1  0.329835  0.670165  0.019427  1
  Al  Al7  1  0.670165  0.329835  0.980573  1
  Al  Al8  1  0.666698  0.333302  0.516239  1
  Al  Al9  1  0.333302  0.666698  0.483761  1
  Al  Al10  1  0.158471  0.319186  0.576556  1
  Al  Al11  1  0.841529  0.680814  0.423444  1
  Al  Al12  1  0.680814  0.841529  0.576556  1
  Al  Al13  1  0.841255  0.676767  0.075020  1
  Al  Al14  1  0.319186  0.158471  0.423444  1
  Al  Al15  1  0.158745  0.323233  0.924980  1
  Al  Al16  1  0.159164  0.840836  0.579119  1
  Al  Al17  1  0.323233  0.158745  0.075020  1
  Al  Al18  1  0.840836  0.159164  0.420881  1
  Al  Al19  1  0.676767  0.841255  0.924980  1
  Al  Al20  1  0.839448  0.160552  0.074105  1
  Al  Al21  1  0.160552  0.839448  0.925895  1
  Al  Al22  1  0.560479  0.117457  0.242572  1
  Al  Al23  1  0.439521  0.882543  0.757428  1
  Al  Al24  1  0.882543  0.439521  0.242572  1
  Al  Al25  1  0.117457  0.560479  0.757428  1
  Al  Al26  1  0.563872  0.436128  0.247919  1
  Al  Al27  1  0.436128  0.563872  0.752081  1
  Al  Al28  1  0.000755  0.999245  0.249991  1
  Al  Al29  1  0.999245  0.000755  0.750009  1
  Co  Co30  1  0.500000  0.000000  0.000000  1
  Co  Co31  1  0.000000  0.500000  0.000000  1
  Co  Co32  1  0.000000  0.000000  0.000000  1
  Co  Co33  1  0.000000  0.000000  0.500000  1
  Os  Os34  1  0.500000  0.000000  0.500000  1
  Os  Os35  1  0.500000  0.500000  0.000000  1
  Os  Os36  1  0.000000  0.500000  0.500000  1
  Os  Os37  1  0.500000  0.500000  0.500000  1
