# generated using pymatgen
data_Ho5Er3Ti11Si16Ru
_symmetry_space_group_name_H-M   'P 1'
_cell_length_a   7.00653141
_cell_length_b   7.00668338
_cell_length_c   12.85107745
_cell_angle_alpha   90.00098506
_cell_angle_beta   89.99002417
_cell_angle_gamma   89.89569099
_symmetry_Int_Tables_number   1
_chemical_formula_structural   Ho5Er3Ti11Si16Ru
_chemical_formula_sum   'Ho5 Er3 Ti11 Si16 Ru1'
_cell_volume   630.89107097
_cell_formula_units_Z   1
loop_
 _symmetry_equiv_pos_site_id
 _symmetry_equiv_pos_as_xyz
  1  'x, y, z'
loop_
 _atom_site_type_symbol
 _atom_site_label
 _atom_site_symmetry_multiplicity
 _atom_site_fract_x
 _atom_site_fract_y
 _atom_site_fract_z
 _atom_site_occupancy
  Ho  Ho0  1  0.841081  0.496705  0.282051  1
  Ho  Ho1  1  0.159250  0.500361  0.784776  1
  Ho  Ho2  1  0.658061  0.998407  0.968102  1
  Ho  Ho3  1  0.003971  0.340586  0.532570  1
  Ho  Ho4  1  0.998387  0.658131  0.031937  1
  Er  Er5  1  0.340919  0.003653  0.467261  1
  Er  Er6  1  0.496836  0.841348  0.717831  1
  Er  Er7  1  0.499976  0.158851  0.215329  1
  Ti  Ti8  1  0.174998  0.827750  0.248735  1
  Ti  Ti9  1  0.827418  0.174786  0.751264  1
  Ti  Ti10  1  0.673659  0.674058  0.500021  1
  Ti  Ti11  1  0.150473  0.003618  0.875296  1
  Ti  Ti12  1  0.492973  0.655148  0.125462  1
  Ti  Ti13  1  0.506588  0.349273  0.627574  1
  Ti  Ti14  1  0.655088  0.492904  0.874553  1
  Ti  Ti15  1  0.349324  0.506753  0.372344  1
  Ti  Ti16  1  0.848719  0.994167  0.375165  1
  Ti  Ti17  1  0.003815  0.150319  0.124689  1
  Ti  Ti18  1  0.994162  0.848815  0.624787  1
  Si  Si19  1  0.203196  0.131699  0.684673  1
  Si  Si20  1  0.372210  0.700683  0.933655  1
  Si  Si21  1  0.631138  0.295859  0.433959  1
  Si  Si22  1  0.700348  0.371851  0.066374  1
  Si  Si23  1  0.296491  0.631941  0.566048  1
  Si  Si24  1  0.796364  0.868837  0.183891  1
  Si  Si25  1  0.132478  0.202534  0.315288  1
  Si  Si26  1  0.868232  0.796580  0.816055  1
  Si  Si27  1  0.287845  0.953677  0.064683  1
  Si  Si28  1  0.546692  0.792747  0.315638  1
  Si  Si29  1  0.449756  0.209040  0.817522  1
  Si  Si30  1  0.792009  0.547176  0.684407  1
  Si  Si31  1  0.209597  0.449422  0.182412  1
  Si  Si32  1  0.707675  0.047634  0.565537  1
  Si  Si33  1  0.953358  0.287657  0.935466  1
  Si  Si34  1  0.048129  0.708459  0.434468  1
  Ru  Ru35  1  0.328784  0.328570  0.000180  1
