# generated using pymatgen
data_Yb3YAl18(PdRh)3
_symmetry_space_group_name_H-M   'P 1'
_cell_length_a   7.60752704
_cell_length_b   7.60978847
_cell_length_c   9.51924609
_cell_angle_alpha   89.98930694
_cell_angle_beta   89.98020439
_cell_angle_gamma   119.47504622
_symmetry_Int_Tables_number   1
_chemical_formula_structural   Yb3YAl18(PdRh)3
_chemical_formula_sum   'Yb3 Y1 Al18 Pd3 Rh3'
_cell_volume   479.75810123
_cell_formula_units_Z   1
loop_
 _symmetry_equiv_pos_site_id
 _symmetry_equiv_pos_as_xyz
  1  'x, y, z'
loop_
 _atom_site_type_symbol
 _atom_site_label
 _atom_site_symmetry_multiplicity
 _atom_site_fract_x
 _atom_site_fract_y
 _atom_site_fract_z
 _atom_site_occupancy
  Yb  Yb0  1  0.005620  0.329505  0.249685  1
  Yb  Yb1  1  0.669346  0.995221  0.750334  1
  Yb  Yb2  1  0.330383  0.005169  0.249242  1
  Y  Y3  1  0.998011  0.670355  0.750580  1
  Al  Al4  1  0.126562  0.125692  0.750475  1
  Al  Al5  1  0.872564  0.873821  0.249423  1
  Al  Al6  1  0.000675  0.330880  0.575658  1
  Al  Al7  1  0.998019  0.668840  0.422872  1
  Al  Al8  1  0.995761  0.664857  0.075401  1
  Al  Al9  1  0.335827  0.004508  0.925400  1
  Al  Al10  1  0.996087  0.330241  0.925755  1
  Al  Al11  1  0.669279  0.003975  0.073747  1
  Al  Al12  1  0.668619  0.998759  0.425153  1
  Al  Al13  1  0.331903  0.002275  0.576327  1
  Al  Al14  1  0.332129  0.329046  0.048738  1
  Al  Al15  1  0.670473  0.667788  0.950581  1
  Al  Al16  1  0.669465  0.669615  0.552949  1
  Al  Al17  1  0.330150  0.330253  0.447998  1
  Al  Al18  1  0.337385  0.542734  0.750444  1
  Al  Al19  1  0.659698  0.452879  0.246901  1
  Al  Al20  1  0.548396  0.342101  0.752938  1
  Al  Al21  1  0.456119  0.661134  0.249537  1
  Pd  Pd22  1  0.671938  0.329262  0.500587  1
  Pd  Pd23  1  0.327213  0.671638  0.500871  1
  Pd  Pd24  1  0.327415  0.671547  0.999115  1
  Rh  Rh25  1  0.671822  0.329763  0.999403  1
  Rh  Rh26  1  0.999416  0.999210  0.500866  1
  Rh  Rh27  1  0.999727  0.998929  0.999019  1
