# generated using pymatgen
data_Pr4SnGe4Rh9
_symmetry_space_group_name_H-M   'P 1'
_cell_length_a   12.38808179
_cell_length_b   12.38808195
_cell_length_c   12.38808330
_cell_angle_alpha   26.58700056
_cell_angle_beta   26.58699962
_cell_angle_gamma   26.58700334
_symmetry_Int_Tables_number   1
_chemical_formula_structural   Pr4SnGe4Rh9
_chemical_formula_sum   'Pr4 Sn1 Ge4 Rh9'
_cell_volume   335.70286069
_cell_formula_units_Z   1
loop_
 _symmetry_equiv_pos_site_id
 _symmetry_equiv_pos_as_xyz
  1  'x, y, z'
loop_
 _atom_site_type_symbol
 _atom_site_label
 _atom_site_symmetry_multiplicity
 _atom_site_fract_x
 _atom_site_fract_y
 _atom_site_fract_z
 _atom_site_occupancy
  Pr  Pr0  1  0.949598  0.949598  0.949598  1
  Pr  Pr1  1  0.853683  0.853683  0.853683  1
  Pr  Pr2  1  0.146317  0.146317  0.146317  1
  Pr  Pr3  1  0.050402  0.050402  0.050402  1
  Sn  Sn4  1  0.500000  0.500000  0.500000  1
  Ge  Ge5  1  0.279664  0.279664  0.279664  1
  Ge  Ge6  1  0.387332  0.387332  0.387332  1
  Ge  Ge7  1  0.720336  0.720336  0.720336  1
  Ge  Ge8  1  0.612668  0.612668  0.612668  1
  Rh  Rh9  1  0.608682  0.608682  0.101143  1
  Rh  Rh10  1  0.898857  0.391318  0.391318  1
  Rh  Rh11  1  0.500000  0.000000  0.500000  1
  Rh  Rh12  1  0.391318  0.898857  0.391318  1
  Rh  Rh13  1  0.500000  0.500000  0.000000  1
  Rh  Rh14  1  0.101143  0.608682  0.608682  1
  Rh  Rh15  1  0.000000  0.500000  0.500000  1
  Rh  Rh16  1  0.391318  0.391318  0.898857  1
  Rh  Rh17  1  0.608682  0.101143  0.608682  1
