# generated using pymatgen
data_Sr6LiEr(CoO6)2
_symmetry_space_group_name_H-M   'P 1'
_cell_length_a   6.68845072
_cell_length_b   6.69996091
_cell_length_c   6.69619421
_cell_angle_alpha   92.35775350
_cell_angle_beta   92.27787717
_cell_angle_gamma   92.39174902
_symmetry_Int_Tables_number   1
_chemical_formula_structural   Sr6LiEr(CoO6)2
_chemical_formula_sum   'Sr6 Li1 Er1 Co2 O12'
_cell_volume   299.29854549
_cell_formula_units_Z   1
loop_
 _symmetry_equiv_pos_site_id
 _symmetry_equiv_pos_as_xyz
  1  'x, y, z'
loop_
 _atom_site_type_symbol
 _atom_site_label
 _atom_site_symmetry_multiplicity
 _atom_site_fract_x
 _atom_site_fract_y
 _atom_site_fract_z
 _atom_site_occupancy
  Sr  Sr0  1  0.879752  0.249255  0.620427  1
  Sr  Sr1  1  0.249996  0.621550  0.878699  1
  Sr  Sr2  1  0.620600  0.878986  0.250624  1
  Sr  Sr3  1  0.750132  0.393710  0.106565  1
  Sr  Sr4  1  0.393778  0.106148  0.749673  1
  Sr  Sr5  1  0.106425  0.750287  0.393352  1
  Li  Li6  1  0.749276  0.749382  0.751120  1
  Er  Er7  1  0.250421  0.250211  0.249542  1
  Co  Co8  1  0.995105  0.995913  0.995078  1
  Co  Co9  1  0.505373  0.503944  0.504511  1
  O  O10  1  0.219322  0.413301  0.543752  1
  O  O11  1  0.413672  0.544136  0.218997  1
  O  O12  1  0.543871  0.218783  0.412157  1
  O  O13  1  0.918338  0.727755  0.047407  1
  O  O14  1  0.728392  0.046484  0.919049  1
  O  O15  1  0.046059  0.919091  0.728641  1
  O  O16  1  0.771333  0.580560  0.453539  1
  O  O17  1  0.581301  0.453666  0.771304  1
  O  O18  1  0.452929  0.772556  0.581620  1
  O  O19  1  0.087323  0.281091  0.956250  1
  O  O20  1  0.280601  0.956220  0.086534  1
  O  O21  1  0.955999  0.086970  0.281157  1
