# generated using pymatgen
data_Y4B16Ru15Rh
_symmetry_space_group_name_H-M   'P 1'
_cell_length_a   7.49071713
_cell_length_b   7.50188314
_cell_length_c   9.20713704
_cell_angle_alpha   114.12879245
_cell_angle_beta   113.88136872
_cell_angle_gamma   89.94206444
_symmetry_Int_Tables_number   1
_chemical_formula_structural   Y4B16Ru15Rh
_chemical_formula_sum   'Y4 B16 Ru15 Rh1'
_cell_volume   423.28923279
_cell_formula_units_Z   1
loop_
 _symmetry_equiv_pos_site_id
 _symmetry_equiv_pos_as_xyz
  1  'x, y, z'
loop_
 _atom_site_type_symbol
 _atom_site_label
 _atom_site_symmetry_multiplicity
 _atom_site_fract_x
 _atom_site_fract_y
 _atom_site_fract_z
 _atom_site_occupancy
  Y  Y0  1  0.501824  0.000994  0.000312  1
  Y  Y1  1  0.999082  0.498243  0.999409  1
  Y  Y2  1  0.250279  0.251172  0.500492  1
  Y  Y3  1  0.749373  0.749183  0.498248  1
  B  B4  1  0.254249  0.219003  0.162362  1
  B  B5  1  0.747761  0.441956  0.163586  1
  B  B6  1  0.413528  0.723180  0.163437  1
  B  B7  1  0.913659  0.934557  0.163087  1
  B  B8  1  0.836075  0.027181  0.336813  1
  B  B9  1  0.501550  0.310484  0.338174  1
  B  B10  1  0.999889  0.530187  0.337928  1
  B  B11  1  0.337103  0.808620  0.337339  1
  B  B12  1  0.690815  0.165289  0.663403  1
  B  B13  1  0.973104  0.498857  0.662600  1
  B  B14  1  0.471458  0.663893  0.663544  1
  B  B15  1  0.190756  0.000326  0.664219  1
  B  B16  1  0.776651  0.082019  0.832058  1
  B  B17  1  0.276381  0.251136  0.836951  1
  B  B18  1  0.558017  0.586570  0.836511  1
  B  B19  1  0.058039  0.750442  0.836480  1
  Ru  Ru20  1  0.445378  0.413549  0.122799  1
  Ru  Ru21  1  0.676519  0.709186  0.122988  1
  Ru  Ru22  1  0.176287  0.913030  0.123644  1
  Ru  Ru23  1  0.572695  0.041192  0.376445  1
  Ru  Ru24  1  0.803642  0.336109  0.375800  1
  Ru  Ru25  1  0.304466  0.540693  0.377136  1
  Ru  Ru26  1  0.073365  0.836744  0.376790  1
  Ru  Ru27  1  0.959930  0.196310  0.623448  1
  Ru  Ru28  1  0.664589  0.428883  0.624397  1
  Ru  Ru29  1  0.163637  0.697310  0.623956  1
  Ru  Ru30  1  0.459947  0.926701  0.623777  1
  Ru  Ru31  1  0.086227  0.053048  0.877729  1
  Ru  Ru32  1  0.584245  0.322856  0.874133  1
  Ru  Ru33  1  0.290186  0.554288  0.877050  1
  Ru  Ru34  1  0.790991  0.824271  0.877830  1
  Rh  Rh35  1  0.948300  0.212539  0.125128  1
