# generated using pymatgen
data_ErLuPt2F14
_symmetry_space_group_name_H-M   'P 1'
_cell_length_a   5.49724867
_cell_length_b   8.77394883
_cell_length_c   11.88122965
_cell_angle_alpha   62.67556104
_cell_angle_beta   89.90355826
_cell_angle_gamma   90.00871098
_symmetry_Int_Tables_number   1
_chemical_formula_structural   ErLuPt2F14
_chemical_formula_sum   'Er2 Lu2 Pt4 F28'
_cell_volume   509.11991956
_cell_formula_units_Z   2
loop_
 _symmetry_equiv_pos_site_id
 _symmetry_equiv_pos_as_xyz
  1  'x, y, z'
loop_
 _atom_site_type_symbol
 _atom_site_label
 _atom_site_symmetry_multiplicity
 _atom_site_fract_x
 _atom_site_fract_y
 _atom_site_fract_z
 _atom_site_occupancy
  Er  Er0  1  0.260794  0.815775  0.264274  1
  Er  Er1  1  0.739206  0.184225  0.735726  1
  Lu  Lu2  1  0.761797  0.185761  0.235855  1
  Lu  Lu3  1  0.238203  0.814239  0.764145  1
  Pt  Pt4  1  0.759594  0.726503  0.042634  1
  Pt  Pt5  1  0.240406  0.273497  0.957366  1
  Pt  Pt6  1  0.259652  0.270796  0.456050  1
  Pt  Pt7  1  0.740348  0.729204  0.543950  1
  F  F8  1  0.938415  0.703238  0.416074  1
  F  F9  1  0.061585  0.296762  0.583926  1
  F  F10  1  0.438626  0.298715  0.085470  1
  F  F11  1  0.561374  0.701285  0.914530  1
  F  F12  1  0.465115  0.724502  0.137219  1
  F  F13  1  0.534885  0.275498  0.862781  1
  F  F14  1  0.965667  0.274283  0.360837  1
  F  F15  1  0.034333  0.725717  0.639163  1
  F  F16  1  0.949897  0.745588  0.176056  1
  F  F17  1  0.050103  0.254412  0.823944  1
  F  F18  1  0.453010  0.251790  0.322918  1
  F  F19  1  0.546990  0.748210  0.677082  1
  F  F20  1  0.775743  0.474787  0.142991  1
  F  F21  1  0.224257  0.525213  0.857009  1
  F  F22  1  0.275657  0.522607  0.357088  1
  F  F23  1  0.724343  0.477393  0.642912  1
  F  F24  1  0.936470  0.277521  0.045084  1
  F  F25  1  0.063530  0.722479  0.954916  1
  F  F26  1  0.438044  0.723559  0.456702  1
  F  F27  1  0.561956  0.276441  0.543298  1
  F  F28  1  0.745397  0.980590  0.448834  1
  F  F29  1  0.254603  0.019410  0.551166  1
  F  F30  1  0.245693  0.022184  0.051272  1
  F  F31  1  0.754307  0.977816  0.948728  1
  F  F32  1  0.584043  0.974317  0.232871  1
  F  F33  1  0.415957  0.025683  0.767129  1
  F  F34  1  0.078990  0.031497  0.266906  1
  F  F35  1  0.921010  0.968503  0.733094  1
