# generated using pymatgen
data_Ho2Tm10Co4BiRu
_symmetry_space_group_name_H-M   'P 1'
_cell_length_a   8.21882037
_cell_length_b   8.21947697
_cell_length_c   8.20582407
_cell_angle_alpha   110.76879135
_cell_angle_beta   111.15013850
_cell_angle_gamma   106.60606737
_symmetry_Int_Tables_number   1
_chemical_formula_structural   Ho2Tm10Co4BiRu
_chemical_formula_sum   'Ho2 Tm10 Co4 Bi1 Ru1'
_cell_volume   425.53230649
_cell_formula_units_Z   1
loop_
 _symmetry_equiv_pos_site_id
 _symmetry_equiv_pos_as_xyz
  1  'x, y, z'
loop_
 _atom_site_type_symbol
 _atom_site_label
 _atom_site_symmetry_multiplicity
 _atom_site_fract_x
 _atom_site_fract_y
 _atom_site_fract_z
 _atom_site_occupancy
  Ho  Ho0  1  0.282508  0.182220  0.464730  1
  Ho  Ho1  1  0.717492  0.817780  0.535270  1
  Tm  Tm2  1  0.282037  0.817002  0.099070  1
  Tm  Tm3  1  0.717963  0.182998  0.900930  1
  Tm  Tm4  1  0.620782  0.310874  0.308810  1
  Tm  Tm5  1  0.379218  0.689126  0.691190  1
  Tm  Tm6  1  0.002097  0.311908  0.691267  1
  Tm  Tm7  1  0.997903  0.688092  0.308733  1
  Tm  Tm8  1  0.213705  0.410704  0.195716  1
  Tm  Tm9  1  0.786295  0.589296  0.804284  1
  Tm  Tm10  1  0.214902  0.017975  0.804216  1
  Tm  Tm11  1  0.785098  0.982025  0.195784  1
  Co  Co12  1  0.000085  0.374308  0.374420  1
  Co  Co13  1  0.999915  0.625692  0.625580  1
  Co  Co14  1  0.388444  0.888485  0.500021  1
  Co  Co15  1  0.611556  0.111515  0.499979  1
  Bi  Bi16  1  0.500000  0.500000  0.000000  1
  Ru  Ru17  1  0.000000  0.000000  0.000000  1
