# generated using pymatgen
data_TbYEr2(B6Ru)2
_symmetry_space_group_name_H-M   'P 1'
_cell_length_a   3.64945200
_cell_length_b   9.12186901
_cell_length_c   11.50455202
_cell_angle_alpha   90.00628312
_cell_angle_beta   90.00000000
_cell_angle_gamma   90.00000000
_symmetry_Int_Tables_number   1
_chemical_formula_structural   TbYEr2(B6Ru)2
_chemical_formula_sum   'Tb2 Y2 Er4 B24 Ru4'
_cell_volume   382.98449938
_cell_formula_units_Z   2
loop_
 _symmetry_equiv_pos_site_id
 _symmetry_equiv_pos_as_xyz
  1  'x, y, z'
loop_
 _atom_site_type_symbol
 _atom_site_label
 _atom_site_symmetry_multiplicity
 _atom_site_fract_x
 _atom_site_fract_y
 _atom_site_fract_z
 _atom_site_occupancy
  Tb  Tb0  1  0.000000  0.322099  0.414178  1
  Tb  Tb1  1  0.000000  0.677901  0.585822  1
  Y  Y2  1  0.000000  0.821827  0.085694  1
  Y  Y3  1  0.000000  0.178173  0.914306  1
  Er  Er4  1  0.000000  0.943504  0.372129  1
  Er  Er5  1  0.000000  0.056496  0.627871  1
  Er  Er6  1  0.000000  0.443526  0.127815  1
  Er  Er7  1  0.000000  0.556474  0.872185  1
  B  B8  1  0.500000  0.554429  0.432670  1
  B  B9  1  0.500000  0.445571  0.567330  1
  B  B10  1  0.500000  0.054338  0.067190  1
  B  B11  1  0.500000  0.945662  0.932810  1
  B  B12  1  0.500000  0.748657  0.419194  1
  B  B13  1  0.500000  0.251343  0.580806  1
  B  B14  1  0.500000  0.248615  0.080736  1
  B  B15  1  0.500000  0.751385  0.919264  1
  B  B16  1  0.500000  0.790988  0.266011  1
  B  B17  1  0.500000  0.209012  0.733989  1
  B  B18  1  0.500000  0.290888  0.233891  1
  B  B19  1  0.500000  0.709112  0.766109  1
  B  B20  1  0.500000  0.630912  0.184775  1
  B  B21  1  0.500000  0.369088  0.815225  1
  B  B22  1  0.500000  0.130893  0.315152  1
  B  B23  1  0.500000  0.869107  0.684848  1
  B  B24  1  0.500000  0.983142  0.213080  1
  B  B25  1  0.500000  0.016858  0.786920  1
  B  B26  1  0.500000  0.483266  0.286858  1
  B  B27  1  0.500000  0.516734  0.713142  1
  B  B28  1  0.500000  0.605999  0.029185  1
  B  B29  1  0.500000  0.394001  0.970815  1
  B  B30  1  0.500000  0.105762  0.470889  1
  B  B31  1  0.500000  0.894238  0.529111  1
  Ru  Ru32  1  0.000000  0.638049  0.320580  1
  Ru  Ru33  1  0.000000  0.361951  0.679420  1
  Ru  Ru34  1  0.000000  0.137935  0.179349  1
  Ru  Ru35  1  0.000000  0.862065  0.820651  1
