# generated using pymatgen
data_Y2In(AsRh2)6
_symmetry_space_group_name_H-M   'P 1'
_cell_length_a   10.05024600
_cell_length_b   10.05024656
_cell_length_c   3.98536100
_cell_angle_alpha   90.00000000
_cell_angle_beta   90.00000000
_cell_angle_gamma   119.99999815
_symmetry_Int_Tables_number   1
_chemical_formula_structural   Y2In(AsRh2)6
_chemical_formula_sum   'Y2 In1 As6 Rh12'
_cell_volume   348.61953150
_cell_formula_units_Z   1
loop_
 _symmetry_equiv_pos_site_id
 _symmetry_equiv_pos_as_xyz
  1  'x, y, z'
loop_
 _atom_site_type_symbol
 _atom_site_label
 _atom_site_symmetry_multiplicity
 _atom_site_fract_x
 _atom_site_fract_y
 _atom_site_fract_z
 _atom_site_occupancy
  Y  Y0  1  0.333333  0.666667  0.754202  1
  Y  Y1  1  0.000000  0.000000  0.247237  1
  In  In2  1  0.666667  0.333333  0.586549  1
  As  As3  1  0.954408  0.216390  0.747076  1
  As  As4  1  0.783610  0.738018  0.747076  1
  As  As5  1  0.261982  0.045592  0.747076  1
  As  As6  1  0.378301  0.448938  0.254663  1
  As  As7  1  0.551062  0.929363  0.254663  1
  As  As8  1  0.070637  0.621699  0.254663  1
  Rh  Rh9  1  0.733193  0.950176  0.750188  1
  Rh  Rh10  1  0.049824  0.783017  0.750188  1
  Rh  Rh11  1  0.216983  0.266807  0.750188  1
  Rh  Rh12  1  0.603455  0.720155  0.252251  1
  Rh  Rh13  1  0.279845  0.883301  0.252251  1
  Rh  Rh14  1  0.116699  0.396545  0.252251  1
  Rh  Rh15  1  0.959374  0.462623  0.757481  1
  Rh  Rh16  1  0.537377  0.496751  0.757481  1
  Rh  Rh17  1  0.503249  0.040626  0.757481  1
  Rh  Rh18  1  0.388815  0.209094  0.243739  1
  Rh  Rh19  1  0.790906  0.179720  0.243739  1
  Rh  Rh20  1  0.820280  0.611185  0.243739  1
