# generated using pymatgen
data_Nd2Sm(ZnPt)4
_symmetry_space_group_name_H-M   'P 1'
_cell_length_a   8.35654466
_cell_length_b   8.35654660
_cell_length_c   8.35654457
_cell_angle_alpha   151.50809505
_cell_angle_beta   126.77326800
_cell_angle_gamma   61.47549568
_symmetry_Int_Tables_number   1
_chemical_formula_structural   Nd2Sm(ZnPt)4
_chemical_formula_sum   'Nd2 Sm1 Zn4 Pt4'
_cell_volume   221.16969964
_cell_formula_units_Z   1
loop_
 _symmetry_equiv_pos_site_id
 _symmetry_equiv_pos_as_xyz
  1  'x, y, z'
loop_
 _atom_site_type_symbol
 _atom_site_label
 _atom_site_symmetry_multiplicity
 _atom_site_fract_x
 _atom_site_fract_y
 _atom_site_fract_z
 _atom_site_occupancy
  Nd  Nd0  1  0.499805  0.999805  0.500000  1
  Nd  Nd1  1  0.873576  0.873576  0.000000  1
  Sm  Sm2  1  0.126674  0.126674  0.000000  1
  Zn  Zn3  1  0.477665  0.673805  0.803861  1
  Zn  Zn4  1  0.869945  0.673805  0.196139  1
  Zn  Zn5  1  0.132312  0.326458  0.805854  1
  Zn  Zn6  1  0.520605  0.326458  0.194146  1
  Pt  Pt7  1  0.279596  0.779596  0.500000  1
  Pt  Pt8  1  0.718658  0.218658  0.500000  1
  Pt  Pt9  1  0.804185  0.500582  0.303603  1
  Pt  Pt10  1  0.196979  0.500582  0.696397  1
