# generated using pymatgen
data_La4Ga4IrPt3
_symmetry_space_group_name_H-M   'P 1'
_cell_length_a   4.55354200
_cell_length_b   7.21395003
_cell_length_c   7.93998462
_cell_angle_alpha   89.99373610
_cell_angle_beta   90.00000000
_cell_angle_gamma   90.00000000
_symmetry_Int_Tables_number   1
_chemical_formula_structural   La4Ga4IrPt3
_chemical_formula_sum   'La4 Ga4 Ir1 Pt3'
_cell_volume   260.82074741
_cell_formula_units_Z   1
loop_
 _symmetry_equiv_pos_site_id
 _symmetry_equiv_pos_as_xyz
  1  'x, y, z'
loop_
 _atom_site_type_symbol
 _atom_site_label
 _atom_site_symmetry_multiplicity
 _atom_site_fract_x
 _atom_site_fract_y
 _atom_site_fract_z
 _atom_site_occupancy
  La  La0  1  0.250000  0.034224  0.686349  1
  La  La1  1  0.250000  0.530545  0.809626  1
  La  La2  1  0.750000  0.974647  0.309345  1
  La  La3  1  0.750000  0.468527  0.194169  1
  Ga  Ga4  1  0.250000  0.159956  0.073346  1
  Ga  Ga5  1  0.250000  0.651355  0.430110  1
  Ga  Ga6  1  0.750000  0.843086  0.930000  1
  Ga  Ga7  1  0.750000  0.339726  0.568436  1
  Ir  Ir8  1  0.250000  0.276903  0.392517  1
  Pt  Pt9  1  0.250000  0.781404  0.107265  1
  Pt  Pt10  1  0.750000  0.720158  0.607507  1
  Pt  Pt11  1  0.750000  0.219469  0.891331  1
