# generated using pymatgen
data_Li4AlSiPd6
_symmetry_space_group_name_H-M   'P 1'
_cell_length_a   4.24667200
_cell_length_b   4.24667178
_cell_length_c   10.37575100
_cell_angle_alpha   90.00000000
_cell_angle_beta   90.00000000
_cell_angle_gamma   120.00001731
_symmetry_Int_Tables_number   1
_chemical_formula_structural   Li4AlSiPd6
_chemical_formula_sum   'Li4 Al1 Si1 Pd6'
_cell_volume   162.04943142
_cell_formula_units_Z   1
loop_
 _symmetry_equiv_pos_site_id
 _symmetry_equiv_pos_as_xyz
  1  'x, y, z'
loop_
 _atom_site_type_symbol
 _atom_site_label
 _atom_site_symmetry_multiplicity
 _atom_site_fract_x
 _atom_site_fract_y
 _atom_site_fract_z
 _atom_site_occupancy
  Li  Li0  1  0.000000  0.000000  0.499029  1
  Li  Li1  1  0.333333  0.666667  0.163346  1
  Li  Li2  1  0.666667  0.333333  0.837303  1
  Li  Li3  1  0.000000  0.000000  0.997697  1
  Al  Al4  1  0.666667  0.333333  0.332394  1
  Si  Si5  1  0.333333  0.666667  0.670277  1
  Pd  Pd6  1  0.333333  0.666667  0.424552  1
  Pd  Pd7  1  0.666667  0.333333  0.085393  1
  Pd  Pd8  1  0.000000  0.000000  0.740306  1
  Pd  Pd9  1  0.000000  0.000000  0.253583  1
  Pd  Pd10  1  0.333333  0.666667  0.907923  1
  Pd  Pd11  1  0.666667  0.333333  0.588197  1
