# generated using pymatgen
data_HoLu2In3Ag2Ir
_symmetry_space_group_name_H-M   'P 1'
_cell_length_a   7.99392831
_cell_length_b   7.99221674
_cell_length_c   3.65445000
_cell_angle_alpha   90.00000000
_cell_angle_beta   90.00000000
_cell_angle_gamma   119.84349757
_symmetry_Int_Tables_number   1
_chemical_formula_structural   HoLu2In3Ag2Ir
_chemical_formula_sum   'Ho1 Lu2 In3 Ag2 Ir1'
_cell_volume   202.51765591
_cell_formula_units_Z   1
loop_
 _symmetry_equiv_pos_site_id
 _symmetry_equiv_pos_as_xyz
  1  'x, y, z'
loop_
 _atom_site_type_symbol
 _atom_site_label
 _atom_site_symmetry_multiplicity
 _atom_site_fract_x
 _atom_site_fract_y
 _atom_site_fract_z
 _atom_site_occupancy
  Ho  Ho0  1  0.035478  0.418409  0.000000  1
  Lu  Lu1  1  0.580497  0.619379  0.000000  1
  Lu  Lu2  1  0.381837  0.960562  0.000000  1
  In  In3  1  0.987449  0.718859  0.500000  1
  In  In4  1  0.282490  0.269450  0.500000  1
  In  In5  1  0.730210  0.011833  0.500000  1
  Ag  Ag6  1  0.001117  0.000153  0.000000  1
  Ag  Ag7  1  0.663889  0.332375  0.500000  1
  Ir  Ir8  1  0.337032  0.668982  0.500000  1
