# generated using pymatgen
data_Sr3Si3As3Pd20
_symmetry_space_group_name_H-M   'P 1'
_cell_length_a   8.86340716
_cell_length_b   8.90826314
_cell_length_c   8.95842728
_cell_angle_alpha   59.48193196
_cell_angle_beta   59.97747639
_cell_angle_gamma   60.54059359
_symmetry_Int_Tables_number   1
_chemical_formula_structural   Sr3Si3As3Pd20
_chemical_formula_sum   'Sr3 Si3 As3 Pd20'
_cell_volume   500.07624120
_cell_formula_units_Z   1
loop_
 _symmetry_equiv_pos_site_id
 _symmetry_equiv_pos_as_xyz
  1  'x, y, z'
loop_
 _atom_site_type_symbol
 _atom_site_label
 _atom_site_symmetry_multiplicity
 _atom_site_fract_x
 _atom_site_fract_y
 _atom_site_fract_z
 _atom_site_occupancy
  Sr  Sr0  1  0.249636  0.250364  0.249636  1
  Sr  Sr1  1  0.749636  0.750364  0.749636  1
  Sr  Sr2  1  0.000550  0.999450  0.000550  1
  Si  Si3  1  0.732477  0.267523  0.732477  1
  Si  Si4  1  0.268523  0.267842  0.732158  1
  Si  Si5  1  0.732158  0.731477  0.268523  1
  As  As6  1  0.736314  0.263686  0.263487  1
  As  As7  1  0.263487  0.736513  0.736314  1
  As  As8  1  0.264536  0.735464  0.264536  1
  Pd  Pd9  1  0.385359  0.383463  0.392521  1
  Pd  Pd10  1  0.617702  0.609681  0.611787  1
  Pd  Pd11  1  0.390319  0.382298  0.839171  1
  Pd  Pd12  1  0.392521  0.838658  0.385359  1
  Pd  Pd13  1  0.616537  0.614641  0.161342  1
  Pd  Pd14  1  0.611787  0.160829  0.617702  1
  Pd  Pd15  1  0.839171  0.388213  0.390319  1
  Pd  Pd16  1  0.161342  0.607479  0.616537  1
  Pd  Pd17  1  0.350330  0.008190  0.991810  1
  Pd  Pd18  1  0.654207  0.998349  0.001651  1
  Pd  Pd19  1  0.001651  0.345793  0.654207  1
  Pd  Pd20  1  0.991810  0.649670  0.350330  1
  Pd  Pd21  1  0.007987  0.350045  0.988624  1
  Pd  Pd22  1  0.649955  0.992013  0.346655  1
  Pd  Pd23  1  0.988624  0.653345  0.007987  1
  Pd  Pd24  1  0.346655  0.011376  0.649955  1
  Pd  Pd25  1  0.001122  0.998878  0.351047  1
  Pd  Pd26  1  0.990870  0.009130  0.653686  1
  Pd  Pd27  1  0.653686  0.346314  0.990870  1
  Pd  Pd28  1  0.351047  0.648953  0.001122  1
