# generated using pymatgen
data_Dy4Er8InCo4Pt
_symmetry_space_group_name_H-M   'P 1'
_cell_length_a   8.26670353
_cell_length_b   8.26670226
_cell_length_c   8.26670338
_cell_angle_alpha   110.97643906
_cell_angle_beta   110.68656267
_cell_angle_gamma   106.78376583
_symmetry_Int_Tables_number   1
_chemical_formula_structural   Dy4Er8InCo4Pt
_chemical_formula_sum   'Dy4 Er8 In1 Co4 Pt1'
_cell_volume   434.16943197
_cell_formula_units_Z   1
loop_
 _symmetry_equiv_pos_site_id
 _symmetry_equiv_pos_as_xyz
  1  'x, y, z'
loop_
 _atom_site_type_symbol
 _atom_site_label
 _atom_site_symmetry_multiplicity
 _atom_site_fract_x
 _atom_site_fract_y
 _atom_site_fract_z
 _atom_site_occupancy
  Dy  Dy0  1  0.185872  0.289329  0.475202  1
  Dy  Dy1  1  0.814128  0.710671  0.524798  1
  Dy  Dy2  1  0.185872  0.710671  0.896543  1
  Dy  Dy3  1  0.814128  0.289329  0.103457  1
  Er  Er4  1  0.315600  0.620708  0.305108  1
  Er  Er5  1  0.684400  0.379292  0.694892  1
  Er  Er6  1  0.315600  0.010494  0.694892  1
  Er  Er7  1  0.684400  0.989506  0.305108  1
  Er  Er8  1  0.415390  0.217345  0.198044  1
  Er  Er9  1  0.584610  0.782655  0.801956  1
  Er  Er10  1  0.019301  0.217345  0.801956  1
  Er  Er11  1  0.980699  0.782655  0.198044  1
  In  In12  1  0.500000  0.500000  0.000000  1
  Co  Co13  1  0.112602  0.612602  0.500000  1
  Co  Co14  1  0.887398  0.387398  0.500000  1
  Co  Co15  1  0.378039  0.000000  0.378039  1
  Co  Co16  1  0.621961  0.000000  0.621961  1
  Pt  Pt17  1  0.000000  0.000000  0.000000  1
