# generated using pymatgen
data_Dy4Ho3Er(ReC2)4
_symmetry_space_group_name_H-M   'P 1'
_cell_length_a   5.10116900
_cell_length_b   6.57119410
_cell_length_c   9.84420215
_cell_angle_alpha   89.98012490
_cell_angle_beta   90.00000000
_cell_angle_gamma   90.00000000
_symmetry_Int_Tables_number   1
_chemical_formula_structural   Dy4Ho3Er(ReC2)4
_chemical_formula_sum   'Dy4 Ho3 Er1 Re4 C8'
_cell_volume   329.98523223
_cell_formula_units_Z   1
loop_
 _symmetry_equiv_pos_site_id
 _symmetry_equiv_pos_as_xyz
  1  'x, y, z'
loop_
 _atom_site_type_symbol
 _atom_site_label
 _atom_site_symmetry_multiplicity
 _atom_site_fract_x
 _atom_site_fract_y
 _atom_site_fract_z
 _atom_site_occupancy
  Dy  Dy0  1  0.250000  0.467160  0.784132  1
  Dy  Dy1  1  0.750000  0.032850  0.283975  1
  Dy  Dy2  1  0.250000  0.966985  0.716084  1
  Dy  Dy3  1  0.750000  0.533001  0.215857  1
  Ho  Ho4  1  0.750000  0.678752  0.556853  1
  Ho  Ho5  1  0.250000  0.321306  0.443085  1
  Ho  Ho6  1  0.750000  0.178586  0.943194  1
  Er  Er7  1  0.250000  0.822042  0.057238  1
  Re  Re8  1  0.250000  0.279687  0.133277  1
  Re  Re9  1  0.750000  0.220220  0.633354  1
  Re  Re10  1  0.250000  0.779735  0.366503  1
  Re  Re11  1  0.750000  0.720225  0.866825  1
  C  C12  1  0.250000  0.175052  0.950313  1
  C  C13  1  0.750000  0.824412  0.049965  1
  C  C14  1  0.250000  0.675719  0.549679  1
  C  C15  1  0.750000  0.324317  0.450202  1
  C  C16  1  0.250000  0.046652  0.258760  1
  C  C17  1  0.750000  0.453086  0.759030  1
  C  C18  1  0.250000  0.547152  0.240622  1
  C  C19  1  0.750000  0.953061  0.741051  1
