# generated using pymatgen
data_Ti4IrRhO
_symmetry_space_group_name_H-M   'P 1'
_cell_length_a   8.24732615
_cell_length_b   8.24732591
_cell_length_c   8.24732500
_cell_angle_alpha   59.99999965
_cell_angle_beta   60.00000059
_cell_angle_gamma   59.99999250
_symmetry_Int_Tables_number   1
_chemical_formula_structural   Ti4IrRhO
_chemical_formula_sum   'Ti16 Ir4 Rh4 O4'
_cell_volume   396.66548592
_cell_formula_units_Z   4
loop_
 _symmetry_equiv_pos_site_id
 _symmetry_equiv_pos_as_xyz
  1  'x, y, z'
loop_
 _atom_site_type_symbol
 _atom_site_label
 _atom_site_symmetry_multiplicity
 _atom_site_fract_x
 _atom_site_fract_y
 _atom_site_fract_z
 _atom_site_occupancy
  Ti  Ti0  1  0.117968  0.627344  0.627344  1
  Ti  Ti1  1  0.627344  0.117968  0.627344  1
  Ti  Ti2  1  0.627344  0.627344  0.117968  1
  Ti  Ti3  1  0.627344  0.627344  0.627344  1
  Ti  Ti4  1  0.815982  0.815982  0.184018  1
  Ti  Ti5  1  0.184018  0.184018  0.815982  1
  Ti  Ti6  1  0.815982  0.184018  0.815982  1
  Ti  Ti7  1  0.184018  0.815982  0.184018  1
  Ti  Ti8  1  0.184018  0.815982  0.815982  1
  Ti  Ti9  1  0.815982  0.184018  0.184018  1
  Ti  Ti10  1  0.431374  0.431374  0.068626  1
  Ti  Ti11  1  0.068626  0.068626  0.431374  1
  Ti  Ti12  1  0.431374  0.068626  0.431374  1
  Ti  Ti13  1  0.068626  0.431374  0.068626  1
  Ti  Ti14  1  0.068626  0.431374  0.431374  1
  Ti  Ti15  1  0.431374  0.068626  0.068626  1
  Ir  Ir16  1  0.767688  0.410770  0.410770  1
  Ir  Ir17  1  0.410770  0.767688  0.410770  1
  Ir  Ir18  1  0.410770  0.410770  0.767688  1
  Ir  Ir19  1  0.410770  0.410770  0.410770  1
  Rh  Rh20  1  0.471365  0.842879  0.842879  1
  Rh  Rh21  1  0.842879  0.471365  0.842879  1
  Rh  Rh22  1  0.842879  0.842879  0.471365  1
  Rh  Rh23  1  0.842879  0.842879  0.842879  1
  O  O24  1  0.625900  0.124700  0.124700  1
  O  O25  1  0.124700  0.625900  0.124700  1
  O  O26  1  0.124700  0.124700  0.625900  1
  O  O27  1  0.124700  0.124700  0.124700  1
