# generated using pymatgen
data_Li2Co2Ni7P7W3
_symmetry_space_group_name_H-M   'P 1'
_cell_length_a   9.10133141
_cell_length_b   9.08229102
_cell_length_c   3.62681600
_cell_angle_alpha   90.00000000
_cell_angle_beta   90.00000000
_cell_angle_gamma   120.13319993
_symmetry_Int_Tables_number   1
_chemical_formula_structural   Li2Co2Ni7P7W3
_chemical_formula_sum   'Li2 Co2 Ni7 P7 W3'
_cell_volume   259.28178978
_cell_formula_units_Z   1
loop_
 _symmetry_equiv_pos_site_id
 _symmetry_equiv_pos_as_xyz
  1  'x, y, z'
loop_
 _atom_site_type_symbol
 _atom_site_label
 _atom_site_symmetry_multiplicity
 _atom_site_fract_x
 _atom_site_fract_y
 _atom_site_fract_z
 _atom_site_occupancy
  Li  Li0  1  0.333688  0.665701  0.000000  1
  Li  Li1  1  0.666538  0.332909  0.500000  1
  Co  Co2  1  0.716452  0.877175  0.000000  1
  Co  Co3  1  0.160464  0.283887  0.000000  1
  Ni  Ni4  1  0.123955  0.838191  0.000000  1
  Ni  Ni5  1  0.625878  0.563583  0.000000  1
  Ni  Ni6  1  0.937025  0.372684  0.000000  1
  Ni  Ni7  1  0.436841  0.063003  0.000000  1
  Ni  Ni8  1  0.557705  0.945610  0.500000  1
  Ni  Ni9  1  0.388225  0.443598  0.500000  1
  Ni  Ni10  1  0.055759  0.612562  0.500000  1
  P  P11  1  0.585410  0.712665  0.500000  1
  P  P12  1  0.127911  0.416026  0.500000  1
  P  P13  1  0.290508  0.873451  0.500000  1
  P  P14  1  0.998358  0.001891  0.000000  1
  P  P15  1  0.878280  0.580897  0.000000  1
  P  P16  1  0.702600  0.118509  0.000000  1
  P  P17  1  0.415262  0.297207  0.000000  1
  W  W18  1  0.875876  0.777514  0.500000  1
  W  W19  1  0.900989  0.124938  0.500000  1
  W  W20  1  0.222275  0.097999  0.500000  1
