# generated using pymatgen
data_AcHf(SiNi)2
_symmetry_space_group_name_H-M   'P 1'
_cell_length_a   4.14541300
_cell_length_b   7.42375606
_cell_length_c   7.19997867
_cell_angle_alpha   89.81262213
_cell_angle_beta   90.00000000
_cell_angle_gamma   90.00000000
_symmetry_Int_Tables_number   1
_chemical_formula_structural   AcHf(SiNi)2
_chemical_formula_sum   'Ac2 Hf2 Si4 Ni4'
_cell_volume   221.57480986
_cell_formula_units_Z   2
loop_
 _symmetry_equiv_pos_site_id
 _symmetry_equiv_pos_as_xyz
  1  'x, y, z'
loop_
 _atom_site_type_symbol
 _atom_site_label
 _atom_site_symmetry_multiplicity
 _atom_site_fract_x
 _atom_site_fract_y
 _atom_site_fract_z
 _atom_site_occupancy
  Ac  Ac0  1  0.750000  0.000111  0.249954  1
  Ac  Ac1  1  0.250000  0.999889  0.750046  1
  Hf  Hf2  1  0.750000  0.499856  0.250802  1
  Hf  Hf3  1  0.250000  0.500144  0.749198  1
  Si  Si4  1  0.250000  0.303181  0.083637  1
  Si  Si5  1  0.750000  0.696819  0.916363  1
  Si  Si6  1  0.250000  0.697868  0.415841  1
  Si  Si7  1  0.750000  0.302132  0.584159  1
  Ni  Ni8  1  0.250000  0.669143  0.082883  1
  Ni  Ni9  1  0.750000  0.330857  0.917117  1
  Ni  Ni10  1  0.250000  0.329186  0.417004  1
  Ni  Ni11  1  0.750000  0.670814  0.582996  1
