# generated using pymatgen
data_Dy3Al12(PdRu)2
_symmetry_space_group_name_H-M   'P 1'
_cell_length_a   8.84292900
_cell_length_b   8.78788121
_cell_length_c   9.50747300
_cell_angle_alpha   90.00000000
_cell_angle_beta   90.00000000
_cell_angle_gamma   119.79428899
_symmetry_Int_Tables_number   1
_chemical_formula_structural   Dy3Al12(PdRu)2
_chemical_formula_sum   'Dy6 Al24 Pd4 Ru4'
_cell_volume   641.16906666
_cell_formula_units_Z   2
loop_
 _symmetry_equiv_pos_site_id
 _symmetry_equiv_pos_as_xyz
  1  'x, y, z'
loop_
 _atom_site_type_symbol
 _atom_site_label
 _atom_site_symmetry_multiplicity
 _atom_site_fract_x
 _atom_site_fract_y
 _atom_site_fract_z
 _atom_site_occupancy
  Dy  Dy0  1  0.188737  0.804409  0.250000  1
  Dy  Dy1  1  0.188737  0.384328  0.250000  1
  Dy  Dy2  1  0.617657  0.808828  0.250000  1
  Dy  Dy3  1  0.811263  0.195591  0.750000  1
  Dy  Dy4  1  0.811263  0.615672  0.750000  1
  Dy  Dy5  1  0.382343  0.191172  0.750000  1
  Al  Al6  1  0.562868  0.437303  0.250000  1
  Al  Al7  1  0.562868  0.125565  0.250000  1
  Al  Al8  1  0.875729  0.437865  0.250000  1
  Al  Al9  1  0.437132  0.562697  0.750000  1
  Al  Al10  1  0.437132  0.874435  0.750000  1
  Al  Al11  1  0.124271  0.562135  0.750000  1
  Al  Al12  1  0.322798  0.161399  0.422244  1
  Al  Al13  1  0.841838  0.167613  0.421114  1
  Al  Al14  1  0.841838  0.674225  0.421114  1
  Al  Al15  1  0.677202  0.838601  0.577756  1
  Al  Al16  1  0.158162  0.832387  0.578886  1
  Al  Al17  1  0.158162  0.325775  0.578886  1
  Al  Al18  1  0.677202  0.838601  0.922244  1
  Al  Al19  1  0.158162  0.832387  0.921114  1
  Al  Al20  1  0.158162  0.325775  0.921114  1
  Al  Al21  1  0.322798  0.161399  0.077756  1
  Al  Al22  1  0.841838  0.167613  0.078886  1
  Al  Al23  1  0.841838  0.674225  0.078886  1
  Al  Al24  1  0.671602  0.335801  0.529861  1
  Al  Al25  1  0.328398  0.664199  0.470139  1
  Al  Al26  1  0.328398  0.664199  0.029861  1
  Al  Al27  1  0.671602  0.335801  0.970139  1
  Al  Al28  1  0.996225  0.998113  0.250000  1
  Al  Al29  1  0.003775  0.001887  0.750000  1
  Pd  Pd30  1  0.500000  0.500000  0.500000  1
  Pd  Pd31  1  0.500000  0.000000  0.500000  1
  Pd  Pd32  1  0.500000  0.500000  0.000000  1
  Pd  Pd33  1  0.500000  0.000000  0.000000  1
  Ru  Ru34  1  0.000000  0.000000  0.500000  1
  Ru  Ru35  1  0.000000  0.000000  0.000000  1
  Ru  Ru36  1  0.000000  0.500000  0.500000  1
  Ru  Ru37  1  0.000000  0.500000  0.000000  1
