# generated using pymatgen
data_Er3ThPt4
_symmetry_space_group_name_H-M   'P 1'
_cell_length_a   4.56072900
_cell_length_b   5.61664932
_cell_length_c   7.02987171
_cell_angle_alpha   89.70802926
_cell_angle_beta   90.00000000
_cell_angle_gamma   90.00000000
_symmetry_Int_Tables_number   1
_chemical_formula_structural   Er3ThPt4
_chemical_formula_sum   'Er3 Th1 Pt4'
_cell_volume   180.07496410
_cell_formula_units_Z   1
loop_
 _symmetry_equiv_pos_site_id
 _symmetry_equiv_pos_as_xyz
  1  'x, y, z'
loop_
 _atom_site_type_symbol
 _atom_site_label
 _atom_site_symmetry_multiplicity
 _atom_site_fract_x
 _atom_site_fract_y
 _atom_site_fract_z
 _atom_site_occupancy
  Er  Er0  1  0.750000  0.356970  0.813950  1
  Er  Er1  1  0.750000  0.141972  0.322075  1
  Er  Er2  1  0.250000  0.860132  0.682686  1
  Th  Th3  1  0.250000  0.640580  0.182275  1
  Pt  Pt4  1  0.250000  0.157867  0.042211  1
  Pt  Pt5  1  0.750000  0.843539  0.951336  1
  Pt  Pt6  1  0.750000  0.658625  0.460008  1
  Pt  Pt7  1  0.250000  0.340315  0.545459  1
