# generated using pymatgen
data_NdSmZn3PRh4
_symmetry_space_group_name_H-M   'P 1'
_cell_length_a   4.11041000
_cell_length_b   4.11041000
_cell_length_c   10.59970300
_cell_angle_alpha   90.00000000
_cell_angle_beta   90.00000000
_cell_angle_gamma   90.00000000
_symmetry_Int_Tables_number   1
_chemical_formula_structural   NdSmZn3PRh4
_chemical_formula_sum   'Nd1 Sm1 Zn3 P1 Rh4'
_cell_volume   179.08696795
_cell_formula_units_Z   1
loop_
 _symmetry_equiv_pos_site_id
 _symmetry_equiv_pos_as_xyz
  1  'x, y, z'
loop_
 _atom_site_type_symbol
 _atom_site_label
 _atom_site_symmetry_multiplicity
 _atom_site_fract_x
 _atom_site_fract_y
 _atom_site_fract_z
 _atom_site_occupancy
  Nd  Nd0  1  0.500000  0.000000  0.750306  1
  Sm  Sm1  1  0.000000  0.500000  0.242395  1
  Zn  Zn2  1  0.000000  0.000000  0.492520  1
  Zn  Zn3  1  0.500000  0.500000  0.492520  1
  Zn  Zn4  1  0.000000  0.500000  0.875776  1
  P  P5  1  0.500000  0.000000  0.123453  1
  Rh  Rh6  1  0.000000  0.000000  0.020670  1
  Rh  Rh7  1  0.500000  0.500000  0.020670  1
  Rh  Rh8  1  0.000000  0.500000  0.638732  1
  Rh  Rh9  1  0.500000  0.000000  0.342960  1
