# generated using pymatgen
data_Dy2Sc2Al17GaIr6
_symmetry_space_group_name_H-M   'P 1'
_cell_length_a   7.50001211
_cell_length_b   7.50006230
_cell_length_c   9.41112300
_cell_angle_alpha   90.00000000
_cell_angle_beta   90.00000000
_cell_angle_gamma   119.43194356
_symmetry_Int_Tables_number   1
_chemical_formula_structural   Dy2Sc2Al17GaIr6
_chemical_formula_sum   'Dy2 Sc2 Al17 Ga1 Ir6'
_cell_volume   461.05901257
_cell_formula_units_Z   1
loop_
 _symmetry_equiv_pos_site_id
 _symmetry_equiv_pos_as_xyz
  1  'x, y, z'
loop_
 _atom_site_type_symbol
 _atom_site_label
 _atom_site_symmetry_multiplicity
 _atom_site_fract_x
 _atom_site_fract_y
 _atom_site_fract_z
 _atom_site_occupancy
  Dy  Dy0  1  0.993249  0.675175  0.750000  1
  Dy  Dy1  1  0.675179  0.993246  0.750000  1
  Sc  Sc2  1  0.003235  0.326328  0.250000  1
  Sc  Sc3  1  0.326277  0.003229  0.250000  1
  Al  Al4  1  0.875730  0.875732  0.250000  1
  Al  Al5  1  0.002413  0.335853  0.568667  1
  Al  Al6  1  0.002232  0.664157  0.418881  1
  Al  Al7  1  0.002232  0.664157  0.081119  1
  Al  Al8  1  0.335857  0.002411  0.931336  1
  Al  Al9  1  0.002413  0.335853  0.931333  1
  Al  Al10  1  0.664150  0.002230  0.081121  1
  Al  Al11  1  0.664150  0.002230  0.418879  1
  Al  Al12  1  0.335857  0.002411  0.568664  1
  Al  Al13  1  0.329917  0.329913  0.063665  1
  Al  Al14  1  0.665161  0.665159  0.954069  1
  Al  Al15  1  0.665161  0.665159  0.545931  1
  Al  Al16  1  0.329917  0.329913  0.436335  1
  Al  Al17  1  0.338617  0.548699  0.750000  1
  Al  Al18  1  0.659807  0.444354  0.250000  1
  Al  Al19  1  0.548702  0.338614  0.750000  1
  Al  Al20  1  0.444367  0.659817  0.250000  1
  Ga  Ga21  1  0.137053  0.137048  0.750000  1
  Ir  Ir22  1  0.671769  0.327625  0.498925  1
  Ir  Ir23  1  0.327626  0.671768  0.498924  1
  Ir  Ir24  1  0.327626  0.671768  0.001076  1
  Ir  Ir25  1  0.671769  0.327625  0.001075  1
  Ir  Ir26  1  0.999766  0.999762  0.496357  1
  Ir  Ir27  1  0.999766  0.999762  0.003643  1
