# generated using pymatgen
data_DyHo9IrPt5
_symmetry_space_group_name_H-M   'P 1'
_cell_length_a   11.00516802
_cell_length_b   11.00712300
_cell_length_c   6.39457901
_cell_angle_alpha   90.00000000
_cell_angle_beta   90.00713239
_cell_angle_gamma   90.00000000
_symmetry_Int_Tables_number   1
_chemical_formula_structural   DyHo9IrPt5
_chemical_formula_sum   'Dy2 Ho18 Ir2 Pt10'
_cell_volume   774.60884487
_cell_formula_units_Z   2
loop_
 _symmetry_equiv_pos_site_id
 _symmetry_equiv_pos_as_xyz
  1  'x, y, z'
loop_
 _atom_site_type_symbol
 _atom_site_label
 _atom_site_symmetry_multiplicity
 _atom_site_fract_x
 _atom_site_fract_y
 _atom_site_fract_z
 _atom_site_occupancy
  Dy  Dy0  1  0.087864  0.705133  0.623299  1
  Dy  Dy1  1  0.087864  0.294867  0.123299  1
  Ho  Ho2  1  0.292647  0.088465  0.377479  1
  Ho  Ho3  1  0.292647  0.911535  0.877479  1
  Ho  Ho4  1  0.707369  0.088506  0.877414  1
  Ho  Ho5  1  0.707369  0.911494  0.377414  1
  Ho  Ho6  1  0.588512  0.792599  0.877421  1
  Ho  Ho7  1  0.588512  0.207401  0.377421  1
  Ho  Ho8  1  0.411505  0.792615  0.377419  1
  Ho  Ho9  1  0.411505  0.207385  0.877419  1
  Ho  Ho10  1  0.205014  0.412177  0.623230  1
  Ho  Ho11  1  0.205014  0.587823  0.123230  1
  Ho  Ho12  1  0.794944  0.412254  0.123233  1
  Ho  Ho13  1  0.794944  0.587746  0.623233  1
  Ho  Ho14  1  0.912142  0.704981  0.123244  1
  Ho  Ho15  1  0.912142  0.295019  0.623244  1
  Ho  Ho16  1  0.999959  0.000053  0.500508  1
  Ho  Ho17  1  0.999959  0.999947  0.000508  1
  Ho  Ho18  1  0.499998  0.500004  0.000502  1
  Ho  Ho19  1  0.499998  0.499996  0.500502  1
  Ir  Ir20  1  0.999903  0.500024  0.877853  1
  Ir  Ir21  1  0.999903  0.499976  0.377853  1
  Pt  Pt22  1  0.845836  0.152901  0.249856  1
  Pt  Pt23  1  0.845836  0.847099  0.749856  1
  Pt  Pt24  1  0.154148  0.152832  0.749560  1
  Pt  Pt25  1  0.154148  0.847168  0.249560  1
  Pt  Pt26  1  0.652947  0.345923  0.749798  1
  Pt  Pt27  1  0.652947  0.654077  0.249798  1
  Pt  Pt28  1  0.347198  0.345955  0.249868  1
  Pt  Pt29  1  0.347198  0.654045  0.749868  1
  Pt  Pt30  1  0.500016  0.999996  0.119317  1
  Pt  Pt31  1  0.500016  0.000004  0.619317  1
