# generated using pymatgen
data_Sr7NpAl2N9
_symmetry_space_group_name_H-M   'P 1'
_cell_length_a   10.48484200
_cell_length_b   6.50586256
_cell_length_c   9.60882000
_cell_angle_alpha   89.23918529
_cell_angle_beta   90.00000000
_cell_angle_gamma   90.00000000
_symmetry_Int_Tables_number   1
_chemical_formula_structural   Sr7NpAl2N9
_chemical_formula_sum   'Sr14 Np2 Al4 N18'
_cell_volume   655.38808746
_cell_formula_units_Z   2
loop_
 _symmetry_equiv_pos_site_id
 _symmetry_equiv_pos_as_xyz
  1  'x, y, z'
loop_
 _atom_site_type_symbol
 _atom_site_label
 _atom_site_symmetry_multiplicity
 _atom_site_fract_x
 _atom_site_fract_y
 _atom_site_fract_z
 _atom_site_occupancy
  Sr  Sr0  1  0.934611  0.421764  0.154186  1
  Sr  Sr1  1  0.086249  0.254681  0.486969  1
  Sr  Sr2  1  0.250000  0.113606  0.797746  1
  Sr  Sr3  1  0.434611  0.578236  0.845814  1
  Sr  Sr4  1  0.586249  0.745319  0.513031  1
  Sr  Sr5  1  0.585912  0.073128  0.841396  1
  Sr  Sr6  1  0.914088  0.073128  0.841396  1
  Sr  Sr7  1  0.414088  0.926872  0.158604  1
  Sr  Sr8  1  0.413751  0.254681  0.486969  1
  Sr  Sr9  1  0.085912  0.926872  0.158604  1
  Sr  Sr10  1  0.913751  0.745319  0.513031  1
  Sr  Sr11  1  0.065389  0.578236  0.845814  1
  Sr  Sr12  1  0.750000  0.886394  0.202254  1
  Sr  Sr13  1  0.565389  0.421764  0.154186  1
  Np  Np14  1  0.750000  0.254472  0.465152  1
  Np  Np15  1  0.250000  0.745528  0.534848  1
  Al  Al16  1  0.250000  0.321807  0.064368  1
  Al  Al17  1  0.750000  0.466766  0.725317  1
  Al  Al18  1  0.750000  0.678193  0.935632  1
  Al  Al19  1  0.250000  0.533234  0.274683  1
  N  N20  1  0.403755  0.229539  0.978011  1
  N  N21  1  0.250000  0.240855  0.264181  1
  N  N22  1  0.890505  0.122632  0.352474  1
  N  N23  1  0.615981  0.360509  0.611864  1
  N  N24  1  0.750000  0.537219  0.347606  1
  N  N25  1  0.250000  0.621729  0.086451  1
  N  N26  1  0.884019  0.360509  0.611864  1
  N  N27  1  0.384019  0.639491  0.388136  1
  N  N28  1  0.750000  0.378271  0.913549  1
  N  N29  1  0.109495  0.877368  0.647526  1
  N  N30  1  0.750000  0.759145  0.735819  1
  N  N31  1  0.115981  0.639491  0.388136  1
  N  N32  1  0.596245  0.770461  0.021989  1
  N  N33  1  0.250000  0.462781  0.652394  1
  N  N34  1  0.390505  0.877368  0.647526  1
  N  N35  1  0.609495  0.122632  0.352474  1
  N  N36  1  0.096245  0.229539  0.978011  1
  N  N37  1  0.903755  0.770461  0.021989  1
