# generated using pymatgen
data_Th7IrOsRu
_symmetry_space_group_name_H-M   'P 1'
_cell_length_a   10.04688425
_cell_length_b   10.03234602
_cell_length_c   6.33155415
_cell_angle_alpha   89.99999893
_cell_angle_beta   89.99132221
_cell_angle_gamma   119.95214069
_symmetry_Int_Tables_number   1
_chemical_formula_structural   Th7IrOsRu
_chemical_formula_sum   'Th14 Ir2 Os2 Ru2'
_cell_volume   552.94774816
_cell_formula_units_Z   2
loop_
 _symmetry_equiv_pos_site_id
 _symmetry_equiv_pos_as_xyz
  1  'x, y, z'
loop_
 _atom_site_type_symbol
 _atom_site_label
 _atom_site_symmetry_multiplicity
 _atom_site_fract_x
 _atom_site_fract_y
 _atom_site_fract_z
 _atom_site_occupancy
  Th  Th0  1  0.455772  0.539871  0.299075  1
  Th  Th1  1  0.085162  0.542580  0.297938  1
  Th  Th2  1  0.919780  0.459890  0.795833  1
  Th  Th3  1  0.252855  0.126428  0.500281  1
  Th  Th4  1  0.540990  0.081884  0.797773  1
  Th  Th5  1  0.742502  0.871251  0.001684  1
  Th  Th6  1  0.664852  0.332426  0.293333  1
  Th  Th7  1  0.128081  0.875201  0.001295  1
  Th  Th8  1  0.455772  0.915902  0.299075  1
  Th  Th9  1  0.540990  0.459107  0.797773  1
  Th  Th10  1  0.875304  0.126104  0.502506  1
  Th  Th11  1  0.128081  0.252879  0.001295  1
  Th  Th12  1  0.875304  0.749200  0.502506  1
  Th  Th13  1  0.333454  0.666727  0.790040  1
  Ir  Ir14  1  0.814776  0.624702  0.053024  1
  Ir  Ir15  1  0.814776  0.190075  0.053024  1
  Os  Os16  1  0.626284  0.813142  0.551729  1
  Os  Os17  1  0.376110  0.188055  0.050796  1
  Ru  Ru18  1  0.184576  0.372603  0.547509  1
  Ru  Ru19  1  0.184576  0.811973  0.547509  1
