# generated using pymatgen
data_Y5Zr5(Co2Si5)4
_symmetry_space_group_name_H-M   'P 1'
_cell_length_a   12.21460800
_cell_length_b   12.21460800
_cell_length_c   4.01125000
_cell_angle_alpha   90.00000000
_cell_angle_beta   90.00000000
_cell_angle_gamma   90.00000000
_symmetry_Int_Tables_number   1
_chemical_formula_structural   Y5Zr5(Co2Si5)4
_chemical_formula_sum   'Y5 Zr5 Co8 Si20'
_cell_volume   598.46505667
_cell_formula_units_Z   1
loop_
 _symmetry_equiv_pos_site_id
 _symmetry_equiv_pos_as_xyz
  1  'x, y, z'
loop_
 _atom_site_type_symbol
 _atom_site_label
 _atom_site_symmetry_multiplicity
 _atom_site_fract_x
 _atom_site_fract_y
 _atom_site_fract_z
 _atom_site_occupancy
  Y  Y0  1  0.000000  0.000000  0.000000  1
  Y  Y1  1  0.885798  0.387294  0.500000  1
  Y  Y2  1  0.114202  0.612706  0.500000  1
  Y  Y3  1  0.387294  0.114202  0.500000  1
  Y  Y4  1  0.612706  0.885798  0.500000  1
  Zr  Zr5  1  0.500000  0.500000  0.000000  1
  Zr  Zr6  1  0.676020  0.177482  0.500000  1
  Zr  Zr7  1  0.323980  0.822518  0.500000  1
  Zr  Zr8  1  0.177482  0.323980  0.500000  1
  Zr  Zr9  1  0.822518  0.676020  0.500000  1
  Co  Co10  1  0.741661  0.524642  0.000000  1
  Co  Co11  1  0.258339  0.475358  0.000000  1
  Co  Co12  1  0.245268  0.975395  0.000000  1
  Co  Co13  1  0.754732  0.024605  0.000000  1
  Co  Co14  1  0.475358  0.741661  0.000000  1
  Co  Co15  1  0.524642  0.258339  0.000000  1
  Co  Co16  1  0.024605  0.245268  0.000000  1
  Co  Co17  1  0.975395  0.754732  0.000000  1
  Si  Si18  1  0.569079  0.070299  0.000000  1
  Si  Si19  1  0.430921  0.929701  0.000000  1
  Si  Si20  1  0.070299  0.430921  0.000000  1
  Si  Si21  1  0.929701  0.569079  0.000000  1
  Si  Si22  1  0.656333  0.695461  0.000000  1
  Si  Si23  1  0.343667  0.304539  0.000000  1
  Si  Si24  1  0.157274  0.803079  0.000000  1
  Si  Si25  1  0.842726  0.196921  0.000000  1
  Si  Si26  1  0.304539  0.656333  0.000000  1
  Si  Si27  1  0.695461  0.343667  0.000000  1
  Si  Si28  1  0.196921  0.157274  0.000000  1
  Si  Si29  1  0.803079  0.842726  0.000000  1
  Si  Si30  1  0.662147  0.505734  0.500000  1
  Si  Si31  1  0.337853  0.494266  0.500000  1
  Si  Si32  1  0.167667  0.994878  0.500000  1
  Si  Si33  1  0.832333  0.005122  0.500000  1
  Si  Si34  1  0.494266  0.662147  0.500000  1
  Si  Si35  1  0.505734  0.337853  0.500000  1
  Si  Si36  1  0.005122  0.167667  0.500000  1
  Si  Si37  1  0.994878  0.832333  0.500000  1
