# generated using pymatgen
data_MnS27
_symmetry_space_group_name_H-M   'P 1'
_cell_length_a   15.10022027
_cell_length_b   15.10021370
_cell_length_c   15.10022697
_cell_angle_alpha   118.66612762
_cell_angle_beta   118.66619696
_cell_angle_gamma   118.66611069
_symmetry_Int_Tables_number   1
_chemical_formula_structural   MnS27
_chemical_formula_sum   'Mn1 S27'
_cell_volume   1026.43915135
_cell_formula_units_Z   1
loop_
 _symmetry_equiv_pos_site_id
 _symmetry_equiv_pos_as_xyz
  1  'x, y, z'
loop_
 _atom_site_type_symbol
 _atom_site_label
 _atom_site_symmetry_multiplicity
 _atom_site_fract_x
 _atom_site_fract_y
 _atom_site_fract_z
 _atom_site_occupancy
  Mn  Mn0  1  0.942878  0.942877  0.942877  1
  S  S1  1  0.800701  0.518503  0.518503  1
  S  S2  1  0.518500  0.518500  0.800699  1
  S  S3  1  0.518501  0.800699  0.518501  1
  S  S4  1  0.247175  0.376626  0.636598  1
  S  S5  1  0.349428  0.949207  0.349427  1
  S  S6  1  0.349428  0.349427  0.949208  1
  S  S7  1  0.949207  0.349427  0.349427  1
  S  S8  1  0.128491  0.741356  0.257876  1
  S  S9  1  0.257877  0.128491  0.741356  1
  S  S10  1  0.741355  0.257876  0.128490  1
  S  S11  1  0.741355  0.128490  0.257876  1
  S  S12  1  0.257877  0.741356  0.128491  1
  S  S13  1  0.128492  0.257878  0.741357  1
  S  S14  1  0.345485  0.877838  0.528104  1
  S  S15  1  0.528105  0.345485  0.877838  1
  S  S16  1  0.877837  0.528104  0.345485  1
  S  S17  1  0.877836  0.345484  0.528103  1
  S  S18  1  0.528105  0.877838  0.345485  1
  S  S19  1  0.345486  0.528104  0.877839  1
  S  S20  1  0.247174  0.636598  0.376626  1
  S  S21  1  0.376626  0.247175  0.636598  1
  S  S22  1  0.636599  0.376627  0.247176  1
  S  S23  1  0.636598  0.247175  0.376626  1
  S  S24  1  0.376627  0.636598  0.247175  1
  S  S25  1  0.850376  0.983590  0.983590  1
  S  S26  1  0.983590  0.983590  0.850376  1
  S  S27  1  0.983590  0.850377  0.983590  1
