# generated using pymatgen
data_Tb7Er3Ru3Rh
_symmetry_space_group_name_H-M   'P 1'
_cell_length_a   6.37637789
_cell_length_b   7.27881352
_cell_length_c   8.50356151
_cell_angle_alpha   96.72951950
_cell_angle_beta   111.70098358
_cell_angle_gamma   89.99855689
_symmetry_Int_Tables_number   1
_chemical_formula_structural   Tb7Er3Ru3Rh
_chemical_formula_sum   'Tb7 Er3 Ru3 Rh1'
_cell_volume   363.77173228
_cell_formula_units_Z   1
loop_
 _symmetry_equiv_pos_site_id
 _symmetry_equiv_pos_as_xyz
  1  'x, y, z'
loop_
 _atom_site_type_symbol
 _atom_site_label
 _atom_site_symmetry_multiplicity
 _atom_site_fract_x
 _atom_site_fract_y
 _atom_site_fract_z
 _atom_site_occupancy
  Tb  Tb0  1  0.792484  0.581662  0.815143  1
  Tb  Tb1  1  0.980550  0.915425  0.188839  1
  Tb  Tb2  1  0.208061  0.414871  0.186209  1
  Tb  Tb3  1  0.025442  0.086648  0.815148  1
  Tb  Tb4  1  0.205442  0.683767  0.565221  1
  Tb  Tb5  1  0.641753  0.815122  0.431502  1
  Tb  Tb6  1  0.791706  0.313768  0.433647  1
  Er  Er7  1  0.357779  0.186511  0.565670  1
  Er  Er8  1  0.421572  0.749206  0.000532  1
  Er  Er9  1  0.578165  0.251827  0.000453  1
  Ru  Ru10  1  0.821534  0.576232  0.217555  1
  Ru  Ru11  1  0.396201  0.074827  0.220854  1
  Ru  Ru12  1  0.180580  0.423964  0.780336  1
  Rh  Rh13  1  0.598733  0.926170  0.778891  1
