# generated using pymatgen
data_ErLu11InCo4Au
_symmetry_space_group_name_H-M   'P 1'
_cell_length_a   8.14999171
_cell_length_b   8.14568215
_cell_length_c   8.14568235
_cell_angle_alpha   111.09058611
_cell_angle_beta   110.92636009
_cell_angle_gamma   106.41844426
_symmetry_Int_Tables_number   1
_chemical_formula_structural   ErLu11InCo4Au
_chemical_formula_sum   'Er1 Lu11 In1 Co4 Au1'
_cell_volume   415.51281759
_cell_formula_units_Z   1
loop_
 _symmetry_equiv_pos_site_id
 _symmetry_equiv_pos_as_xyz
  1  'x, y, z'
loop_
 _atom_site_type_symbol
 _atom_site_label
 _atom_site_symmetry_multiplicity
 _atom_site_fract_x
 _atom_site_fract_y
 _atom_site_fract_z
 _atom_site_occupancy
  Er  Er0  1  0.429303  0.225075  0.204227  1
  Lu  Lu1  1  0.569106  0.774637  0.794469  1
  Lu  Lu2  1  0.019772  0.225110  0.794662  1
  Lu  Lu3  1  0.979937  0.774956  0.204981  1
  Lu  Lu4  1  0.186968  0.288830  0.476474  1
  Lu  Lu5  1  0.814100  0.712601  0.525569  1
  Lu  Lu6  1  0.186968  0.710493  0.898139  1
  Lu  Lu7  1  0.814100  0.288532  0.101498  1
  Lu  Lu8  1  0.315277  0.620059  0.303819  1
  Lu  Lu9  1  0.685182  0.380944  0.696959  1
  Lu  Lu10  1  0.315277  0.011457  0.695219  1
  Lu  Lu11  1  0.685182  0.988223  0.304236  1
  In  In12  1  0.499777  0.500286  0.999491  1
  Co  Co13  1  0.376183  0.999652  0.376531  1
  Co  Co14  1  0.624823  0.000366  0.624457  1
  Co  Co15  1  0.113297  0.613514  0.499783  1
  Co  Co16  1  0.888023  0.386783  0.501240  1
  Au  Au17  1  0.996727  0.998482  0.998244  1
