# generated using pymatgen
data_YEr(ScRh)2
_symmetry_space_group_name_H-M   'P 1'
_cell_length_a   4.22265800
_cell_length_b   7.19970500
_cell_length_c   8.69105000
_cell_angle_alpha   90.00000000
_cell_angle_beta   90.00000000
_cell_angle_gamma   90.00000000
_symmetry_Int_Tables_number   1
_chemical_formula_structural   YEr(ScRh)2
_chemical_formula_sum   'Y2 Er2 Sc4 Rh4'
_cell_volume   264.22436274
_cell_formula_units_Z   2
loop_
 _symmetry_equiv_pos_site_id
 _symmetry_equiv_pos_as_xyz
  1  'x, y, z'
loop_
 _atom_site_type_symbol
 _atom_site_label
 _atom_site_symmetry_multiplicity
 _atom_site_fract_x
 _atom_site_fract_y
 _atom_site_fract_z
 _atom_site_occupancy
  Y  Y0  1  0.250000  0.981938  0.326253  1
  Y  Y1  1  0.250000  0.481938  0.173747  1
  Er  Er2  1  0.750000  0.018148  0.673624  1
  Er  Er3  1  0.750000  0.518148  0.826376  1
  Sc  Sc4  1  0.250000  0.359866  0.568727  1
  Sc  Sc5  1  0.250000  0.859866  0.931273  1
  Sc  Sc6  1  0.750000  0.639227  0.434420  1
  Sc  Sc7  1  0.750000  0.139227  0.065580  1
  Rh  Rh8  1  0.250000  0.243130  0.897493  1
  Rh  Rh9  1  0.250000  0.743130  0.602507  1
  Rh  Rh10  1  0.750000  0.757693  0.098413  1
  Rh  Rh11  1  0.750000  0.257693  0.401587  1
