# generated using pymatgen
data_TbHoEr10ZnCo4Sn
_symmetry_space_group_name_H-M   'P 1'
_cell_length_a   8.26529173
_cell_length_b   8.23504624
_cell_length_c   8.23986024
_cell_angle_alpha   111.98005823
_cell_angle_beta   109.36790193
_cell_angle_gamma   106.95350600
_symmetry_Int_Tables_number   1
_chemical_formula_structural   TbHoEr10ZnCo4Sn
_chemical_formula_sum   'Tb1 Ho1 Er10 Zn1 Co4 Sn1'
_cell_volume   431.71159719
_cell_formula_units_Z   1
loop_
 _symmetry_equiv_pos_site_id
 _symmetry_equiv_pos_as_xyz
  1  'x, y, z'
loop_
 _atom_site_type_symbol
 _atom_site_label
 _atom_site_symmetry_multiplicity
 _atom_site_fract_x
 _atom_site_fract_y
 _atom_site_fract_z
 _atom_site_occupancy
  Tb  Tb0  1  0.427292  0.228414  0.199424  1
  Ho  Ho1  1  0.677564  0.987920  0.312873  1
  Er  Er2  1  0.568831  0.770086  0.798406  1
  Er  Er3  1  0.030113  0.230389  0.800509  1
  Er  Er4  1  0.969569  0.769453  0.199528  1
  Er  Er5  1  0.181496  0.283731  0.465386  1
  Er  Er6  1  0.819550  0.717349  0.536555  1
  Er  Er7  1  0.180869  0.715995  0.897408  1
  Er  Er8  1  0.819379  0.283098  0.101817  1
  Er  Er9  1  0.324024  0.637378  0.311487  1
  Er  Er10  1  0.677380  0.364729  0.689593  1
  Er  Er11  1  0.323996  0.012277  0.686241  1
  Zn  Zn12  1  0.995160  0.997354  0.997834  1
  Co  Co13  1  0.343092  0.999390  0.344323  1
  Co  Co14  1  0.658386  0.000623  0.658257  1
  Co  Co15  1  0.115320  0.615637  0.499183  1
  Co  Co16  1  0.889033  0.385985  0.503438  1
  Sn  Sn17  1  0.498947  0.500193  0.997737  1
