# generated using pymatgen
data_CaYb(MgAl4)2
_symmetry_space_group_name_H-M   'P 1'
_cell_length_a   9.41854757
_cell_length_b   9.41854739
_cell_length_c   9.41854788
_cell_angle_alpha   34.67389693
_cell_angle_beta   34.67390097
_cell_angle_gamma   34.67388881
_symmetry_Int_Tables_number   1
_chemical_formula_structural   CaYb(MgAl4)2
_chemical_formula_sum   'Ca1 Yb1 Mg2 Al8'
_cell_volume   241.31460622
_cell_formula_units_Z   1
loop_
 _symmetry_equiv_pos_site_id
 _symmetry_equiv_pos_as_xyz
  1  'x, y, z'
loop_
 _atom_site_type_symbol
 _atom_site_label
 _atom_site_symmetry_multiplicity
 _atom_site_fract_x
 _atom_site_fract_y
 _atom_site_fract_z
 _atom_site_occupancy
  Ca  Ca0  1  0.063020  0.063020  0.063020  1
  Yb  Yb1  1  0.937006  0.937006  0.937006  1
  Mg  Mg2  1  0.560397  0.560397  0.560397  1
  Mg  Mg3  1  0.439759  0.439759  0.439759  1
  Al  Al4  1  0.750426  0.750426  0.750426  1
  Al  Al5  1  0.249579  0.249579  0.249579  1
  Al  Al6  1  0.000005  0.499822  0.499822  1
  Al  Al7  1  0.500422  0.999870  0.999870  1
  Al  Al8  1  0.499822  0.000005  0.499822  1
  Al  Al9  1  0.999870  0.500422  0.999870  1
  Al  Al10  1  0.499822  0.499822  0.000005  1
  Al  Al11  1  0.999870  0.999870  0.500422  1
