# generated using pymatgen
data_La2Y4Er14Si15Pd
_symmetry_space_group_name_H-M   'P 1'
_cell_length_a   7.38487340
_cell_length_b   7.74590441
_cell_length_c   14.59918028
_cell_angle_alpha   89.57491728
_cell_angle_beta   89.91754978
_cell_angle_gamma   89.94472095
_symmetry_Int_Tables_number   1
_chemical_formula_structural   La2Y4Er14Si15Pd
_chemical_formula_sum   'La2 Y4 Er14 Si15 Pd1'
_cell_volume   835.08572402
_cell_formula_units_Z   1
loop_
 _symmetry_equiv_pos_site_id
 _symmetry_equiv_pos_as_xyz
  1  'x, y, z'
loop_
 _atom_site_type_symbol
 _atom_site_label
 _atom_site_symmetry_multiplicity
 _atom_site_fract_x
 _atom_site_fract_y
 _atom_site_fract_z
 _atom_site_occupancy
  La  La0  1  0.520796  0.572042  0.341976  1
  La  La1  1  0.020726  0.426215  0.657478  1
  Y  Y2  1  0.476783  0.934568  0.154348  1
  Y  Y3  1  0.976525  0.068603  0.847159  1
  Y  Y4  1  0.523959  0.566978  0.653127  1
  Y  Y5  1  0.024392  0.432406  0.346688  1
  Er  Er6  1  0.811290  0.577130  0.875626  1
  Er  Er7  1  0.318114  0.424254  0.125045  1
  Er  Er8  1  0.181631  0.927304  0.373243  1
  Er  Er9  1  0.680661  0.070041  0.627190  1
  Er  Er10  1  0.181751  0.925589  0.627572  1
  Er  Er11  1  0.681747  0.071968  0.371954  1
  Er  Er12  1  0.815971  0.573457  0.124828  1
  Er  Er13  1  0.321102  0.428274  0.874551  1
  Er  Er14  1  0.646752  0.232550  0.998831  1
  Er  Er15  1  0.157547  0.759819  0.000773  1
  Er  Er16  1  0.349293  0.262126  0.500069  1
  Er  Er17  1  0.847757  0.736970  0.499859  1
  Er  Er18  1  0.478514  0.931889  0.846057  1
  Er  Er19  1  0.976162  0.067058  0.152206  1
  Si  Si20  1  0.019711  0.352964  0.000686  1
  Si  Si21  1  0.476888  0.861881  0.500979  1
  Si  Si22  1  0.977091  0.137247  0.499163  1
  Si  Si23  1  0.650625  0.276940  0.791227  1
  Si  Si24  1  0.151569  0.720999  0.208555  1
  Si  Si25  1  0.349663  0.215095  0.287301  1
  Si  Si26  1  0.849685  0.784548  0.713221  1
  Si  Si27  1  0.356895  0.215893  0.712299  1
  Si  Si28  1  0.858108  0.783635  0.287255  1
  Si  Si29  1  0.650424  0.271935  0.206723  1
  Si  Si30  1  0.149892  0.726437  0.793264  1
  Si  Si31  1  0.776460  0.882291  0.000959  1
  Si  Si32  1  0.263054  0.124312  0.999647  1
  Si  Si33  1  0.229636  0.625893  0.501771  1
  Si  Si34  1  0.729719  0.373936  0.498886  1
  Pd  Pd35  1  0.519102  0.656751  0.999490  1
