# generated using pymatgen
data_TbDy(Tm5Os2)2
_symmetry_space_group_name_H-M   'P 1'
_cell_length_a   7.37860766
_cell_length_b   8.91573100
_cell_length_c   6.24473601
_cell_angle_alpha   90.00000000
_cell_angle_beta   90.18180798
_cell_angle_gamma   90.00000000
_symmetry_Int_Tables_number   1
_chemical_formula_structural   TbDy(Tm5Os2)2
_chemical_formula_sum   'Tb1 Dy1 Tm10 Os4'
_cell_volume   410.81214348
_cell_formula_units_Z   1
loop_
 _symmetry_equiv_pos_site_id
 _symmetry_equiv_pos_as_xyz
  1  'x, y, z'
loop_
 _atom_site_type_symbol
 _atom_site_label
 _atom_site_symmetry_multiplicity
 _atom_site_fract_x
 _atom_site_fract_y
 _atom_site_fract_z
 _atom_site_occupancy
  Tb  Tb0  1  0.039354  0.250000  0.628400  1
  Dy  Dy1  1  0.960615  0.750000  0.371558  1
  Tm  Tm2  1  0.459922  0.750000  0.129142  1
  Tm  Tm3  1  0.540054  0.250000  0.870892  1
  Tm  Tm4  1  0.175820  0.062636  0.164293  1
  Tm  Tm5  1  0.824147  0.937261  0.835674  1
  Tm  Tm6  1  0.327350  0.937316  0.667447  1
  Tm  Tm7  1  0.824147  0.562739  0.835674  1
  Tm  Tm8  1  0.672657  0.062649  0.332534  1
  Tm  Tm9  1  0.175820  0.437364  0.164293  1
  Tm  Tm10  1  0.672657  0.437351  0.332534  1
  Tm  Tm11  1  0.327350  0.562684  0.667447  1
  Os  Os12  1  0.383671  0.250000  0.460597  1
  Os  Os13  1  0.616502  0.750000  0.539311  1
  Os  Os14  1  0.118586  0.750000  0.958812  1
  Os  Os15  1  0.881348  0.250000  0.041393  1
