# generated using pymatgen
data_Tb11Y(Si3Ir)4
_symmetry_space_group_name_H-M   'P 1'
_cell_length_a   4.22991900
_cell_length_b   10.67735298
_cell_length_c   12.31181700
_cell_angle_alpha   89.80635843
_cell_angle_beta   90.00000000
_cell_angle_gamma   90.00000000
_symmetry_Int_Tables_number   1
_chemical_formula_structural   Tb11Y(Si3Ir)4
_chemical_formula_sum   'Tb11 Y1 Si12 Ir4'
_cell_volume   556.05189162
_cell_formula_units_Z   1
loop_
 _symmetry_equiv_pos_site_id
 _symmetry_equiv_pos_as_xyz
  1  'x, y, z'
loop_
 _atom_site_type_symbol
 _atom_site_label
 _atom_site_symmetry_multiplicity
 _atom_site_fract_x
 _atom_site_fract_y
 _atom_site_fract_z
 _atom_site_occupancy
  Tb  Tb0  1  0.250000  0.881069  0.020141  1
  Tb  Tb1  1  0.250000  0.618819  0.520095  1
  Tb  Tb2  1  0.750000  0.119299  0.979114  1
  Tb  Tb3  1  0.750000  0.379738  0.480294  1
  Tb  Tb4  1  0.250000  0.918475  0.603305  1
  Tb  Tb5  1  0.250000  0.581686  0.103668  1
  Tb  Tb6  1  0.750000  0.080950  0.397347  1
  Tb  Tb7  1  0.750000  0.418816  0.896261  1
  Tb  Tb8  1  0.250000  0.658545  0.801182  1
  Tb  Tb9  1  0.250000  0.842249  0.301301  1
  Tb  Tb10  1  0.750000  0.340536  0.198719  1
  Y  Y11  1  0.750000  0.158359  0.699651  1
  Si  Si12  1  0.250000  0.010165  0.820227  1
  Si  Si13  1  0.250000  0.489509  0.321011  1
  Si  Si14  1  0.750000  0.991229  0.179402  1
  Si  Si15  1  0.750000  0.510097  0.678785  1
  Si  Si16  1  0.250000  0.246346  0.840460  1
  Si  Si17  1  0.250000  0.253389  0.341563  1
  Si  Si18  1  0.750000  0.754775  0.159441  1
  Si  Si19  1  0.750000  0.745625  0.658872  1
  Si  Si20  1  0.250000  0.201125  0.544628  1
  Si  Si21  1  0.250000  0.297808  0.042792  1
  Si  Si22  1  0.750000  0.797478  0.456746  1
  Si  Si23  1  0.750000  0.702960  0.956427  1
  Ir  Ir24  1  0.250000  0.389093  0.681749  1
  Ir  Ir25  1  0.250000  0.111532  0.181822  1
  Ir  Ir26  1  0.750000  0.610792  0.318144  1
  Ir  Ir27  1  0.750000  0.889533  0.816849  1
