# generated using pymatgen
data_NdTh3(Pt2Pb)2
_symmetry_space_group_name_H-M   'P 1'
_cell_length_a   3.79186100
_cell_length_b   8.08949733
_cell_length_c   8.08949781
_cell_angle_alpha   90.87635593
_cell_angle_beta   90.00000000
_cell_angle_gamma   90.00000000
_symmetry_Int_Tables_number   1
_chemical_formula_structural   NdTh3(Pt2Pb)2
_chemical_formula_sum   'Nd1 Th3 Pt4 Pb2'
_cell_volume   248.11024860
_cell_formula_units_Z   1
loop_
 _symmetry_equiv_pos_site_id
 _symmetry_equiv_pos_as_xyz
  1  'x, y, z'
loop_
 _atom_site_type_symbol
 _atom_site_label
 _atom_site_symmetry_multiplicity
 _atom_site_fract_x
 _atom_site_fract_y
 _atom_site_fract_z
 _atom_site_occupancy
  Nd  Nd0  1  0.500000  0.673635  0.826365  1
  Th  Th1  1  0.500000  0.172262  0.672459  1
  Th  Th2  1  0.500000  0.827541  0.327738  1
  Th  Th3  1  0.500000  0.329986  0.170014  1
  Pt  Pt4  1  0.000000  0.622608  0.134751  1
  Pt  Pt5  1  0.000000  0.365249  0.877392  1
  Pt  Pt6  1  0.000000  0.880927  0.619073  1
  Pt  Pt7  1  0.000000  0.130669  0.369331  1
  Pb  Pb8  1  0.000000  0.994621  0.997498  1
  Pb  Pb9  1  0.000000  0.502502  0.505379  1
