# generated using pymatgen
data_Hf6Ga2CN
_symmetry_space_group_name_H-M   'P 1'
_cell_length_a   5.88458009
_cell_length_b   5.88458006
_cell_length_c   8.83145802
_cell_angle_alpha   89.76112810
_cell_angle_beta   90.23887135
_cell_angle_gamma   146.50233021
_symmetry_Int_Tables_number   1
_chemical_formula_structural   Hf6Ga2CN
_chemical_formula_sum   'Hf6 Ga2 C1 N1'
_cell_volume   168.78041754
_cell_formula_units_Z   1
loop_
 _symmetry_equiv_pos_site_id
 _symmetry_equiv_pos_as_xyz
  1  'x, y, z'
loop_
 _atom_site_type_symbol
 _atom_site_label
 _atom_site_symmetry_multiplicity
 _atom_site_fract_x
 _atom_site_fract_y
 _atom_site_fract_z
 _atom_site_occupancy
  Hf  Hf0  1  0.629285  0.370715  0.951950  1
  Hf  Hf1  1  0.372077  0.627923  0.455454  1
  Hf  Hf2  1  0.370715  0.629285  0.048050  1
  Hf  Hf3  1  0.627923  0.372077  0.544546  1
  Hf  Hf4  1  0.951958  0.048042  0.749892  1
  Hf  Hf5  1  0.048042  0.951958  0.250108  1
  Ga  Ga6  1  0.252366  0.747634  0.747577  1
  Ga  Ga7  1  0.747634  0.252366  0.252423  1
  C  C8  1  0.000000  0.000000  0.000000  1
  N  N9  1  0.000000  0.000000  0.500000  1
