# generated using pymatgen
data_Cs5(TiS3)2
_symmetry_space_group_name_H-M   'P 1'
_cell_length_a   8.00436342
_cell_length_b   8.69113035
_cell_length_c   17.96701074
_cell_angle_alpha   89.99635224
_cell_angle_beta   100.10855311
_cell_angle_gamma   122.87521987
_symmetry_Int_Tables_number   1
_chemical_formula_structural   Cs5(TiS3)2
_chemical_formula_sum   'Cs10 Ti4 S12'
_cell_volume   1026.57373255
_cell_formula_units_Z   2
loop_
 _symmetry_equiv_pos_site_id
 _symmetry_equiv_pos_as_xyz
  1  'x, y, z'
loop_
 _atom_site_type_symbol
 _atom_site_label
 _atom_site_symmetry_multiplicity
 _atom_site_fract_x
 _atom_site_fract_y
 _atom_site_fract_z
 _atom_site_occupancy
  Cs  Cs0  1  0.124985  0.802317  0.997298  1
  Cs  Cs1  1  0.875019  0.677288  0.502719  1
  Cs  Cs2  1  0.875015  0.197683  0.002702  1
  Cs  Cs3  1  0.124981  0.322712  0.497281  1
  Cs  Cs4  1  0.313822  0.075054  0.720272  1
  Cs  Cs5  1  0.686160  0.761302  0.779719  1
  Cs  Cs6  1  0.686178  0.924946  0.279728  1
  Cs  Cs7  1  0.313840  0.238698  0.220281  1
  Cs  Cs8  1  0.000023  0.384417  0.750009  1
  Cs  Cs9  1  0.999977  0.615583  0.249991  1
  Ti  Ti10  1  0.544347  0.918413  0.569518  1
  Ti  Ti11  1  0.455695  0.374110  0.930495  1
  Ti  Ti12  1  0.455653  0.081587  0.430482  1
  Ti  Ti13  1  0.544305  0.625890  0.069505  1
  S  S14  1  0.859809  0.994303  0.624341  1
  S  S15  1  0.140181  0.134579  0.875675  1
  S  S16  1  0.140191  0.005697  0.375659  1
  S  S17  1  0.859819  0.865421  0.124325  1
  S  S18  1  0.307367  0.713958  0.633504  1
  S  S19  1  0.692594  0.406515  0.866474  1
  S  S20  1  0.692633  0.286042  0.366496  1
  S  S21  1  0.307406  0.593485  0.133526  1
  S  S22  1  0.545058  0.190909  0.560857  1
  S  S23  1  0.454983  0.645837  0.939129  1
  S  S24  1  0.454942  0.809091  0.439143  1
  S  S25  1  0.545017  0.354163  0.060871  1
