# generated using pymatgen
data_Dy6Nb2Co(Ni5P4)3
_symmetry_space_group_name_H-M   'P 1'
_cell_length_a   3.79251300
_cell_length_b   10.74066700
_cell_length_c   12.36977600
_cell_angle_alpha   90.00000000
_cell_angle_beta   90.00000000
_cell_angle_gamma   90.00000000
_symmetry_Int_Tables_number   1
_chemical_formula_structural   Dy6Nb2Co(Ni5P4)3
_chemical_formula_sum   'Dy6 Nb2 Co1 Ni15 P12'
_cell_volume   503.87193039
_cell_formula_units_Z   1
loop_
 _symmetry_equiv_pos_site_id
 _symmetry_equiv_pos_as_xyz
  1  'x, y, z'
loop_
 _atom_site_type_symbol
 _atom_site_label
 _atom_site_symmetry_multiplicity
 _atom_site_fract_x
 _atom_site_fract_y
 _atom_site_fract_z
 _atom_site_occupancy
  Dy  Dy0  1  0.000000  0.500000  0.525426  1
  Dy  Dy1  1  0.500000  0.000000  0.474383  1
  Dy  Dy2  1  0.500000  0.819853  0.204909  1
  Dy  Dy3  1  0.500000  0.180147  0.204909  1
  Dy  Dy4  1  0.000000  0.680481  0.794168  1
  Dy  Dy5  1  0.000000  0.319519  0.794168  1
  Nb  Nb6  1  0.500000  0.500000  0.153203  1
  Nb  Nb7  1  0.000000  0.000000  0.847065  1
  Co  Co8  1  0.500000  0.000000  0.015214  1
  Ni  Ni9  1  0.500000  0.500000  0.701163  1
  Ni  Ni10  1  0.000000  0.000000  0.298233  1
  Ni  Ni11  1  0.000000  0.500000  0.984265  1
  Ni  Ni12  1  0.500000  0.331958  0.987440  1
  Ni  Ni13  1  0.500000  0.668042  0.987440  1
  Ni  Ni14  1  0.000000  0.165825  0.012162  1
  Ni  Ni15  1  0.000000  0.834175  0.012162  1
  Ni  Ni16  1  0.500000  0.300381  0.429215  1
  Ni  Ni17  1  0.500000  0.699619  0.429215  1
  Ni  Ni18  1  0.000000  0.199393  0.571149  1
  Ni  Ni19  1  0.000000  0.800607  0.571149  1
  Ni  Ni20  1  0.500000  0.878358  0.707995  1
  Ni  Ni21  1  0.500000  0.121642  0.707995  1
  Ni  Ni22  1  0.000000  0.621632  0.292608  1
  Ni  Ni23  1  0.000000  0.378368  0.292608  1
  P  P24  1  0.500000  0.500000  0.879757  1
  P  P25  1  0.000000  0.000000  0.119441  1
  P  P26  1  0.500000  0.500000  0.353004  1
  P  P27  1  0.000000  0.000000  0.646968  1
  P  P28  1  0.500000  0.313555  0.614774  1
  P  P29  1  0.500000  0.686445  0.614774  1
  P  P30  1  0.000000  0.186220  0.385208  1
  P  P31  1  0.000000  0.813780  0.385208  1
  P  P32  1  0.500000  0.843477  0.894311  1
  P  P33  1  0.500000  0.156523  0.894311  1
  P  P34  1  0.000000  0.657352  0.107000  1
  P  P35  1  0.000000  0.342648  0.107000  1
