# generated using pymatgen
data_NaLa2NbO6
_symmetry_space_group_name_H-M   'P 1'
_cell_length_a   6.87486783
_cell_length_b   6.87486832
_cell_length_c   8.74711500
_cell_angle_alpha   75.50232902
_cell_angle_beta   75.50232797
_cell_angle_gamma   48.82832090
_symmetry_Int_Tables_number   1
_chemical_formula_structural   NaLa2NbO6
_chemical_formula_sum   'Na2 La4 Nb2 O12'
_cell_volume   299.20767007
_cell_formula_units_Z   2
loop_
 _symmetry_equiv_pos_site_id
 _symmetry_equiv_pos_as_xyz
  1  'x, y, z'
loop_
 _atom_site_type_symbol
 _atom_site_label
 _atom_site_symmetry_multiplicity
 _atom_site_fract_x
 _atom_site_fract_y
 _atom_site_fract_z
 _atom_site_occupancy
  Na  Na0  1  0.892509  0.892509  0.485757  1
  Na  Na1  1  0.107491  0.107491  0.514243  1
  La  La2  1  0.870883  0.870883  0.923143  1
  La  La3  1  0.129117  0.129117  0.076857  1
  La  La4  1  0.407751  0.407751  0.212058  1
  La  La5  1  0.592249  0.592249  0.787942  1
  Nb  Nb6  1  0.659783  0.659783  0.307219  1
  Nb  Nb7  1  0.340217  0.340217  0.692781  1
  O  O8  1  0.694761  0.217674  0.687408  1
  O  O9  1  0.782326  0.305239  0.312592  1
  O  O10  1  0.746453  0.253547  0.000000  1
  O  O11  1  0.528227  0.994954  0.167272  1
  O  O12  1  0.305239  0.782326  0.312592  1
  O  O13  1  0.471773  0.005046  0.832728  1
  O  O14  1  0.005046  0.471773  0.832728  1
  O  O15  1  0.302972  0.302972  0.501326  1
  O  O16  1  0.697028  0.697028  0.498674  1
  O  O17  1  0.253547  0.746453  0.000000  1
  O  O18  1  0.994954  0.528227  0.167272  1
  O  O19  1  0.217674  0.694761  0.687408  1
