# generated using pymatgen
data_Tb3Tm4Co2Sn23Rh4
_symmetry_space_group_name_H-M   'P 1'
_cell_length_a   9.78578992
_cell_length_b   9.82016275
_cell_length_c   10.01515080
_cell_angle_alpha   89.99999863
_cell_angle_beta   90.05125259
_cell_angle_gamma   120.11626242
_symmetry_Int_Tables_number   1
_chemical_formula_structural   Tb3Tm4Co2Sn23Rh4
_chemical_formula_sum   'Tb3 Tm4 Co2 Sn23 Rh4'
_cell_volume   832.51579276
_cell_formula_units_Z   1
loop_
 _symmetry_equiv_pos_site_id
 _symmetry_equiv_pos_as_xyz
  1  'x, y, z'
loop_
 _atom_site_type_symbol
 _atom_site_label
 _atom_site_symmetry_multiplicity
 _atom_site_fract_x
 _atom_site_fract_y
 _atom_site_fract_z
 _atom_site_occupancy
  Tb  Tb0  1  0.000000  0.000000  0.000000  1
  Tb  Tb1  1  0.042273  0.521137  0.308546  1
  Tb  Tb2  1  0.957727  0.478863  0.691454  1
  Tm  Tm3  1  0.479859  0.520361  0.309142  1
  Tm  Tm4  1  0.520141  0.479639  0.690858  1
  Tm  Tm5  1  0.479859  0.959498  0.309142  1
  Tm  Tm6  1  0.520141  0.040502  0.690858  1
  Co  Co7  1  0.339108  0.169554  0.200036  1
  Co  Co8  1  0.660892  0.830446  0.799964  1
  Sn  Sn9  1  0.352987  0.005838  0.004802  1
  Sn  Sn10  1  0.647013  0.994162  0.995198  1
  Sn  Sn11  1  0.000000  0.351333  0.000000  1
  Sn  Sn12  1  0.000000  0.648667  0.000000  1
  Sn  Sn13  1  0.647013  0.652851  0.995198  1
  Sn  Sn14  1  0.352987  0.347149  0.004802  1
  Sn  Sn15  1  0.339156  0.669579  0.821686  1
  Sn  Sn16  1  0.660844  0.330421  0.178314  1
  Sn  Sn17  1  0.000000  0.000000  0.500000  1
  Sn  Sn18  1  0.777987  0.218840  0.458064  1
  Sn  Sn19  1  0.222013  0.781160  0.541936  1
  Sn  Sn20  1  0.777987  0.559146  0.458064  1
  Sn  Sn21  1  0.222013  0.440854  0.541936  1
  Sn  Sn22  1  0.438117  0.219058  0.452830  1
  Sn  Sn23  1  0.561883  0.780942  0.547170  1
  Sn  Sn24  1  0.336851  0.668426  0.118054  1
  Sn  Sn25  1  0.663149  0.331574  0.881946  1
  Sn  Sn26  1  0.123398  0.887966  0.277301  1
  Sn  Sn27  1  0.876602  0.112034  0.722699  1
  Sn  Sn28  1  0.123398  0.235434  0.277301  1
  Sn  Sn29  1  0.876602  0.764566  0.722699  1
  Sn  Sn30  1  0.758483  0.879242  0.282397  1
  Sn  Sn31  1  0.241517  0.120758  0.717603  1
  Rh  Rh32  1  0.829095  0.167049  0.198776  1
  Rh  Rh33  1  0.170905  0.832951  0.801224  1
  Rh  Rh34  1  0.829095  0.662046  0.198776  1
  Rh  Rh35  1  0.170905  0.337954  0.801224  1
