# generated using pymatgen
data_DyMgU7S17
_symmetry_space_group_name_H-M   'P 1'
_cell_length_a   7.80359207
_cell_length_b   7.81171671
_cell_length_c   10.35055700
_cell_angle_alpha   80.76970250
_cell_angle_beta   80.64638527
_cell_angle_gamma   64.72050775
_symmetry_Int_Tables_number   1
_chemical_formula_structural   DyMgU7S17
_chemical_formula_sum   'Dy1 Mg1 U7 S17'
_cell_volume   560.01871652
_cell_formula_units_Z   1
loop_
 _symmetry_equiv_pos_site_id
 _symmetry_equiv_pos_as_xyz
  1  'x, y, z'
loop_
 _atom_site_type_symbol
 _atom_site_label
 _atom_site_symmetry_multiplicity
 _atom_site_fract_x
 _atom_site_fract_y
 _atom_site_fract_z
 _atom_site_occupancy
  Dy  Dy0  1  0.810846  0.307662  0.298063  1
  Mg  Mg1  1  0.999925  0.001115  0.001545  1
  U  U2  1  0.300245  0.818513  0.298750  1
  U  U3  1  0.183669  0.697683  0.700160  1
  U  U4  1  0.699835  0.181635  0.701875  1
  U  U5  1  0.203060  0.202403  0.541239  1
  U  U6  1  0.797514  0.794544  0.458056  1
  U  U7  1  0.682627  0.680360  0.984126  1
  U  U8  1  0.315496  0.319587  0.016488  1
  S  S9  1  0.823390  0.431096  0.537189  1
  S  S10  1  0.434188  0.819223  0.534997  1
  S  S11  1  0.180668  0.564779  0.464446  1
  S  S12  1  0.568968  0.175019  0.469600  1
  S  S13  1  0.941599  0.332197  0.031756  1
  S  S14  1  0.331796  0.944266  0.034837  1
  S  S15  1  0.057289  0.671761  0.963050  1
  S  S16  1  0.669094  0.060370  0.963032  1
  S  S17  1  0.216481  0.207960  0.279535  1
  S  S18  1  0.786806  0.787732  0.721633  1
  S  S19  1  0.062770  0.058279  0.767211  1
  S  S20  1  0.942253  0.938224  0.235357  1
  S  S21  1  0.301374  0.302079  0.753472  1
  S  S22  1  0.693522  0.704259  0.244809  1
  S  S23  1  0.520429  0.523248  0.827977  1
  S  S24  1  0.471965  0.484839  0.165168  1
  S  S25  1  0.004188  0.991171  0.505629  1
