# generated using pymatgen
data_La4Ho6Ga3Si5
_symmetry_space_group_name_H-M   'P 1'
_cell_length_a   7.60988726
_cell_length_b   7.91994815
_cell_length_c   15.09591600
_cell_angle_alpha   89.98004763
_cell_angle_beta   90.03297003
_cell_angle_gamma   90.13403539
_symmetry_Int_Tables_number   1
_chemical_formula_structural   La4Ho6Ga3Si5
_chemical_formula_sum   'La8 Ho12 Ga6 Si10'
_cell_volume   909.82684163
_cell_formula_units_Z   2
loop_
 _symmetry_equiv_pos_site_id
 _symmetry_equiv_pos_as_xyz
  1  'x, y, z'
loop_
 _atom_site_type_symbol
 _atom_site_label
 _atom_site_symmetry_multiplicity
 _atom_site_fract_x
 _atom_site_fract_y
 _atom_site_fract_z
 _atom_site_occupancy
  La  La0  1  0.022417  0.177319  0.399391  1
  La  La1  1  0.522200  0.323067  0.399824  1
  La  La2  1  0.480831  0.676099  0.902138  1
  La  La3  1  0.478856  0.677332  0.596641  1
  La  La4  1  0.977408  0.820212  0.596688  1
  La  La5  1  0.976714  0.825611  0.902462  1
  La  La6  1  0.520943  0.321360  0.101564  1
  La  La7  1  0.020747  0.178740  0.101865  1
  Ho  Ho8  1  0.322317  0.176724  0.622715  1
  Ho  Ho9  1  0.678947  0.821476  0.375617  1
  Ho  Ho10  1  0.658152  0.988952  0.751495  1
  Ho  Ho11  1  0.178720  0.678675  0.375535  1
  Ho  Ho12  1  0.819730  0.322861  0.876819  1
  Ho  Ho13  1  0.820010  0.324677  0.622758  1
  Ho  Ho14  1  0.845611  0.493345  0.250801  1
  Ho  Ho15  1  0.346744  0.006481  0.251516  1
  Ho  Ho16  1  0.324810  0.178454  0.875613  1
  Ho  Ho17  1  0.178481  0.674471  0.125817  1
  Ho  Ho18  1  0.678045  0.825641  0.125108  1
  Ho  Ho19  1  0.152239  0.504910  0.750618  1
  Ga  Ga20  1  0.271131  0.880978  0.749214  1
  Ga  Ga21  1  0.149293  0.465395  0.537925  1
  Ga  Ga22  1  0.848084  0.534823  0.040617  1
  Ga  Ga23  1  0.349134  0.965333  0.039201  1
  Ga  Ga24  1  0.150433  0.465904  0.959918  1
  Ga  Ga25  1  0.650420  0.035244  0.538070  1
  Si  Si26  1  0.473633  0.614730  0.251312  1
  Si  Si27  1  0.025951  0.119067  0.749288  1
  Si  Si28  1  0.528520  0.387477  0.749370  1
  Si  Si29  1  0.974181  0.885980  0.250741  1
  Si  Si30  1  0.726440  0.118480  0.251012  1
  Si  Si31  1  0.353035  0.967303  0.459210  1
  Si  Si32  1  0.853077  0.532595  0.458602  1
  Si  Si33  1  0.769744  0.615717  0.749061  1
  Si  Si34  1  0.226669  0.380652  0.250999  1
  Si  Si35  1  0.646330  0.033918  0.960476  1
