# generated using pymatgen
data_Ce4In2Ir2PtRh
_symmetry_space_group_name_H-M   'P 1'
_cell_length_a   7.74900418
_cell_length_b   7.74900484
_cell_length_c   3.74009100
_cell_angle_alpha   90.00000000
_cell_angle_beta   90.00000000
_cell_angle_gamma   90.01429251
_symmetry_Int_Tables_number   1
_chemical_formula_structural   Ce4In2Ir2PtRh
_chemical_formula_sum   'Ce4 In2 Ir2 Pt1 Rh1'
_cell_volume   224.58150242
_cell_formula_units_Z   1
loop_
 _symmetry_equiv_pos_site_id
 _symmetry_equiv_pos_as_xyz
  1  'x, y, z'
loop_
 _atom_site_type_symbol
 _atom_site_label
 _atom_site_symmetry_multiplicity
 _atom_site_fract_x
 _atom_site_fract_y
 _atom_site_fract_z
 _atom_site_occupancy
  Ce  Ce0  1  0.670852  0.174773  0.500000  1
  Ce  Ce1  1  0.325227  0.829148  0.500000  1
  Ce  Ce2  1  0.169525  0.330475  0.500000  1
  Ce  Ce3  1  0.836827  0.663173  0.500000  1
  In  In4  1  0.001805  0.000435  0.000000  1
  In  In5  1  0.499565  0.498195  0.000000  1
  Ir  Ir6  1  0.135496  0.634541  0.000000  1
  Ir  Ir7  1  0.865459  0.364504  0.000000  1
  Pt  Pt8  1  0.631750  0.868250  0.000000  1
  Rh  Rh9  1  0.363493  0.136507  0.000000  1
