# generated using pymatgen
data_Pr2Nd2HoPb4
_symmetry_space_group_name_H-M   'P 1'
_cell_length_a   8.37346000
_cell_length_b   8.51277200
_cell_length_c   16.20348100
_cell_angle_alpha   90.00000000
_cell_angle_beta   90.00000000
_cell_angle_gamma   90.00000000
_symmetry_Int_Tables_number   1
_chemical_formula_structural   Pr2Nd2HoPb4
_chemical_formula_sum   'Pr8 Nd8 Ho4 Pb16'
_cell_volume   1155.00609486
_cell_formula_units_Z   4
loop_
 _symmetry_equiv_pos_site_id
 _symmetry_equiv_pos_as_xyz
  1  'x, y, z'
loop_
 _atom_site_type_symbol
 _atom_site_label
 _atom_site_symmetry_multiplicity
 _atom_site_fract_x
 _atom_site_fract_y
 _atom_site_fract_z
 _atom_site_occupancy
  Pr  Pr0  1  0.476474  0.678628  0.598371  1
  Pr  Pr1  1  0.976474  0.821372  0.901629  1
  Pr  Pr2  1  0.523526  0.321372  0.098371  1
  Pr  Pr3  1  0.023526  0.178628  0.401629  1
  Pr  Pr4  1  0.523526  0.321372  0.401629  1
  Pr  Pr5  1  0.023526  0.178628  0.098371  1
  Pr  Pr6  1  0.476474  0.678628  0.901629  1
  Pr  Pr7  1  0.976474  0.821372  0.598371  1
  Nd  Nd8  1  0.632880  0.157766  0.620620  1
  Nd  Nd9  1  0.132880  0.342234  0.879380  1
  Nd  Nd10  1  0.367120  0.842234  0.120620  1
  Nd  Nd11  1  0.867120  0.657766  0.379380  1
  Nd  Nd12  1  0.367120  0.842234  0.379380  1
  Nd  Nd13  1  0.867120  0.657766  0.120620  1
  Nd  Nd14  1  0.632880  0.157766  0.879380  1
  Nd  Nd15  1  0.132880  0.342234  0.620620  1
  Ho  Ho16  1  0.799983  0.496749  0.750000  1
  Ho  Ho17  1  0.299983  0.003251  0.750000  1
  Ho  Ho18  1  0.200017  0.503251  0.250000  1
  Ho  Ho19  1  0.700017  0.996749  0.250000  1
  Pb  Pb20  1  0.709707  0.963510  0.455110  1
  Pb  Pb21  1  0.209707  0.536490  0.044890  1
  Pb  Pb22  1  0.290293  0.036490  0.955110  1
  Pb  Pb23  1  0.790293  0.463510  0.544890  1
  Pb  Pb24  1  0.290293  0.036490  0.544890  1
  Pb  Pb25  1  0.790293  0.463510  0.955110  1
  Pb  Pb26  1  0.709707  0.963510  0.044890  1
  Pb  Pb27  1  0.209707  0.536490  0.455110  1
  Pb  Pb28  1  0.438034  0.374608  0.750000  1
  Pb  Pb29  1  0.938034  0.125392  0.750000  1
  Pb  Pb30  1  0.561966  0.625392  0.250000  1
  Pb  Pb31  1  0.061966  0.874608  0.250000  1
  Pb  Pb32  1  0.665214  0.846447  0.750000  1
  Pb  Pb33  1  0.165214  0.653553  0.750000  1
  Pb  Pb34  1  0.334786  0.153553  0.250000  1
  Pb  Pb35  1  0.834786  0.346447  0.250000  1
