# generated using pymatgen
data_Tb3Sc(Si3Ni5)4
_symmetry_space_group_name_H-M   'P 1'
_cell_length_a   3.78099600
_cell_length_b   18.68076604
_cell_length_c   6.58918235
_cell_angle_alpha   89.98511419
_cell_angle_beta   90.00000000
_cell_angle_gamma   90.00000000
_symmetry_Int_Tables_number   1
_chemical_formula_structural   Tb3Sc(Si3Ni5)4
_chemical_formula_sum   'Tb3 Sc1 Si12 Ni20'
_cell_volume   465.40646407
_cell_formula_units_Z   1
loop_
 _symmetry_equiv_pos_site_id
 _symmetry_equiv_pos_as_xyz
  1  'x, y, z'
loop_
 _atom_site_type_symbol
 _atom_site_label
 _atom_site_symmetry_multiplicity
 _atom_site_fract_x
 _atom_site_fract_y
 _atom_site_fract_z
 _atom_site_occupancy
  Tb  Tb0  1  0.250000  0.357810  0.875355  1
  Tb  Tb1  1  0.250000  0.855570  0.624060  1
  Tb  Tb2  1  0.750000  0.143442  0.376368  1
  Sc  Sc3  1  0.750000  0.644778  0.121362  1
  Si  Si4  1  0.750000  0.736125  0.620030  1
  Si  Si5  1  0.250000  0.263288  0.381863  1
  Si  Si6  1  0.250000  0.758554  0.119894  1
  Si  Si7  1  0.750000  0.238015  0.880462  1
  Si  Si8  1  0.750000  0.924827  0.341395  1
  Si  Si9  1  0.250000  0.072664  0.656870  1
  Si  Si10  1  0.250000  0.575738  0.851736  1
  Si  Si11  1  0.750000  0.426106  0.157805  1
  Si  Si12  1  0.750000  0.911672  0.924763  1
  Si  Si13  1  0.250000  0.086742  0.075914  1
  Si  Si14  1  0.250000  0.588499  0.408378  1
  Si  Si15  1  0.750000  0.417108  0.578619  1
  Ni  Ni16  1  0.750000  0.798660  0.312707  1
  Ni  Ni17  1  0.250000  0.199172  0.687252  1
  Ni  Ni18  1  0.250000  0.697793  0.816101  1
  Ni  Ni19  1  0.750000  0.301190  0.187807  1
  Ni  Ni20  1  0.750000  0.993079  0.634748  1
  Ni  Ni21  1  0.250000  0.004520  0.363697  1
  Ni  Ni22  1  0.250000  0.506069  0.133737  1
  Ni  Ni23  1  0.750000  0.495750  0.868730  1
  Ni  Ni24  1  0.750000  0.519000  0.378036  1
  Ni  Ni25  1  0.250000  0.488745  0.612557  1
  Ni  Ni26  1  0.250000  0.982725  0.888157  1
  Ni  Ni27  1  0.750000  0.015800  0.113139  1
  Ni  Ni28  1  0.750000  0.790274  0.930784  1
  Ni  Ni29  1  0.250000  0.207911  0.071900  1
  Ni  Ni30  1  0.250000  0.706500  0.428343  1
  Ni  Ni31  1  0.750000  0.295043  0.572055  1
  Ni  Ni32  1  0.750000  0.614371  0.648623  1
  Ni  Ni33  1  0.250000  0.385548  0.358312  1
  Ni  Ni34  1  0.250000  0.881342  0.145274  1
  Ni  Ni35  1  0.750000  0.115569  0.853163  1
