# generated using pymatgen
data_Zr2ZnB2Ru5
_symmetry_space_group_name_H-M   'P 1'
_cell_length_a   9.37979200
_cell_length_b   9.37979200
_cell_length_c   3.10080100
_cell_angle_alpha   90.00000000
_cell_angle_beta   90.00000000
_cell_angle_gamma   90.00000000
_symmetry_Int_Tables_number   1
_chemical_formula_structural   Zr2ZnB2Ru5
_chemical_formula_sum   'Zr4 Zn2 B4 Ru10'
_cell_volume   272.81001606
_cell_formula_units_Z   2
loop_
 _symmetry_equiv_pos_site_id
 _symmetry_equiv_pos_as_xyz
  1  'x, y, z'
loop_
 _atom_site_type_symbol
 _atom_site_label
 _atom_site_symmetry_multiplicity
 _atom_site_fract_x
 _atom_site_fract_y
 _atom_site_fract_z
 _atom_site_occupancy
  Zr  Zr0  1  0.675742  0.175742  0.000000  1
  Zr  Zr1  1  0.324258  0.824258  0.000000  1
  Zr  Zr2  1  0.175742  0.324258  0.000000  1
  Zr  Zr3  1  0.824258  0.675742  0.000000  1
  Zn  Zn4  1  0.000000  0.000000  0.000000  1
  Zn  Zn5  1  0.500000  0.500000  0.000000  1
  B  B6  1  0.125187  0.625187  0.000000  1
  B  B7  1  0.874813  0.374813  0.000000  1
  B  B8  1  0.625187  0.874813  0.000000  1
  B  B9  1  0.374813  0.125187  0.000000  1
  Ru  Ru10  1  0.215362  0.072149  0.500000  1
  Ru  Ru11  1  0.784638  0.927851  0.500000  1
  Ru  Ru12  1  0.072149  0.784638  0.500000  1
  Ru  Ru13  1  0.715362  0.427851  0.500000  1
  Ru  Ru14  1  0.927851  0.215362  0.500000  1
  Ru  Ru15  1  0.284638  0.572149  0.500000  1
  Ru  Ru16  1  0.572149  0.715362  0.500000  1
  Ru  Ru17  1  0.427851  0.284638  0.500000  1
  Ru  Ru18  1  0.500000  0.000000  0.500000  1
  Ru  Ru19  1  0.000000  0.500000  0.500000  1
