# generated using pymatgen
data_Yb3YRe3TcB16
_symmetry_space_group_name_H-M   'P 1'
_cell_length_a   3.57581200
_cell_length_b   5.98659807
_cell_length_c   11.57786212
_cell_angle_alpha   89.99968804
_cell_angle_beta   90.00000000
_cell_angle_gamma   90.00000000
_symmetry_Int_Tables_number   1
_chemical_formula_structural   Yb3YRe3TcB16
_chemical_formula_sum   'Yb3 Y1 Re3 Tc1 B16'
_cell_volume   247.84670648
_cell_formula_units_Z   1
loop_
 _symmetry_equiv_pos_site_id
 _symmetry_equiv_pos_as_xyz
  1  'x, y, z'
loop_
 _atom_site_type_symbol
 _atom_site_label
 _atom_site_symmetry_multiplicity
 _atom_site_fract_x
 _atom_site_fract_y
 _atom_site_fract_z
 _atom_site_occupancy
  Yb  Yb0  1  0.500000  0.627972  0.848732  1
  Yb  Yb1  1  0.500000  0.127754  0.649480  1
  Yb  Yb2  1  0.500000  0.873293  0.351306  1
  Y  Y3  1  0.500000  0.372011  0.151269  1
  Re  Re4  1  0.500000  0.630789  0.583567  1
  Re  Re5  1  0.500000  0.131413  0.916117  1
  Re  Re6  1  0.500000  0.870112  0.084960  1
  Tc  Tc7  1  0.500000  0.370811  0.416233  1
  B  B8  1  0.000000  0.112827  0.047282  1
  B  B9  1  0.000000  0.884688  0.952031  1
  B  B10  1  0.000000  0.384799  0.546897  1
  B  B11  1  0.000000  0.614070  0.452245  1
  B  B12  1  0.000000  0.134730  0.467633  1
  B  B13  1  0.000000  0.865064  0.531996  1
  B  B14  1  0.000000  0.364483  0.967625  1
  B  B15  1  0.000000  0.635620  0.031353  1
  B  B16  1  0.000000  0.024559  0.192940  1
  B  B17  1  0.000000  0.975558  0.807481  1
  B  B18  1  0.000000  0.475478  0.692205  1
  B  B19  1  0.000000  0.524906  0.307941  1
  B  B20  1  0.000000  0.215265  0.315767  1
  B  B21  1  0.000000  0.783972  0.684881  1
  B  B22  1  0.000000  0.283349  0.814451  1
  B  B23  1  0.000000  0.716475  0.185612  1
