# generated using pymatgen
data_NaNb6VS12
_symmetry_space_group_name_H-M   'P 1'
_cell_length_a   5.80537600
_cell_length_b   5.80537678
_cell_length_c   13.50189800
_cell_angle_alpha   90.00000000
_cell_angle_beta   90.00000000
_cell_angle_gamma   119.99999553
_symmetry_Int_Tables_number   1
_chemical_formula_structural   NaNb6VS12
_chemical_formula_sum   'Na1 Nb6 V1 S12'
_cell_volume   394.08167376
_cell_formula_units_Z   1
loop_
 _symmetry_equiv_pos_site_id
 _symmetry_equiv_pos_as_xyz
  1  'x, y, z'
loop_
 _atom_site_type_symbol
 _atom_site_label
 _atom_site_symmetry_multiplicity
 _atom_site_fract_x
 _atom_site_fract_y
 _atom_site_fract_z
 _atom_site_occupancy
  Na  Na0  1  0.333333  0.666667  0.250000  1
  Nb  Nb1  1  0.000000  0.000000  0.524237  1
  Nb  Nb2  1  0.000000  0.000000  0.975763  1
  Nb  Nb3  1  0.333333  0.666667  0.975664  1
  Nb  Nb4  1  0.666667  0.333333  0.978167  1
  Nb  Nb5  1  0.666667  0.333333  0.521833  1
  Nb  Nb6  1  0.333333  0.666667  0.524336  1
  V  V7  1  0.666667  0.333333  0.750000  1
  S  S8  1  0.331366  0.331072  0.406789  1
  S  S9  1  0.668928  0.000294  0.406789  1
  S  S10  1  0.999706  0.668634  0.406789  1
  S  S11  1  0.336005  0.333246  0.640430  1
  S  S12  1  0.997241  0.663995  0.640430  1
  S  S13  1  0.666754  0.002759  0.640430  1
  S  S14  1  0.666754  0.663995  0.859570  1
  S  S15  1  0.336005  0.002759  0.859570  1
  S  S16  1  0.997241  0.333246  0.859570  1
  S  S17  1  0.668928  0.668634  0.093211  1
  S  S18  1  0.999706  0.331072  0.093211  1
  S  S19  1  0.331366  0.000294  0.093211  1
