# generated using pymatgen
data_Tb3ThCd2Cu3Pd
_symmetry_space_group_name_H-M   'P 1'
_cell_length_a   3.76447800
_cell_length_b   7.67264696
_cell_length_c   7.67264714
_cell_angle_alpha   91.16512155
_cell_angle_beta   90.00000000
_cell_angle_gamma   90.00000000
_symmetry_Int_Tables_number   1
_chemical_formula_structural   Tb3ThCd2Cu3Pd
_chemical_formula_sum   'Tb3 Th1 Cd2 Cu3 Pd1'
_cell_volume   221.56716665
_cell_formula_units_Z   1
loop_
 _symmetry_equiv_pos_site_id
 _symmetry_equiv_pos_as_xyz
  1  'x, y, z'
loop_
 _atom_site_type_symbol
 _atom_site_label
 _atom_site_symmetry_multiplicity
 _atom_site_fract_x
 _atom_site_fract_y
 _atom_site_fract_z
 _atom_site_occupancy
  Tb  Tb0  1  0.500000  0.827088  0.327088  1
  Tb  Tb1  1  0.500000  0.329381  0.174547  1
  Tb  Tb2  1  0.500000  0.674547  0.829381  1
  Th  Th3  1  0.500000  0.171132  0.671132  1
  Cd  Cd4  1  0.000000  0.995169  0.006751  1
  Cd  Cd5  1  0.000000  0.506751  0.495169  1
  Cu  Cu6  1  0.000000  0.623974  0.123974  1
  Cu  Cu7  1  0.000000  0.876666  0.620106  1
  Cu  Cu8  1  0.000000  0.120106  0.376666  1
  Pd  Pd9  1  0.000000  0.375186  0.875186  1
