# generated using pymatgen
data_Tb5SmTi2(Co4P3)4
_symmetry_space_group_name_H-M   'P 1'
_cell_length_a   3.70755600
_cell_length_b   10.62238800
_cell_length_c   12.31488100
_cell_angle_alpha   90.00000000
_cell_angle_beta   90.00000000
_cell_angle_gamma   90.00000000
_symmetry_Int_Tables_number   1
_chemical_formula_structural   Tb5SmTi2(Co4P3)4
_chemical_formula_sum   'Tb5 Sm1 Ti2 Co16 P12'
_cell_volume   484.99816976
_cell_formula_units_Z   1
loop_
 _symmetry_equiv_pos_site_id
 _symmetry_equiv_pos_as_xyz
  1  'x, y, z'
loop_
 _atom_site_type_symbol
 _atom_site_label
 _atom_site_symmetry_multiplicity
 _atom_site_fract_x
 _atom_site_fract_y
 _atom_site_fract_z
 _atom_site_occupancy
  Tb  Tb0  1  0.500000  0.000000  0.474795  1
  Tb  Tb1  1  0.500000  0.820128  0.204399  1
  Tb  Tb2  1  0.500000  0.179872  0.204399  1
  Tb  Tb3  1  0.000000  0.680146  0.795790  1
  Tb  Tb4  1  0.000000  0.319854  0.795790  1
  Sm  Sm5  1  0.000000  0.500000  0.525621  1
  Ti  Ti6  1  0.500000  0.500000  0.152574  1
  Ti  Ti7  1  0.000000  0.000000  0.846931  1
  Co  Co8  1  0.500000  0.500000  0.704041  1
  Co  Co9  1  0.000000  0.000000  0.297121  1
  Co  Co10  1  0.000000  0.500000  0.987414  1
  Co  Co11  1  0.500000  0.000000  0.012644  1
  Co  Co12  1  0.500000  0.332138  0.994182  1
  Co  Co13  1  0.500000  0.667862  0.994182  1
  Co  Co14  1  0.000000  0.167598  0.005891  1
  Co  Co15  1  0.000000  0.832402  0.005891  1
  Co  Co16  1  0.500000  0.294802  0.431400  1
  Co  Co17  1  0.500000  0.705198  0.431400  1
  Co  Co18  1  0.000000  0.203397  0.568333  1
  Co  Co19  1  0.000000  0.796603  0.568333  1
  Co  Co20  1  0.500000  0.879083  0.706408  1
  Co  Co21  1  0.500000  0.120917  0.706408  1
  Co  Co22  1  0.000000  0.621437  0.293294  1
  Co  Co23  1  0.000000  0.378563  0.293294  1
  P  P24  1  0.500000  0.500000  0.884005  1
  P  P25  1  0.000000  0.000000  0.116305  1
  P  P26  1  0.500000  0.500000  0.350917  1
  P  P27  1  0.000000  0.000000  0.647493  1
  P  P28  1  0.500000  0.308391  0.615995  1
  P  P29  1  0.500000  0.691609  0.615995  1
  P  P30  1  0.000000  0.189939  0.384441  1
  P  P31  1  0.000000  0.810061  0.384441  1
  P  P32  1  0.500000  0.843174  0.892572  1
  P  P33  1  0.500000  0.156826  0.892572  1
  P  P34  1  0.000000  0.656945  0.107366  1
  P  P35  1  0.000000  0.343055  0.107366  1
