# generated using pymatgen
data_Er2TmLu7Sb6
_symmetry_space_group_name_H-M   'P 1'
_cell_length_a   7.95227200
_cell_length_b   9.17693000
_cell_length_c   11.52739500
_cell_angle_alpha   90.00000000
_cell_angle_beta   90.00000000
_cell_angle_gamma   90.00000000
_symmetry_Int_Tables_number   1
_chemical_formula_structural   Er2TmLu7Sb6
_chemical_formula_sum   'Er4 Tm2 Lu14 Sb12'
_cell_volume   841.23981714
_cell_formula_units_Z   2
loop_
 _symmetry_equiv_pos_site_id
 _symmetry_equiv_pos_as_xyz
  1  'x, y, z'
loop_
 _atom_site_type_symbol
 _atom_site_label
 _atom_site_symmetry_multiplicity
 _atom_site_fract_x
 _atom_site_fract_y
 _atom_site_fract_z
 _atom_site_occupancy
  Er  Er0  1  0.313954  0.250000  0.218557  1
  Er  Er1  1  0.813954  0.250000  0.281443  1
  Er  Er2  1  0.686299  0.750000  0.781476  1
  Er  Er3  1  0.186299  0.750000  0.718524  1
  Tm  Tm4  1  0.351867  0.750000  0.216104  1
  Tm  Tm5  1  0.851867  0.750000  0.283896  1
  Lu  Lu6  1  0.647909  0.250000  0.783571  1
  Lu  Lu7  1  0.147909  0.250000  0.716429  1
  Lu  Lu8  1  0.691476  0.562992  0.059368  1
  Lu  Lu9  1  0.191476  0.937008  0.440632  1
  Lu  Lu10  1  0.308470  0.063064  0.940241  1
  Lu  Lu11  1  0.808470  0.436936  0.559759  1
  Lu  Lu12  1  0.308470  0.436936  0.940241  1
  Lu  Lu13  1  0.808470  0.063064  0.559759  1
  Lu  Lu14  1  0.691476  0.937008  0.059368  1
  Lu  Lu15  1  0.191476  0.562992  0.440632  1
  Lu  Lu16  1  0.475268  0.250000  0.489714  1
  Lu  Lu17  1  0.975268  0.250000  0.010286  1
  Lu  Lu18  1  0.524942  0.750000  0.510832  1
  Lu  Lu19  1  0.024942  0.750000  0.989168  1
  Sb  Sb20  1  0.406085  0.750000  0.958537  1
  Sb  Sb21  1  0.906085  0.750000  0.541463  1
  Sb  Sb22  1  0.593930  0.250000  0.040543  1
  Sb  Sb23  1  0.093930  0.250000  0.459457  1
  Sb  Sb24  1  0.565011  0.995624  0.326772  1
  Sb  Sb25  1  0.065011  0.504376  0.173228  1
  Sb  Sb26  1  0.434916  0.494962  0.673500  1
  Sb  Sb27  1  0.934916  0.005038  0.826500  1
  Sb  Sb28  1  0.434916  0.005038  0.673500  1
  Sb  Sb29  1  0.934916  0.494962  0.826500  1
  Sb  Sb30  1  0.565011  0.504376  0.326772  1
  Sb  Sb31  1  0.065011  0.995624  0.173228  1
