# generated using pymatgen
data_Yb2Er4Al19Si5Os8
_symmetry_space_group_name_H-M   'P 1'
_cell_length_a   8.69055245
_cell_length_b   8.67160911
_cell_length_c   9.60960200
_cell_angle_alpha   90.00000000
_cell_angle_beta   90.00000000
_cell_angle_gamma   120.10915652
_symmetry_Int_Tables_number   1
_chemical_formula_structural   Yb2Er4Al19Si5Os8
_chemical_formula_sum   'Yb2 Er4 Al19 Si5 Os8'
_cell_volume   626.47589263
_cell_formula_units_Z   1
loop_
 _symmetry_equiv_pos_site_id
 _symmetry_equiv_pos_as_xyz
  1  'x, y, z'
loop_
 _atom_site_type_symbol
 _atom_site_label
 _atom_site_symmetry_multiplicity
 _atom_site_fract_x
 _atom_site_fract_y
 _atom_site_fract_z
 _atom_site_occupancy
  Yb  Yb0  1  0.195284  0.389736  0.250000  1
  Yb  Yb1  1  0.607982  0.805994  0.250000  1
  Er  Er2  1  0.804037  0.608808  0.750000  1
  Er  Er3  1  0.392309  0.196716  0.750000  1
  Er  Er4  1  0.199744  0.806770  0.250000  1
  Er  Er5  1  0.804346  0.195792  0.750000  1
  Al  Al6  1  0.164761  0.330187  0.576099  1
  Al  Al7  1  0.833909  0.668298  0.422036  1
  Al  Al8  1  0.668826  0.835277  0.575052  1
  Al  Al9  1  0.833909  0.668298  0.077964  1
  Al  Al10  1  0.329908  0.166250  0.422095  1
  Al  Al11  1  0.164761  0.330187  0.923901  1
  Al  Al12  1  0.166127  0.835130  0.576214  1
  Al  Al13  1  0.329908  0.166250  0.077905  1
  Al  Al14  1  0.835615  0.165831  0.422950  1
  Al  Al15  1  0.668826  0.835277  0.924948  1
  Al  Al16  1  0.835615  0.165831  0.077050  1
  Al  Al17  1  0.166127  0.835130  0.923786  1
  Al  Al18  1  0.437563  0.874412  0.750000  1
  Al  Al19  1  0.873179  0.432975  0.250000  1
  Al  Al20  1  0.127875  0.564419  0.750000  1
  Al  Al21  1  0.559784  0.434114  0.250000  1
  Al  Al22  1  0.436858  0.564971  0.750000  1
  Al  Al23  1  0.000060  0.999210  0.250000  1
  Al  Al24  1  0.000181  0.001073  0.750000  1
  Si  Si25  1  0.332595  0.664763  0.036378  1
  Si  Si26  1  0.667628  0.334216  0.960802  1
  Si  Si27  1  0.667628  0.334216  0.539198  1
  Si  Si28  1  0.332595  0.664763  0.463622  1
  Si  Si29  1  0.564606  0.127960  0.250000  1
  Os  Os30  1  0.500168  0.002794  0.004243  1
  Os  Os31  1  0.997912  0.499383  0.998242  1
  Os  Os32  1  0.500168  0.002794  0.495757  1
  Os  Os33  1  0.500922  0.497697  0.996971  1
  Os  Os34  1  0.997912  0.499383  0.501758  1
  Os  Os35  1  0.500922  0.497697  0.503029  1
  Os  Os36  1  0.999725  0.998698  0.000085  1
  Os  Os37  1  0.999725  0.998698  0.499915  1
