# generated using pymatgen
data_Ti2NbFe4MoP4
_symmetry_space_group_name_H-M   'P 1'
_cell_length_a   3.59199000
_cell_length_b   6.06153904
_cell_length_c   6.85351702
_cell_angle_alpha   89.76749793
_cell_angle_beta   90.00000000
_cell_angle_gamma   90.00000000
_symmetry_Int_Tables_number   1
_chemical_formula_structural   Ti2NbFe4MoP4
_chemical_formula_sum   'Ti2 Nb1 Fe4 Mo1 P4'
_cell_volume   149.22031254
_cell_formula_units_Z   1
loop_
 _symmetry_equiv_pos_site_id
 _symmetry_equiv_pos_as_xyz
  1  'x, y, z'
loop_
 _atom_site_type_symbol
 _atom_site_label
 _atom_site_symmetry_multiplicity
 _atom_site_fract_x
 _atom_site_fract_y
 _atom_site_fract_z
 _atom_site_occupancy
  Ti  Ti0  1  0.750000  0.980066  0.179421  1
  Ti  Ti1  1  0.750000  0.478623  0.318459  1
  Nb  Nb2  1  0.250000  0.521981  0.677529  1
  Fe  Fe3  1  0.250000  0.142654  0.437629  1
  Fe  Fe4  1  0.250000  0.644246  0.063686  1
  Fe  Fe5  1  0.750000  0.856154  0.559571  1
  Fe  Fe6  1  0.750000  0.357883  0.939387  1
  Mo  Mo7  1  0.250000  0.023135  0.826571  1
  P  P8  1  0.250000  0.774835  0.375990  1
  P  P9  1  0.250000  0.273299  0.120126  1
  P  P10  1  0.750000  0.219492  0.618293  1
  P  P11  1  0.750000  0.727633  0.883336  1
