# generated using pymatgen
data_Er4GaOs2Ru5
_symmetry_space_group_name_H-M   'P 1'
_cell_length_a   5.27774510
_cell_length_b   5.31903030
_cell_length_c   8.83182200
_cell_angle_alpha   90.00000000
_cell_angle_beta   90.00000000
_cell_angle_gamma   120.25911200
_symmetry_Int_Tables_number   1
_chemical_formula_structural   Er4GaOs2Ru5
_chemical_formula_sum   'Er4 Ga1 Os2 Ru5'
_cell_volume   214.15190727
_cell_formula_units_Z   1
loop_
 _symmetry_equiv_pos_site_id
 _symmetry_equiv_pos_as_xyz
  1  'x, y, z'
loop_
 _atom_site_type_symbol
 _atom_site_label
 _atom_site_symmetry_multiplicity
 _atom_site_fract_x
 _atom_site_fract_y
 _atom_site_fract_z
 _atom_site_occupancy
  Er  Er0  1  0.333507  0.666755  0.437458  1
  Er  Er1  1  0.665592  0.332795  0.567640  1
  Er  Er2  1  0.665592  0.332795  0.932360  1
  Er  Er3  1  0.333507  0.666755  0.062542  1
  Ga  Ga4  1  0.334441  0.167221  0.250000  1
  Os  Os5  1  0.175376  0.349264  0.750000  1
  Os  Os6  1  0.175376  0.826112  0.750000  1
  Ru  Ru7  1  0.831204  0.656045  0.250000  1
  Ru  Ru8  1  0.672003  0.836001  0.750000  1
  Ru  Ru9  1  0.991100  0.995549  0.999063  1
  Ru  Ru10  1  0.831204  0.175159  0.250000  1
  Ru  Ru11  1  0.991100  0.995549  0.500937  1
