# generated using pymatgen
data_Lu16Ga5Ni2Hg
_symmetry_space_group_name_H-M   'P 1'
_cell_length_a   9.90367601
_cell_length_b   9.92603953
_cell_length_c   6.71736429
_cell_angle_alpha   90.05899622
_cell_angle_beta   90.00462569
_cell_angle_gamma   119.92828557
_symmetry_Int_Tables_number   1
_chemical_formula_structural   Lu16Ga5Ni2Hg
_chemical_formula_sum   'Lu16 Ga5 Ni2 Hg1'
_cell_volume   572.28848987
_cell_formula_units_Z   1
loop_
 _symmetry_equiv_pos_site_id
 _symmetry_equiv_pos_as_xyz
  1  'x, y, z'
loop_
 _atom_site_type_symbol
 _atom_site_label
 _atom_site_symmetry_multiplicity
 _atom_site_fract_x
 _atom_site_fract_y
 _atom_site_fract_z
 _atom_site_occupancy
  Lu  Lu0  1  0.534258  0.068344  0.529988  1
  Lu  Lu1  1  0.932000  0.464628  0.530123  1
  Lu  Lu2  1  0.532843  0.464573  0.530096  1
  Lu  Lu3  1  0.465198  0.930521  0.030707  1
  Lu  Lu4  1  0.068836  0.533980  0.030310  1
  Lu  Lu5  1  0.464988  0.533984  0.030201  1
  Lu  Lu6  1  0.172749  0.345494  0.725803  1
  Lu  Lu7  1  0.653898  0.828472  0.723750  1
  Lu  Lu8  1  0.174512  0.828620  0.723685  1
  Lu  Lu9  1  0.827249  0.654463  0.225649  1
  Lu  Lu10  1  0.345558  0.171929  0.226643  1
  Lu  Lu11  1  0.826526  0.171725  0.226628  1
  Lu  Lu12  1  0.665158  0.330140  0.907493  1
  Lu  Lu13  1  0.333314  0.666764  0.405236  1
  Lu  Lu14  1  0.001460  0.003002  0.498069  1
  Lu  Lu15  1  0.001980  0.003770  0.999244  1
  Ga  Ga16  1  0.327327  0.164310  0.770844  1
  Ga  Ga17  1  0.837030  0.164188  0.770969  1
  Ga  Ga18  1  0.164400  0.328733  0.270235  1
  Ga  Ga19  1  0.672744  0.836743  0.270265  1
  Ga  Ga20  1  0.164173  0.837230  0.270226  1
  Ni  Ni21  1  0.666676  0.332714  0.291957  1
  Ni  Ni22  1  0.332071  0.665560  0.790905  1
  Hg  Hg23  1  0.835053  0.670117  0.776657  1
