# generated using pymatgen
data_Rb2Tb3DyY2F20
_symmetry_space_group_name_H-M   'P 1'
_cell_length_a   8.32689482
_cell_length_b   8.32285608
_cell_length_c   8.32102400
_cell_angle_alpha   60.03913907
_cell_angle_beta   59.99096234
_cell_angle_gamma   59.96920962
_symmetry_Int_Tables_number   1
_chemical_formula_structural   Rb2Tb3DyY2F20
_chemical_formula_sum   'Rb2 Tb3 Dy1 Y2 F20'
_cell_volume   407.76940787
_cell_formula_units_Z   1
loop_
 _symmetry_equiv_pos_site_id
 _symmetry_equiv_pos_as_xyz
  1  'x, y, z'
loop_
 _atom_site_type_symbol
 _atom_site_label
 _atom_site_symmetry_multiplicity
 _atom_site_fract_x
 _atom_site_fract_y
 _atom_site_fract_z
 _atom_site_occupancy
  Rb  Rb0  1  0.249987  0.250015  0.249986  1
  Rb  Rb1  1  0.749986  0.750013  0.749987  1
  Tb  Tb2  1  0.759735  0.240265  0.759735  1
  Tb  Tb3  1  0.240233  0.240277  0.759723  1
  Tb  Tb4  1  0.759722  0.759767  0.240233  1
  Dy  Dy5  1  0.240435  0.759566  0.240433  1
  Y  Y6  1  0.759520  0.240479  0.240442  1
  Y  Y7  1  0.240442  0.759558  0.759521  1
  F  F8  1  0.829545  0.500008  0.499990  1
  F  F9  1  0.170730  0.500899  0.499101  1
  F  F10  1  0.499101  0.829267  0.170733  1
  F  F11  1  0.499991  0.170456  0.829543  1
  F  F12  1  0.499633  0.829378  0.500352  1
  F  F13  1  0.170625  0.500368  0.829362  1
  F  F14  1  0.500354  0.170636  0.499634  1
  F  F15  1  0.829362  0.499646  0.170625  1
  F  F16  1  0.499633  0.500364  0.829344  1
  F  F17  1  0.499478  0.500524  0.170931  1
  F  F18  1  0.170933  0.829066  0.499479  1
  F  F19  1  0.829342  0.170659  0.499633  1
  F  F20  1  0.110491  0.109966  0.111022  1
  F  F21  1  0.889827  0.889211  0.889266  1
  F  F22  1  0.110789  0.110172  0.668305  1
  F  F23  1  0.111022  0.668524  0.110489  1
  F  F24  1  0.890035  0.889510  0.331477  1
  F  F25  1  0.889267  0.331694  0.889828  1
  F  F26  1  0.668306  0.110732  0.110789  1
  F  F27  1  0.331476  0.888980  0.890035  1
