# generated using pymatgen
data_Mn7CdPd16
_symmetry_space_group_name_H-M   'P 1'
_cell_length_a   4.04086814
_cell_length_b   5.56145108
_cell_length_c   16.56036779
_cell_angle_alpha   91.47600328
_cell_angle_beta   89.99534833
_cell_angle_gamma   90.00267582
_symmetry_Int_Tables_number   1
_chemical_formula_structural   Mn7CdPd16
_chemical_formula_sum   'Mn7 Cd1 Pd16'
_cell_volume   372.03915850
_cell_formula_units_Z   1
loop_
 _symmetry_equiv_pos_site_id
 _symmetry_equiv_pos_as_xyz
  1  'x, y, z'
loop_
 _atom_site_type_symbol
 _atom_site_label
 _atom_site_symmetry_multiplicity
 _atom_site_fract_x
 _atom_site_fract_y
 _atom_site_fract_z
 _atom_site_occupancy
  Mn  Mn0  1  0.524838  0.336272  0.045453  1
  Mn  Mn1  1  0.524627  0.843067  0.208155  1
  Mn  Mn2  1  0.525826  0.343305  0.367819  1
  Mn  Mn3  1  0.026527  0.040212  0.456228  1
  Mn  Mn4  1  0.527187  0.736733  0.544730  1
  Mn  Mn5  1  0.527377  0.235376  0.703940  1
  Mn  Mn6  1  0.526188  0.741443  0.866887  1
  Cd  Cd7  1  0.025401  0.038903  0.956160  1
  Pd  Pd8  1  0.524894  0.821983  0.039689  1
  Pd  Pd9  1  0.024588  0.090009  0.124805  1
  Pd  Pd10  1  0.024546  0.590611  0.124594  1
  Pd  Pd11  1  0.524693  0.340356  0.207680  1
  Pd  Pd12  1  0.025220  0.596086  0.290777  1
  Pd  Pd13  1  0.025276  0.094663  0.295216  1
  Pd  Pd14  1  0.526068  0.836744  0.381331  1
  Pd  Pd15  1  0.026710  0.540385  0.456236  1
  Pd  Pd16  1  0.526923  0.243370  0.530984  1
  Pd  Pd17  1  0.027385  0.984632  0.616959  1
  Pd  Pd18  1  0.027424  0.483246  0.621476  1
  Pd  Pd19  1  0.527227  0.737996  0.704564  1
  Pd  Pd20  1  0.026844  0.487216  0.787651  1
  Pd  Pd21  1  0.026905  0.987783  0.787452  1
  Pd  Pd22  1  0.526125  0.255658  0.872592  1
  Pd  Pd23  1  0.025535  0.538913  0.956161  1
