# generated using pymatgen
data_LiTl3Zn(SO4)6
_symmetry_space_group_name_H-M   'P 1'
_cell_length_a   8.64041907
_cell_length_b   8.62569299
_cell_length_c   9.37818590
_cell_angle_alpha   62.37082909
_cell_angle_beta   62.59380725
_cell_angle_gamma   60.00583810
_symmetry_Int_Tables_number   1
_chemical_formula_structural   LiTl3Zn(SO4)6
_chemical_formula_sum   'Li1 Tl3 Zn1 S6 O24'
_cell_volume   511.99296476
_cell_formula_units_Z   1
loop_
 _symmetry_equiv_pos_site_id
 _symmetry_equiv_pos_as_xyz
  1  'x, y, z'
loop_
 _atom_site_type_symbol
 _atom_site_label
 _atom_site_symmetry_multiplicity
 _atom_site_fract_x
 _atom_site_fract_y
 _atom_site_fract_z
 _atom_site_occupancy
  Li  Li0  1  0.782621  0.417237  0.631887  1
  Tl  Tl1  1  0.352384  0.345664  0.943602  1
  Tl  Tl2  1  0.643247  0.648399  0.064979  1
  Tl  Tl3  1  0.849291  0.853708  0.454828  1
  Zn  Zn4  1  0.172716  0.146032  0.527831  1
  S  S5  1  0.044034  0.449854  0.748207  1
  S  S6  1  0.538218  0.253941  0.252458  1
  S  S7  1  0.254804  0.954028  0.248386  1
  S  S8  1  0.768635  0.044450  0.744270  1
  S  S9  1  0.450021  0.751537  0.748593  1
  S  S10  1  0.944602  0.546232  0.260838  1
  O  O11  1  0.322849  0.067708  0.069276  1
  O  O12  1  0.073246  0.502526  0.101627  1
  O  O13  1  0.015158  0.341348  0.683036  1
  O  O14  1  0.030002  0.643027  0.628407  1
  O  O15  1  0.348303  0.293990  0.372532  1
  O  O16  1  0.050269  0.005509  0.286403  1
  O  O17  1  0.533650  0.311169  0.076471  1
  O  O18  1  0.235982  0.350775  0.766604  1
  O  O19  1  0.654236  0.048333  0.297470  1
  O  O20  1  0.357822  0.752588  0.251833  1
  O  O21  1  0.633683  0.360781  0.248547  1
  O  O22  1  0.292383  0.988837  0.366359  1
  O  O23  1  0.703006  0.031039  0.629371  1
  O  O24  1  0.352713  0.635939  0.769245  1
  O  O25  1  0.651751  0.241192  0.761139  1
  O  O26  1  0.353575  0.950416  0.671113  1
  O  O27  1  0.748758  0.644226  0.249707  1
  O  O28  1  0.454952  0.723152  0.915617  1
  O  O29  1  0.966319  0.023561  0.676378  1
  O  O30  1  0.648632  0.680958  0.635386  1
  O  O31  1  0.951512  0.373519  0.409276  1
  O  O32  1  0.996259  0.674554  0.281887  1
  O  O33  1  0.901667  0.458387  0.916054  1
  O  O34  1  0.733000  0.906184  0.913984  1
