# generated using pymatgen
data_Cs5Bi(PSe3)4
_symmetry_space_group_name_H-M   'P 1'
_cell_length_a   14.24338700
_cell_length_b   14.24338700
_cell_length_c   7.76650400
_cell_angle_alpha   90.00000000
_cell_angle_beta   90.00000000
_cell_angle_gamma   90.00000000
_symmetry_Int_Tables_number   1
_chemical_formula_structural   Cs5Bi(PSe3)4
_chemical_formula_sum   'Cs10 Bi2 P8 Se24'
_cell_volume   1575.62230125
_cell_formula_units_Z   2
loop_
 _symmetry_equiv_pos_site_id
 _symmetry_equiv_pos_as_xyz
  1  'x, y, z'
loop_
 _atom_site_type_symbol
 _atom_site_label
 _atom_site_symmetry_multiplicity
 _atom_site_fract_x
 _atom_site_fract_y
 _atom_site_fract_z
 _atom_site_occupancy
  Cs  Cs0  1  0.000000  0.000000  0.500000  1
  Cs  Cs1  1  0.000000  0.000000  0.000000  1
  Cs  Cs2  1  0.317403  0.342802  0.500000  1
  Cs  Cs3  1  0.682597  0.657198  0.500000  1
  Cs  Cs4  1  0.657198  0.317403  0.000000  1
  Cs  Cs5  1  0.342802  0.682597  0.000000  1
  Cs  Cs6  1  0.318194  0.970443  0.500000  1
  Cs  Cs7  1  0.681806  0.029557  0.500000  1
  Cs  Cs8  1  0.029557  0.318194  0.000000  1
  Cs  Cs9  1  0.970443  0.681806  0.000000  1
  Bi  Bi10  1  0.000000  0.500000  0.500000  1
  Bi  Bi11  1  0.500000  0.000000  0.000000  1
  P  P12  1  0.208294  0.612362  0.500000  1
  P  P13  1  0.791706  0.387638  0.500000  1
  P  P14  1  0.387638  0.208294  0.000000  1
  P  P15  1  0.612362  0.791706  0.000000  1
  P  P16  1  0.118489  0.748009  0.500000  1
  P  P17  1  0.881511  0.251991  0.500000  1
  P  P18  1  0.251991  0.118489  0.000000  1
  P  P19  1  0.748009  0.881511  0.000000  1
  Se  Se20  1  0.153802  0.822010  0.262428  1
  Se  Se21  1  0.846198  0.177990  0.262428  1
  Se  Se22  1  0.177990  0.153802  0.762428  1
  Se  Se23  1  0.822010  0.846198  0.762428  1
  Se  Se24  1  0.846198  0.177990  0.737572  1
  Se  Se25  1  0.153802  0.822010  0.737572  1
  Se  Se26  1  0.822010  0.846198  0.237572  1
  Se  Se27  1  0.177990  0.153802  0.237572  1
  Se  Se28  1  0.032238  0.297514  0.500000  1
  Se  Se29  1  0.967762  0.702486  0.500000  1
  Se  Se30  1  0.702486  0.032238  0.000000  1
  Se  Se31  1  0.297514  0.967762  0.000000  1
  Se  Se32  1  0.356278  0.639929  0.500000  1
  Se  Se33  1  0.643722  0.360071  0.500000  1
  Se  Se34  1  0.360071  0.356278  0.000000  1
  Se  Se35  1  0.639929  0.643722  0.000000  1
  Se  Se36  1  0.160306  0.533792  0.265489  1
  Se  Se37  1  0.839694  0.466208  0.265489  1
  Se  Se38  1  0.466208  0.160306  0.765489  1
  Se  Se39  1  0.533792  0.839694  0.765489  1
  Se  Se40  1  0.839694  0.466208  0.734511  1
  Se  Se41  1  0.160306  0.533792  0.734511  1
  Se  Se42  1  0.533792  0.839694  0.234511  1
  Se  Se43  1  0.466208  0.160306  0.234511  1
