# generated using pymatgen
data_Tm4NiB16IrRh2
_symmetry_space_group_name_H-M   'P 1'
_cell_length_a   3.51388000
_cell_length_b   5.91966498
_cell_length_c   11.46155500
_cell_angle_alpha   90.03148033
_cell_angle_beta   90.00000000
_cell_angle_gamma   90.00000000
_symmetry_Int_Tables_number   1
_chemical_formula_structural   Tm4NiB16IrRh2
_chemical_formula_sum   'Tm4 Ni1 B16 Ir1 Rh2'
_cell_volume   238.41168240
_cell_formula_units_Z   1
loop_
 _symmetry_equiv_pos_site_id
 _symmetry_equiv_pos_as_xyz
  1  'x, y, z'
loop_
 _atom_site_type_symbol
 _atom_site_label
 _atom_site_symmetry_multiplicity
 _atom_site_fract_x
 _atom_site_fract_y
 _atom_site_fract_z
 _atom_site_occupancy
  Tm  Tm0  1  0.000000  0.128958  0.648208  1
  Tm  Tm1  1  0.000000  0.869668  0.353546  1
  Tm  Tm2  1  0.000000  0.631567  0.847625  1
  Tm  Tm3  1  0.000000  0.367840  0.149424  1
  Ni  Ni4  1  0.000000  0.648535  0.598541  1
  B  B5  1  0.500000  0.789387  0.684205  1
  B  B6  1  0.500000  0.208039  0.313976  1
  B  B7  1  0.500000  0.291052  0.810696  1
  B  B8  1  0.500000  0.708298  0.188029  1
  B  B9  1  0.500000  0.861921  0.532847  1
  B  B10  1  0.500000  0.133272  0.468452  1
  B  B11  1  0.500000  0.365264  0.968237  1
  B  B12  1  0.500000  0.634199  0.029686  1
  B  B13  1  0.500000  0.023271  0.193366  1
  B  B14  1  0.500000  0.977171  0.804985  1
  B  B15  1  0.500000  0.521359  0.307311  1
  B  B16  1  0.500000  0.480178  0.689809  1
  B  B17  1  0.500000  0.112894  0.047238  1
  B  B18  1  0.500000  0.886869  0.951805  1
  B  B19  1  0.500000  0.612140  0.453213  1
  B  B20  1  0.500000  0.384747  0.546209  1
  Ir  Ir21  1  0.000000  0.366452  0.410489  1
  Rh  Rh22  1  0.000000  0.141826  0.906459  1
  Rh  Rh23  1  0.000000  0.855097  0.095644  1
