# generated using pymatgen
data_Tb2Si2NiOs
_symmetry_space_group_name_H-M   'P 1'
_cell_length_a   4.26632100
_cell_length_b   6.95242466
_cell_length_c   7.15651955
_cell_angle_alpha   91.77763109
_cell_angle_beta   90.00000000
_cell_angle_gamma   90.00000000
_symmetry_Int_Tables_number   1
_chemical_formula_structural   Tb2Si2NiOs
_chemical_formula_sum   'Tb4 Si4 Ni2 Os2'
_cell_volume   212.16934070
_cell_formula_units_Z   2
loop_
 _symmetry_equiv_pos_site_id
 _symmetry_equiv_pos_as_xyz
  1  'x, y, z'
loop_
 _atom_site_type_symbol
 _atom_site_label
 _atom_site_symmetry_multiplicity
 _atom_site_fract_x
 _atom_site_fract_y
 _atom_site_fract_z
 _atom_site_occupancy
  Tb  Tb0  1  0.250000  0.487459  0.178359  1
  Tb  Tb1  1  0.750000  0.512541  0.821641  1
  Tb  Tb2  1  0.750000  0.012774  0.700582  1
  Tb  Tb3  1  0.250000  0.987226  0.299418  1
  Si  Si4  1  0.250000  0.805463  0.893864  1
  Si  Si5  1  0.750000  0.194537  0.106136  1
  Si  Si6  1  0.750000  0.697646  0.403405  1
  Si  Si7  1  0.250000  0.302354  0.596595  1
  Ni  Ni8  1  0.750000  0.839576  0.074016  1
  Ni  Ni9  1  0.250000  0.160424  0.925984  1
  Os  Os10  1  0.250000  0.655464  0.571735  1
  Os  Os11  1  0.750000  0.344536  0.428265  1
