# generated using pymatgen
data_La3Pr12Th(MgIr)4
_symmetry_space_group_name_H-M   'P 1'
_cell_length_a   10.13482527
_cell_length_b   10.13482573
_cell_length_c   10.13482617
_cell_angle_alpha   59.90922241
_cell_angle_beta   59.90921888
_cell_angle_gamma   59.90922620
_symmetry_Int_Tables_number   1
_chemical_formula_structural   La3Pr12Th(MgIr)4
_chemical_formula_sum   'La3 Pr12 Th1 Mg4 Ir4'
_cell_volume   734.57912326
_cell_formula_units_Z   1
loop_
 _symmetry_equiv_pos_site_id
 _symmetry_equiv_pos_as_xyz
  1  'x, y, z'
loop_
 _atom_site_type_symbol
 _atom_site_label
 _atom_site_symmetry_multiplicity
 _atom_site_fract_x
 _atom_site_fract_y
 _atom_site_fract_z
 _atom_site_occupancy
  La  La0  1  0.346150  0.346150  0.961881  1
  La  La1  1  0.346150  0.961881  0.346150  1
  La  La2  1  0.961881  0.346150  0.346150  1
  Pr  Pr3  1  0.811306  0.188383  0.188383  1
  Pr  Pr4  1  0.188288  0.811140  0.811140  1
  Pr  Pr5  1  0.188383  0.811306  0.188383  1
  Pr  Pr6  1  0.811140  0.188288  0.811140  1
  Pr  Pr7  1  0.188383  0.188383  0.811306  1
  Pr  Pr8  1  0.811140  0.811140  0.188288  1
  Pr  Pr9  1  0.939954  0.562341  0.562341  1
  Pr  Pr10  1  0.561040  0.937696  0.937696  1
  Pr  Pr11  1  0.562341  0.939954  0.562341  1
  Pr  Pr12  1  0.937696  0.561040  0.937696  1
  Pr  Pr13  1  0.562341  0.562341  0.939954  1
  Pr  Pr14  1  0.937696  0.937696  0.561040  1
  Th  Th15  1  0.343581  0.343581  0.343581  1
  Mg  Mg16  1  0.578927  0.578927  0.578927  1
  Mg  Mg17  1  0.577494  0.577494  0.262676  1
  Mg  Mg18  1  0.577494  0.262676  0.577494  1
  Mg  Mg19  1  0.262676  0.577494  0.577494  1
  Ir  Ir20  1  0.142452  0.142452  0.142452  1
  Ir  Ir21  1  0.147047  0.147047  0.569394  1
  Ir  Ir22  1  0.147047  0.569394  0.147047  1
  Ir  Ir23  1  0.569394  0.147047  0.147047  1
