# generated using pymatgen
data_Hf5Co19(SiP2)4
_symmetry_space_group_name_H-M   'P 1'
_cell_length_a   11.85160105
_cell_length_b   11.82929042
_cell_length_c   3.59668100
_cell_angle_alpha   90.00000000
_cell_angle_beta   90.00000000
_cell_angle_gamma   119.96117868
_symmetry_Int_Tables_number   1
_chemical_formula_structural   Hf5Co19(SiP2)4
_chemical_formula_sum   'Hf5 Co19 Si4 P8'
_cell_volume   436.85572222
_cell_formula_units_Z   1
loop_
 _symmetry_equiv_pos_site_id
 _symmetry_equiv_pos_as_xyz
  1  'x, y, z'
loop_
 _atom_site_type_symbol
 _atom_site_label
 _atom_site_symmetry_multiplicity
 _atom_site_fract_x
 _atom_site_fract_y
 _atom_site_fract_z
 _atom_site_occupancy
  Hf  Hf0  1  0.333586  0.667225  0.500000  1
  Hf  Hf1  1  0.668342  0.334320  0.500000  1
  Hf  Hf2  1  0.816012  0.999230  0.000000  1
  Hf  Hf3  1  0.000015  0.815973  0.000000  1
  Hf  Hf4  1  0.184818  0.185354  0.000000  1
  Co  Co5  1  0.631091  0.807668  0.500000  1
  Co  Co6  1  0.192448  0.822657  0.500000  1
  Co  Co7  1  0.176617  0.369536  0.500000  1
  Co  Co8  1  0.372143  0.179571  0.500000  1
  Co  Co9  1  0.802985  0.623110  0.500000  1
  Co  Co10  1  0.822440  0.197495  0.500000  1
  Co  Co11  1  0.277938  0.000870  0.000000  1
  Co  Co12  1  0.995752  0.279427  0.000000  1
  Co  Co13  1  0.720839  0.715944  0.000000  1
  Co  Co14  1  0.448196  0.000340  0.500000  1
  Co  Co15  1  0.002120  0.450077  0.500000  1
  Co  Co16  1  0.549949  0.552881  0.500000  1
  Co  Co17  1  0.523693  0.877164  0.000000  1
  Co  Co18  1  0.122594  0.646810  0.000000  1
  Co  Co19  1  0.352938  0.476816  0.000000  1
  Co  Co20  1  0.484819  0.358023  0.000000  1
  Co  Co21  1  0.871375  0.515442  0.000000  1
  Co  Co22  1  0.649520  0.127059  0.000000  1
  Co  Co23  1  0.999146  0.999418  0.500000  1
  Si  Si24  1  0.517469  0.680791  0.000000  1
  Si  Si25  1  0.319613  0.837555  0.000000  1
  Si  Si26  1  0.163425  0.483068  0.000000  1
  Si  Si27  1  0.482761  0.162672  0.000000  1
  P  P28  1  0.176152  0.001152  0.500000  1
  P  P29  1  0.999304  0.175777  0.500000  1
  P  P30  1  0.824066  0.822387  0.500000  1
  P  P31  1  0.683308  0.516214  0.000000  1
  P  P32  1  0.833692  0.316720  0.000000  1
  P  P33  1  0.638093  0.000489  0.500000  1
  P  P34  1  0.999950  0.637983  0.500000  1
  P  P35  1  0.362794  0.362783  0.500000  1
