# generated using pymatgen
data_Pa8Al8Tc5Rh3
_symmetry_space_group_name_H-M   'P 1'
_cell_length_a   4.07608900
_cell_length_b   7.17634928
_cell_length_c   15.85096467
_cell_angle_alpha   89.80786086
_cell_angle_beta   90.00000000
_cell_angle_gamma   90.00000000
_symmetry_Int_Tables_number   1
_chemical_formula_structural   Pa8Al8Tc5Rh3
_chemical_formula_sum   'Pa8 Al8 Tc5 Rh3'
_cell_volume   463.66090899
_cell_formula_units_Z   1
loop_
 _symmetry_equiv_pos_site_id
 _symmetry_equiv_pos_as_xyz
  1  'x, y, z'
loop_
 _atom_site_type_symbol
 _atom_site_label
 _atom_site_symmetry_multiplicity
 _atom_site_fract_x
 _atom_site_fract_y
 _atom_site_fract_z
 _atom_site_occupancy
  Pa  Pa0  1  0.250000  0.165509  0.558133  1
  Pa  Pa1  1  0.750000  0.833748  0.441342  1
  Pa  Pa2  1  0.250000  0.669788  0.938557  1
  Pa  Pa3  1  0.750000  0.334448  0.057458  1
  Pa  Pa4  1  0.250000  0.050972  0.782741  1
  Pa  Pa5  1  0.750000  0.941699  0.217661  1
  Pa  Pa6  1  0.250000  0.559079  0.720044  1
  Pa  Pa7  1  0.750000  0.441379  0.282578  1
  Al  Al8  1  0.250000  0.118427  0.348450  1
  Al  Al9  1  0.750000  0.879045  0.652167  1
  Al  Al10  1  0.250000  0.617994  0.151551  1
  Al  Al11  1  0.750000  0.377853  0.848027  1
  Al  Al12  1  0.250000  0.996494  0.063113  1
  Al  Al13  1  0.750000  0.007004  0.937526  1
  Al  Al14  1  0.250000  0.498485  0.437620  1
  Al  Al15  1  0.750000  0.505295  0.564271  1
  Tc  Tc16  1  0.750000  0.253894  0.433826  1
  Tc  Tc17  1  0.250000  0.755052  0.564471  1
  Tc  Tc18  1  0.750000  0.749265  0.064105  1
  Tc  Tc19  1  0.250000  0.249494  0.934232  1
  Tc  Tc20  1  0.750000  0.753636  0.816945  1
  Rh  Rh21  1  0.250000  0.242701  0.186582  1
  Rh  Rh22  1  0.750000  0.255063  0.686092  1
  Rh  Rh23  1  0.250000  0.743677  0.312507  1
