# generated using pymatgen
data_Ti10ZnSn6P
_symmetry_space_group_name_H-M   'P 1'
_cell_length_a   8.21247100
_cell_length_b   8.21247080
_cell_length_c   5.55994300
_cell_angle_alpha   90.00000000
_cell_angle_beta   90.00000000
_cell_angle_gamma   120.00000481
_symmetry_Int_Tables_number   1
_chemical_formula_structural   Ti10ZnSn6P
_chemical_formula_sum   'Ti10 Zn1 Sn6 P1'
_cell_volume   324.74960952
_cell_formula_units_Z   1
loop_
 _symmetry_equiv_pos_site_id
 _symmetry_equiv_pos_as_xyz
  1  'x, y, z'
loop_
 _atom_site_type_symbol
 _atom_site_label
 _atom_site_symmetry_multiplicity
 _atom_site_fract_x
 _atom_site_fract_y
 _atom_site_fract_z
 _atom_site_occupancy
  Ti  Ti0  1  0.259668  0.000000  0.735309  1
  Ti  Ti1  1  0.740332  0.000000  0.264691  1
  Ti  Ti2  1  0.000000  0.259668  0.735309  1
  Ti  Ti3  1  0.000000  0.740332  0.264691  1
  Ti  Ti4  1  0.740332  0.740332  0.735309  1
  Ti  Ti5  1  0.259668  0.259668  0.264691  1
  Ti  Ti6  1  0.333333  0.666667  0.500000  1
  Ti  Ti7  1  0.666667  0.333333  0.500000  1
  Ti  Ti8  1  0.666667  0.333333  0.000000  1
  Ti  Ti9  1  0.333333  0.666667  0.000000  1
  Zn  Zn10  1  0.000000  0.000000  0.000000  1
  Sn  Sn11  1  0.608184  0.000000  0.756592  1
  Sn  Sn12  1  0.391816  0.000000  0.243408  1
  Sn  Sn13  1  0.000000  0.608184  0.756592  1
  Sn  Sn14  1  0.000000  0.391816  0.243408  1
  Sn  Sn15  1  0.391816  0.391816  0.756592  1
  Sn  Sn16  1  0.608184  0.608184  0.243408  1
  P  P17  1  0.000000  0.000000  0.500000  1
