# generated using pymatgen
data_Hf8FeCo15(SiP3)3
_symmetry_space_group_name_H-M   'P 1'
_cell_length_a   12.12147147
_cell_length_b   12.11562458
_cell_length_c   3.63909400
_cell_angle_alpha   90.00000000
_cell_angle_beta   90.00000000
_cell_angle_gamma   119.96928443
_symmetry_Int_Tables_number   1
_chemical_formula_structural   Hf8FeCo15(SiP3)3
_chemical_formula_sum   'Hf8 Fe1 Co15 Si3 P9'
_cell_volume   462.97697416
_cell_formula_units_Z   1
loop_
 _symmetry_equiv_pos_site_id
 _symmetry_equiv_pos_as_xyz
  1  'x, y, z'
loop_
 _atom_site_type_symbol
 _atom_site_label
 _atom_site_symmetry_multiplicity
 _atom_site_fract_x
 _atom_site_fract_y
 _atom_site_fract_z
 _atom_site_occupancy
  Hf  Hf0  1  0.823185  0.822984  0.500000  1
  Hf  Hf1  1  0.442636  0.442206  0.000000  1
  Hf  Hf2  1  0.997359  0.174145  0.500000  1
  Hf  Hf3  1  0.554759  0.000217  0.000000  1
  Hf  Hf4  1  0.333112  0.666405  0.000000  1
  Hf  Hf5  1  0.668746  0.335094  0.000000  1
  Hf  Hf6  1  0.000634  0.557760  0.000000  1
  Hf  Hf7  1  0.175685  0.997838  0.500000  1
  Fe  Fe8  1  0.002066  0.723055  0.500000  1
  Co  Co9  1  0.627049  0.825155  0.000000  1
  Co  Co10  1  0.375523  0.193943  0.000000  1
  Co  Co11  1  0.282544  0.280070  0.500000  1
  Co  Co12  1  0.871994  0.355093  0.500000  1
  Co  Co13  1  0.720898  0.999656  0.500000  1
  Co  Co14  1  0.823208  0.627056  0.000000  1
  Co  Co15  1  0.180351  0.807482  0.000000  1
  Co  Co16  1  0.355061  0.873669  0.500000  1
  Co  Co17  1  0.128141  0.484512  0.500000  1
  Co  Co18  1  0.644317  0.516316  0.500000  1
  Co  Co19  1  0.996471  0.995496  0.000000  1
  Co  Co20  1  0.516479  0.644762  0.500000  1
  Co  Co21  1  0.482366  0.126681  0.500000  1
  Co  Co22  1  0.197949  0.375654  0.000000  1
  Co  Co23  1  0.801999  0.174249  0.000000  1
  Si  Si24  1  0.999869  0.345109  0.000000  1
  Si  Si25  1  0.175570  0.175636  0.000000  1
  Si  Si26  1  0.654028  0.654478  0.000000  1
  P  P27  1  0.827786  0.519871  0.500000  1
  P  P28  1  0.690591  0.174458  0.500000  1
  P  P29  1  0.823273  0.999237  0.000000  1
  P  P30  1  0.515919  0.825818  0.500000  1
  P  P31  1  0.173228  0.691748  0.500000  1
  P  P32  1  0.344802  0.000185  0.000000  1
  P  P33  1  0.484200  0.309319  0.500000  1
  P  P34  1  0.999648  0.821942  0.000000  1
  P  P35  1  0.308556  0.482700  0.500000  1
