# generated using pymatgen
data_Sr2Hg2Pt3RhO14
_symmetry_space_group_name_H-M   'P 1'
_cell_length_a   7.40884888
_cell_length_b   7.39149827
_cell_length_c   7.30833900
_cell_angle_alpha   60.37146296
_cell_angle_beta   60.44774717
_cell_angle_gamma   60.89053733
_symmetry_Int_Tables_number   1
_chemical_formula_structural   Sr2Hg2Pt3RhO14
_chemical_formula_sum   'Sr2 Hg2 Pt3 Rh1 O14'
_cell_volume   286.63016447
_cell_formula_units_Z   1
loop_
 _symmetry_equiv_pos_site_id
 _symmetry_equiv_pos_as_xyz
  1  'x, y, z'
loop_
 _atom_site_type_symbol
 _atom_site_label
 _atom_site_symmetry_multiplicity
 _atom_site_fract_x
 _atom_site_fract_y
 _atom_site_fract_z
 _atom_site_occupancy
  Sr  Sr0  1  0.625000  0.125000  0.125000  1
  Sr  Sr1  1  0.125000  0.625000  0.125000  1
  Hg  Hg2  1  0.125000  0.125000  0.125000  1
  Hg  Hg3  1  0.125000  0.125000  0.625000  1
  Pt  Pt4  1  0.625000  0.625000  0.125000  1
  Pt  Pt5  1  0.625000  0.625000  0.625000  1
  Pt  Pt6  1  0.125000  0.625000  0.625000  1
  Rh  Rh7  1  0.625000  0.125000  0.625000  1
  O  O8  1  0.697570  0.302407  0.303190  1
  O  O9  1  0.697570  0.302407  0.696833  1
  O  O10  1  0.025712  0.025869  0.974210  1
  O  O11  1  0.300958  0.699735  0.298315  1
  O  O12  1  0.705058  0.705136  0.294903  1
  O  O13  1  0.949042  0.550265  0.549008  1
  O  O14  1  0.300958  0.699735  0.700992  1
  O  O15  1  0.224288  0.224131  0.275790  1
  O  O16  1  0.949042  0.550265  0.951685  1
  O  O17  1  0.552430  0.947593  0.553167  1
  O  O18  1  0.544942  0.544864  0.955097  1
  O  O19  1  0.946229  0.946611  0.553580  1
  O  O20  1  0.552430  0.947593  0.946810  1
  O  O21  1  0.303771  0.303389  0.696420  1
