# generated using pymatgen
data_Ca(SnPd2)2
_symmetry_space_group_name_H-M   'P 1'
_cell_length_a   7.17882597
_cell_length_b   7.17882543
_cell_length_c   7.17882619
_cell_angle_alpha   111.41483754
_cell_angle_beta   111.41483291
_cell_angle_gamma   105.65024376
_symmetry_Int_Tables_number   1
_chemical_formula_structural   Ca(SnPd2)2
_chemical_formula_sum   'Ca2 Sn4 Pd8'
_cell_volume   283.85718759
_cell_formula_units_Z   2
loop_
 _symmetry_equiv_pos_site_id
 _symmetry_equiv_pos_as_xyz
  1  'x, y, z'
loop_
 _atom_site_type_symbol
 _atom_site_label
 _atom_site_symmetry_multiplicity
 _atom_site_fract_x
 _atom_site_fract_y
 _atom_site_fract_z
 _atom_site_occupancy
  Ca  Ca0  1  0.750000  0.750000  0.000000  1
  Ca  Ca1  1  0.250000  0.250000  0.000000  1
  Sn  Sn2  1  0.653213  0.846787  0.500000  1
  Sn  Sn3  1  0.846787  0.346787  0.193573  1
  Sn  Sn4  1  0.153213  0.653213  0.806427  1
  Sn  Sn5  1  0.346787  0.153213  0.500000  1
  Pd  Pd6  1  0.984251  0.192076  0.500000  1
  Pd  Pd7  1  0.192076  0.692076  0.207825  1
  Pd  Pd8  1  0.484251  0.984251  0.792175  1
  Pd  Pd9  1  0.807924  0.307924  0.792175  1
  Pd  Pd10  1  0.515749  0.015749  0.207825  1
  Pd  Pd11  1  0.692076  0.484251  0.500000  1
  Pd  Pd12  1  0.307924  0.515749  0.500000  1
  Pd  Pd13  1  0.015749  0.807924  0.500000  1
