# generated using pymatgen
data_YThInPd2
_symmetry_space_group_name_H-M   'P 1'
_cell_length_a   7.87463286
_cell_length_b   7.87463286
_cell_length_c   3.78885600
_cell_angle_alpha   90.00000000
_cell_angle_beta   90.00000000
_cell_angle_gamma   92.01372036
_symmetry_Int_Tables_number   1
_chemical_formula_structural   YThInPd2
_chemical_formula_sum   'Y2 Th2 In2 Pd4'
_cell_volume   234.80127106
_cell_formula_units_Z   2
loop_
 _symmetry_equiv_pos_site_id
 _symmetry_equiv_pos_as_xyz
  1  'x, y, z'
loop_
 _atom_site_type_symbol
 _atom_site_label
 _atom_site_symmetry_multiplicity
 _atom_site_fract_x
 _atom_site_fract_y
 _atom_site_fract_z
 _atom_site_occupancy
  Y  Y0  1  0.672171  0.827828  0.499998  1
  Y  Y1  1  0.327829  0.172172  0.499998  1
  Th  Th2  1  0.174382  0.674381  0.499998  1
  Th  Th3  1  0.825618  0.325619  0.499998  1
  In  In4  1  0.000000  0.000000  0.000000  1
  In  In5  1  0.499999  0.499999  0.000000  1
  Pd  Pd6  1  0.628789  0.128788  0.000000  1
  Pd  Pd7  1  0.371211  0.871211  0.000000  1
  Pd  Pd8  1  0.126791  0.373208  0.000000  1
  Pd  Pd9  1  0.873208  0.626792  0.000000  1
