# generated using pymatgen
data_Yb6ZnCo13C4
_symmetry_space_group_name_H-M   'P 1'
_cell_length_a   5.09358900
_cell_length_b   5.09358711
_cell_length_c   13.60202400
_cell_angle_alpha   90.00000000
_cell_angle_beta   90.00000000
_cell_angle_gamma   120.00001877
_symmetry_Int_Tables_number   1
_chemical_formula_structural   Yb6ZnCo13C4
_chemical_formula_sum   'Yb6 Zn1 Co13 C4'
_cell_volume   305.61996609
_cell_formula_units_Z   1
loop_
 _symmetry_equiv_pos_site_id
 _symmetry_equiv_pos_as_xyz
  1  'x, y, z'
loop_
 _atom_site_type_symbol
 _atom_site_label
 _atom_site_symmetry_multiplicity
 _atom_site_fract_x
 _atom_site_fract_y
 _atom_site_fract_z
 _atom_site_occupancy
  Yb  Yb0  1  0.666667  0.333333  0.535323  1
  Yb  Yb1  1  0.333333  0.666667  0.464677  1
  Yb  Yb2  1  0.333333  0.666667  0.037860  1
  Yb  Yb3  1  0.666667  0.333333  0.749197  1
  Yb  Yb4  1  0.666667  0.333333  0.962140  1
  Yb  Yb5  1  0.333333  0.666667  0.250803  1
  Zn  Zn6  1  0.000000  0.000000  0.000000  1
  Co  Co7  1  0.166099  0.332199  0.653139  1
  Co  Co8  1  0.332199  0.166099  0.346861  1
  Co  Co9  1  0.332316  0.166158  0.157850  1
  Co  Co10  1  0.166158  0.833842  0.842150  1
  Co  Co11  1  0.833901  0.667801  0.346861  1
  Co  Co12  1  0.833842  0.166158  0.157850  1
  Co  Co13  1  0.667801  0.833901  0.653139  1
  Co  Co14  1  0.667684  0.833842  0.842150  1
  Co  Co15  1  0.166099  0.833901  0.653139  1
  Co  Co16  1  0.833842  0.667684  0.157850  1
  Co  Co17  1  0.166158  0.332316  0.842150  1
  Co  Co18  1  0.833901  0.166099  0.346861  1
  Co  Co19  1  0.000000  0.000000  0.500000  1
  C  C20  1  0.666667  0.333333  0.249095  1
  C  C21  1  0.000000  0.000000  0.749684  1
  C  C22  1  0.333333  0.666667  0.750905  1
  C  C23  1  0.000000  0.000000  0.250316  1
