# generated using pymatgen
data_Pr6MnV(Co4P3)4
_symmetry_space_group_name_H-M   'P 1'
_cell_length_a   3.76818400
_cell_length_b   10.72355100
_cell_length_c   12.42550200
_cell_angle_alpha   90.00000000
_cell_angle_beta   90.00000000
_cell_angle_gamma   90.00000000
_symmetry_Int_Tables_number   1
_chemical_formula_structural   Pr6MnV(Co4P3)4
_chemical_formula_sum   'Pr6 Mn1 V1 Co16 P12'
_cell_volume   502.09357774
_cell_formula_units_Z   1
loop_
 _symmetry_equiv_pos_site_id
 _symmetry_equiv_pos_as_xyz
  1  'x, y, z'
loop_
 _atom_site_type_symbol
 _atom_site_label
 _atom_site_symmetry_multiplicity
 _atom_site_fract_x
 _atom_site_fract_y
 _atom_site_fract_z
 _atom_site_occupancy
  Pr  Pr0  1  0.000000  0.500000  0.522904  1
  Pr  Pr1  1  0.500000  0.000000  0.477663  1
  Pr  Pr2  1  0.500000  0.818706  0.205588  1
  Pr  Pr3  1  0.500000  0.181294  0.205588  1
  Pr  Pr4  1  0.000000  0.681260  0.795172  1
  Pr  Pr5  1  0.000000  0.318740  0.795172  1
  Mn  Mn6  1  0.000000  0.000000  0.848039  1
  V  V7  1  0.500000  0.500000  0.151673  1
  Co  Co8  1  0.500000  0.500000  0.703579  1
  Co  Co9  1  0.000000  0.000000  0.295373  1
  Co  Co10  1  0.000000  0.500000  0.988449  1
  Co  Co11  1  0.500000  0.000000  0.011079  1
  Co  Co12  1  0.500000  0.333323  0.995185  1
  Co  Co13  1  0.500000  0.666677  0.995185  1
  Co  Co14  1  0.000000  0.167670  0.004668  1
  Co  Co15  1  0.000000  0.832330  0.004668  1
  Co  Co16  1  0.500000  0.296737  0.430392  1
  Co  Co17  1  0.500000  0.703263  0.430392  1
  Co  Co18  1  0.000000  0.203314  0.569343  1
  Co  Co19  1  0.000000  0.796686  0.569343  1
  Co  Co20  1  0.500000  0.880890  0.709827  1
  Co  Co21  1  0.500000  0.119110  0.709827  1
  Co  Co22  1  0.000000  0.618554  0.290317  1
  Co  Co23  1  0.000000  0.381446  0.290317  1
  P  P24  1  0.500000  0.500000  0.887160  1
  P  P25  1  0.000000  0.000000  0.111557  1
  P  P26  1  0.500000  0.500000  0.341749  1
  P  P27  1  0.000000  0.000000  0.658851  1
  P  P28  1  0.500000  0.304870  0.613837  1
  P  P29  1  0.500000  0.695130  0.613837  1
  P  P30  1  0.000000  0.194917  0.386412  1
  P  P31  1  0.000000  0.805083  0.386412  1
  P  P32  1  0.500000  0.847299  0.895410  1
  P  P33  1  0.500000  0.152701  0.895410  1
  P  P34  1  0.000000  0.652304  0.104811  1
  P  P35  1  0.000000  0.347696  0.104811  1
