# generated using pymatgen
data_Tb5Pr3Cd2IrRu
_symmetry_space_group_name_H-M   'P 1'
_cell_length_a   9.79453643
_cell_length_b   9.79453699
_cell_length_c   9.81987100
_cell_angle_alpha   59.91440420
_cell_angle_beta   59.91440233
_cell_angle_gamma   59.86995329
_symmetry_Int_Tables_number   1
_chemical_formula_structural   Tb5Pr3Cd2IrRu
_chemical_formula_sum   'Tb10 Pr6 Cd4 Ir2 Ru2'
_cell_volume   664.61162094
_cell_formula_units_Z   2
loop_
 _symmetry_equiv_pos_site_id
 _symmetry_equiv_pos_as_xyz
  1  'x, y, z'
loop_
 _atom_site_type_symbol
 _atom_site_label
 _atom_site_symmetry_multiplicity
 _atom_site_fract_x
 _atom_site_fract_y
 _atom_site_fract_z
 _atom_site_occupancy
  Tb  Tb0  1  0.346268  0.346268  0.346667  1
  Tb  Tb1  1  0.346268  0.346268  0.960796  1
  Tb  Tb2  1  0.345900  0.961076  0.346511  1
  Tb  Tb3  1  0.961076  0.345900  0.346511  1
  Tb  Tb4  1  0.813788  0.187513  0.187209  1
  Tb  Tb5  1  0.187513  0.813788  0.811490  1
  Tb  Tb6  1  0.187513  0.813788  0.187209  1
  Tb  Tb7  1  0.813788  0.187513  0.811490  1
  Tb  Tb8  1  0.186975  0.186975  0.813025  1
  Tb  Tb9  1  0.812092  0.812092  0.187908  1
  Pr  Pr10  1  0.940931  0.557425  0.559800  1
  Pr  Pr11  1  0.557425  0.940931  0.941844  1
  Pr  Pr12  1  0.557425  0.940931  0.559800  1
  Pr  Pr13  1  0.940931  0.557425  0.941844  1
  Pr  Pr14  1  0.559255  0.559255  0.940745  1
  Pr  Pr15  1  0.942024  0.942024  0.557976  1
  Cd  Cd16  1  0.579147  0.579147  0.579152  1
  Cd  Cd17  1  0.579147  0.579147  0.262553  1
  Cd  Cd18  1  0.579132  0.262177  0.579344  1
  Cd  Cd19  1  0.262177  0.579132  0.579344  1
  Ir  Ir20  1  0.142020  0.577860  0.140060  1
  Ir  Ir21  1  0.577860  0.142020  0.140060  1
  Ru  Ru22  1  0.140672  0.140672  0.138671  1
  Ru  Ru23  1  0.140672  0.140672  0.579985  1
