# generated using pymatgen
data_Nb6CoB5Ru6
_symmetry_space_group_name_H-M   'P 1'
_cell_length_a   3.10070800
_cell_length_b   6.54989802
_cell_length_c   11.24139703
_cell_angle_alpha   89.99197136
_cell_angle_beta   90.00000000
_cell_angle_gamma   90.00000000
_symmetry_Int_Tables_number   1
_chemical_formula_structural   Nb6CoB5Ru6
_chemical_formula_sum   'Nb6 Co1 B5 Ru6'
_cell_volume   228.30514048
_cell_formula_units_Z   1
loop_
 _symmetry_equiv_pos_site_id
 _symmetry_equiv_pos_as_xyz
  1  'x, y, z'
loop_
 _atom_site_type_symbol
 _atom_site_label
 _atom_site_symmetry_multiplicity
 _atom_site_fract_x
 _atom_site_fract_y
 _atom_site_fract_z
 _atom_site_occupancy
  Nb  Nb0  1  0.000000  0.270113  0.950970  1
  Nb  Nb1  1  0.000000  0.738779  0.041181  1
  Nb  Nb2  1  0.000000  0.278558  0.543923  1
  Nb  Nb3  1  0.000000  0.725662  0.457676  1
  Nb  Nb4  1  0.000000  0.352408  0.263461  1
  Nb  Nb5  1  0.000000  0.643869  0.745747  1
  Co  Co6  1  0.500000  0.448633  0.084897  1
  B  B7  1  0.000000  0.950107  0.250048  1
  B  B8  1  0.000000  0.045866  0.746909  1
  B  B9  1  0.500000  0.556106  0.904921  1
  B  B10  1  0.500000  0.456614  0.422570  1
  B  B11  1  0.500000  0.547890  0.581655  1
  Ru  Ru12  1  0.500000  0.058602  0.125306  1
  Ru  Ru13  1  0.500000  0.928271  0.870987  1
  Ru  Ru14  1  0.500000  0.071430  0.378322  1
  Ru  Ru15  1  0.500000  0.929266  0.624745  1
  Ru  Ru16  1  0.500000  0.702559  0.258989  1
  Ru  Ru17  1  0.500000  0.295267  0.747694  1
