# generated using pymatgen
data_Cs2NaCeBr6
_symmetry_space_group_name_H-M   'P 1'
_cell_length_a   8.28512276
_cell_length_b   8.28512308
_cell_length_c   8.28512300
_cell_angle_alpha   60.00000430
_cell_angle_beta   60.00000302
_cell_angle_gamma   60.00000329
_symmetry_Int_Tables_number   1
_chemical_formula_structural   Cs2NaCeBr6
_chemical_formula_sum   'Cs2 Na1 Ce1 Br6'
_cell_volume   402.14429233
_cell_formula_units_Z   1
loop_
 _symmetry_equiv_pos_site_id
 _symmetry_equiv_pos_as_xyz
  1  'x, y, z'
loop_
 _atom_site_type_symbol
 _atom_site_label
 _atom_site_symmetry_multiplicity
 _atom_site_fract_x
 _atom_site_fract_y
 _atom_site_fract_z
 _atom_site_occupancy
  Cs  Cs0  1  0.750000  0.750000  0.750000  1
  Cs  Cs1  1  0.250000  0.250000  0.250000  1
  Na  Na2  1  0.500000  0.500000  0.500000  1
  Ce  Ce3  1  0.000000  0.000000  0.000000  1
  Br  Br4  1  0.752354  0.247646  0.247646  1
  Br  Br5  1  0.247646  0.247646  0.752354  1
  Br  Br6  1  0.247646  0.752354  0.752354  1
  Br  Br7  1  0.247646  0.752354  0.247646  1
  Br  Br8  1  0.752354  0.247646  0.752354  1
  Br  Br9  1  0.752354  0.752354  0.247646  1
