# generated using pymatgen
data_LaYb2Al9
_symmetry_space_group_name_H-M   'P 1'
_cell_length_a   9.48577154
_cell_length_b   9.48577235
_cell_length_c   9.48577185
_cell_angle_alpha   34.65179290
_cell_angle_beta   34.65178795
_cell_angle_gamma   34.65179160
_symmetry_Int_Tables_number   1
_chemical_formula_structural   LaYb2Al9
_chemical_formula_sum   'La1 Yb2 Al9'
_cell_volume   246.23452734
_cell_formula_units_Z   1
loop_
 _symmetry_equiv_pos_site_id
 _symmetry_equiv_pos_as_xyz
  1  'x, y, z'
loop_
 _atom_site_type_symbol
 _atom_site_label
 _atom_site_symmetry_multiplicity
 _atom_site_fract_x
 _atom_site_fract_y
 _atom_site_fract_z
 _atom_site_occupancy
  La  La0  1  0.000000  0.000000  0.000000  1
  Yb  Yb1  1  0.857685  0.857685  0.857685  1
  Yb  Yb2  1  0.142315  0.142315  0.142315  1
  Al  Al3  1  0.414348  0.923179  0.414348  1
  Al  Al4  1  0.414348  0.414348  0.923179  1
  Al  Al5  1  0.923179  0.414348  0.414348  1
  Al  Al6  1  0.585652  0.076821  0.585652  1
  Al  Al7  1  0.585652  0.585652  0.076821  1
  Al  Al8  1  0.076821  0.585652  0.585652  1
  Al  Al9  1  0.664552  0.664552  0.664552  1
  Al  Al10  1  0.335448  0.335448  0.335448  1
  Al  Al11  1  0.500000  0.500000  0.500000  1
