# generated using pymatgen
data_Yb2NiPdPt2
_symmetry_space_group_name_H-M   'P 1'
_cell_length_a   5.40087033
_cell_length_b   5.16609449
_cell_length_c   5.39130251
_cell_angle_alpha   58.69680869
_cell_angle_beta   59.94127486
_cell_angle_gamma   58.48493078
_symmetry_Int_Tables_number   1
_chemical_formula_structural   Yb2NiPdPt2
_chemical_formula_sum   'Yb2 Ni1 Pd1 Pt2'
_cell_volume   103.99950140
_cell_formula_units_Z   1
loop_
 _symmetry_equiv_pos_site_id
 _symmetry_equiv_pos_as_xyz
  1  'x, y, z'
loop_
 _atom_site_type_symbol
 _atom_site_label
 _atom_site_symmetry_multiplicity
 _atom_site_fract_x
 _atom_site_fract_y
 _atom_site_fract_z
 _atom_site_occupancy
  Yb  Yb0  1  0.499477  0.503748  0.497297  1
  Yb  Yb1  1  0.750523  0.746252  0.752703  1
  Ni  Ni2  1  0.125000  0.625000  0.125000  1
  Pd  Pd3  1  0.125000  0.125000  0.625000  1
  Pt  Pt4  1  0.125000  0.125000  0.125000  1
  Pt  Pt5  1  0.625000  0.125000  0.125000  1
