# generated using pymatgen
data_Ho9TmHg3Bi2Au
_symmetry_space_group_name_H-M   'P 1'
_cell_length_a   8.74464139
_cell_length_b   8.74464176
_cell_length_c   8.76905843
_cell_angle_alpha   123.86799331
_cell_angle_beta   123.88000655
_cell_angle_gamma   83.23200093
_symmetry_Int_Tables_number   1
_chemical_formula_structural   Ho9TmHg3Bi2Au
_chemical_formula_sum   'Ho9 Tm1 Hg3 Bi2 Au1'
_cell_volume   443.79380238
_cell_formula_units_Z   1
loop_
 _symmetry_equiv_pos_site_id
 _symmetry_equiv_pos_as_xyz
  1  'x, y, z'
loop_
 _atom_site_type_symbol
 _atom_site_label
 _atom_site_symmetry_multiplicity
 _atom_site_fract_x
 _atom_site_fract_y
 _atom_site_fract_z
 _atom_site_occupancy
  Ho  Ho0  1  0.504316  0.502000  0.006317  1
  Ho  Ho1  1  0.002476  0.509054  0.800837  1
  Ho  Ho2  1  0.701925  0.207923  0.199182  1
  Ho  Ho3  1  0.515080  0.698226  0.500307  1
  Ho  Ho4  1  0.201091  0.007411  0.499752  1
  Ho  Ho5  1  0.991258  0.497256  0.199182  1
  Ho  Ho6  1  0.291783  0.798361  0.800837  1
  Ho  Ho7  1  0.492342  0.298661  0.499752  1
  Ho  Ho8  1  0.802081  0.985227  0.500307  1
  Tm  Tm9  1  0.997934  0.995609  0.993542  1
  Hg  Hg10  1  0.640428  0.140573  0.781001  1
  Hg  Hg11  1  0.359070  0.859886  0.218957  1
  Hg  Hg12  1  0.140040  0.359657  0.499698  1
  Bi  Bi13  1  0.748848  0.751634  0.999994  1
  Bi  Bi14  1  0.248360  0.251146  0.999994  1
  Au  Au15  1  0.862967  0.637374  0.500342  1
