# generated using pymatgen
data_La2Pr3Sn2BiCl
_symmetry_space_group_name_H-M   'P 1'
_cell_length_a   9.68096767
_cell_length_b   9.63316561
_cell_length_c   6.79074900
_cell_angle_alpha   90.00000000
_cell_angle_beta   90.00000000
_cell_angle_gamma   120.12159121
_symmetry_Int_Tables_number   1
_chemical_formula_structural   La2Pr3Sn2BiCl
_chemical_formula_sum   'La4 Pr6 Sn4 Bi2 Cl2'
_cell_volume   547.77560761
_cell_formula_units_Z   2
loop_
 _symmetry_equiv_pos_site_id
 _symmetry_equiv_pos_as_xyz
  1  'x, y, z'
loop_
 _atom_site_type_symbol
 _atom_site_label
 _atom_site_symmetry_multiplicity
 _atom_site_fract_x
 _atom_site_fract_y
 _atom_site_fract_z
 _atom_site_occupancy
  La  La0  1  0.000456  0.259202  0.250000  1
  La  La1  1  0.003904  0.738710  0.750000  1
  La  La2  1  0.258469  0.259472  0.750000  1
  La  La3  1  0.266281  0.004829  0.250000  1
  Pr  Pr4  1  0.664809  0.328975  0.999870  1
  Pr  Pr5  1  0.335101  0.669066  0.500069  1
  Pr  Pr6  1  0.664809  0.328975  0.500130  1
  Pr  Pr7  1  0.335101  0.669066  0.999931  1
  Pr  Pr8  1  0.738320  0.005187  0.750000  1
  Pr  Pr9  1  0.733949  0.738837  0.250000  1
  Sn  Sn10  1  0.613659  0.999895  0.250000  1
  Sn  Sn11  1  0.388445  0.000315  0.750000  1
  Sn  Sn12  1  0.999900  0.386549  0.750000  1
  Sn  Sn13  1  0.388105  0.389064  0.250000  1
  Bi  Bi14  1  0.614275  0.614843  0.750000  1
  Bi  Bi15  1  0.999076  0.613914  0.250000  1
  Cl  Cl16  1  0.997670  0.996551  0.499987  1
  Cl  Cl17  1  0.997670  0.996551  0.000013  1
