# generated using pymatgen
data_LuNp3O12
_symmetry_space_group_name_H-M   'P 1'
_cell_length_a   7.11388302
_cell_length_b   7.23124777
_cell_length_c   7.10724531
_cell_angle_alpha   109.80652475
_cell_angle_beta   109.38987227
_cell_angle_gamma   109.77120752
_symmetry_Int_Tables_number   1
_chemical_formula_structural   LuNp3O12
_chemical_formula_sum   'Lu1 Np3 O12'
_cell_volume   279.50473814
_cell_formula_units_Z   1
loop_
 _symmetry_equiv_pos_site_id
 _symmetry_equiv_pos_as_xyz
  1  'x, y, z'
loop_
 _atom_site_type_symbol
 _atom_site_label
 _atom_site_symmetry_multiplicity
 _atom_site_fract_x
 _atom_site_fract_y
 _atom_site_fract_z
 _atom_site_occupancy
  Lu  Lu0  1  0.499992  0.996702  0.996584  1
  Np  Np1  1  0.500108  0.496609  0.496737  1
  Np  Np2  1  0.000143  0.496588  0.996472  1
  Np  Np3  1  0.999972  0.996580  0.496619  1
  O  O4  1  0.241734  0.431371  0.232220  1
  O  O5  1  0.758491  0.561907  0.761229  1
  O  O6  1  0.205054  0.996287  0.752311  1
  O  O7  1  0.794684  0.997119  0.241256  1
  O  O8  1  0.263150  0.205983  0.511440  1
  O  O9  1  0.736767  0.787161  0.481901  1
  O  O10  1  0.745611  0.248626  0.955840  1
  O  O11  1  0.254482  0.744588  0.037141  1
  O  O12  1  0.007570  0.700907  0.257331  1
  O  O13  1  0.992404  0.292390  0.735279  1
  O  O14  1  0.543856  0.283569  0.292949  1
  O  O15  1  0.455980  0.709334  0.700410  1
