# generated using pymatgen
data_La2Yb(HoSn2)2
_symmetry_space_group_name_H-M   'P 1'
_cell_length_a   8.01906700
_cell_length_b   8.37100400
_cell_length_c   15.84340400
_cell_angle_alpha   90.00000000
_cell_angle_beta   90.00000000
_cell_angle_gamma   90.00000000
_symmetry_Int_Tables_number   1
_chemical_formula_structural   La2Yb(HoSn2)2
_chemical_formula_sum   'La8 Yb4 Ho8 Sn16'
_cell_volume   1063.53035072
_cell_formula_units_Z   4
loop_
 _symmetry_equiv_pos_site_id
 _symmetry_equiv_pos_as_xyz
  1  'x, y, z'
loop_
 _atom_site_type_symbol
 _atom_site_label
 _atom_site_symmetry_multiplicity
 _atom_site_fract_x
 _atom_site_fract_y
 _atom_site_fract_z
 _atom_site_occupancy
  La  La0  1  0.499714  0.679291  0.595732  1
  La  La1  1  0.000119  0.819963  0.904140  1
  La  La2  1  0.500286  0.320709  0.095732  1
  La  La3  1  0.999881  0.180037  0.404140  1
  La  La4  1  0.500286  0.320709  0.404268  1
  La  La5  1  0.999881  0.180037  0.095860  1
  La  La6  1  0.499714  0.679291  0.904268  1
  La  La7  1  0.000119  0.819963  0.595860  1
  Yb  Yb8  1  0.823065  0.500995  0.750000  1
  Yb  Yb9  1  0.323159  0.998963  0.750000  1
  Yb  Yb10  1  0.176935  0.499005  0.250000  1
  Yb  Yb11  1  0.676841  0.001037  0.250000  1
  Ho  Ho12  1  0.656521  0.170984  0.624052  1
  Ho  Ho13  1  0.156509  0.329151  0.875922  1
  Ho  Ho14  1  0.343479  0.829016  0.124052  1
  Ho  Ho15  1  0.843491  0.670849  0.375922  1
  Ho  Ho16  1  0.343479  0.829016  0.375948  1
  Ho  Ho17  1  0.843491  0.670849  0.124078  1
  Ho  Ho18  1  0.656521  0.170984  0.875948  1
  Ho  Ho19  1  0.156509  0.329151  0.624078  1
  Sn  Sn20  1  0.679481  0.959809  0.462398  1
  Sn  Sn21  1  0.179479  0.540155  0.037576  1
  Sn  Sn22  1  0.320519  0.040191  0.962398  1
  Sn  Sn23  1  0.820521  0.459845  0.537576  1
  Sn  Sn24  1  0.320519  0.040191  0.537602  1
  Sn  Sn25  1  0.820521  0.459845  0.962424  1
  Sn  Sn26  1  0.679481  0.959809  0.037602  1
  Sn  Sn27  1  0.179479  0.540155  0.462424  1
  Sn  Sn28  1  0.455789  0.382059  0.750000  1
  Sn  Sn29  1  0.955731  0.117919  0.750000  1
  Sn  Sn30  1  0.544211  0.617941  0.250000  1
  Sn  Sn31  1  0.044269  0.882081  0.250000  1
  Sn  Sn32  1  0.696215  0.866692  0.750000  1
  Sn  Sn33  1  0.196295  0.633163  0.750000  1
  Sn  Sn34  1  0.303785  0.133308  0.250000  1
  Sn  Sn35  1  0.803705  0.366837  0.250000  1
