# generated using pymatgen
data_Tb12InTc3Hg
_symmetry_space_group_name_H-M   'P 1'
_cell_length_a   8.49074916
_cell_length_b   8.49074895
_cell_length_c   8.49074900
_cell_angle_alpha   107.97978866
_cell_angle_beta   109.99712582
_cell_angle_gamma   110.44728214
_symmetry_Int_Tables_number   1
_chemical_formula_structural   Tb12InTc3Hg
_chemical_formula_sum   'Tb12 In1 Tc3 Hg1'
_cell_volume   470.96562815
_cell_formula_units_Z   1
loop_
 _symmetry_equiv_pos_site_id
 _symmetry_equiv_pos_as_xyz
  1  'x, y, z'
loop_
 _atom_site_type_symbol
 _atom_site_label
 _atom_site_symmetry_multiplicity
 _atom_site_fract_x
 _atom_site_fract_y
 _atom_site_fract_z
 _atom_site_occupancy
  Tb  Tb0  1  0.317588  0.320293  0.637881  1
  Tb  Tb1  1  0.682412  0.679707  0.362119  1
  Tb  Tb2  1  0.682412  0.320293  0.002705  1
  Tb  Tb3  1  0.317588  0.679707  0.997295  1
  Tb  Tb4  1  0.184974  0.422672  0.237697  1
  Tb  Tb5  1  0.815026  0.577328  0.762303  1
  Tb  Tb6  1  0.184974  0.947276  0.762303  1
  Tb  Tb7  1  0.937641  0.186690  0.750952  1
  Tb  Tb8  1  0.815026  0.052724  0.237697  1
  Tb  Tb9  1  0.062359  0.813310  0.249048  1
  Tb  Tb10  1  0.435738  0.186690  0.249048  1
  Tb  Tb11  1  0.564262  0.813310  0.750952  1
  In  In12  1  0.000000  0.500000  0.500000  1
  Tc  Tc13  1  0.337313  0.337313  0.000000  1
  Tc  Tc14  1  0.662687  0.662687  0.000000  1
  Tc  Tc15  1  0.000000  0.000000  0.000000  1
  Hg  Hg16  1  0.500000  0.000000  0.500000  1
