# generated using pymatgen
data_TbHo4In4IrPt
_symmetry_space_group_name_H-M   'P 1'
_cell_length_a   3.62526400
_cell_length_b   8.11138170
_cell_length_c   18.23614004
_cell_angle_alpha   89.96672157
_cell_angle_beta   90.00000000
_cell_angle_gamma   90.00000000
_symmetry_Int_Tables_number   1
_chemical_formula_structural   TbHo4In4IrPt
_chemical_formula_sum   'Tb2 Ho8 In8 Ir2 Pt2'
_cell_volume   536.25002126
_cell_formula_units_Z   2
loop_
 _symmetry_equiv_pos_site_id
 _symmetry_equiv_pos_as_xyz
  1  'x, y, z'
loop_
 _atom_site_type_symbol
 _atom_site_label
 _atom_site_symmetry_multiplicity
 _atom_site_fract_x
 _atom_site_fract_y
 _atom_site_fract_z
 _atom_site_occupancy
  Tb  Tb0  1  0.000000  0.000000  0.000000  1
  Tb  Tb1  1  0.000000  0.500000  0.500000  1
  Ho  Ho2  1  0.000000  0.115084  0.411875  1
  Ho  Ho3  1  0.000000  0.884916  0.588125  1
  Ho  Ho4  1  0.000000  0.383305  0.913842  1
  Ho  Ho5  1  0.000000  0.616695  0.086158  1
  Ho  Ho6  1  0.000000  0.236416  0.221840  1
  Ho  Ho7  1  0.000000  0.763584  0.778160  1
  Ho  Ho8  1  0.000000  0.248869  0.720108  1
  Ho  Ho9  1  0.000000  0.751131  0.279892  1
  In  In10  1  0.500000  0.423698  0.350786  1
  In  In11  1  0.500000  0.576302  0.649214  1
  In  In12  1  0.500000  0.074609  0.850590  1
  In  In13  1  0.500000  0.925391  0.149410  1
  In  In14  1  0.500000  0.292966  0.066690  1
  In  In15  1  0.500000  0.707034  0.933310  1
  In  In16  1  0.500000  0.206251  0.567507  1
  In  In17  1  0.500000  0.793749  0.432493  1
  Ir  Ir18  1  0.500000  0.021624  0.303847  1
  Ir  Ir19  1  0.500000  0.978376  0.696153  1
  Pt  Pt20  1  0.500000  0.477154  0.803441  1
  Pt  Pt21  1  0.500000  0.522846  0.196559  1
