# generated using pymatgen
data_Tm8Lu2InPb5
_symmetry_space_group_name_H-M   'P 1'
_cell_length_a   6.54879912
_cell_length_b   8.89814382
_cell_length_c   8.92465553
_cell_angle_alpha   119.90448452
_cell_angle_beta   90.01218538
_cell_angle_gamma   89.97261751
_symmetry_Int_Tables_number   1
_chemical_formula_structural   Tm8Lu2InPb5
_chemical_formula_sum   'Tm8 Lu2 In1 Pb5'
_cell_volume   450.81704555
_cell_formula_units_Z   1
loop_
 _symmetry_equiv_pos_site_id
 _symmetry_equiv_pos_as_xyz
  1  'x, y, z'
loop_
 _atom_site_type_symbol
 _atom_site_label
 _atom_site_symmetry_multiplicity
 _atom_site_fract_x
 _atom_site_fract_y
 _atom_site_fract_z
 _atom_site_occupancy
  Tm  Tm0  1  0.750398  0.235741  0.000077  1
  Tm  Tm1  1  0.750221  0.761546  0.767685  1
  Tm  Tm2  1  0.750213  0.993789  0.232306  1
  Tm  Tm3  1  0.249786  0.765950  0.999959  1
  Tm  Tm4  1  0.249777  0.236685  0.235352  1
  Tm  Tm5  1  0.249795  0.001227  0.764576  1
  Tm  Tm6  1  0.501934  0.337076  0.670761  1
  Tm  Tm7  1  0.501926  0.666282  0.329262  1
  Lu  Lu8  1  0.997969  0.665934  0.328784  1
  Lu  Lu9  1  0.997977  0.337133  0.671239  1
  In  In10  1  0.750895  0.600911  0.999998  1
  Pb  Pb11  1  0.751255  0.393127  0.394385  1
  Pb  Pb12  1  0.751140  0.998811  0.605691  1
  Pb  Pb13  1  0.249276  0.397724  0.999989  1
  Pb  Pb14  1  0.248711  0.605526  0.602988  1
  Pb  Pb15  1  0.248727  0.002539  0.396949  1
