# generated using pymatgen
data_Hf6Al16Cu4Ir2Ru
_symmetry_space_group_name_H-M   'P 1'
_cell_length_a   8.65961872
_cell_length_b   8.65961923
_cell_length_c   8.61055900
_cell_angle_alpha   60.18722989
_cell_angle_beta   60.18722796
_cell_angle_gamma   59.62553077
_symmetry_Int_Tables_number   1
_chemical_formula_structural   Hf6Al16Cu4Ir2Ru
_chemical_formula_sum   'Hf6 Al16 Cu4 Ir2 Ru1'
_cell_volume   456.54769590
_cell_formula_units_Z   1
loop_
 _symmetry_equiv_pos_site_id
 _symmetry_equiv_pos_as_xyz
  1  'x, y, z'
loop_
 _atom_site_type_symbol
 _atom_site_label
 _atom_site_symmetry_multiplicity
 _atom_site_fract_x
 _atom_site_fract_y
 _atom_site_fract_z
 _atom_site_occupancy
  Hf  Hf0  1  0.685624  0.314376  0.314376  1
  Hf  Hf1  1  0.314376  0.685624  0.685624  1
  Hf  Hf2  1  0.314376  0.685624  0.314376  1
  Hf  Hf3  1  0.685624  0.314376  0.685624  1
  Hf  Hf4  1  0.309440  0.309440  0.690560  1
  Hf  Hf5  1  0.690560  0.690560  0.309440  1
  Al  Al6  1  0.332579  0.332579  0.336957  1
  Al  Al7  1  0.667421  0.667421  0.663043  1
  Al  Al8  1  0.332579  0.332579  0.997885  1
  Al  Al9  1  0.336957  0.997885  0.332579  1
  Al  Al10  1  0.667421  0.667421  0.002115  1
  Al  Al11  1  0.663043  0.002115  0.667421  1
  Al  Al12  1  0.997885  0.336957  0.332579  1
  Al  Al13  1  0.002115  0.663043  0.667421  1
  Al  Al14  1  0.115947  0.115947  0.123574  1
  Al  Al15  1  0.884053  0.884053  0.876426  1
  Al  Al16  1  0.115947  0.115947  0.644531  1
  Al  Al17  1  0.123574  0.644531  0.115947  1
  Al  Al18  1  0.884053  0.884053  0.355469  1
  Al  Al19  1  0.876426  0.355469  0.884053  1
  Al  Al20  1  0.644531  0.123574  0.115947  1
  Al  Al21  1  0.355469  0.876426  0.884053  1
  Cu  Cu22  1  0.500000  0.000000  0.000000  1
  Cu  Cu23  1  0.000000  0.500000  0.500000  1
  Cu  Cu24  1  0.000000  0.500000  0.000000  1
  Cu  Cu25  1  0.500000  0.000000  0.500000  1
  Ir  Ir26  1  0.000000  0.000000  0.500000  1
  Ir  Ir27  1  0.500000  0.500000  0.000000  1
  Ru  Ru28  1  0.000000  0.000000  0.000000  1
