# generated using pymatgen
data_Ac2DyMg3Tl2Ag
_symmetry_space_group_name_H-M   'P 1'
_cell_length_a   7.94580907
_cell_length_b   7.98915874
_cell_length_c   4.73583100
_cell_angle_alpha   90.00000000
_cell_angle_beta   90.00000000
_cell_angle_gamma   120.18064295
_symmetry_Int_Tables_number   1
_chemical_formula_structural   Ac2DyMg3Tl2Ag
_chemical_formula_sum   'Ac2 Dy1 Mg3 Tl2 Ag1'
_cell_volume   259.87983654
_cell_formula_units_Z   1
loop_
 _symmetry_equiv_pos_site_id
 _symmetry_equiv_pos_as_xyz
  1  'x, y, z'
loop_
 _atom_site_type_symbol
 _atom_site_label
 _atom_site_symmetry_multiplicity
 _atom_site_fract_x
 _atom_site_fract_y
 _atom_site_fract_z
 _atom_site_occupancy
  Ac  Ac0  1  0.413032  0.414715  0.500000  1
  Ac  Ac1  1  0.586968  0.001684  0.500000  1
  Dy  Dy2  1  0.000000  0.589621  0.500000  1
  Mg  Mg3  1  0.774544  0.767189  0.000000  1
  Mg  Mg4  1  0.225456  0.992644  0.000000  1
  Mg  Mg5  1  0.000000  0.235372  0.000000  1
  Tl  Tl6  1  0.690101  0.350872  0.000000  1
  Tl  Tl7  1  0.309899  0.660771  0.000000  1
  Ag  Ag8  1  0.000000  0.987133  0.500000  1
