# generated using pymatgen
data_Tb(Al3Ni)3
_symmetry_space_group_name_H-M   'P 1'
_cell_length_a   10.09299511
_cell_length_b   10.09299536
_cell_length_c   10.09299516
_cell_angle_alpha   42.35689897
_cell_angle_beta   42.35689511
_cell_angle_gamma   42.35690393
_symmetry_Int_Tables_number   1
_chemical_formula_structural   Tb(Al3Ni)3
_chemical_formula_sum   'Tb2 Al18 Ni6'
_cell_volume   422.48118100
_cell_formula_units_Z   2
loop_
 _symmetry_equiv_pos_site_id
 _symmetry_equiv_pos_as_xyz
  1  'x, y, z'
loop_
 _atom_site_type_symbol
 _atom_site_label
 _atom_site_symmetry_multiplicity
 _atom_site_fract_x
 _atom_site_fract_y
 _atom_site_fract_z
 _atom_site_occupancy
  Tb  Tb0  1  0.166881  0.166881  0.166881  1
  Tb  Tb1  1  0.833119  0.833119  0.833119  1
  Al  Al2  1  0.102547  0.431906  0.761380  1
  Al  Al3  1  0.431906  0.761380  0.102547  1
  Al  Al4  1  0.568094  0.897453  0.238620  1
  Al  Al5  1  0.948104  0.948104  0.948104  1
  Al  Al6  1  0.051896  0.051896  0.051896  1
  Al  Al7  1  0.292130  0.707870  0.500000  1
  Al  Al8  1  0.897453  0.238620  0.568094  1
  Al  Al9  1  0.386922  0.386922  0.386922  1
  Al  Al10  1  0.500000  0.292130  0.707870  1
  Al  Al11  1  0.238620  0.568094  0.897453  1
  Al  Al12  1  0.718178  0.718178  0.718178  1
  Al  Al13  1  0.613078  0.613078  0.613078  1
  Al  Al14  1  0.334322  0.000000  0.665678  1
  Al  Al15  1  0.707870  0.500000  0.292130  1
  Al  Al16  1  0.665678  0.334322  0.000000  1
  Al  Al17  1  0.281822  0.281822  0.281822  1
  Al  Al18  1  0.000000  0.665678  0.334322  1
  Al  Al19  1  0.761380  0.102547  0.431906  1
  Ni  Ni20  1  0.418006  0.078419  0.757739  1
  Ni  Ni21  1  0.581994  0.242261  0.921581  1
  Ni  Ni22  1  0.078419  0.757739  0.418006  1
  Ni  Ni23  1  0.757739  0.418006  0.078419  1
  Ni  Ni24  1  0.921581  0.581994  0.242261  1
  Ni  Ni25  1  0.242261  0.921581  0.581994  1
