# generated using pymatgen
data_HoEr3Tm4(B6Os)4
_symmetry_space_group_name_H-M   'P 1'
_cell_length_a   3.62177800
_cell_length_b   9.08676100
_cell_length_c   11.46325800
_cell_angle_alpha   89.99942505
_cell_angle_beta   90.00000000
_cell_angle_gamma   90.00000000
_symmetry_Int_Tables_number   1
_chemical_formula_structural   HoEr3Tm4(B6Os)4
_chemical_formula_sum   'Ho1 Er3 Tm4 B24 Os4'
_cell_volume   377.25846971
_cell_formula_units_Z   1
loop_
 _symmetry_equiv_pos_site_id
 _symmetry_equiv_pos_as_xyz
  1  'x, y, z'
loop_
 _atom_site_type_symbol
 _atom_site_label
 _atom_site_symmetry_multiplicity
 _atom_site_fract_x
 _atom_site_fract_y
 _atom_site_fract_z
 _atom_site_occupancy
  Ho  Ho0  1  0.000000  0.321575  0.413924  1
  Er  Er1  1  0.000000  0.678521  0.586053  1
  Er  Er2  1  0.000000  0.821490  0.086050  1
  Er  Er3  1  0.000000  0.178521  0.913962  1
  Tm  Tm4  1  0.000000  0.943912  0.373040  1
  Tm  Tm5  1  0.000000  0.055971  0.627004  1
  Tm  Tm6  1  0.000000  0.443995  0.126889  1
  Tm  Tm7  1  0.000000  0.556048  0.873086  1
  B  B8  1  0.500000  0.554035  0.433308  1
  B  B9  1  0.500000  0.446223  0.566822  1
  B  B10  1  0.500000  0.053831  0.066635  1
  B  B11  1  0.500000  0.946136  0.933336  1
  B  B12  1  0.500000  0.748683  0.420116  1
  B  B13  1  0.500000  0.251298  0.580098  1
  B  B14  1  0.500000  0.248618  0.079850  1
  B  B15  1  0.500000  0.751375  0.920105  1
  B  B16  1  0.500000  0.791639  0.266181  1
  B  B17  1  0.500000  0.208373  0.733857  1
  B  B18  1  0.500000  0.291520  0.233637  1
  B  B19  1  0.500000  0.708397  0.766203  1
  B  B20  1  0.500000  0.631269  0.184797  1
  B  B21  1  0.500000  0.368773  0.815191  1
  B  B22  1  0.500000  0.131075  0.315052  1
  B  B23  1  0.500000  0.868749  0.684848  1
  B  B24  1  0.500000  0.982235  0.213195  1
  B  B25  1  0.500000  0.017696  0.786781  1
  B  B26  1  0.500000  0.482505  0.286658  1
  B  B27  1  0.500000  0.517741  0.713278  1
  B  B28  1  0.500000  0.606391  0.029426  1
  B  B29  1  0.500000  0.393620  0.970558  1
  B  B30  1  0.500000  0.106053  0.470655  1
  B  B31  1  0.500000  0.893643  0.529423  1
  Os  Os32  1  0.000000  0.637654  0.321026  1
  Os  Os33  1  0.000000  0.362542  0.679046  1
  Os  Os34  1  0.000000  0.137378  0.178803  1
  Os  Os35  1  0.000000  0.862515  0.821110  1
