# generated using pymatgen
data_Sm2As4Rh7
_symmetry_space_group_name_H-M   'P 1'
_cell_length_a   4.03959100
_cell_length_b   9.91576900
_cell_length_c   11.18705500
_cell_angle_alpha   90.00000000
_cell_angle_beta   90.00000000
_cell_angle_gamma   90.00000000
_symmetry_Int_Tables_number   1
_chemical_formula_structural   Sm2As4Rh7
_chemical_formula_sum   'Sm4 As8 Rh14'
_cell_volume   448.10477315
_cell_formula_units_Z   2
loop_
 _symmetry_equiv_pos_site_id
 _symmetry_equiv_pos_as_xyz
  1  'x, y, z'
loop_
 _atom_site_type_symbol
 _atom_site_label
 _atom_site_symmetry_multiplicity
 _atom_site_fract_x
 _atom_site_fract_y
 _atom_site_fract_z
 _atom_site_occupancy
  Sm  Sm0  1  0.500000  0.457991  0.508354  1
  Sm  Sm1  1  0.500000  0.058099  0.283451  1
  Sm  Sm2  1  0.000000  0.941901  0.783451  1
  Sm  Sm3  1  0.000000  0.542009  0.008354  1
  As  As4  1  0.000000  0.821658  0.283535  1
  As  As5  1  0.000000  0.194764  0.458870  1
  As  As6  1  0.500000  0.178342  0.783535  1
  As  As7  1  0.000000  0.144611  0.095998  1
  As  As8  1  0.500000  0.471164  0.231530  1
  As  As9  1  0.500000  0.805236  0.958870  1
  As  As10  1  0.500000  0.855389  0.595998  1
  As  As11  1  0.000000  0.528836  0.731530  1
  Rh  Rh12  1  0.500000  0.315668  0.070329  1
  Rh  Rh13  1  0.500000  0.755514  0.404632  1
  Rh  Rh14  1  0.500000  0.416275  0.812895  1
  Rh  Rh15  1  0.500000  0.055894  0.976832  1
  Rh  Rh16  1  0.500000  0.695847  0.762754  1
  Rh  Rh17  1  0.000000  0.285819  0.661797  1
  Rh  Rh18  1  0.000000  0.244486  0.904632  1
  Rh  Rh19  1  0.000000  0.684332  0.570329  1
  Rh  Rh20  1  0.500000  0.106533  0.576723  1
  Rh  Rh21  1  0.000000  0.304153  0.262754  1
  Rh  Rh22  1  0.000000  0.583725  0.312895  1
  Rh  Rh23  1  0.000000  0.893467  0.076723  1
  Rh  Rh24  1  0.000000  0.944106  0.476832  1
  Rh  Rh25  1  0.500000  0.714181  0.161797  1
