# generated using pymatgen
data_LaNd5Cd23P
_symmetry_space_group_name_H-M   'P 1'
_cell_length_a   10.05845592
_cell_length_b   10.05845620
_cell_length_c   10.11659800
_cell_angle_alpha   59.80860129
_cell_angle_beta   59.80860037
_cell_angle_gamma   60.38279787
_symmetry_Int_Tables_number   1
_chemical_formula_structural   LaNd5Cd23P
_chemical_formula_sum   'La1 Nd5 Cd23 P1'
_cell_volume   723.69062583
_cell_formula_units_Z   1
loop_
 _symmetry_equiv_pos_site_id
 _symmetry_equiv_pos_as_xyz
  1  'x, y, z'
loop_
 _atom_site_type_symbol
 _atom_site_label
 _atom_site_symmetry_multiplicity
 _atom_site_fract_x
 _atom_site_fract_y
 _atom_site_fract_z
 _atom_site_occupancy
  La  La0  1  0.795436  0.795436  0.204564  1
  Nd  Nd1  1  0.201970  0.798521  0.201479  1
  Nd  Nd2  1  0.798521  0.201970  0.201479  1
  Nd  Nd3  1  0.204663  0.204663  0.795337  1
  Nd  Nd4  1  0.798521  0.201970  0.798030  1
  Nd  Nd5  1  0.201970  0.798521  0.798030  1
  Cd  Cd6  1  0.833416  0.833416  0.500432  1
  Cd  Cd7  1  0.835322  0.497400  0.833638  1
  Cd  Cd8  1  0.497400  0.835322  0.833638  1
  Cd  Cd9  1  0.833416  0.833416  0.832735  1
  Cd  Cd10  1  0.166362  0.166362  0.502600  1
  Cd  Cd11  1  0.167265  0.499568  0.166584  1
  Cd  Cd12  1  0.499568  0.167265  0.166584  1
  Cd  Cd13  1  0.166362  0.166362  0.164678  1
  Cd  Cd14  1  0.620122  0.620122  0.134602  1
  Cd  Cd15  1  0.622144  0.135837  0.621009  1
  Cd  Cd16  1  0.135837  0.622144  0.621009  1
  Cd  Cd17  1  0.620122  0.620122  0.625152  1
  Cd  Cd18  1  0.378991  0.378991  0.864163  1
  Cd  Cd19  1  0.374848  0.865398  0.379878  1
  Cd  Cd20  1  0.865398  0.374848  0.379878  1
  Cd  Cd21  1  0.378991  0.378991  0.377856  1
  Cd  Cd22  1  0.000394  0.000394  0.499606  1
  Cd  Cd23  1  0.499942  0.000598  0.500058  1
  Cd  Cd24  1  0.000598  0.499942  0.500058  1
  Cd  Cd25  1  0.500394  0.500394  0.999606  1
  Cd  Cd26  1  0.000598  0.499942  0.999402  1
  Cd  Cd27  1  0.499942  0.000598  0.999402  1
  Cd  Cd28  1  0.500534  0.500534  0.499466  1
  P  P29  1  0.000955  0.000955  0.999045  1
