# generated using pymatgen
data_Dy8P14Ir15Rh
_symmetry_space_group_name_H-M   'P 1'
_cell_length_a   3.94442200
_cell_length_b   12.66298530
_cell_length_c   13.08391260
_cell_angle_alpha   80.81903898
_cell_angle_beta   90.00000000
_cell_angle_gamma   90.00000000
_symmetry_Int_Tables_number   1
_chemical_formula_structural   Dy8P14Ir15Rh
_chemical_formula_sum   'Dy8 P14 Ir15 Rh1'
_cell_volume   645.14534128
_cell_formula_units_Z   1
loop_
 _symmetry_equiv_pos_site_id
 _symmetry_equiv_pos_as_xyz
  1  'x, y, z'
loop_
 _atom_site_type_symbol
 _atom_site_label
 _atom_site_symmetry_multiplicity
 _atom_site_fract_x
 _atom_site_fract_y
 _atom_site_fract_z
 _atom_site_occupancy
  Dy  Dy0  1  0.250000  0.102615  0.788809  1
  Dy  Dy1  1  0.750000  0.897604  0.211667  1
  Dy  Dy2  1  0.250000  0.278681  0.102482  1
  Dy  Dy3  1  0.750000  0.721537  0.897334  1
  Dy  Dy4  1  0.250000  0.520664  0.293934  1
  Dy  Dy5  1  0.750000  0.479126  0.706130  1
  Dy  Dy6  1  0.250000  0.208956  0.438390  1
  Dy  Dy7  1  0.750000  0.790675  0.561994  1
  P  P8  1  0.250000  0.051236  0.100663  1
  P  P9  1  0.750000  0.948699  0.898935  1
  P  P10  1  0.250000  0.311993  0.689356  1
  P  P11  1  0.750000  0.687803  0.310785  1
  P  P12  1  0.250000  0.607820  0.567157  1
  P  P13  1  0.750000  0.392289  0.433009  1
  P  P14  1  0.250000  0.843558  0.717537  1
  P  P15  1  0.750000  0.156853  0.282301  1
  P  P16  1  0.750000  0.257634  0.920333  1
  P  P17  1  0.250000  0.742341  0.079458  1
  P  P18  1  0.750000  0.092676  0.587461  1
  P  P19  1  0.250000  0.906940  0.412098  1
  P  P20  1  0.750000  0.472754  0.129223  1
  P  P21  1  0.250000  0.527216  0.870876  1
  Ir  Ir22  1  0.750000  0.010359  0.424809  1
  Ir  Ir23  1  0.250000  0.662470  0.731481  1
  Ir  Ir24  1  0.750000  0.337552  0.268755  1
  Ir  Ir25  1  0.250000  0.555012  0.044894  1
  Ir  Ir26  1  0.750000  0.445017  0.955370  1
  Ir  Ir27  1  0.250000  0.060066  0.273415  1
  Ir  Ir28  1  0.750000  0.940821  0.726049  1
  Ir  Ir29  1  0.250000  0.421571  0.523555  1
  Ir  Ir30  1  0.750000  0.578153  0.476519  1
  Ir  Ir31  1  0.250000  0.915256  0.996980  1
  Ir  Ir32  1  0.750000  0.084660  0.002693  1
  Ir  Ir33  1  0.250000  0.729377  0.395021  1
  Ir  Ir34  1  0.750000  0.270456  0.604846  1
  Ir  Ir35  1  0.250000  0.341397  0.858331  1
  Ir  Ir36  1  0.750000  0.658732  0.141785  1
  Rh  Rh37  1  0.250000  0.989434  0.575564  1
