# generated using pymatgen
data_Y5Lu7Co4BiIr
_symmetry_space_group_name_H-M   'P 1'
_cell_length_a   8.23660492
_cell_length_b   8.25230006
_cell_length_c   8.23660392
_cell_angle_alpha   110.83077583
_cell_angle_beta   110.87925668
_cell_angle_gamma   106.66450948
_symmetry_Int_Tables_number   1
_chemical_formula_structural   Y5Lu7Co4BiIr
_chemical_formula_sum   'Y5 Lu7 Co4 Bi1 Ir1'
_cell_volume   430.61024534
_cell_formula_units_Z   1
loop_
 _symmetry_equiv_pos_site_id
 _symmetry_equiv_pos_as_xyz
  1  'x, y, z'
loop_
 _atom_site_type_symbol
 _atom_site_label
 _atom_site_symmetry_multiplicity
 _atom_site_fract_x
 _atom_site_fract_y
 _atom_site_fract_z
 _atom_site_occupancy
  Y  Y0  1  0.815335  0.715638  0.528835  1
  Y  Y1  1  0.183492  0.284779  0.469880  1
  Y  Y2  1  0.186805  0.715638  0.900305  1
  Y  Y3  1  0.814898  0.284779  0.101285  1
  Y  Y4  1  0.689203  0.381939  0.692737  1
  Lu  Lu5  1  0.311744  0.622615  0.310871  1
  Lu  Lu6  1  0.687886  0.998727  0.310841  1
  Lu  Lu7  1  0.311567  0.000236  0.688669  1
  Lu  Lu8  1  0.590812  0.789777  0.802906  1
  Lu  Lu9  1  0.407621  0.210342  0.195846  1
  Lu  Lu10  1  0.986872  0.789777  0.198964  1
  Lu  Lu11  1  0.014495  0.210342  0.802720  1
  Co  Co12  1  0.621918  0.997266  0.621465  1
  Co  Co13  1  0.375801  0.997266  0.375348  1
  Co  Co14  1  0.112986  0.613624  0.500638  1
  Co  Co15  1  0.889300  0.388114  0.498814  1
  Bi  Bi16  1  0.499671  0.500045  0.000374  1
  Ir  Ir17  1  0.999595  0.999095  0.999500  1
