# generated using pymatgen
data_Na5Nd(IrO6)2
_symmetry_space_group_name_H-M   'P 1'
_cell_length_a   5.72067385
_cell_length_b   5.45115920
_cell_length_c   9.55221100
_cell_angle_alpha   55.48921683
_cell_angle_beta   89.56370777
_cell_angle_gamma   89.85187688
_symmetry_Int_Tables_number   1
_chemical_formula_structural   Na5Nd(IrO6)2
_chemical_formula_sum   'Na5 Nd1 Ir2 O12'
_cell_volume   245.45051226
_cell_formula_units_Z   1
loop_
 _symmetry_equiv_pos_site_id
 _symmetry_equiv_pos_as_xyz
  1  'x, y, z'
loop_
 _atom_site_type_symbol
 _atom_site_label
 _atom_site_symmetry_multiplicity
 _atom_site_fract_x
 _atom_site_fract_y
 _atom_site_fract_z
 _atom_site_occupancy
  Na  Na0  1  0.558966  0.765562  0.251202  1
  Na  Na1  1  0.937252  0.768390  0.751992  1
  Na  Na2  1  0.064212  0.231386  0.247454  1
  Na  Na3  1  0.993107  0.505547  0.492682  1
  Na  Na4  1  0.502676  0.493248  0.007473  1
  Nd  Nd5  1  0.430998  0.235159  0.747576  1
  Ir  Ir6  1  0.997603  0.995905  0.005780  1
  Ir  Ir7  1  0.503895  0.003002  0.493736  1
  O  O8  1  0.721130  0.903672  0.933552  1
  O  O9  1  0.280142  0.104706  0.056934  1
  O  O10  1  0.236088  0.099556  0.574133  1
  O  O11  1  0.775077  0.909979  0.428748  1
  O  O12  1  0.034566  0.336525  0.774757  1
  O  O13  1  0.957283  0.657829  0.220651  1
  O  O14  1  0.545003  0.662492  0.726743  1
  O  O15  1  0.449522  0.333632  0.277337  1
  O  O16  1  0.184990  0.787857  0.940334  1
  O  O17  1  0.824102  0.226495  0.054810  1
  O  O18  1  0.677377  0.233315  0.551608  1
  O  O19  1  0.326012  0.745743  0.462498  1
