# generated using pymatgen
data_Th4Ru3Au
_symmetry_space_group_name_H-M   'P 1'
_cell_length_a   4.13509300
_cell_length_b   6.10446100
_cell_length_c   15.16404000
_cell_angle_alpha   90.00000000
_cell_angle_beta   90.00000000
_cell_angle_gamma   90.00000000
_symmetry_Int_Tables_number   1
_chemical_formula_structural   Th4Ru3Au
_chemical_formula_sum   'Th8 Ru6 Au2'
_cell_volume   382.77849124
_cell_formula_units_Z   2
loop_
 _symmetry_equiv_pos_site_id
 _symmetry_equiv_pos_as_xyz
  1  'x, y, z'
loop_
 _atom_site_type_symbol
 _atom_site_label
 _atom_site_symmetry_multiplicity
 _atom_site_fract_x
 _atom_site_fract_y
 _atom_site_fract_z
 _atom_site_occupancy
  Th  Th0  1  0.250000  0.548602  0.285984  1
  Th  Th1  1  0.750000  0.474945  0.722590  1
  Th  Th2  1  0.250000  0.951398  0.785984  1
  Th  Th3  1  0.250000  0.749821  0.532952  1
  Th  Th4  1  0.250000  0.750179  0.032952  1
  Th  Th5  1  0.750000  0.261873  0.952245  1
  Th  Th6  1  0.750000  0.025055  0.222590  1
  Th  Th7  1  0.750000  0.238127  0.452245  1
  Ru  Ru8  1  0.250000  0.056918  0.349997  1
  Ru  Ru9  1  0.750000  0.586645  0.148189  1
  Ru  Ru10  1  0.750000  0.707658  0.404842  1
  Ru  Ru11  1  0.250000  0.443082  0.849997  1
  Ru  Ru12  1  0.750000  0.913355  0.648189  1
  Ru  Ru13  1  0.750000  0.792342  0.904842  1
  Au  Au14  1  0.250000  0.252747  0.103199  1
  Au  Au15  1  0.250000  0.247253  0.603199  1
