# generated using pymatgen
data_Ho6Er4In8CoPt3
_symmetry_space_group_name_H-M   'P 1'
_cell_length_a   3.59593500
_cell_length_b   8.10864605
_cell_length_c   18.15471053
_cell_angle_alpha   89.97766133
_cell_angle_beta   90.00000000
_cell_angle_gamma   90.00000000
_symmetry_Int_Tables_number   1
_chemical_formula_structural   Ho6Er4In8CoPt3
_chemical_formula_sum   'Ho6 Er4 In8 Co1 Pt3'
_cell_volume   529.35798923
_cell_formula_units_Z   1
loop_
 _symmetry_equiv_pos_site_id
 _symmetry_equiv_pos_as_xyz
  1  'x, y, z'
loop_
 _atom_site_type_symbol
 _atom_site_label
 _atom_site_symmetry_multiplicity
 _atom_site_fract_x
 _atom_site_fract_y
 _atom_site_fract_z
 _atom_site_occupancy
  Ho  Ho0  1  0.000000  0.232025  0.224402  1
  Ho  Ho1  1  0.000000  0.759340  0.779272  1
  Ho  Ho2  1  0.000000  0.258522  0.720571  1
  Ho  Ho3  1  0.000000  0.754342  0.279222  1
  Ho  Ho4  1  0.000000  0.000360  0.001468  1
  Ho  Ho5  1  0.000000  0.500687  0.498479  1
  Er  Er6  1  0.000000  0.111135  0.408770  1
  Er  Er7  1  0.000000  0.883492  0.583329  1
  Er  Er8  1  0.000000  0.384011  0.916124  1
  Er  Er9  1  0.000000  0.617511  0.087257  1
  In  In10  1  0.500000  0.421544  0.351093  1
  In  In11  1  0.500000  0.577012  0.647674  1
  In  In12  1  0.500000  0.077156  0.852084  1
  In  In13  1  0.500000  0.928778  0.152075  1
  In  In14  1  0.500000  0.292075  0.068695  1
  In  In15  1  0.500000  0.708942  0.934423  1
  In  In16  1  0.500000  0.208096  0.564350  1
  In  In17  1  0.500000  0.793958  0.428769  1
  Co  Co18  1  0.500000  0.017202  0.305050  1
  Pt  Pt19  1  0.500000  0.976428  0.695118  1
  Pt  Pt20  1  0.500000  0.476760  0.804269  1
  Pt  Pt21  1  0.500000  0.520621  0.197504  1
