# generated using pymatgen
data_Hf6Ga6IrPd4Rh
_symmetry_space_group_name_H-M   'P 1'
_cell_length_a   7.27431500
_cell_length_b   7.27431374
_cell_length_c   6.79577400
_cell_angle_alpha   90.00000000
_cell_angle_beta   90.00000000
_cell_angle_gamma   119.99999207
_symmetry_Int_Tables_number   1
_chemical_formula_structural   Hf6Ga6IrPd4Rh
_chemical_formula_sum   'Hf6 Ga6 Ir1 Pd4 Rh1'
_cell_volume   311.42518113
_cell_formula_units_Z   1
loop_
 _symmetry_equiv_pos_site_id
 _symmetry_equiv_pos_as_xyz
  1  'x, y, z'
loop_
 _atom_site_type_symbol
 _atom_site_label
 _atom_site_symmetry_multiplicity
 _atom_site_fract_x
 _atom_site_fract_y
 _atom_site_fract_z
 _atom_site_occupancy
  Hf  Hf0  1  0.603569  0.599499  0.249847  1
  Hf  Hf1  1  0.024902  0.408314  0.750486  1
  Hf  Hf2  1  0.400501  0.004070  0.249847  1
  Hf  Hf3  1  0.995930  0.396431  0.249847  1
  Hf  Hf4  1  0.383413  0.975098  0.750486  1
  Hf  Hf5  1  0.591686  0.616587  0.750486  1
  Ga  Ga6  1  0.274413  0.268764  0.499269  1
  Ga  Ga7  1  0.731236  0.005648  0.499269  1
  Ga  Ga8  1  0.994352  0.725587  0.499269  1
  Ga  Ga9  1  0.732799  0.007423  0.001005  1
  Ga  Ga10  1  0.274625  0.267201  0.001005  1
  Ga  Ga11  1  0.992577  0.725375  0.001005  1
  Ir  Ir12  1  0.333333  0.666667  0.015750  1
  Pd  Pd13  1  0.000000  0.000000  0.750379  1
  Pd  Pd14  1  0.000000  0.000000  0.249947  1
  Pd  Pd15  1  0.666667  0.333333  0.526976  1
  Pd  Pd16  1  0.666667  0.333333  0.973431  1
  Rh  Rh17  1  0.333333  0.666667  0.481698  1
