# generated using pymatgen
data_NdReSi2Tc3
_symmetry_space_group_name_H-M   'P 1'
_cell_length_a   4.16698700
_cell_length_b   7.27513900
_cell_length_c   15.52388000
_cell_angle_alpha   90.00000000
_cell_angle_beta   90.00000000
_cell_angle_gamma   90.00000000
_symmetry_Int_Tables_number   1
_chemical_formula_structural   NdReSi2Tc3
_chemical_formula_sum   'Nd4 Re4 Si8 Tc12'
_cell_volume   470.61278134
_cell_formula_units_Z   4
loop_
 _symmetry_equiv_pos_site_id
 _symmetry_equiv_pos_as_xyz
  1  'x, y, z'
loop_
 _atom_site_type_symbol
 _atom_site_label
 _atom_site_symmetry_multiplicity
 _atom_site_fract_x
 _atom_site_fract_y
 _atom_site_fract_z
 _atom_site_occupancy
  Nd  Nd0  1  0.000000  0.581606  0.117452  1
  Nd  Nd1  1  0.000000  0.418394  0.882548  1
  Nd  Nd2  1  0.500000  0.081606  0.382548  1
  Nd  Nd3  1  0.500000  0.918394  0.617452  1
  Re  Re4  1  0.000000  0.136035  0.052925  1
  Re  Re5  1  0.000000  0.863965  0.947075  1
  Re  Re6  1  0.500000  0.636035  0.447075  1
  Re  Re7  1  0.500000  0.363965  0.552925  1
  Si  Si8  1  0.000000  0.825676  0.474536  1
  Si  Si9  1  0.000000  0.174324  0.525464  1
  Si  Si10  1  0.500000  0.325676  0.025464  1
  Si  Si11  1  0.500000  0.674324  0.974536  1
  Si  Si12  1  0.000000  0.295738  0.273201  1
  Si  Si13  1  0.000000  0.704262  0.726799  1
  Si  Si14  1  0.500000  0.795738  0.226799  1
  Si  Si15  1  0.500000  0.204262  0.773201  1
  Tc  Tc16  1  0.000000  0.730785  0.320567  1
  Tc  Tc17  1  0.000000  0.269215  0.679433  1
  Tc  Tc18  1  0.500000  0.230785  0.179433  1
  Tc  Tc19  1  0.500000  0.769215  0.820567  1
  Tc  Tc20  1  0.000000  0.432383  0.419203  1
  Tc  Tc21  1  0.000000  0.567617  0.580797  1
  Tc  Tc22  1  0.500000  0.932383  0.080797  1
  Tc  Tc23  1  0.500000  0.067617  0.919203  1
  Tc  Tc24  1  0.000000  0.991414  0.206447  1
  Tc  Tc25  1  0.000000  0.008586  0.793553  1
  Tc  Tc26  1  0.500000  0.491414  0.293553  1
  Tc  Tc27  1  0.500000  0.508586  0.706447  1
