# generated using pymatgen
data_Sc8Nb12Si15Ge
_symmetry_space_group_name_H-M   'P 1'
_cell_length_a   6.72614139
_cell_length_b   6.90074221
_cell_length_c   13.19550159
_cell_angle_alpha   90.06466051
_cell_angle_beta   90.09471899
_cell_angle_gamma   89.98050764
_symmetry_Int_Tables_number   1
_chemical_formula_structural   Sc8Nb12Si15Ge
_chemical_formula_sum   'Sc8 Nb12 Si15 Ge1'
_cell_volume   612.47279777
_cell_formula_units_Z   1
loop_
 _symmetry_equiv_pos_site_id
 _symmetry_equiv_pos_as_xyz
  1  'x, y, z'
loop_
 _atom_site_type_symbol
 _atom_site_label
 _atom_site_symmetry_multiplicity
 _atom_site_fract_x
 _atom_site_fract_y
 _atom_site_fract_z
 _atom_site_occupancy
  Sc  Sc0  1  0.500423  0.676540  0.596499  1
  Sc  Sc1  1  0.999106  0.824547  0.905165  1
  Sc  Sc2  1  0.500620  0.325375  0.095059  1
  Sc  Sc3  1  0.000360  0.173728  0.404676  1
  Sc  Sc4  1  0.504785  0.322810  0.403796  1
  Sc  Sc5  1  0.000942  0.175403  0.094716  1
  Sc  Sc6  1  0.499214  0.674635  0.904731  1
  Sc  Sc7  1  0.997530  0.825576  0.595559  1
  Nb  Nb8  1  0.660780  0.174096  0.625516  1
  Nb  Nb9  1  0.160973  0.324780  0.875119  1
  Nb  Nb10  1  0.338858  0.825754  0.124718  1
  Nb  Nb11  1  0.837621  0.675191  0.374707  1
  Nb  Nb12  1  0.341419  0.829652  0.373550  1
  Nb  Nb13  1  0.838862  0.675110  0.124813  1
  Nb  Nb14  1  0.660168  0.174872  0.875255  1
  Nb  Nb15  1  0.158396  0.322347  0.626624  1
  Nb  Nb16  1  0.834890  0.494979  0.750236  1
  Nb  Nb17  1  0.334810  0.005263  0.750148  1
  Nb  Nb18  1  0.164742  0.505861  0.248106  1
  Nb  Nb19  1  0.664805  0.994711  0.249772  1
  Si  Si20  1  0.670021  0.965923  0.461826  1
  Si  Si21  1  0.169309  0.533606  0.038474  1
  Si  Si22  1  0.330197  0.033461  0.961373  1
  Si  Si23  1  0.826009  0.466136  0.539214  1
  Si  Si24  1  0.329968  0.033859  0.538647  1
  Si  Si25  1  0.830711  0.466684  0.961088  1
  Si  Si26  1  0.669510  0.966587  0.038590  1
  Si  Si27  1  0.456687  0.386038  0.750066  1
  Si  Si28  1  0.955911  0.113340  0.751145  1
  Si  Si29  1  0.542690  0.613678  0.249588  1
  Si  Si30  1  0.042962  0.885721  0.249901  1
  Si  Si31  1  0.702559  0.862331  0.750526  1
  Si  Si32  1  0.202655  0.637725  0.750313  1
  Si  Si33  1  0.296678  0.138889  0.249347  1
  Si  Si34  1  0.797789  0.362204  0.249827  1
  Ge  Ge35  1  0.177039  0.532590  0.461312  1
