# generated using pymatgen
data_Y11HoCoTc3
_symmetry_space_group_name_H-M   'P 1'
_cell_length_a   6.31568043
_cell_length_b   7.36434248
_cell_length_c   9.22539170
_cell_angle_alpha   89.99718246
_cell_angle_beta   89.95534235
_cell_angle_gamma   90.12502558
_symmetry_Int_Tables_number   1
_chemical_formula_structural   Y11HoCoTc3
_chemical_formula_sum   'Y11 Ho1 Co1 Tc3'
_cell_volume   429.07950669
_cell_formula_units_Z   1
loop_
 _symmetry_equiv_pos_site_id
 _symmetry_equiv_pos_as_xyz
  1  'x, y, z'
loop_
 _atom_site_type_symbol
 _atom_site_label
 _atom_site_symmetry_multiplicity
 _atom_site_fract_x
 _atom_site_fract_y
 _atom_site_fract_z
 _atom_site_occupancy
  Y  Y0  1  0.162450  0.176332  0.437926  1
  Y  Y1  1  0.664880  0.327228  0.564451  1
  Y  Y2  1  0.833713  0.821640  0.936651  1
  Y  Y3  1  0.664714  0.327324  0.935598  1
  Y  Y4  1  0.833625  0.821758  0.563470  1
  Y  Y5  1  0.332018  0.676950  0.434801  1
  Y  Y6  1  0.162471  0.176386  0.062101  1
  Y  Y7  1  0.872193  0.542338  0.249890  1
  Y  Y8  1  0.626781  0.042190  0.249939  1
  Y  Y9  1  0.142252  0.455696  0.750158  1
  Y  Y10  1  0.372283  0.951073  0.750170  1
  Ho  Ho11  1  0.331908  0.676644  0.065415  1
  Co  Co12  1  0.538481  0.616316  0.750219  1
  Tc  Tc13  1  0.039550  0.885979  0.249646  1
  Tc  Tc14  1  0.459954  0.388815  0.249559  1
  Tc  Tc15  1  0.962727  0.113330  0.750006  1
