# generated using pymatgen
data_Er4MnCo4
_symmetry_space_group_name_H-M   'P 1'
_cell_length_a   5.43615453
_cell_length_b   5.43615413
_cell_length_c   8.82425473
_cell_angle_alpha   71.61662785
_cell_angle_beta   71.61663031
_cell_angle_gamma   42.79057519
_symmetry_Int_Tables_number   1
_chemical_formula_structural   Er4MnCo4
_chemical_formula_sum   'Er4 Mn1 Co4'
_cell_volume   166.67659411
_cell_formula_units_Z   1
loop_
 _symmetry_equiv_pos_site_id
 _symmetry_equiv_pos_as_xyz
  1  'x, y, z'
loop_
 _atom_site_type_symbol
 _atom_site_label
 _atom_site_symmetry_multiplicity
 _atom_site_fract_x
 _atom_site_fract_y
 _atom_site_fract_z
 _atom_site_occupancy
  Er  Er0  1  0.745693  0.745693  0.661227  1
  Er  Er1  1  0.254307  0.254307  0.338773  1
  Er  Er2  1  0.391208  0.391208  0.885541  1
  Er  Er3  1  0.608792  0.608792  0.114459  1
  Mn  Mn4  1  0.500000  0.500000  0.500000  1
  Co  Co5  1  0.037175  0.037175  0.642524  1
  Co  Co6  1  0.962825  0.962825  0.357476  1
  Co  Co7  1  0.093849  0.093849  0.880551  1
  Co  Co8  1  0.906151  0.906151  0.119449  1
