# generated using pymatgen
data_Zr3Ga3OsAu2
_symmetry_space_group_name_H-M   'P 1'
_cell_length_a   7.35192000
_cell_length_b   7.35192131
_cell_length_c   7.10463100
_cell_angle_alpha   90.00000000
_cell_angle_beta   90.00000000
_cell_angle_gamma   119.99998631
_symmetry_Int_Tables_number   1
_chemical_formula_structural   Zr3Ga3OsAu2
_chemical_formula_sum   'Zr6 Ga6 Os2 Au4'
_cell_volume   332.56293226
_cell_formula_units_Z   2
loop_
 _symmetry_equiv_pos_site_id
 _symmetry_equiv_pos_as_xyz
  1  'x, y, z'
loop_
 _atom_site_type_symbol
 _atom_site_label
 _atom_site_symmetry_multiplicity
 _atom_site_fract_x
 _atom_site_fract_y
 _atom_site_fract_z
 _atom_site_occupancy
  Zr  Zr0  1  0.396610  0.390860  0.750000  1
  Zr  Zr1  1  0.994250  0.603390  0.750000  1
  Zr  Zr2  1  0.609140  0.005750  0.750000  1
  Zr  Zr3  1  0.624354  0.037177  0.250000  1
  Zr  Zr4  1  0.962823  0.587177  0.250000  1
  Zr  Zr5  1  0.412823  0.375646  0.250000  1
  Ga  Ga6  1  0.275348  0.997267  0.997550  1
  Ga  Ga7  1  0.721919  0.724652  0.997550  1
  Ga  Ga8  1  0.002733  0.278081  0.997550  1
  Ga  Ga9  1  0.721919  0.724652  0.502450  1
  Ga  Ga10  1  0.275348  0.997267  0.502450  1
  Ga  Ga11  1  0.002733  0.278081  0.502450  1
  Os  Os12  1  0.666667  0.333333  0.981980  1
  Os  Os13  1  0.666667  0.333333  0.518020  1
  Au  Au14  1  0.000000  0.000000  0.750000  1
  Au  Au15  1  0.333333  0.666667  0.468985  1
  Au  Au16  1  0.333333  0.666667  0.031015  1
  Au  Au17  1  0.000000  0.000000  0.250000  1
