# generated using pymatgen
data_Dy5YAl24Ir5Ru3
_symmetry_space_group_name_H-M   'P 1'
_cell_length_a   8.81543452
_cell_length_b   8.77869831
_cell_length_c   9.57009601
_cell_angle_alpha   90.00041224
_cell_angle_beta   90.10349508
_cell_angle_gamma   119.85858213
_symmetry_Int_Tables_number   1
_chemical_formula_structural   Dy5YAl24Ir5Ru3
_chemical_formula_sum   'Dy5 Y1 Al24 Ir5 Ru3'
_cell_volume   642.29855517
_cell_formula_units_Z   1
loop_
 _symmetry_equiv_pos_site_id
 _symmetry_equiv_pos_as_xyz
  1  'x, y, z'
loop_
 _atom_site_type_symbol
 _atom_site_label
 _atom_site_symmetry_multiplicity
 _atom_site_fract_x
 _atom_site_fract_y
 _atom_site_fract_z
 _atom_site_occupancy
  Dy  Dy0  1  0.191212  0.385292  0.249802  1
  Dy  Dy1  1  0.614854  0.807369  0.249916  1
  Dy  Dy2  1  0.808767  0.194291  0.750183  1
  Dy  Dy3  1  0.808814  0.614565  0.750183  1
  Dy  Dy4  1  0.385248  0.192633  0.750079  1
  Y  Y5  1  0.191162  0.806042  0.249904  1
  Al  Al6  1  0.561671  0.436729  0.250224  1
  Al  Al7  1  0.561745  0.124936  0.250203  1
  Al  Al8  1  0.875552  0.437722  0.248721  1
  Al  Al9  1  0.438362  0.563239  0.749771  1
  Al  Al10  1  0.438350  0.875056  0.749758  1
  Al  Al11  1  0.124495  0.562211  0.751264  1
  Al  Al12  1  0.325810  0.162998  0.423650  1
  Al  Al13  1  0.835505  0.162561  0.423295  1
  Al  Al14  1  0.835385  0.672825  0.423444  1
  Al  Al15  1  0.674343  0.837170  0.576552  1
  Al  Al16  1  0.164489  0.837414  0.576943  1
  Al  Al17  1  0.164471  0.327008  0.576742  1
  Al  Al18  1  0.673553  0.836768  0.924290  1
  Al  Al19  1  0.162589  0.835359  0.923211  1
  Al  Al20  1  0.162534  0.327144  0.923378  1
  Al  Al21  1  0.326586  0.163347  0.075509  1
  Al  Al22  1  0.837431  0.164618  0.076550  1
  Al  Al23  1  0.837323  0.672693  0.076429  1
  Al  Al24  1  0.667269  0.333621  0.528905  1
  Al  Al25  1  0.332692  0.666302  0.471254  1
  Al  Al26  1  0.330502  0.665241  0.028105  1
  Al  Al27  1  0.669478  0.334732  0.971752  1
  Al  Al28  1  0.997772  0.999469  0.250023  1
  Al  Al29  1  0.001851  0.000967  0.749971  1
  Ir  Ir30  1  0.500009  0.500007  0.500023  1
  Ir  Ir31  1  0.500125  0.000057  0.500115  1
  Ir  Ir32  1  0.999879  0.499778  0.500190  1
  Ir  Ir33  1  0.499995  0.500008  0.999980  1
  Ir  Ir34  1  0.500175  0.000093  0.999818  1
  Ru  Ru35  1  0.000027  0.999937  0.499984  1
  Ru  Ru36  1  0.000056  0.999933  0.000032  1
  Ru  Ru37  1  0.999918  0.499864  0.999847  1
