# generated using pymatgen
data_Ho3Zr(WN2)4
_symmetry_space_group_name_H-M   'P 1'
_cell_length_a   3.16857700
_cell_length_b   5.68099337
_cell_length_c   10.51920358
_cell_angle_alpha   90.18431300
_cell_angle_beta   90.00000000
_cell_angle_gamma   90.00000000
_symmetry_Int_Tables_number   1
_chemical_formula_structural   Ho3Zr(WN2)4
_chemical_formula_sum   'Ho3 Zr1 W4 N8'
_cell_volume   189.35167900
_cell_formula_units_Z   1
loop_
 _symmetry_equiv_pos_site_id
 _symmetry_equiv_pos_as_xyz
  1  'x, y, z'
loop_
 _atom_site_type_symbol
 _atom_site_label
 _atom_site_symmetry_multiplicity
 _atom_site_fract_x
 _atom_site_fract_y
 _atom_site_fract_z
 _atom_site_occupancy
  Ho  Ho0  1  0.250000  0.081625  0.146444  1
  Ho  Ho1  1  0.750000  0.418387  0.646735  1
  Ho  Ho2  1  0.750000  0.919489  0.852914  1
  Zr  Zr3  1  0.250000  0.582705  0.349853  1
  W  W4  1  0.250000  0.930160  0.593645  1
  W  W5  1  0.250000  0.432632  0.904503  1
  W  W6  1  0.750000  0.065115  0.407589  1
  W  W7  1  0.750000  0.569175  0.095554  1
  N  N8  1  0.250000  0.666557  0.746354  1
  N  N9  1  0.250000  0.163407  0.750018  1
  N  N10  1  0.750000  0.345115  0.258112  1
  N  N11  1  0.750000  0.826461  0.252809  1
  N  N12  1  0.250000  0.270091  0.490269  1
  N  N13  1  0.250000  0.763073  0.007712  1
  N  N14  1  0.750000  0.730194  0.501467  1
  N  N15  1  0.750000  0.235815  0.996021  1
