# generated using pymatgen
data_Sm2Eu3Mn2O12
_symmetry_space_group_name_H-M   'P 1'
_cell_length_a   6.91774865
_cell_length_b   6.91774860
_cell_length_c   7.42147367
_cell_angle_alpha   74.69880781
_cell_angle_beta   74.69880888
_cell_angle_gamma   50.00797253
_symmetry_Int_Tables_number   1
_chemical_formula_structural   Sm2Eu3Mn2O12
_chemical_formula_sum   'Sm2 Eu3 Mn2 O12'
_cell_volume   260.30666926
_cell_formula_units_Z   1
loop_
 _symmetry_equiv_pos_site_id
 _symmetry_equiv_pos_as_xyz
  1  'x, y, z'
loop_
 _atom_site_type_symbol
 _atom_site_label
 _atom_site_symmetry_multiplicity
 _atom_site_fract_x
 _atom_site_fract_y
 _atom_site_fract_z
 _atom_site_occupancy
  Sm  Sm0  1  0.694528  0.694528  0.159349  1
  Sm  Sm1  1  0.305472  0.305472  0.840651  1
  Eu  Eu2  1  0.310997  0.310997  0.353798  1
  Eu  Eu3  1  0.689003  0.689003  0.646202  1
  Eu  Eu4  1  0.000000  0.000000  0.500000  1
  Mn  Mn5  1  0.756144  0.243856  0.000000  1
  Mn  Mn6  1  0.243856  0.756144  0.000000  1
  O  O7  1  0.096105  0.599039  0.573434  1
  O  O8  1  0.002923  0.002923  0.172174  1
  O  O9  1  0.400961  0.903895  0.426566  1
  O  O10  1  0.501944  0.501944  0.174011  1
  O  O11  1  0.100749  0.579206  0.082789  1
  O  O12  1  0.903895  0.400961  0.426566  1
  O  O13  1  0.997077  0.997077  0.827826  1
  O  O14  1  0.599039  0.096104  0.573434  1
  O  O15  1  0.498056  0.498056  0.825989  1
  O  O16  1  0.579206  0.100749  0.082789  1
  O  O17  1  0.420794  0.899251  0.917211  1
  O  O18  1  0.899251  0.420794  0.917211  1
