# generated using pymatgen
data_CeEr9(Ga2Ru3)2
_symmetry_space_group_name_H-M   'P 1'
_cell_length_a   8.32085729
_cell_length_b   8.32085728
_cell_length_c   8.21268800
_cell_angle_alpha   110.02578248
_cell_angle_beta   109.30045895
_cell_angle_gamma   109.62020149
_symmetry_Int_Tables_number   1
_chemical_formula_structural   CeEr9(Ga2Ru3)2
_chemical_formula_sum   'Ce1 Er9 Ga4 Ru6'
_cell_volume   434.80817146
_cell_formula_units_Z   1
loop_
 _symmetry_equiv_pos_site_id
 _symmetry_equiv_pos_as_xyz
  1  'x, y, z'
loop_
 _atom_site_type_symbol
 _atom_site_label
 _atom_site_symmetry_multiplicity
 _atom_site_fract_x
 _atom_site_fract_y
 _atom_site_fract_z
 _atom_site_occupancy
  Ce  Ce0  1  0.195351  0.945351  0.250000  1
  Er  Er1  1  0.776757  0.782752  0.780849  1
  Er  Er2  1  0.315968  0.565968  0.750000  1
  Er  Er3  1  0.754478  0.318680  0.568251  1
  Er  Er4  1  0.568237  0.747874  0.316104  1
  Er  Er5  1  0.719080  0.499232  0.997226  1
  Er  Er6  1  0.002005  0.721852  0.502774  1
  Er  Er7  1  0.501901  0.995908  0.719151  1
  Er  Er8  1  0.250429  0.186227  0.931749  1
  Er  Er9  1  0.931770  0.252133  0.183896  1
  Ga  Ga10  1  0.414651  0.415811  0.409822  1
  Ga  Ga11  1  0.091942  0.496769  0.003932  1
  Ga  Ga12  1  0.992837  0.088011  0.496068  1
  Ga  Ga13  1  0.505990  0.004829  0.090178  1
  Ru  Ru14  1  0.871433  0.121433  0.750000  1
  Ru  Ru15  1  0.739941  0.866749  0.115093  1
  Ru  Ru16  1  0.125551  0.762611  0.901651  1
  Ru  Ru17  1  0.251656  0.624848  0.384907  1
  Ru  Ru18  1  0.360959  0.223898  0.598349  1
  Ru  Ru19  1  0.629064  0.379064  0.250000  1
