# generated using pymatgen
data_Dy3Pa(CoB4)4
_symmetry_space_group_name_H-M   'P 1'
_cell_length_a   3.40192200
_cell_length_b   5.91137775
_cell_length_c   11.46309739
_cell_angle_alpha   89.98614296
_cell_angle_beta   90.00000000
_cell_angle_gamma   90.00000000
_symmetry_Int_Tables_number   1
_chemical_formula_structural   Dy3Pa(CoB4)4
_chemical_formula_sum   'Dy3 Pa1 Co4 B16'
_cell_volume   230.52340908
_cell_formula_units_Z   1
loop_
 _symmetry_equiv_pos_site_id
 _symmetry_equiv_pos_as_xyz
  1  'x, y, z'
loop_
 _atom_site_type_symbol
 _atom_site_label
 _atom_site_symmetry_multiplicity
 _atom_site_fract_x
 _atom_site_fract_y
 _atom_site_fract_z
 _atom_site_occupancy
  Dy  Dy0  1  0.500000  0.627699  0.848736  1
  Dy  Dy1  1  0.500000  0.128724  0.649862  1
  Dy  Dy2  1  0.500000  0.871871  0.351858  1
  Pa  Pa3  1  0.500000  0.372677  0.150154  1
  Co  Co4  1  0.500000  0.364465  0.409378  1
  Co  Co5  1  0.500000  0.635371  0.588830  1
  Co  Co6  1  0.500000  0.133984  0.911200  1
  Co  Co7  1  0.500000  0.864468  0.090471  1
  B  B8  1  0.000000  0.110509  0.045368  1
  B  B9  1  0.000000  0.888063  0.953009  1
  B  B10  1  0.000000  0.389171  0.546255  1
  B  B11  1  0.000000  0.612317  0.455170  1
  B  B12  1  0.000000  0.139283  0.467979  1
  B  B13  1  0.000000  0.861560  0.533107  1
  B  B14  1  0.000000  0.360295  0.964648  1
  B  B15  1  0.000000  0.638470  0.032878  1
  B  B16  1  0.000000  0.020552  0.190600  1
  B  B17  1  0.000000  0.977184  0.809204  1
  B  B18  1  0.000000  0.477811  0.690010  1
  B  B19  1  0.000000  0.522437  0.311060  1
  B  B20  1  0.000000  0.217455  0.316139  1
  B  B21  1  0.000000  0.783122  0.684587  1
  B  B22  1  0.000000  0.284233  0.814825  1
  B  B23  1  0.000000  0.718280  0.184673  1
