# generated using pymatgen
data_Pr10Sn6PCl
_symmetry_space_group_name_H-M   'P 1'
_cell_length_a   9.50046500
_cell_length_b   9.50046435
_cell_length_c   6.98721700
_cell_angle_alpha   90.00000000
_cell_angle_beta   90.00000000
_cell_angle_gamma   120.00000574
_symmetry_Int_Tables_number   1
_chemical_formula_structural   Pr10Sn6PCl
_chemical_formula_sum   'Pr10 Sn6 P1 Cl1'
_cell_volume   546.16583895
_cell_formula_units_Z   1
loop_
 _symmetry_equiv_pos_site_id
 _symmetry_equiv_pos_as_xyz
  1  'x, y, z'
loop_
 _atom_site_type_symbol
 _atom_site_label
 _atom_site_symmetry_multiplicity
 _atom_site_fract_x
 _atom_site_fract_y
 _atom_site_fract_z
 _atom_site_occupancy
  Pr  Pr0  1  0.248431  0.248431  0.761155  1
  Pr  Pr1  1  0.000000  0.751569  0.761155  1
  Pr  Pr2  1  0.751569  0.000000  0.761155  1
  Pr  Pr3  1  0.000000  0.248431  0.238845  1
  Pr  Pr4  1  0.333333  0.666667  0.500000  1
  Pr  Pr5  1  0.751569  0.751569  0.238845  1
  Pr  Pr6  1  0.666667  0.333333  0.500000  1
  Pr  Pr7  1  0.248431  0.000000  0.238845  1
  Pr  Pr8  1  0.333333  0.666667  0.000000  1
  Pr  Pr9  1  0.666667  0.333333  0.000000  1
  Sn  Sn10  1  0.604408  0.000000  0.249545  1
  Sn  Sn11  1  0.000000  0.395592  0.750455  1
  Sn  Sn12  1  0.395592  0.000000  0.750455  1
  Sn  Sn13  1  0.604408  0.604408  0.750455  1
  Sn  Sn14  1  0.000000  0.604408  0.249545  1
  Sn  Sn15  1  0.395592  0.395592  0.249545  1
  P  P16  1  0.000000  0.000000  0.000000  1
  Cl  Cl17  1  0.000000  0.000000  0.500000  1
