# generated using pymatgen
data_Y3Ho5Si12IrRh3
_symmetry_space_group_name_H-M   'P 1'
_cell_length_a   8.16031749
_cell_length_b   8.16031997
_cell_length_c   7.89040700
_cell_angle_alpha   89.99795897
_cell_angle_beta   90.00198479
_cell_angle_gamma   120.03980314
_symmetry_Int_Tables_number   1
_chemical_formula_structural   Y3Ho5Si12IrRh3
_chemical_formula_sum   'Y3 Ho5 Si12 Ir1 Rh3'
_cell_volume   454.85183710
_cell_formula_units_Z   1
loop_
 _symmetry_equiv_pos_site_id
 _symmetry_equiv_pos_as_xyz
  1  'x, y, z'
loop_
 _atom_site_type_symbol
 _atom_site_label
 _atom_site_symmetry_multiplicity
 _atom_site_fract_x
 _atom_site_fract_y
 _atom_site_fract_z
 _atom_site_occupancy
  Y  Y0  1  0.999993  0.000009  0.248905  1
  Y  Y1  1  0.000000  0.000001  0.750305  1
  Y  Y2  1  0.508954  0.491045  0.250111  1
  Ho  Ho3  1  0.508782  0.017485  0.250192  1
  Ho  Ho4  1  0.982516  0.491218  0.250191  1
  Ho  Ho5  1  0.490483  0.509517  0.749863  1
  Ho  Ho6  1  0.490496  0.980961  0.749865  1
  Ho  Ho7  1  0.019038  0.509506  0.749865  1
  Si  Si8  1  0.166643  0.833357  0.499191  1
  Si  Si9  1  0.166547  0.333287  0.499360  1
  Si  Si10  1  0.666712  0.833453  0.499360  1
  Si  Si11  1  0.832660  0.167341  0.500211  1
  Si  Si12  1  0.832832  0.665400  0.500456  1
  Si  Si13  1  0.334600  0.167168  0.500455  1
  Si  Si14  1  0.832780  0.167219  0.999862  1
  Si  Si15  1  0.832954  0.665650  0.999625  1
  Si  Si16  1  0.334350  0.167045  0.999626  1
  Si  Si17  1  0.167110  0.832890  0.999618  1
  Si  Si18  1  0.166983  0.334172  0.999434  1
  Si  Si19  1  0.665828  0.833017  0.999434  1
  Ir  Ir20  1  0.333054  0.666946  0.468415  1
  Rh  Rh21  1  0.666819  0.333180  0.534340  1
  Rh  Rh22  1  0.666812  0.333186  0.964839  1
  Rh  Rh23  1  0.333054  0.666947  0.036478  1
