# generated using pymatgen
data_TbTm3Ni4(SnH)4
_symmetry_space_group_name_H-M   'P 1'
_cell_length_a   4.21251400
_cell_length_b   7.05213714
_cell_length_c   8.27182515
_cell_angle_alpha   90.02229933
_cell_angle_beta   90.00000000
_cell_angle_gamma   90.00000000
_symmetry_Int_Tables_number   1
_chemical_formula_structural   TbTm3Ni4(SnH)4
_chemical_formula_sum   'Tb1 Tm3 Ni4 Sn4 H4'
_cell_volume   245.73296410
_cell_formula_units_Z   1
loop_
 _symmetry_equiv_pos_site_id
 _symmetry_equiv_pos_as_xyz
  1  'x, y, z'
loop_
 _atom_site_type_symbol
 _atom_site_label
 _atom_site_symmetry_multiplicity
 _atom_site_fract_x
 _atom_site_fract_y
 _atom_site_fract_z
 _atom_site_occupancy
  Tb  Tb0  1  0.750000  0.516392  0.813460  1
  Tm  Tm1  1  0.250000  0.483507  0.184880  1
  Tm  Tm2  1  0.250000  0.983386  0.314451  1
  Tm  Tm3  1  0.750000  0.016702  0.684732  1
  Ni  Ni4  1  0.750000  0.271613  0.390648  1
  Ni  Ni5  1  0.250000  0.731121  0.607466  1
  Ni  Ni6  1  0.250000  0.224876  0.890552  1
  Ni  Ni7  1  0.750000  0.772361  0.112026  1
  Sn  Sn8  1  0.750000  0.155815  0.072577  1
  Sn  Sn9  1  0.250000  0.843966  0.929021  1
  Sn  Sn10  1  0.250000  0.343591  0.569569  1
  Sn  Sn11  1  0.750000  0.656636  0.427119  1
  H  H12  1  0.250000  0.954057  0.577106  1
  H  H13  1  0.750000  0.048749  0.422204  1
  H  H14  1  0.750000  0.548837  0.080544  1
  H  H15  1  0.250000  0.448392  0.923644  1
