# generated using pymatgen
data_Dy3Ho(CI)2
_symmetry_space_group_name_H-M   'P 1'
_cell_length_a   3.75244000
_cell_length_b   3.75244055
_cell_length_c   14.76462300
_cell_angle_alpha   90.00000000
_cell_angle_beta   90.00000000
_cell_angle_gamma   119.99999516
_symmetry_Int_Tables_number   1
_chemical_formula_structural   Dy3Ho(CI)2
_chemical_formula_sum   'Dy3 Ho1 C2 I2'
_cell_volume   180.04480389
_cell_formula_units_Z   1
loop_
 _symmetry_equiv_pos_site_id
 _symmetry_equiv_pos_as_xyz
  1  'x, y, z'
loop_
 _atom_site_type_symbol
 _atom_site_label
 _atom_site_symmetry_multiplicity
 _atom_site_fract_x
 _atom_site_fract_y
 _atom_site_fract_z
 _atom_site_occupancy
  Dy  Dy0  1  0.333333  0.666667  0.585640  1
  Dy  Dy1  1  0.666667  0.333333  0.414296  1
  Dy  Dy2  1  0.666667  0.333333  0.085372  1
  Ho  Ho3  1  0.333333  0.666667  0.914998  1
  C  C4  1  0.000000  0.000000  0.999329  1
  C  C5  1  0.000000  0.000000  0.500001  1
  I  I6  1  0.333333  0.666667  0.249952  1
  I  I7  1  0.666667  0.333333  0.750412  1
