# generated using pymatgen
data_Ho3Tm(Co5As3)4
_symmetry_space_group_name_H-M   'P 1'
_cell_length_a   3.77969300
_cell_length_b   12.16926601
_cell_length_c   10.66952959
_cell_angle_alpha   90.02087977
_cell_angle_beta   90.00000000
_cell_angle_gamma   90.00000000
_symmetry_Int_Tables_number   1
_chemical_formula_structural   Ho3Tm(Co5As3)4
_chemical_formula_sum   'Ho3 Tm1 Co20 As12'
_cell_volume   490.75660567
_cell_formula_units_Z   1
loop_
 _symmetry_equiv_pos_site_id
 _symmetry_equiv_pos_as_xyz
  1  'x, y, z'
loop_
 _atom_site_type_symbol
 _atom_site_label
 _atom_site_symmetry_multiplicity
 _atom_site_fract_x
 _atom_site_fract_y
 _atom_site_fract_z
 _atom_site_occupancy
  Ho  Ho0  1  0.750000  0.701563  0.081664  1
  Ho  Ho1  1  0.250000  0.298419  0.918363  1
  Ho  Ho2  1  0.250000  0.798519  0.581616  1
  Tm  Tm3  1  0.750000  0.201391  0.418636  1
  Co  Co4  1  0.750000  0.697073  0.384307  1
  Co  Co5  1  0.250000  0.302593  0.615202  1
  Co  Co6  1  0.250000  0.802893  0.884288  1
  Co  Co7  1  0.750000  0.197086  0.116083  1
  Co  Co8  1  0.750000  0.991276  0.212251  1
  Co  Co9  1  0.250000  0.008916  0.787481  1
  Co  Co10  1  0.250000  0.508765  0.712190  1
  Co  Co11  1  0.750000  0.491316  0.287748  1
  Co  Co12  1  0.750000  0.677763  0.784079  1
  Co  Co13  1  0.250000  0.322087  0.216255  1
  Co  Co14  1  0.250000  0.822312  0.284160  1
  Co  Co15  1  0.750000  0.177826  0.715610  1
  Co  Co16  1  0.750000  0.932049  0.969473  1
  Co  Co17  1  0.250000  0.068121  0.030928  1
  Co  Co18  1  0.250000  0.567647  0.469380  1
  Co  Co19  1  0.750000  0.431553  0.530339  1
  Co  Co20  1  0.750000  0.988115  0.592569  1
  Co  Co21  1  0.250000  0.012874  0.407140  1
  Co  Co22  1  0.250000  0.512013  0.092799  1
  Co  Co23  1  0.750000  0.487868  0.907274  1
  As  As24  1  0.750000  0.614115  0.584837  1
  As  As25  1  0.250000  0.385062  0.415113  1
  As  As26  1  0.250000  0.885793  0.084903  1
  As  As27  1  0.750000  0.114277  0.915096  1
  As  As28  1  0.750000  0.890573  0.399506  1
  As  As29  1  0.250000  0.109759  0.599871  1
  As  As30  1  0.250000  0.609480  0.899591  1
  As  As31  1  0.750000  0.390467  0.100516  1
  As  As32  1  0.750000  0.870457  0.768961  1
  As  As33  1  0.250000  0.129996  0.231747  1
  As  As34  1  0.250000  0.629572  0.269039  1
  As  As35  1  0.750000  0.370407  0.730979  1
