# generated using pymatgen
data_SrBi3(Rh2O7)2
_symmetry_space_group_name_H-M   'P 1'
_cell_length_a   7.40749178
_cell_length_b   7.29338914
_cell_length_c   7.40749200
_cell_angle_alpha   59.48111399
_cell_angle_beta   59.99999903
_cell_angle_gamma   59.48111169
_symmetry_Int_Tables_number   1
_chemical_formula_structural   SrBi3(Rh2O7)2
_chemical_formula_sum   'Sr1 Bi3 Rh4 O14'
_cell_volume   280.74090239
_cell_formula_units_Z   1
loop_
 _symmetry_equiv_pos_site_id
 _symmetry_equiv_pos_as_xyz
  1  'x, y, z'
loop_
 _atom_site_type_symbol
 _atom_site_label
 _atom_site_symmetry_multiplicity
 _atom_site_fract_x
 _atom_site_fract_y
 _atom_site_fract_z
 _atom_site_occupancy
  Sr  Sr0  1  0.125000  0.625000  0.125000  1
  Bi  Bi1  1  0.125000  0.125000  0.125000  1
  Bi  Bi2  1  0.625000  0.125000  0.125000  1
  Bi  Bi3  1  0.125000  0.125000  0.625000  1
  Rh  Rh4  1  0.625000  0.625000  0.625000  1
  Rh  Rh5  1  0.625000  0.625000  0.125000  1
  Rh  Rh6  1  0.125000  0.625000  0.625000  1
  Rh  Rh7  1  0.625000  0.125000  0.625000  1
  O  O8  1  0.257450  0.227651  0.257450  1
  O  O9  1  0.295145  0.711912  0.295145  1
  O  O10  1  0.953871  0.958286  0.543922  1
  O  O11  1  0.543922  0.958286  0.543922  1
  O  O12  1  0.697799  0.711912  0.295145  1
  O  O13  1  0.954855  0.538088  0.552201  1
  O  O14  1  0.706078  0.291714  0.706078  1
  O  O15  1  0.296129  0.291714  0.706078  1
  O  O16  1  0.706078  0.291714  0.296129  1
  O  O17  1  0.295145  0.711912  0.697799  1
  O  O18  1  0.954855  0.538088  0.954855  1
  O  O19  1  0.552201  0.538088  0.954855  1
  O  O20  1  0.992550  0.022349  0.992550  1
  O  O21  1  0.543922  0.958286  0.953871  1
