# generated using pymatgen
data_Er4Tm2C2Br7
_symmetry_space_group_name_H-M   'P 1'
_cell_length_a   10.40843883
_cell_length_b   10.40843813
_cell_length_c   12.16953138
_cell_angle_alpha   57.54320453
_cell_angle_beta   57.54320739
_cell_angle_gamma   20.85956431
_symmetry_Int_Tables_number   1
_chemical_formula_structural   Er4Tm2C2Br7
_chemical_formula_sum   'Er4 Tm2 C2 Br7'
_cell_volume   393.39768994
_cell_formula_units_Z   1
loop_
 _symmetry_equiv_pos_site_id
 _symmetry_equiv_pos_as_xyz
  1  'x, y, z'
loop_
 _atom_site_type_symbol
 _atom_site_label
 _atom_site_symmetry_multiplicity
 _atom_site_fract_x
 _atom_site_fract_y
 _atom_site_fract_z
 _atom_site_occupancy
  Er  Er0  1  0.235071  0.235071  0.818672  1
  Er  Er1  1  0.311508  0.311508  0.369993  1
  Er  Er2  1  0.130507  0.130507  0.449069  1
  Er  Er3  1  0.869147  0.869147  0.551064  1
  Tm  Tm4  1  0.688963  0.688963  0.629428  1
  Tm  Tm5  1  0.764775  0.764775  0.182326  1
  C  C6  1  0.280929  0.280929  0.598639  1
  C  C7  1  0.718656  0.718656  0.401353  1
  Br  Br8  1  0.162053  0.162053  0.178808  1
  Br  Br9  1  0.838542  0.838542  0.821017  1
  Br  Br10  1  0.059274  0.059274  0.718269  1
  Br  Br11  1  0.941184  0.941184  0.281467  1
  Br  Br12  1  0.500013  0.500013  0.499960  1
  Br  Br13  1  0.384272  0.384272  0.077170  1
  Br  Br14  1  0.615106  0.615106  0.922765  1
