# generated using pymatgen
data_Hf4MnV6Ni
_symmetry_space_group_name_H-M   'P 1'
_cell_length_a   5.06812210
_cell_length_b   5.14360657
_cell_length_c   8.30506600
_cell_angle_alpha   90.00000000
_cell_angle_beta   90.00000000
_cell_angle_gamma   118.80730213
_symmetry_Int_Tables_number   1
_chemical_formula_structural   Hf4MnV6Ni
_chemical_formula_sum   'Hf4 Mn1 V6 Ni1'
_cell_volume   189.70710141
_cell_formula_units_Z   1
loop_
 _symmetry_equiv_pos_site_id
 _symmetry_equiv_pos_as_xyz
  1  'x, y, z'
loop_
 _atom_site_type_symbol
 _atom_site_label
 _atom_site_symmetry_multiplicity
 _atom_site_fract_x
 _atom_site_fract_y
 _atom_site_fract_z
 _atom_site_occupancy
  Hf  Hf0  1  0.332901  0.666645  0.436728  1
  Hf  Hf1  1  0.665409  0.330068  0.937097  1
  Hf  Hf2  1  0.665409  0.330068  0.562903  1
  Hf  Hf3  1  0.332901  0.666645  0.063272  1
  Mn  Mn4  1  0.167908  0.835181  0.750000  1
  V  V5  1  0.167081  0.344268  0.750000  1
  V  V6  1  0.829441  0.172620  0.250000  1
  V  V7  1  0.343685  0.171374  0.250000  1
  V  V8  1  0.660859  0.832785  0.750000  1
  V  V9  1  0.001057  0.993085  0.001458  1
  V  V10  1  0.001057  0.993085  0.498542  1
  Ni  Ni11  1  0.832292  0.664177  0.250000  1
