# generated using pymatgen
data_ZrPa(ZnRh)2
_symmetry_space_group_name_H-M   'P 1'
_cell_length_a   3.72466100
_cell_length_b   7.02837705
_cell_length_c   8.36498470
_cell_angle_alpha   91.42084868
_cell_angle_beta   90.00000000
_cell_angle_gamma   90.00000000
_symmetry_Int_Tables_number   1
_chemical_formula_structural   ZrPa(ZnRh)2
_chemical_formula_sum   'Zr2 Pa2 Zn4 Rh4'
_cell_volume   218.91393254
_cell_formula_units_Z   2
loop_
 _symmetry_equiv_pos_site_id
 _symmetry_equiv_pos_as_xyz
  1  'x, y, z'
loop_
 _atom_site_type_symbol
 _atom_site_label
 _atom_site_symmetry_multiplicity
 _atom_site_fract_x
 _atom_site_fract_y
 _atom_site_fract_z
 _atom_site_occupancy
  Zr  Zr0  1  0.750000  0.941522  0.679671  1
  Zr  Zr1  1  0.250000  0.058478  0.320329  1
  Pa  Pa2  1  0.250000  0.555278  0.189630  1
  Pa  Pa3  1  0.750000  0.444722  0.810370  1
  Zn  Zn4  1  0.250000  0.636008  0.559435  1
  Zn  Zn5  1  0.750000  0.363992  0.440565  1
  Zn  Zn6  1  0.750000  0.887953  0.061512  1
  Zn  Zn7  1  0.250000  0.112047  0.938488  1
  Rh  Rh8  1  0.250000  0.722911  0.870425  1
  Rh  Rh9  1  0.750000  0.277089  0.129575  1
  Rh  Rh10  1  0.750000  0.765197  0.360915  1
  Rh  Rh11  1  0.250000  0.234803  0.639085  1
