# generated using pymatgen
data_Zr2PSe2
_symmetry_space_group_name_H-M   'P 1'
_cell_length_a   9.98766544
_cell_length_b   9.98766571
_cell_length_c   9.98766627
_cell_angle_alpha   21.72160684
_cell_angle_beta   21.72160165
_cell_angle_gamma   21.72160706
_symmetry_Int_Tables_number   1
_chemical_formula_structural   Zr2PSe2
_chemical_formula_sum   'Zr2 P1 Se2'
_cell_volume   119.59767527
_cell_formula_units_Z   1
loop_
 _symmetry_equiv_pos_site_id
 _symmetry_equiv_pos_as_xyz
  1  'x, y, z'
loop_
 _atom_site_type_symbol
 _atom_site_label
 _atom_site_symmetry_multiplicity
 _atom_site_fract_x
 _atom_site_fract_y
 _atom_site_fract_z
 _atom_site_occupancy
  Zr  Zr0  1  0.614757  0.614757  0.614757  1
  Zr  Zr1  1  0.385243  0.385243  0.385243  1
  P  P2  1  0.000000  0.000000  0.000000  1
  Se  Se3  1  0.225887  0.225887  0.225887  1
  Se  Se4  1  0.774113  0.774113  0.774113  1
