# generated using pymatgen
data_Nd19HoSi15Ag
_symmetry_space_group_name_H-M   'P 1'
_cell_length_a   7.78765480
_cell_length_b   7.95122113
_cell_length_c   15.20705400
_cell_angle_alpha   89.77828802
_cell_angle_beta   89.40084348
_cell_angle_gamma   90.11473522
_symmetry_Int_Tables_number   1
_chemical_formula_structural   Nd19HoSi15Ag
_chemical_formula_sum   'Nd19 Ho1 Si15 Ag1'
_cell_volume   941.58104654
_cell_formula_units_Z   1
loop_
 _symmetry_equiv_pos_site_id
 _symmetry_equiv_pos_as_xyz
  1  'x, y, z'
loop_
 _atom_site_type_symbol
 _atom_site_label
 _atom_site_symmetry_multiplicity
 _atom_site_fract_x
 _atom_site_fract_y
 _atom_site_fract_z
 _atom_site_occupancy
  Nd  Nd0  1  0.815875  0.321806  0.623461  1
  Nd  Nd1  1  0.457955  0.686731  0.898328  1
  Nd  Nd2  1  0.958052  0.813151  0.897570  1
  Nd  Nd3  1  0.188012  0.681635  0.120143  1
  Nd  Nd4  1  0.690999  0.819899  0.120791  1
  Nd  Nd5  1  0.308683  0.179036  0.878573  1
  Nd  Nd6  1  0.190325  0.677416  0.380223  1
  Nd  Nd7  1  0.042214  0.186028  0.101200  1
  Nd  Nd8  1  0.312751  0.178739  0.622647  1
  Nd  Nd9  1  0.858074  0.490644  0.248971  1
  Nd  Nd10  1  0.361893  0.009911  0.250135  1
  Nd  Nd11  1  0.530418  0.310637  0.395799  1
  Nd  Nd12  1  0.811194  0.319450  0.878317  1
  Nd  Nd13  1  0.965725  0.820284  0.603339  1
  Nd  Nd14  1  0.462544  0.685975  0.603560  1
  Nd  Nd15  1  0.042465  0.179218  0.396718  1
  Nd  Nd16  1  0.682475  0.825446  0.377066  1
  Nd  Nd17  1  0.637129  0.991643  0.749797  1
  Nd  Nd18  1  0.541491  0.312312  0.100844  1
  Ho  Ho19  1  0.140934  0.512922  0.748577  1
  Si  Si20  1  0.479724  0.600998  0.247647  1
  Si  Si21  1  0.247696  0.379756  0.248087  1
  Si  Si22  1  0.515017  0.401799  0.751446  1
  Si  Si23  1  0.633252  0.025263  0.958378  1
  Si  Si24  1  0.017062  0.101398  0.751298  1
  Si  Si25  1  0.754028  0.621659  0.750579  1
  Si  Si26  1  0.752124  0.121700  0.248617  1
  Si  Si27  1  0.363386  0.971860  0.461084  1
  Si  Si28  1  0.982392  0.897250  0.248909  1
  Si  Si29  1  0.366444  0.973717  0.040802  1
  Si  Si30  1  0.637330  0.026856  0.541228  1
  Si  Si31  1  0.134830  0.475297  0.956313  1
  Si  Si32  1  0.149262  0.476471  0.547618  1
  Si  Si33  1  0.867690  0.525572  0.039288  1
  Si  Si34  1  0.247130  0.872134  0.751419  1
  Ag  Ag35  1  0.853426  0.525391  0.461221  1
