# generated using pymatgen
data_Lu3ReB7
_symmetry_space_group_name_H-M   'P 1'
_cell_length_a   7.91399737
_cell_length_b   7.91399710
_cell_length_c   9.22545500
_cell_angle_alpha   90.00000000
_cell_angle_beta   90.00000000
_cell_angle_gamma   154.59333251
_symmetry_Int_Tables_number   1
_chemical_formula_structural   Lu3ReB7
_chemical_formula_sum   'Lu6 Re2 B14'
_cell_volume   247.90062517
_cell_formula_units_Z   2
loop_
 _symmetry_equiv_pos_site_id
 _symmetry_equiv_pos_as_xyz
  1  'x, y, z'
loop_
 _atom_site_type_symbol
 _atom_site_label
 _atom_site_symmetry_multiplicity
 _atom_site_fract_x
 _atom_site_fract_y
 _atom_site_fract_z
 _atom_site_occupancy
  Lu  Lu0  1  0.894219  0.105781  0.059428  1
  Lu  Lu1  1  0.105781  0.894219  0.559428  1
  Lu  Lu2  1  0.105781  0.894219  0.940572  1
  Lu  Lu3  1  0.894219  0.105781  0.440572  1
  Lu  Lu4  1  0.243300  0.756700  0.250000  1
  Lu  Lu5  1  0.756700  0.243300  0.750000  1
  Re  Re6  1  0.051833  0.948167  0.250000  1
  Re  Re7  1  0.948166  0.051833  0.750000  1
  B  B8  1  0.452407  0.547593  0.250000  1
  B  B9  1  0.547593  0.452407  0.750000  1
  B  B10  1  0.727762  0.272238  0.033812  1
  B  B11  1  0.272238  0.727762  0.533812  1
  B  B12  1  0.272238  0.727762  0.966188  1
  B  B13  1  0.727762  0.272238  0.466188  1
  B  B14  1  0.632603  0.367397  0.349938  1
  B  B15  1  0.367397  0.632603  0.849938  1
  B  B16  1  0.367397  0.632603  0.650062  1
  B  B17  1  0.632603  0.367397  0.150062  1
  B  B18  1  0.519356  0.480644  0.405914  1
  B  B19  1  0.480644  0.519356  0.905914  1
  B  B20  1  0.480644  0.519356  0.594086  1
  B  B21  1  0.519356  0.480644  0.094086  1
