# generated using pymatgen
data_Nd6SbMoO14
_symmetry_space_group_name_H-M   'P 1'
_cell_length_a   6.67131158
_cell_length_b   6.67131191
_cell_length_c   7.74906900
_cell_angle_alpha   89.86479297
_cell_angle_beta   90.13521563
_cell_angle_gamma   109.55731143
_symmetry_Int_Tables_number   1
_chemical_formula_structural   Nd6SbMoO14
_chemical_formula_sum   'Nd6 Sb1 Mo1 O14'
_cell_volume   324.98450892
_cell_formula_units_Z   1
loop_
 _symmetry_equiv_pos_site_id
 _symmetry_equiv_pos_as_xyz
  1  'x, y, z'
loop_
 _atom_site_type_symbol
 _atom_site_label
 _atom_site_symmetry_multiplicity
 _atom_site_fract_x
 _atom_site_fract_y
 _atom_site_fract_z
 _atom_site_occupancy
  Nd  Nd0  1  0.500000  0.500000  0.500000  1
  Nd  Nd1  1  0.500000  0.500000  0.000000  1
  Nd  Nd2  1  0.999332  0.534232  0.250270  1
  Nd  Nd3  1  0.000668  0.465768  0.749730  1
  Nd  Nd4  1  0.534232  0.999332  0.749730  1
  Nd  Nd5  1  0.465768  0.000668  0.250270  1
  Sb  Sb6  1  0.000000  0.000000  0.000000  1
  Mo  Mo7  1  0.000000  0.000000  0.500000  1
  O  O8  1  0.936607  0.063393  0.750446  1
  O  O9  1  0.063393  0.936607  0.249554  1
  O  O10  1  0.365290  0.634710  0.250589  1
  O  O11  1  0.634710  0.365290  0.749411  1
  O  O12  1  0.370265  0.629735  0.749487  1
  O  O13  1  0.629735  0.370265  0.250513  1
  O  O14  1  0.314844  0.069638  0.971258  1
  O  O15  1  0.686606  0.928629  0.472758  1
  O  O16  1  0.313394  0.071371  0.527242  1
  O  O17  1  0.685156  0.930362  0.028742  1
  O  O18  1  0.071371  0.313394  0.472758  1
  O  O19  1  0.930362  0.685156  0.971258  1
  O  O20  1  0.928629  0.686606  0.527242  1
  O  O21  1  0.069638  0.314844  0.028742  1
