# generated using pymatgen
data_Lu3ZnCu3Si4
_symmetry_space_group_name_H-M   'P 1'
_cell_length_a   4.12512027
_cell_length_b   6.50161215
_cell_length_c   7.78536436
_cell_angle_alpha   115.11459280
_cell_angle_beta   105.36265561
_cell_angle_gamma   90.00000460
_symmetry_Int_Tables_number   1
_chemical_formula_structural   Lu3ZnCu3Si4
_chemical_formula_sum   'Lu3 Zn1 Cu3 Si4'
_cell_volume   180.78916077
_cell_formula_units_Z   1
loop_
 _symmetry_equiv_pos_site_id
 _symmetry_equiv_pos_as_xyz
  1  'x, y, z'
loop_
 _atom_site_type_symbol
 _atom_site_label
 _atom_site_symmetry_multiplicity
 _atom_site_fract_x
 _atom_site_fract_y
 _atom_site_fract_z
 _atom_site_occupancy
  Lu  Lu0  1  0.999790  0.499901  0.999581  1
  Lu  Lu1  1  0.873140  0.874140  0.746282  1
  Lu  Lu2  1  0.128066  0.135512  0.256131  1
  Zn  Zn3  1  0.668018  0.859164  0.336035  1
  Cu  Cu4  1  0.670098  0.476483  0.340197  1
  Cu  Cu5  1  0.330713  0.520202  0.661425  1
  Cu  Cu6  1  0.330399  0.137372  0.660797  1
  Si  Si7  1  0.785432  0.287989  0.570864  1
  Si  Si8  1  0.217696  0.707332  0.435391  1
  Si  Si9  1  0.500089  0.188097  0.000178  1
  Si  Si10  1  0.496559  0.813808  0.993118  1
