# generated using pymatgen
data_ScSnPO5
_symmetry_space_group_name_H-M   'P 1'
_cell_length_a   6.69115752
_cell_length_b   7.09508233
_cell_length_c   10.83168637
_cell_angle_alpha   83.54237873
_cell_angle_beta   74.33991139
_cell_angle_gamma   112.05570174
_symmetry_Int_Tables_number   1
_chemical_formula_structural   ScSnPO5
_chemical_formula_sum   'Sc4 Sn4 P4 O20'
_cell_volume   445.53624921
_cell_formula_units_Z   4
loop_
 _symmetry_equiv_pos_site_id
 _symmetry_equiv_pos_as_xyz
  1  'x, y, z'
loop_
 _atom_site_type_symbol
 _atom_site_label
 _atom_site_symmetry_multiplicity
 _atom_site_fract_x
 _atom_site_fract_y
 _atom_site_fract_z
 _atom_site_occupancy
  Sc  Sc0  1  0.447397  0.312755  0.919620  1
  Sc  Sc1  1  0.552607  0.687252  0.080390  1
  Sc  Sc2  1  0.947353  0.812738  0.419587  1
  Sc  Sc3  1  0.052664  0.187259  0.580396  1
  Sn  Sn4  1  0.024797  0.255728  0.201038  1
  Sn  Sn5  1  0.524935  0.755765  0.701064  1
  Sn  Sn6  1  0.475076  0.244251  0.298933  1
  Sn  Sn7  1  0.975204  0.744293  0.798943  1
  P  P8  1  0.398781  0.692824  0.412655  1
  P  P9  1  0.898777  0.192874  0.912706  1
  P  P10  1  0.101216  0.807127  0.087293  1
  P  P11  1  0.601219  0.307167  0.587351  1
  O  O12  1  0.387513  0.349276  0.114024  1
  O  O13  1  0.887583  0.849303  0.614017  1
  O  O14  1  0.112425  0.150688  0.385977  1
  O  O15  1  0.612492  0.650733  0.885982  1
  O  O16  1  0.613336  0.814665  0.450096  1
  O  O17  1  0.113286  0.314643  0.950211  1
  O  O18  1  0.886695  0.685350  0.049804  1
  O  O19  1  0.386669  0.185330  0.549904  1
  O  O20  1  0.779839  0.490340  0.469257  1
  O  O21  1  0.279889  0.990326  0.969227  1
  O  O22  1  0.720089  0.009684  0.030778  1
  O  O23  1  0.220157  0.509656  0.530750  1
  O  O24  1  0.288585  0.841846  0.380213  1
  O  O25  1  0.788633  0.341962  0.880289  1
  O  O26  1  0.211369  0.658041  0.119704  1
  O  O27  1  0.711421  0.158144  0.619783  1
  O  O28  1  0.475285  0.608937  0.289655  1
  O  O29  1  0.975340  0.109075  0.789685  1
  O  O30  1  0.024661  0.890922  0.210317  1
  O  O31  1  0.524705  0.391043  0.710353  1
