# generated using pymatgen
data_Yb2TmAl9Si3Os4
_symmetry_space_group_name_H-M   'P 1'
_cell_length_a   8.67881735
_cell_length_b   8.65498875
_cell_length_c   9.60876100
_cell_angle_alpha   90.00000000
_cell_angle_beta   90.00000000
_cell_angle_gamma   120.20580900
_symmetry_Int_Tables_number   1
_chemical_formula_structural   Yb2TmAl9Si3Os4
_chemical_formula_sum   'Yb4 Tm2 Al18 Si6 Os8'
_cell_volume   623.76452065
_cell_formula_units_Z   2
loop_
 _symmetry_equiv_pos_site_id
 _symmetry_equiv_pos_as_xyz
  1  'x, y, z'
loop_
 _atom_site_type_symbol
 _atom_site_label
 _atom_site_symmetry_multiplicity
 _atom_site_fract_x
 _atom_site_fract_y
 _atom_site_fract_z
 _atom_site_occupancy
  Yb  Yb0  1  0.194495  0.388321  0.250000  1
  Yb  Yb1  1  0.805505  0.611679  0.750000  1
  Yb  Yb2  1  0.608459  0.806694  0.250000  1
  Yb  Yb3  1  0.391541  0.193306  0.750000  1
  Tm  Tm4  1  0.199732  0.807589  0.250000  1
  Tm  Tm5  1  0.800268  0.192411  0.750000  1
  Al  Al6  1  0.165382  0.331301  0.577345  1
  Al  Al7  1  0.834618  0.668699  0.422655  1
  Al  Al8  1  0.668833  0.833995  0.576170  1
  Al  Al9  1  0.834618  0.668699  0.077345  1
  Al  Al10  1  0.331167  0.166005  0.423830  1
  Al  Al11  1  0.165382  0.331301  0.922655  1
  Al  Al12  1  0.165289  0.833916  0.576548  1
  Al  Al13  1  0.331167  0.166005  0.076170  1
  Al  Al14  1  0.834711  0.166084  0.423452  1
  Al  Al15  1  0.668833  0.833995  0.923830  1
  Al  Al16  1  0.834711  0.166084  0.076548  1
  Al  Al17  1  0.165289  0.833916  0.923452  1
  Al  Al18  1  0.872568  0.432438  0.250000  1
  Al  Al19  1  0.127432  0.567562  0.750000  1
  Al  Al20  1  0.559685  0.432632  0.250000  1
  Al  Al21  1  0.440315  0.567368  0.750000  1
  Al  Al22  1  0.999772  0.998565  0.250000  1
  Al  Al23  1  0.000228  0.001435  0.750000  1
  Si  Si24  1  0.331779  0.664250  0.037460  1
  Si  Si25  1  0.668221  0.335750  0.962540  1
  Si  Si26  1  0.668221  0.335750  0.537460  1
  Si  Si27  1  0.331779  0.664250  0.462540  1
  Si  Si28  1  0.563437  0.126905  0.250000  1
  Si  Si29  1  0.436563  0.873095  0.750000  1
  Os  Os30  1  0.500000  0.000000  0.000000  1
  Os  Os31  1  0.000000  0.500000  0.000000  1
  Os  Os32  1  0.500000  0.000000  0.500000  1
  Os  Os33  1  0.500000  0.500000  0.000000  1
  Os  Os34  1  0.000000  0.500000  0.500000  1
  Os  Os35  1  0.500000  0.500000  0.500000  1
  Os  Os36  1  0.000000  0.000000  0.000000  1
  Os  Os37  1  0.000000  0.000000  0.500000  1
