# generated using pymatgen
data_Pr8Sc12Ga5Si11
_symmetry_space_group_name_H-M   'P 1'
_cell_length_a   7.31343150
_cell_length_b   7.56105582
_cell_length_c   14.46239205
_cell_angle_alpha   89.97682209
_cell_angle_beta   90.05683815
_cell_angle_gamma   90.07570831
_symmetry_Int_Tables_number   1
_chemical_formula_structural   Pr8Sc12Ga5Si11
_chemical_formula_sum   'Pr8 Sc12 Ga5 Si11'
_cell_volume   799.72955097
_cell_formula_units_Z   1
loop_
 _symmetry_equiv_pos_site_id
 _symmetry_equiv_pos_as_xyz
  1  'x, y, z'
loop_
 _atom_site_type_symbol
 _atom_site_label
 _atom_site_symmetry_multiplicity
 _atom_site_fract_x
 _atom_site_fract_y
 _atom_site_fract_z
 _atom_site_occupancy
  Pr  Pr0  1  0.012933  0.172233  0.400218  1
  Pr  Pr1  1  0.512797  0.327861  0.400284  1
  Pr  Pr2  1  0.489234  0.673367  0.899622  1
  Pr  Pr3  1  0.488545  0.673756  0.598559  1
  Pr  Pr4  1  0.988422  0.826494  0.598470  1
  Pr  Pr5  1  0.987037  0.830404  0.900269  1
  Pr  Pr6  1  0.511901  0.327400  0.100036  1
  Pr  Pr7  1  0.010289  0.172157  0.099991  1
  Sc  Sc8  1  0.328759  0.173309  0.626035  1
  Sc  Sc9  1  0.670590  0.823112  0.373934  1
  Sc  Sc10  1  0.662691  0.001982  0.751626  1
  Sc  Sc11  1  0.170590  0.677005  0.373775  1
  Sc  Sc12  1  0.826998  0.323271  0.873745  1
  Sc  Sc13  1  0.828605  0.325836  0.626074  1
  Sc  Sc14  1  0.838005  0.502612  0.251129  1
  Sc  Sc15  1  0.338579  0.996880  0.251720  1
  Sc  Sc16  1  0.332203  0.174851  0.872755  1
  Sc  Sc17  1  0.170611  0.674102  0.127626  1
  Sc  Sc18  1  0.670136  0.826119  0.126702  1
  Sc  Sc19  1  0.161609  0.497214  0.750503  1
  Ga  Ga20  1  0.153532  0.459550  0.538877  1
  Ga  Ga21  1  0.845283  0.541071  0.039956  1
  Ga  Ga22  1  0.345712  0.959157  0.039187  1
  Ga  Ga23  1  0.155019  0.458594  0.959568  1
  Ga  Ga24  1  0.653689  0.040667  0.538981  1
  Si  Si25  1  0.287473  0.882742  0.749797  1
  Si  Si26  1  0.466166  0.623914  0.250874  1
  Si  Si27  1  0.033694  0.124022  0.749483  1
  Si  Si28  1  0.533915  0.377175  0.749546  1
  Si  Si29  1  0.966230  0.876744  0.250394  1
  Si  Si30  1  0.711160  0.117292  0.250670  1
  Si  Si31  1  0.347920  0.960916  0.459636  1
  Si  Si32  1  0.848027  0.539214  0.459700  1
  Si  Si33  1  0.788579  0.617126  0.749587  1
  Si  Si34  1  0.211420  0.382557  0.250472  1
  Si  Si35  1  0.651648  0.039296  0.960200  1
