# generated using pymatgen
data_AcAl2SiAu
_symmetry_space_group_name_H-M   'P 1'
_cell_length_a   6.22148327
_cell_length_b   6.22148298
_cell_length_c   6.22148300
_cell_angle_alpha   138.72590416
_cell_angle_beta   138.72590109
_cell_angle_gamma   59.79304702
_symmetry_Int_Tables_number   1
_chemical_formula_structural   AcAl2SiAu
_chemical_formula_sum   'Ac1 Al2 Si1 Au1'
_cell_volume   103.73171548
_cell_formula_units_Z   1
loop_
 _symmetry_equiv_pos_site_id
 _symmetry_equiv_pos_as_xyz
  1  'x, y, z'
loop_
 _atom_site_type_symbol
 _atom_site_label
 _atom_site_symmetry_multiplicity
 _atom_site_fract_x
 _atom_site_fract_y
 _atom_site_fract_z
 _atom_site_occupancy
  Ac  Ac0  1  0.991675  0.991675  0.000000  1
  Al  Al1  1  0.251926  0.751926  0.500000  1
  Al  Al2  1  0.751926  0.251926  0.500000  1
  Si  Si3  1  0.391591  0.391591  0.000000  1
  Au  Au4  1  0.628883  0.628883  0.000000  1
