# generated using pymatgen
data_BePClO3
_symmetry_space_group_name_H-M   'P 1'
_cell_length_a   5.70509906
_cell_length_b   5.00201244
_cell_length_c   6.28312335
_cell_angle_alpha   120.54121051
_cell_angle_beta   132.41383389
_cell_angle_gamma   82.20966183
_symmetry_Int_Tables_number   1
_chemical_formula_structural   BePClO3
_chemical_formula_sum   'Be1 P1 Cl1 O3'
_cell_volume   107.78895880
_cell_formula_units_Z   1
loop_
 _symmetry_equiv_pos_site_id
 _symmetry_equiv_pos_as_xyz
  1  'x, y, z'
loop_
 _atom_site_type_symbol
 _atom_site_label
 _atom_site_symmetry_multiplicity
 _atom_site_fract_x
 _atom_site_fract_y
 _atom_site_fract_z
 _atom_site_occupancy
  Be  Be0  1  0.749780  0.284414  0.611070  1
  P  P1  1  0.022098  0.981682  0.971498  1
  Cl  Cl2  1  0.723205  0.113285  0.053526  1
  O  O3  1  0.374452  0.220098  0.317648  1
  O  O4  1  0.880965  0.021086  0.683286  1
  O  O5  1  0.999500  0.629434  0.862972  1
