# generated using pymatgen
data_Al2ZnNi5
_symmetry_space_group_name_H-M   'P 1'
_cell_length_a   5.02312616
_cell_length_b   5.02312523
_cell_length_c   3.70477200
_cell_angle_alpha   90.00000000
_cell_angle_beta   90.00000000
_cell_angle_gamma   95.30052167
_symmetry_Int_Tables_number   1
_chemical_formula_structural   Al2ZnNi5
_chemical_formula_sum   'Al2 Zn1 Ni5'
_cell_volume   93.07831004
_cell_formula_units_Z   1
loop_
 _symmetry_equiv_pos_site_id
 _symmetry_equiv_pos_as_xyz
  1  'x, y, z'
loop_
 _atom_site_type_symbol
 _atom_site_label
 _atom_site_symmetry_multiplicity
 _atom_site_fract_x
 _atom_site_fract_y
 _atom_site_fract_z
 _atom_site_occupancy
  Al  Al0  1  0.728330  0.271670  0.500000  1
  Al  Al1  1  0.271670  0.728330  0.500000  1
  Zn  Zn2  1  0.000000  0.000000  0.000000  1
  Ni  Ni3  1  0.763524  0.763524  0.500000  1
  Ni  Ni4  1  0.236476  0.236476  0.500000  1
  Ni  Ni5  1  0.500000  0.000000  0.000000  1
  Ni  Ni6  1  0.000000  0.500000  0.000000  1
  Ni  Ni7  1  0.500000  0.500000  0.000000  1
