# generated using pymatgen
data_YbDy16(LuIr4)3
_symmetry_space_group_name_H-M   'P 1'
_cell_length_a   10.85461716
_cell_length_b   10.86555679
_cell_length_c   6.35919012
_cell_angle_alpha   89.92474635
_cell_angle_beta   90.10665952
_cell_angle_gamma   89.92319293
_symmetry_Int_Tables_number   1
_chemical_formula_structural   YbDy16(LuIr4)3
_chemical_formula_sum   'Yb1 Dy16 Lu3 Ir12'
_cell_volume   750.00953899
_cell_formula_units_Z   1
loop_
 _symmetry_equiv_pos_site_id
 _symmetry_equiv_pos_as_xyz
  1  'x, y, z'
loop_
 _atom_site_type_symbol
 _atom_site_label
 _atom_site_symmetry_multiplicity
 _atom_site_fract_x
 _atom_site_fract_y
 _atom_site_fract_z
 _atom_site_occupancy
  Yb  Yb0  1  0.289349  0.087796  0.376988  1
  Dy  Dy1  1  0.290273  0.912288  0.879137  1
  Dy  Dy2  1  0.709241  0.086744  0.878982  1
  Dy  Dy3  1  0.709505  0.912599  0.378906  1
  Dy  Dy4  1  0.587751  0.791615  0.878755  1
  Dy  Dy5  1  0.586920  0.208438  0.378807  1
  Dy  Dy6  1  0.411530  0.792369  0.378739  1
  Dy  Dy7  1  0.412297  0.208946  0.879104  1
  Dy  Dy8  1  0.208773  0.411977  0.621713  1
  Dy  Dy9  1  0.209772  0.587796  0.121195  1
  Dy  Dy10  1  0.790579  0.412024  0.121021  1
  Dy  Dy11  1  0.791261  0.588016  0.621167  1
  Dy  Dy12  1  0.912480  0.710028  0.121424  1
  Dy  Dy13  1  0.912195  0.289818  0.621733  1
  Dy  Dy14  1  0.087620  0.709944  0.620765  1
  Dy  Dy15  1  0.088532  0.289484  0.120494  1
  Dy  Dy16  1  0.499807  0.500058  0.499394  1
  Lu  Lu17  1  0.001040  0.000209  0.499709  1
  Lu  Lu18  1  0.999775  0.000297  0.999341  1
  Lu  Lu19  1  0.499843  0.499952  0.000159  1
  Ir  Ir20  1  0.849405  0.150999  0.250396  1
  Ir  Ir21  1  0.849795  0.848997  0.749589  1
  Ir  Ir22  1  0.149435  0.151723  0.754487  1
  Ir  Ir23  1  0.149468  0.846309  0.248418  1
  Ir  Ir24  1  0.651921  0.347450  0.752072  1
  Ir  Ir25  1  0.652361  0.652315  0.248022  1
  Ir  Ir26  1  0.348191  0.350593  0.246358  1
  Ir  Ir27  1  0.347603  0.652786  0.751751  1
  Ir  Ir28  1  0.501137  0.999622  0.123205  1
  Ir  Ir29  1  0.501891  0.999172  0.624827  1
  Ir  Ir30  1  0.000207  0.499952  0.876807  1
  Ir  Ir31  1  0.000044  0.499684  0.376536  1
