# generated using pymatgen
data_Tb6Tm10Cd3AgIr4
_symmetry_space_group_name_H-M   'P 1'
_cell_length_a   9.56337011
_cell_length_b   9.56336983
_cell_length_c   9.56336959
_cell_angle_alpha   59.82223001
_cell_angle_beta   59.82222993
_cell_angle_gamma   59.82223003
_symmetry_Int_Tables_number   1
_chemical_formula_structural   Tb6Tm10Cd3AgIr4
_chemical_formula_sum   'Tb6 Tm10 Cd3 Ag1 Ir4'
_cell_volume   615.97338145
_cell_formula_units_Z   1
loop_
 _symmetry_equiv_pos_site_id
 _symmetry_equiv_pos_as_xyz
  1  'x, y, z'
loop_
 _atom_site_type_symbol
 _atom_site_label
 _atom_site_symmetry_multiplicity
 _atom_site_fract_x
 _atom_site_fract_y
 _atom_site_fract_z
 _atom_site_occupancy
  Tb  Tb0  1  0.187255  0.810327  0.810327  1
  Tb  Tb1  1  0.810464  0.188192  0.188192  1
  Tb  Tb2  1  0.810327  0.187255  0.810327  1
  Tb  Tb3  1  0.188192  0.810464  0.188192  1
  Tb  Tb4  1  0.810327  0.810327  0.187255  1
  Tb  Tb5  1  0.188192  0.188192  0.810464  1
  Tm  Tm6  1  0.598486  0.598486  0.598486  1
  Tm  Tm7  1  0.599897  0.599897  0.203277  1
  Tm  Tm8  1  0.599897  0.203277  0.599897  1
  Tm  Tm9  1  0.203277  0.599897  0.599897  1
  Tm  Tm10  1  0.060909  0.438362  0.438362  1
  Tm  Tm11  1  0.436687  0.061250  0.061250  1
  Tm  Tm12  1  0.438362  0.060909  0.438362  1
  Tm  Tm13  1  0.061250  0.436687  0.061250  1
  Tm  Tm14  1  0.438362  0.438362  0.060909  1
  Tm  Tm15  1  0.061250  0.061250  0.436687  1
  Cd  Cd16  1  0.831212  0.831212  0.509132  1
  Cd  Cd17  1  0.831212  0.509132  0.831212  1
  Cd  Cd18  1  0.509132  0.831212  0.831212  1
  Ag  Ag19  1  0.832444  0.832444  0.832444  1
  Ir  Ir20  1  0.391841  0.391841  0.391841  1
  Ir  Ir21  1  0.392693  0.392693  0.825640  1
  Ir  Ir22  1  0.392693  0.825640  0.392693  1
  Ir  Ir23  1  0.825640  0.392693  0.392693  1
