# generated using pymatgen
data_K2Nb2(P2O7)3
_symmetry_space_group_name_H-M   'P 1'
_cell_length_a   9.22194900
_cell_length_b   9.22194916
_cell_length_c   12.82054900
_cell_angle_alpha   90.00000000
_cell_angle_beta   90.00000000
_cell_angle_gamma   120.00000302
_symmetry_Int_Tables_number   1
_chemical_formula_structural   K2Nb2(P2O7)3
_chemical_formula_sum   'K4 Nb4 P12 O42'
_cell_volume   944.24062381
_cell_formula_units_Z   2
loop_
 _symmetry_equiv_pos_site_id
 _symmetry_equiv_pos_as_xyz
  1  'x, y, z'
loop_
 _atom_site_type_symbol
 _atom_site_label
 _atom_site_symmetry_multiplicity
 _atom_site_fract_x
 _atom_site_fract_y
 _atom_site_fract_z
 _atom_site_occupancy
  K  K0  1  0.000000  0.000000  0.500000  1
  K  K1  1  0.000000  0.000000  0.000000  1
  K  K2  1  0.000000  0.000000  0.750000  1
  K  K3  1  0.000000  0.000000  0.250000  1
  Nb  Nb4  1  0.666667  0.333333  0.528081  1
  Nb  Nb5  1  0.333333  0.666667  0.028081  1
  Nb  Nb6  1  0.333333  0.666667  0.471919  1
  Nb  Nb7  1  0.666667  0.333333  0.971919  1
  P  P8  1  0.354703  0.972775  0.636094  1
  P  P9  1  0.027225  0.381929  0.636094  1
  P  P10  1  0.618071  0.645297  0.636094  1
  P  P11  1  0.645297  0.027225  0.136094  1
  P  P12  1  0.972775  0.618071  0.136094  1
  P  P13  1  0.381929  0.354703  0.136094  1
  P  P14  1  0.645297  0.027225  0.363906  1
  P  P15  1  0.972775  0.618071  0.363906  1
  P  P16  1  0.381929  0.354703  0.363906  1
  P  P17  1  0.354703  0.972775  0.863906  1
  P  P18  1  0.027225  0.381929  0.863906  1
  P  P19  1  0.618071  0.645297  0.863906  1
  O  O20  1  0.403941  0.936067  0.750000  1
  O  O21  1  0.063933  0.467875  0.750000  1
  O  O22  1  0.532125  0.596059  0.750000  1
  O  O23  1  0.596059  0.063933  0.250000  1
  O  O24  1  0.936067  0.532125  0.250000  1
  O  O25  1  0.467875  0.403941  0.250000  1
  O  O26  1  0.485897  0.161869  0.616690  1
  O  O27  1  0.838131  0.324028  0.616690  1
  O  O28  1  0.675972  0.514103  0.616690  1
  O  O29  1  0.514103  0.838131  0.116690  1
  O  O30  1  0.161869  0.675972  0.116690  1
  O  O31  1  0.324028  0.485897  0.116690  1
  O  O32  1  0.514103  0.838131  0.383310  1
  O  O33  1  0.161869  0.675972  0.383310  1
  O  O34  1  0.324028  0.485897  0.383310  1
  O  O35  1  0.485897  0.161869  0.883310  1
  O  O36  1  0.838131  0.324028  0.883310  1
  O  O37  1  0.675972  0.514103  0.883310  1
  O  O38  1  0.396161  0.863157  0.565126  1
  O  O39  1  0.136843  0.533004  0.565126  1
  O  O40  1  0.466996  0.603839  0.565126  1
  O  O41  1  0.603839  0.136843  0.065126  1
  O  O42  1  0.863157  0.466996  0.065126  1
  O  O43  1  0.533004  0.396161  0.065126  1
  O  O44  1  0.603839  0.136843  0.434874  1
  O  O45  1  0.863157  0.466996  0.434874  1
  O  O46  1  0.533004  0.396161  0.434874  1
  O  O47  1  0.396161  0.863157  0.934874  1
  O  O48  1  0.136843  0.533004  0.934874  1
  O  O49  1  0.466996  0.603839  0.934874  1
  O  O50  1  0.179687  0.935786  0.628180  1
  O  O51  1  0.064214  0.243900  0.628180  1
  O  O52  1  0.756100  0.820313  0.628180  1
  O  O53  1  0.820313  0.064214  0.128180  1
  O  O54  1  0.935786  0.756100  0.128180  1
  O  O55  1  0.243900  0.179687  0.128180  1
  O  O56  1  0.820313  0.064214  0.371820  1
  O  O57  1  0.935786  0.756100  0.371820  1
  O  O58  1  0.243900  0.179687  0.371820  1
  O  O59  1  0.179687  0.935786  0.871820  1
  O  O60  1  0.064214  0.243900  0.871820  1
  O  O61  1  0.756100  0.820313  0.871820  1
