# generated using pymatgen
data_Yb5Pr7(TmSi2)8
_symmetry_space_group_name_H-M   'P 1'
_cell_length_a   7.47012792
_cell_length_b   7.86655661
_cell_length_c   14.94993000
_cell_angle_alpha   90.06977560
_cell_angle_beta   90.15380642
_cell_angle_gamma   89.97439350
_symmetry_Int_Tables_number   1
_chemical_formula_structural   Yb5Pr7(TmSi2)8
_chemical_formula_sum   'Yb5 Pr7 Tm8 Si16'
_cell_volume   878.51653570
_cell_formula_units_Z   1
loop_
 _symmetry_equiv_pos_site_id
 _symmetry_equiv_pos_as_xyz
  1  'x, y, z'
loop_
 _atom_site_type_symbol
 _atom_site_label
 _atom_site_symmetry_multiplicity
 _atom_site_fract_x
 _atom_site_fract_y
 _atom_site_fract_z
 _atom_site_occupancy
  Yb  Yb0  1  0.975170  0.819662  0.097081  1
  Yb  Yb1  1  0.350106  0.012776  0.749591  1
  Yb  Yb2  1  0.848952  0.487792  0.749908  1
  Yb  Yb3  1  0.147134  0.514660  0.248796  1
  Yb  Yb4  1  0.653223  0.984900  0.248456  1
  Pr  Pr5  1  0.973959  0.819969  0.403972  1
  Pr  Pr6  1  0.474115  0.681138  0.099896  1
  Pr  Pr7  1  0.525644  0.320256  0.599061  1
  Pr  Pr8  1  0.027036  0.181110  0.900333  1
  Pr  Pr9  1  0.025677  0.179603  0.599366  1
  Pr  Pr10  1  0.527389  0.320539  0.901590  1
  Pr  Pr11  1  0.472658  0.680103  0.400910  1
  Tm  Tm12  1  0.318670  0.178477  0.122698  1
  Tm  Tm13  1  0.820018  0.317278  0.377200  1
  Tm  Tm14  1  0.181064  0.681918  0.878223  1
  Tm  Tm15  1  0.680702  0.819146  0.622670  1
  Tm  Tm16  1  0.319169  0.181004  0.376442  1
  Tm  Tm17  1  0.819395  0.319545  0.122680  1
  Tm  Tm18  1  0.179997  0.681604  0.622916  1
  Tm  Tm19  1  0.681096  0.819328  0.877214  1
  Si  Si20  1  0.852404  0.532284  0.535523  1
  Si  Si21  1  0.356885  0.969541  0.962759  1
  Si  Si22  1  0.646563  0.032767  0.464100  1
  Si  Si23  1  0.148752  0.466141  0.036251  1
  Si  Si24  1  0.147063  0.467207  0.463858  1
  Si  Si25  1  0.646179  0.032440  0.036595  1
  Si  Si26  1  0.352057  0.967842  0.535493  1
  Si  Si27  1  0.854687  0.532427  0.963376  1
  Si  Si28  1  0.972010  0.884637  0.751271  1
  Si  Si29  1  0.470939  0.616480  0.750527  1
  Si  Si30  1  0.526227  0.385898  0.250140  1
  Si  Si31  1  0.028025  0.116362  0.250023  1
  Si  Si32  1  0.238256  0.392478  0.750612  1
  Si  Si33  1  0.738680  0.107560  0.749953  1
  Si  Si34  1  0.260932  0.890802  0.249916  1
  Si  Si35  1  0.759171  0.604324  0.250599  1
