# generated using pymatgen
data_Ta2TiNbSiB2Mo
_symmetry_space_group_name_H-M   'P 1'
_cell_length_a   7.23280768
_cell_length_b   7.25449102
_cell_length_c   7.25828700
_cell_angle_alpha   129.82964303
_cell_angle_beta   129.75873443
_cell_angle_gamma   73.80085396
_symmetry_Int_Tables_number   1
_chemical_formula_structural   Ta2TiNbSiB2Mo
_chemical_formula_sum   'Ta4 Ti2 Nb2 Si2 B4 Mo2'
_cell_volume   219.25903433
_cell_formula_units_Z   2
loop_
 _symmetry_equiv_pos_site_id
 _symmetry_equiv_pos_as_xyz
  1  'x, y, z'
loop_
 _atom_site_type_symbol
 _atom_site_label
 _atom_site_symmetry_multiplicity
 _atom_site_fract_x
 _atom_site_fract_y
 _atom_site_fract_z
 _atom_site_occupancy
  Ta  Ta0  1  0.031884  0.533538  0.839457  1
  Ta  Ta1  1  0.692442  0.193938  0.160323  1
  Ta  Ta2  1  0.968901  0.469038  0.163186  1
  Ta  Ta3  1  0.470720  0.305382  0.499732  1
  Ti  Ti4  1  0.805627  0.965973  0.499460  1
  Ti  Ti5  1  0.305947  0.806217  0.841735  1
  Nb  Nb6  1  0.191835  0.032342  0.498505  1
  Nb  Nb7  1  0.532217  0.691844  0.498519  1
  Si  Si8  1  0.744888  0.751694  0.002137  1
  Si  Si9  1  0.244886  0.242723  0.993121  1
  B  B10  1  0.386416  0.884938  0.267915  1
  B  B11  1  0.887111  0.617679  0.501774  1
  B  B12  1  0.618557  0.116981  0.733016  1
  B  B13  1  0.117836  0.386136  0.501886  1
  Mo  Mo14  1  0.000447  0.999396  0.998329  1
  Mo  Mo15  1  0.500288  0.502179  0.000902  1
