# generated using pymatgen
data_Tb5YSc2O12
_symmetry_space_group_name_H-M   'P 1'
_cell_length_a   6.63340569
_cell_length_b   6.63060833
_cell_length_c   6.63188552
_cell_angle_alpha   92.01619793
_cell_angle_beta   92.02250696
_cell_angle_gamma   92.02546790
_symmetry_Int_Tables_number   1
_chemical_formula_structural   Tb5YSc2O12
_chemical_formula_sum   'Tb5 Y1 Sc2 O12'
_cell_volume   291.13593126
_cell_formula_units_Z   1
loop_
 _symmetry_equiv_pos_site_id
 _symmetry_equiv_pos_as_xyz
  1  'x, y, z'
loop_
 _atom_site_type_symbol
 _atom_site_label
 _atom_site_symmetry_multiplicity
 _atom_site_fract_x
 _atom_site_fract_y
 _atom_site_fract_z
 _atom_site_occupancy
  Tb  Tb0  1  0.747023  0.931902  0.439277  1
  Tb  Tb1  1  0.931720  0.439281  0.747098  1
  Tb  Tb2  1  0.439383  0.747064  0.931875  1
  Tb  Tb3  1  0.253015  0.068259  0.560654  1
  Tb  Tb4  1  0.068195  0.560567  0.252969  1
  Y  Y5  1  0.560684  0.252950  0.068246  1
  Sc  Sc6  1  0.500027  0.499926  0.499888  1
  Sc  Sc7  1  0.999970  0.000072  0.000018  1
  O  O8  1  0.592524  0.462585  0.805754  1
  O  O9  1  0.463131  0.805369  0.592641  1
  O  O10  1  0.805403  0.592657  0.463190  1
  O  O11  1  0.407576  0.536517  0.194370  1
  O  O12  1  0.536901  0.194581  0.406827  1
  O  O13  1  0.194623  0.407386  0.536872  1
  O  O14  1  0.069100  0.914316  0.305403  1
  O  O15  1  0.914012  0.305489  0.069272  1
  O  O16  1  0.694436  0.931313  0.085525  1
  O  O17  1  0.085659  0.694648  0.930895  1
  O  O18  1  0.930959  0.085616  0.694575  1
  O  O19  1  0.305658  0.069503  0.914650  1
