# generated using pymatgen
data_Tb4Pr(In2Pt)2
_symmetry_space_group_name_H-M   'P 1'
_cell_length_a   3.69510000
_cell_length_b   8.19792016
_cell_length_c   18.48404436
_cell_angle_alpha   89.97726271
_cell_angle_beta   90.00000000
_cell_angle_gamma   90.00000000
_symmetry_Int_Tables_number   1
_chemical_formula_structural   Tb4Pr(In2Pt)2
_chemical_formula_sum   'Tb8 Pr2 In8 Pt4'
_cell_volume   559.92111921
_cell_formula_units_Z   2
loop_
 _symmetry_equiv_pos_site_id
 _symmetry_equiv_pos_as_xyz
  1  'x, y, z'
loop_
 _atom_site_type_symbol
 _atom_site_label
 _atom_site_symmetry_multiplicity
 _atom_site_fract_x
 _atom_site_fract_y
 _atom_site_fract_z
 _atom_site_occupancy
  Tb  Tb0  1  0.000000  0.116058  0.414020  1
  Tb  Tb1  1  0.000000  0.883765  0.586074  1
  Tb  Tb2  1  0.000000  0.384001  0.913841  1
  Tb  Tb3  1  0.000000  0.616101  0.086213  1
  Tb  Tb4  1  0.000000  0.243506  0.218876  1
  Tb  Tb5  1  0.000000  0.756604  0.781073  1
  Tb  Tb6  1  0.000000  0.256344  0.718854  1
  Tb  Tb7  1  0.000000  0.743579  0.280975  1
  Pr  Pr8  1  0.000000  0.999937  0.999970  1
  Pr  Pr9  1  0.000000  0.499999  0.500040  1
  In  In10  1  0.500000  0.422913  0.348979  1
  In  In11  1  0.500000  0.577050  0.651036  1
  In  In12  1  0.500000  0.077093  0.848890  1
  In  In13  1  0.500000  0.923165  0.151032  1
  In  In14  1  0.500000  0.297492  0.068201  1
  In  In15  1  0.500000  0.702502  0.931797  1
  In  In16  1  0.500000  0.202594  0.568189  1
  In  In17  1  0.500000  0.797218  0.431788  1
  Pt  Pt18  1  0.500000  0.025985  0.302823  1
  Pt  Pt19  1  0.500000  0.974044  0.697258  1
  Pt  Pt20  1  0.500000  0.474173  0.802767  1
  Pt  Pt21  1  0.500000  0.525876  0.197304  1
