# generated using pymatgen
data_Nd2GaNiPt8
_symmetry_space_group_name_H-M   'P 1'
_cell_length_a   5.25320373
_cell_length_b   5.25320250
_cell_length_c   8.87140600
_cell_angle_alpha   90.00000000
_cell_angle_beta   90.00000000
_cell_angle_gamma   116.49263826
_symmetry_Int_Tables_number   1
_chemical_formula_structural   Nd2GaNiPt8
_chemical_formula_sum   'Nd2 Ga1 Ni1 Pt8'
_cell_volume   219.10881083
_cell_formula_units_Z   1
loop_
 _symmetry_equiv_pos_site_id
 _symmetry_equiv_pos_as_xyz
  1  'x, y, z'
loop_
 _atom_site_type_symbol
 _atom_site_label
 _atom_site_symmetry_multiplicity
 _atom_site_fract_x
 _atom_site_fract_y
 _atom_site_fract_z
 _atom_site_occupancy
  Nd  Nd0  1  0.000000  0.000000  0.765474  1
  Nd  Nd1  1  0.000000  0.000000  0.234526  1
  Ga  Ga2  1  0.500000  0.500000  0.500000  1
  Ni  Ni3  1  0.500000  0.500000  0.000000  1
  Pt  Pt4  1  0.661018  0.338982  0.750618  1
  Pt  Pt5  1  0.661018  0.338982  0.249382  1
  Pt  Pt6  1  0.338982  0.661018  0.750618  1
  Pt  Pt7  1  0.500000  0.000000  0.500000  1
  Pt  Pt8  1  0.000000  0.500000  0.000000  1
  Pt  Pt9  1  0.500000  0.000000  0.000000  1
  Pt  Pt10  1  0.338982  0.661018  0.249382  1
  Pt  Pt11  1  0.000000  0.500000  0.500000  1
