# generated using pymatgen
data_DyY4Co19(SiP5)2
_symmetry_space_group_name_H-M   'P 1'
_cell_length_a   12.04282000
_cell_length_b   12.03682578
_cell_length_c   3.68781500
_cell_angle_alpha   90.00000000
_cell_angle_beta   90.00000000
_cell_angle_gamma   119.98352610
_symmetry_Int_Tables_number   1
_chemical_formula_structural   DyY4Co19(SiP5)2
_chemical_formula_sum   'Dy1 Y4 Co19 Si2 P10'
_cell_volume   463.03305731
_cell_formula_units_Z   1
loop_
 _symmetry_equiv_pos_site_id
 _symmetry_equiv_pos_as_xyz
  1  'x, y, z'
loop_
 _atom_site_type_symbol
 _atom_site_label
 _atom_site_symmetry_multiplicity
 _atom_site_fract_x
 _atom_site_fract_y
 _atom_site_fract_z
 _atom_site_occupancy
  Dy  Dy0  1  0.000000  0.811763  0.500000  1
  Y  Y1  1  0.665666  0.332893  0.000000  1
  Y  Y2  1  0.334334  0.667229  0.000000  1
  Y  Y3  1  0.185042  0.185301  0.500000  1
  Y  Y4  1  0.814958  0.000259  0.500000  1
  Co  Co5  1  0.559144  0.556276  0.000000  1
  Co  Co6  1  0.440856  0.997132  0.000000  1
  Co  Co7  1  0.000000  0.447862  0.000000  1
  Co  Co8  1  0.824836  0.203841  0.000000  1
  Co  Co9  1  0.801619  0.622410  0.000000  1
  Co  Co10  1  0.377319  0.174497  0.000000  1
  Co  Co11  1  0.198381  0.820792  0.000000  1
  Co  Co12  1  0.622681  0.797179  0.000000  1
  Co  Co13  1  0.175164  0.379005  0.000000  1
  Co  Co14  1  0.640850  0.126705  0.500000  1
  Co  Co15  1  0.875029  0.516598  0.500000  1
  Co  Co16  1  0.485544  0.358278  0.500000  1
  Co  Co17  1  0.124971  0.641571  0.500000  1
  Co  Co18  1  0.514456  0.872735  0.500000  1
  Co  Co19  1  0.359150  0.485855  0.500000  1
  Co  Co20  1  0.716866  0.715373  0.500000  1
  Co  Co21  1  0.283134  0.998507  0.500000  1
  Co  Co22  1  0.000000  0.286127  0.500000  1
  Co  Co23  1  0.000000  0.000306  0.000000  1
  Si  Si24  1  0.369615  0.369761  0.000000  1
  Si  Si25  1  0.630385  0.000145  0.000000  1
  P  P26  1  0.000000  0.631264  0.000000  1
  P  P27  1  0.833021  0.313572  0.500000  1
  P  P28  1  0.686149  0.520349  0.500000  1
  P  P29  1  0.478586  0.165100  0.500000  1
  P  P30  1  0.313851  0.834199  0.500000  1
  P  P31  1  0.521414  0.686514  0.500000  1
  P  P32  1  0.166979  0.480551  0.500000  1
  P  P33  1  0.819094  0.818257  0.000000  1
  P  P34  1  0.180906  0.999163  0.000000  1
  P  P35  1  0.000000  0.182631  0.000000  1
