# generated using pymatgen
data_Pr4MgNi2Ag
_symmetry_space_group_name_H-M   'P 1'
_cell_length_a   8.78348968
_cell_length_b   8.78349065
_cell_length_c   8.78349000
_cell_angle_alpha   128.71662651
_cell_angle_beta   128.71663158
_cell_angle_gamma   75.46696158
_symmetry_Int_Tables_number   1
_chemical_formula_structural   Pr4MgNi2Ag
_chemical_formula_sum   'Pr8 Mg2 Ni4 Ag2'
_cell_volume   401.44115386
_cell_formula_units_Z   2
loop_
 _symmetry_equiv_pos_site_id
 _symmetry_equiv_pos_as_xyz
  1  'x, y, z'
loop_
 _atom_site_type_symbol
 _atom_site_label
 _atom_site_symmetry_multiplicity
 _atom_site_fract_x
 _atom_site_fract_y
 _atom_site_fract_z
 _atom_site_occupancy
  Pr  Pr0  1  0.798466  0.298466  0.838832  1
  Pr  Pr1  1  0.201534  0.701534  0.161168  1
  Pr  Pr2  1  0.459635  0.959635  0.161168  1
  Pr  Pr3  1  0.298466  0.459635  0.500000  1
  Pr  Pr4  1  0.040365  0.201534  0.500000  1
  Pr  Pr5  1  0.540365  0.040365  0.838832  1
  Pr  Pr6  1  0.701534  0.540365  0.500000  1
  Pr  Pr7  1  0.959635  0.798466  0.500000  1
  Mg  Mg8  1  0.000000  0.000000  0.000000  1
  Mg  Mg9  1  0.500000  0.500000  0.000000  1
  Ni  Ni10  1  0.126336  0.626336  0.752674  1
  Ni  Ni11  1  0.873664  0.373664  0.247326  1
  Ni  Ni12  1  0.626336  0.873664  0.500000  1
  Ni  Ni13  1  0.373664  0.126336  0.500000  1
  Ag  Ag14  1  0.250000  0.250000  0.000000  1
  Ag  Ag15  1  0.750000  0.750000  0.000000  1
