# generated using pymatgen
data_Tm3B4Ru10W3
_symmetry_space_group_name_H-M   'P 1'
_cell_length_a   9.55594218
_cell_length_b   9.55594218
_cell_length_c   3.05739800
_cell_angle_alpha   90.00000000
_cell_angle_beta   90.00000000
_cell_angle_gamma   89.87959768
_symmetry_Int_Tables_number   1
_chemical_formula_structural   Tm3B4Ru10W3
_chemical_formula_sum   'Tm3 B4 Ru10 W3'
_cell_volume   279.18883380
_cell_formula_units_Z   1
loop_
 _symmetry_equiv_pos_site_id
 _symmetry_equiv_pos_as_xyz
  1  'x, y, z'
loop_
 _atom_site_type_symbol
 _atom_site_label
 _atom_site_symmetry_multiplicity
 _atom_site_fract_x
 _atom_site_fract_y
 _atom_site_fract_z
 _atom_site_occupancy
  Tm  Tm0  1  0.175211  0.824789  0.000000  1
  Tm  Tm1  1  0.323664  0.325004  0.000000  1
  Tm  Tm2  1  0.674996  0.676336  0.000000  1
  B  B3  1  0.622084  0.377916  0.000000  1
  B  B4  1  0.381427  0.618573  0.000000  1
  B  B5  1  0.120389  0.121025  0.000000  1
  B  B6  1  0.878975  0.879611  0.000000  1
  Ru  Ru7  1  0.503430  0.496570  0.500000  1
  Ru  Ru8  1  0.990702  0.009298  0.500000  1
  Ru  Ru9  1  0.583259  0.211739  0.500000  1
  Ru  Ru10  1  0.432239  0.783269  0.500000  1
  Ru  Ru11  1  0.057155  0.281015  0.500000  1
  Ru  Ru12  1  0.929124  0.718479  0.500000  1
  Ru  Ru13  1  0.281521  0.070876  0.500000  1
  Ru  Ru14  1  0.718985  0.942845  0.500000  1
  Ru  Ru15  1  0.216731  0.567761  0.500000  1
  Ru  Ru16  1  0.788261  0.416741  0.500000  1
  W  W17  1  0.496953  0.998051  0.000000  1
  W  W18  1  0.001949  0.503047  0.000000  1
  W  W19  1  0.822946  0.177054  0.000000  1
