# generated using pymatgen
data_Dy20Sn5Bi3Os4
_symmetry_space_group_name_H-M   'P 1'
_cell_length_a   7.88202368
_cell_length_b   9.06369303
_cell_length_c   12.30800835
_cell_angle_alpha   90.09437015
_cell_angle_beta   90.17958901
_cell_angle_gamma   89.94399111
_symmetry_Int_Tables_number   1
_chemical_formula_structural   Dy20Sn5Bi3Os4
_chemical_formula_sum   'Dy20 Sn5 Bi3 Os4'
_cell_volume   879.28118065
_cell_formula_units_Z   1
loop_
 _symmetry_equiv_pos_site_id
 _symmetry_equiv_pos_as_xyz
  1  'x, y, z'
loop_
 _atom_site_type_symbol
 _atom_site_label
 _atom_site_symmetry_multiplicity
 _atom_site_fract_x
 _atom_site_fract_y
 _atom_site_fract_z
 _atom_site_occupancy
  Dy  Dy0  1  0.842171  0.742977  0.789522  1
  Dy  Dy1  1  0.161006  0.254159  0.211761  1
  Dy  Dy2  1  0.343111  0.257575  0.711312  1
  Dy  Dy3  1  0.654294  0.745950  0.287801  1
  Dy  Dy4  1  0.375175  0.743497  0.694877  1
  Dy  Dy5  1  0.621020  0.253170  0.303191  1
  Dy  Dy6  1  0.875180  0.256732  0.805234  1
  Dy  Dy7  1  0.129383  0.746295  0.194942  1
  Dy  Dy8  1  0.947219  0.743661  0.503102  1
  Dy  Dy9  1  0.052233  0.256623  0.496396  1
  Dy  Dy10  1  0.447977  0.253362  0.998244  1
  Dy  Dy11  1  0.549677  0.746696  0.005836  1
  Dy  Dy12  1  0.675413  0.038723  0.566532  1
  Dy  Dy13  1  0.326271  0.961796  0.429113  1
  Dy  Dy14  1  0.176472  0.961073  0.935746  1
  Dy  Dy15  1  0.322555  0.538195  0.430755  1
  Dy  Dy16  1  0.821575  0.037774  0.067553  1
  Dy  Dy17  1  0.677027  0.461572  0.568844  1
  Dy  Dy18  1  0.824244  0.462315  0.069951  1
  Dy  Dy19  1  0.177493  0.537182  0.930417  1
  Sn  Sn20  1  0.571224  0.494256  0.830586  1
  Sn  Sn21  1  0.429435  0.505656  0.170150  1
  Sn  Sn22  1  0.070390  0.506116  0.671035  1
  Sn  Sn23  1  0.429241  0.994682  0.169409  1
  Sn  Sn24  1  0.929335  0.494298  0.328398  1
  Bi  Bi25  1  0.570885  0.006167  0.827792  1
  Bi  Bi26  1  0.929560  0.006346  0.328940  1
  Bi  Bi27  1  0.070396  0.993654  0.671897  1
  Os  Os28  1  0.574549  0.750410  0.509070  1
  Os  Os29  1  0.425297  0.249619  0.490877  1
  Os  Os30  1  0.074091  0.249187  0.991295  1
  Os  Os31  1  0.926100  0.750283  0.009421  1
