# generated using pymatgen
data_TbTcRu
_symmetry_space_group_name_H-M   'P 1'
_cell_length_a   5.19987743
_cell_length_b   5.19987699
_cell_length_c   9.14492100
_cell_angle_alpha   90.00000000
_cell_angle_beta   90.00000000
_cell_angle_gamma   116.78892783
_symmetry_Int_Tables_number   1
_chemical_formula_structural   TbTcRu
_chemical_formula_sum   'Tb4 Tc4 Ru4'
_cell_volume   220.72854500
_cell_formula_units_Z   4
loop_
 _symmetry_equiv_pos_site_id
 _symmetry_equiv_pos_as_xyz
  1  'x, y, z'
loop_
 _atom_site_type_symbol
 _atom_site_label
 _atom_site_symmetry_multiplicity
 _atom_site_fract_x
 _atom_site_fract_y
 _atom_site_fract_z
 _atom_site_occupancy
  Tb  Tb0  1  0.332282  0.667718  0.436923  1
  Tb  Tb1  1  0.670708  0.329292  0.566950  1
  Tb  Tb2  1  0.670708  0.329292  0.933050  1
  Tb  Tb3  1  0.332282  0.667718  0.063077  1
  Tc  Tc4  1  0.827387  0.172613  0.250000  1
  Tc  Tc5  1  0.829923  0.659928  0.250000  1
  Tc  Tc6  1  0.340072  0.170077  0.250000  1
  Tc  Tc7  1  0.162434  0.837566  0.750000  1
  Ru  Ru8  1  0.007199  0.992801  0.502478  1
  Ru  Ru9  1  0.007199  0.992801  0.997522  1
  Ru  Ru10  1  0.169999  0.350193  0.750000  1
  Ru  Ru11  1  0.649807  0.830001  0.750000  1
