# generated using pymatgen
data_Er5Lu5OsRu3
_symmetry_space_group_name_H-M   'P 1'
_cell_length_a   6.22606232
_cell_length_b   7.24663962
_cell_length_c   8.30408892
_cell_angle_alpha   97.09208537
_cell_angle_beta   111.89136138
_cell_angle_gamma   89.89442193
_symmetry_Int_Tables_number   1
_chemical_formula_structural   Er5Lu5OsRu3
_chemical_formula_sum   'Er5 Lu5 Os1 Ru3'
_cell_volume   344.59065217
_cell_formula_units_Z   1
loop_
 _symmetry_equiv_pos_site_id
 _symmetry_equiv_pos_as_xyz
  1  'x, y, z'
loop_
 _atom_site_type_symbol
 _atom_site_label
 _atom_site_symmetry_multiplicity
 _atom_site_fract_x
 _atom_site_fract_y
 _atom_site_fract_z
 _atom_site_occupancy
  Er  Er0  1  0.523503  0.083034  0.813229  1
  Er  Er1  1  0.478228  0.918091  0.187586  1
  Er  Er2  1  0.711303  0.417311  0.186896  1
  Er  Er3  1  0.290417  0.583867  0.816661  1
  Er  Er4  1  0.296327  0.315478  0.435118  1
  Lu  Lu5  1  0.701581  0.683135  0.564375  1
  Lu  Lu6  1  0.861822  0.183630  0.565576  1
  Lu  Lu7  1  0.138007  0.815188  0.434218  1
  Lu  Lu8  1  0.080316  0.250320  0.999683  1
  Lu  Lu9  1  0.920020  0.749781  0.000294  1
  Os  Os10  1  0.319148  0.578150  0.217893  1
  Ru  Ru11  1  0.681382  0.422653  0.781174  1
  Ru  Ru12  1  0.098195  0.923800  0.776771  1
  Ru  Ru13  1  0.899751  0.075561  0.220522  1
