# generated using pymatgen
data_CePrGa12
_symmetry_space_group_name_H-M   'P 1'
_cell_length_a   6.04530700
_cell_length_b   6.04530700
_cell_length_c   7.68046800
_cell_angle_alpha   90.00000000
_cell_angle_beta   90.00000000
_cell_angle_gamma   90.00000000
_symmetry_Int_Tables_number   1
_chemical_formula_structural   CePrGa12
_chemical_formula_sum   'Ce1 Pr1 Ga12'
_cell_volume   280.68836145
_cell_formula_units_Z   1
loop_
 _symmetry_equiv_pos_site_id
 _symmetry_equiv_pos_as_xyz
  1  'x, y, z'
loop_
 _atom_site_type_symbol
 _atom_site_label
 _atom_site_symmetry_multiplicity
 _atom_site_fract_x
 _atom_site_fract_y
 _atom_site_fract_z
 _atom_site_occupancy
  Ce  Ce0  1  0.500000  0.000000  0.000000  1
  Pr  Pr1  1  0.000000  0.500000  0.000000  1
  Ga  Ga2  1  0.682890  0.817110  0.350599  1
  Ga  Ga3  1  0.317110  0.182890  0.350599  1
  Ga  Ga4  1  0.000000  0.000000  0.162217  1
  Ga  Ga5  1  0.000000  0.000000  0.837783  1
  Ga  Ga6  1  0.500000  0.500000  0.837783  1
  Ga  Ga7  1  0.500000  0.500000  0.162217  1
  Ga  Ga8  1  0.185331  0.314669  0.646116  1
  Ga  Ga9  1  0.682890  0.182890  0.649401  1
  Ga  Ga10  1  0.317110  0.817110  0.649401  1
  Ga  Ga11  1  0.185331  0.685331  0.353884  1
  Ga  Ga12  1  0.814669  0.314669  0.353884  1
  Ga  Ga13  1  0.814669  0.685331  0.646116  1
