# generated using pymatgen
data_YHo15Mg2(InIr2)2
_symmetry_space_group_name_H-M   'P 1'
_cell_length_a   9.65091556
_cell_length_b   9.65091569
_cell_length_c   9.68373300
_cell_angle_alpha   59.88745407
_cell_angle_beta   59.88745359
_cell_angle_gamma   59.80161343
_symmetry_Int_Tables_number   1
_chemical_formula_structural   YHo15Mg2(InIr2)2
_chemical_formula_sum   'Y1 Ho15 Mg2 In2 Ir4'
_cell_volume   635.72720600
_cell_formula_units_Z   1
loop_
 _symmetry_equiv_pos_site_id
 _symmetry_equiv_pos_as_xyz
  1  'x, y, z'
loop_
 _atom_site_type_symbol
 _atom_site_label
 _atom_site_symmetry_multiplicity
 _atom_site_fract_x
 _atom_site_fract_y
 _atom_site_fract_z
 _atom_site_occupancy
  Y  Y0  1  0.437115  0.437115  0.062885  1
  Ho  Ho1  1  0.651588  0.651588  0.045542  1
  Ho  Ho2  1  0.189456  0.811241  0.189890  1
  Ho  Ho3  1  0.061163  0.438763  0.062415  1
  Ho  Ho4  1  0.189456  0.811241  0.809414  1
  Ho  Ho5  1  0.061163  0.438763  0.437659  1
  Ho  Ho6  1  0.811241  0.189456  0.189890  1
  Ho  Ho7  1  0.651588  0.651588  0.651285  1
  Ho  Ho8  1  0.811241  0.189456  0.809414  1
  Ho  Ho9  1  0.186747  0.186747  0.813253  1
  Ho  Ho10  1  0.042863  0.651984  0.652577  1
  Ho  Ho11  1  0.438763  0.061163  0.062415  1
  Ho  Ho12  1  0.061261  0.061261  0.438739  1
  Ho  Ho13  1  0.651984  0.042863  0.652577  1
  Ho  Ho14  1  0.808054  0.808054  0.191946  1
  Ho  Ho15  1  0.438763  0.061163  0.437659  1
  Mg  Mg16  1  0.423032  0.423032  0.419879  1
  Mg  Mg17  1  0.423032  0.423032  0.734057  1
  In  In18  1  0.417008  0.747190  0.417902  1
  In  In19  1  0.747190  0.417008  0.417902  1
  Ir  Ir20  1  0.423516  0.857571  0.859456  1
  Ir  Ir21  1  0.858104  0.858104  0.859748  1
  Ir  Ir22  1  0.857571  0.423516  0.859456  1
  Ir  Ir23  1  0.858104  0.858104  0.424043  1
