# generated using pymatgen
data_DyEr2Al12IrOs3
_symmetry_space_group_name_H-M   'P 1'
_cell_length_a   8.80891044
_cell_length_b   8.80404379
_cell_length_c   9.52799300
_cell_angle_alpha   90.00000000
_cell_angle_beta   90.00000000
_cell_angle_gamma   119.71091462
_symmetry_Int_Tables_number   1
_chemical_formula_structural   DyEr2Al12IrOs3
_chemical_formula_sum   'Dy2 Er4 Al24 Ir2 Os6'
_cell_volume   641.79185350
_cell_formula_units_Z   2
loop_
 _symmetry_equiv_pos_site_id
 _symmetry_equiv_pos_as_xyz
  1  'x, y, z'
loop_
 _atom_site_type_symbol
 _atom_site_label
 _atom_site_symmetry_multiplicity
 _atom_site_fract_x
 _atom_site_fract_y
 _atom_site_fract_z
 _atom_site_occupancy
  Dy  Dy0  1  0.189920  0.387694  0.250000  1
  Dy  Dy1  1  0.810080  0.612306  0.750000  1
  Er  Er2  1  0.611718  0.809930  0.250000  1
  Er  Er3  1  0.388282  0.190070  0.750000  1
  Er  Er4  1  0.195637  0.804351  0.250000  1
  Er  Er5  1  0.804363  0.195649  0.750000  1
  Al  Al6  1  0.332779  0.667472  0.019803  1
  Al  Al7  1  0.667221  0.332528  0.980197  1
  Al  Al8  1  0.667221  0.332528  0.519803  1
  Al  Al9  1  0.332779  0.667472  0.480197  1
  Al  Al10  1  0.162153  0.325097  0.577069  1
  Al  Al11  1  0.837847  0.674903  0.422931  1
  Al  Al12  1  0.674924  0.837989  0.576891  1
  Al  Al13  1  0.837847  0.674903  0.077069  1
  Al  Al14  1  0.325076  0.162011  0.423109  1
  Al  Al15  1  0.162153  0.325097  0.922931  1
  Al  Al16  1  0.163769  0.836543  0.575222  1
  Al  Al17  1  0.325076  0.162011  0.076891  1
  Al  Al18  1  0.836231  0.163457  0.424778  1
  Al  Al19  1  0.674924  0.837989  0.923109  1
  Al  Al20  1  0.836231  0.163457  0.075222  1
  Al  Al21  1  0.163769  0.836543  0.924778  1
  Al  Al22  1  0.559920  0.122173  0.250000  1
  Al  Al23  1  0.440080  0.877827  0.750000  1
  Al  Al24  1  0.877552  0.440173  0.250000  1
  Al  Al25  1  0.122448  0.559827  0.750000  1
  Al  Al26  1  0.560859  0.439489  0.250000  1
  Al  Al27  1  0.439141  0.560511  0.750000  1
  Al  Al28  1  0.999410  0.000062  0.250000  1
  Al  Al29  1  0.000590  0.999938  0.750000  1
  Ir  Ir30  1  0.500000  0.500000  0.000000  1
  Ir  Ir31  1  0.500000  0.500000  0.500000  1
  Os  Os32  1  0.500000  0.000000  0.000000  1
  Os  Os33  1  0.000000  0.500000  0.000000  1
  Os  Os34  1  0.500000  0.000000  0.500000  1
  Os  Os35  1  0.000000  0.500000  0.500000  1
  Os  Os36  1  0.000000  0.000000  0.000000  1
  Os  Os37  1  0.000000  0.000000  0.500000  1
