# generated using pymatgen
data_Y5Ho4Er3In20
_symmetry_space_group_name_H-M   'P 1'
_cell_length_a   6.54189504
_cell_length_b   10.40584989
_cell_length_c   12.24656604
_cell_angle_alpha   89.90703580
_cell_angle_beta   89.99707357
_cell_angle_gamma   90.02288110
_symmetry_Int_Tables_number   1
_chemical_formula_structural   Y5Ho4Er3In20
_chemical_formula_sum   'Y5 Ho4 Er3 In20'
_cell_volume   833.67129919
_cell_formula_units_Z   1
loop_
 _symmetry_equiv_pos_site_id
 _symmetry_equiv_pos_as_xyz
  1  'x, y, z'
loop_
 _atom_site_type_symbol
 _atom_site_label
 _atom_site_symmetry_multiplicity
 _atom_site_fract_x
 _atom_site_fract_y
 _atom_site_fract_z
 _atom_site_occupancy
  Y  Y0  1  0.388550  0.508802  0.358461  1
  Y  Y1  1  0.111049  0.509641  0.858457  1
  Y  Y2  1  0.388916  0.990971  0.358767  1
  Y  Y3  1  0.888813  0.009416  0.141292  1
  Y  Y4  1  0.611580  0.490696  0.642314  1
  Ho  Ho5  1  0.852183  0.249362  0.446274  1
  Ho  Ho6  1  0.889158  0.490949  0.141064  1
  Ho  Ho7  1  0.610431  0.008669  0.640932  1
  Ho  Ho8  1  0.110834  0.990597  0.859294  1
  Er  Er9  1  0.351024  0.750596  0.053500  1
  Er  Er10  1  0.148826  0.749256  0.553634  1
  Er  Er11  1  0.649007  0.251127  0.946555  1
  In  In12  1  0.613718  0.749751  0.505658  1
  In  In13  1  0.886277  0.750316  0.005620  1
  In  In14  1  0.386484  0.249590  0.495479  1
  In  In15  1  0.113888  0.249934  0.993806  1
  In  In16  1  0.651449  0.749398  0.242848  1
  In  In17  1  0.848608  0.751342  0.743012  1
  In  In18  1  0.348724  0.248647  0.757187  1
  In  In19  1  0.152014  0.250397  0.256339  1
  In  In20  1  0.121948  0.750061  0.280447  1
  In  In21  1  0.377417  0.751096  0.780738  1
  In  In22  1  0.877363  0.248729  0.719387  1
  In  In23  1  0.622616  0.250547  0.218976  1
  In  In24  1  0.872994  0.543424  0.400074  1
  In  In25  1  0.626867  0.957457  0.899782  1
  In  In26  1  0.126287  0.042518  0.600377  1
  In  In27  1  0.372513  0.456785  0.099297  1
  In  In28  1  0.127071  0.455979  0.599722  1
  In  In29  1  0.373190  0.043857  0.099179  1
  In  In30  1  0.873329  0.955734  0.400624  1
  In  In31  1  0.626878  0.544357  0.900905  1
