# generated using pymatgen
data_Pr5ScWO12
_symmetry_space_group_name_H-M   'P 1'
_cell_length_a   7.19369584
_cell_length_b   7.19369665
_cell_length_c   7.66242312
_cell_angle_alpha   74.58304824
_cell_angle_beta   74.58304782
_cell_angle_gamma   50.93895423
_symmetry_Int_Tables_number   1
_chemical_formula_structural   Pr5ScWO12
_chemical_formula_sum   'Pr5 Sc1 W1 O12'
_cell_volume   294.24098205
_cell_formula_units_Z   1
loop_
 _symmetry_equiv_pos_site_id
 _symmetry_equiv_pos_as_xyz
  1  'x, y, z'
loop_
 _atom_site_type_symbol
 _atom_site_label
 _atom_site_symmetry_multiplicity
 _atom_site_fract_x
 _atom_site_fract_y
 _atom_site_fract_z
 _atom_site_occupancy
  Pr  Pr0  1  0.310126  0.294416  0.359563  1
  Pr  Pr1  1  0.705584  0.689874  0.640437  1
  Pr  Pr2  1  0.693294  0.698016  0.165133  1
  Pr  Pr3  1  0.301984  0.306706  0.834867  1
  Pr  Pr4  1  0.009872  0.990128  0.500000  1
  Sc  Sc5  1  0.751401  0.248599  0.000000  1
  W  W6  1  0.240465  0.759535  0.000000  1
  O  O7  1  0.100058  0.595512  0.572540  1
  O  O8  1  0.018784  0.980929  0.176963  1
  O  O9  1  0.404488  0.899942  0.427460  1
  O  O10  1  0.479899  0.522785  0.176208  1
  O  O11  1  0.102501  0.585511  0.080205  1
  O  O12  1  0.909465  0.400040  0.421492  1
  O  O13  1  0.019071  0.981216  0.823037  1
  O  O14  1  0.599960  0.090534  0.578508  1
  O  O15  1  0.477215  0.520101  0.823792  1
  O  O16  1  0.564700  0.103355  0.081670  1
  O  O17  1  0.414489  0.897499  0.919795  1
  O  O18  1  0.896645  0.435300  0.918330  1
