# generated using pymatgen
data_LiPr8InPd23
_symmetry_space_group_name_H-M   'P 1'
_cell_length_a   8.53338200
_cell_length_b   8.60945000
_cell_length_c   8.60945000
_cell_angle_alpha   90.00000000
_cell_angle_beta   90.00000000
_cell_angle_gamma   90.00000000
_symmetry_Int_Tables_number   1
_chemical_formula_structural   LiPr8InPd23
_chemical_formula_sum   'Li1 Pr8 In1 Pd23'
_cell_volume   632.51671068
_cell_formula_units_Z   1
loop_
 _symmetry_equiv_pos_site_id
 _symmetry_equiv_pos_as_xyz
  1  'x, y, z'
loop_
 _atom_site_type_symbol
 _atom_site_label
 _atom_site_symmetry_multiplicity
 _atom_site_fract_x
 _atom_site_fract_y
 _atom_site_fract_z
 _atom_site_occupancy
  Li  Li0  1  0.257850  0.500000  0.500000  1
  Pr  Pr1  1  0.250435  0.245362  0.245362  1
  Pr  Pr2  1  0.748785  0.748368  0.748368  1
  Pr  Pr3  1  0.748785  0.748368  0.251632  1
  Pr  Pr4  1  0.748785  0.251632  0.748368  1
  Pr  Pr5  1  0.250435  0.245362  0.754638  1
  Pr  Pr6  1  0.250435  0.754638  0.245362  1
  Pr  Pr7  1  0.250435  0.754638  0.754638  1
  Pr  Pr8  1  0.748785  0.251632  0.251632  1
  In  In9  1  0.997915  0.000000  0.000000  1
  Pd  Pd10  1  0.267116  0.500000  0.000000  1
  Pd  Pd11  1  0.732533  0.500000  0.000000  1
  Pd  Pd12  1  0.004353  0.267934  0.500000  1
  Pd  Pd13  1  0.500762  0.268132  0.000000  1
  Pd  Pd14  1  0.004353  0.732066  0.500000  1
  Pd  Pd15  1  0.500762  0.731868  0.000000  1
  Pd  Pd16  1  0.500762  0.000000  0.268132  1
  Pd  Pd17  1  0.267116  0.000000  0.500000  1
  Pd  Pd18  1  0.500762  0.000000  0.731868  1
  Pd  Pd19  1  0.732533  0.000000  0.500000  1
  Pd  Pd20  1  0.004353  0.500000  0.267934  1
  Pd  Pd21  1  0.004353  0.500000  0.732066  1
  Pd  Pd22  1  0.744707  0.500000  0.500000  1
  Pd  Pd23  1  0.496212  0.256646  0.500000  1
  Pd  Pd24  1  0.496212  0.743354  0.500000  1
  Pd  Pd25  1  0.496212  0.500000  0.256646  1
  Pd  Pd26  1  0.496212  0.500000  0.743354  1
  Pd  Pd27  1  0.316742  0.000000  0.000000  1
  Pd  Pd28  1  0.683844  0.000000  0.000000  1
  Pd  Pd29  1  0.999364  0.315447  0.000000  1
  Pd  Pd30  1  0.999364  0.684553  0.000000  1
  Pd  Pd31  1  0.999364  0.000000  0.315447  1
  Pd  Pd32  1  0.999364  0.000000  0.684553  1
