# generated using pymatgen
data_Zr16Ta4Si15Ge
_symmetry_space_group_name_H-M   'P 1'
_cell_length_a   7.06982537
_cell_length_b   7.07370857
_cell_length_c   12.94806329
_cell_angle_alpha   90.06756647
_cell_angle_beta   89.99007613
_cell_angle_gamma   89.96454837
_symmetry_Int_Tables_number   1
_chemical_formula_structural   Zr16Ta4Si15Ge
_chemical_formula_sum   'Zr16 Ta4 Si15 Ge1'
_cell_volume   647.53056301
_cell_formula_units_Z   1
loop_
 _symmetry_equiv_pos_site_id
 _symmetry_equiv_pos_as_xyz
  1  'x, y, z'
loop_
 _atom_site_type_symbol
 _atom_site_label
 _atom_site_symmetry_multiplicity
 _atom_site_fract_x
 _atom_site_fract_y
 _atom_site_fract_z
 _atom_site_occupancy
  Zr  Zr0  1  0.000994  0.843488  0.533733  1
  Zr  Zr1  1  0.997570  0.158636  0.031508  1
  Zr  Zr2  1  0.840390  0.000251  0.281167  1
  Zr  Zr3  1  0.157953  0.002039  0.782080  1
  Zr  Zr4  1  0.653881  0.500725  0.967468  1
  Zr  Zr5  1  0.348465  0.496148  0.469748  1
  Zr  Zr6  1  0.500783  0.346085  0.717917  1
  Zr  Zr7  1  0.501803  0.653535  0.216892  1
  Zr  Zr8  1  0.649513  0.001430  0.877409  1
  Zr  Zr9  1  0.351517  0.000461  0.377094  1
  Zr  Zr10  1  0.001322  0.350002  0.627530  1
  Zr  Zr11  1  0.998655  0.649825  0.126682  1
  Zr  Zr12  1  0.829156  0.673000  0.749613  1
  Zr  Zr13  1  0.170612  0.325573  0.248993  1
  Zr  Zr14  1  0.672894  0.170874  0.499675  1
  Zr  Zr15  1  0.327237  0.828626  0.999221  1
  Ta  Ta16  1  0.505669  0.846883  0.623205  1
  Ta  Ta17  1  0.494590  0.153447  0.122692  1
  Ta  Ta18  1  0.843116  0.491344  0.373596  1
  Ta  Ta19  1  0.153214  0.505489  0.872993  1
  Si  Si20  1  0.701225  0.549453  0.561174  1
  Si  Si21  1  0.299526  0.451048  0.060750  1
  Si  Si22  1  0.548313  0.299573  0.310388  1
  Si  Si23  1  0.450940  0.700529  0.810691  1
  Si  Si24  1  0.953944  0.799462  0.936491  1
  Si  Si25  1  0.046229  0.200403  0.436559  1
  Si  Si26  1  0.798892  0.046616  0.687091  1
  Si  Si27  1  0.200606  0.956706  0.184781  1
  Si  Si28  1  0.642556  0.787601  0.426856  1
  Si  Si29  1  0.357281  0.212259  0.926774  1
  Si  Si30  1  0.787732  0.357940  0.176603  1
  Si  Si31  1  0.212451  0.642351  0.676891  1
  Si  Si32  1  0.703544  0.866153  0.075609  1
  Si  Si33  1  0.297176  0.133939  0.575941  1
  Si  Si34  1  0.865724  0.296893  0.825844  1
  Ge  Ge35  1  0.134527  0.701215  0.328347  1
