# generated using pymatgen
data_La4Nd8Ga8Ir7Rh
_symmetry_space_group_name_H-M   'P 1'
_cell_length_a   5.77332519
_cell_length_b   8.21261006
_cell_length_c   13.71124487
_cell_angle_alpha   89.94180350
_cell_angle_beta   89.92062393
_cell_angle_gamma   89.83109992
_symmetry_Int_Tables_number   1
_chemical_formula_structural   La4Nd8Ga8Ir7Rh
_chemical_formula_sum   'La4 Nd8 Ga8 Ir7 Rh1'
_cell_volume   650.10212299
_cell_formula_units_Z   1
loop_
 _symmetry_equiv_pos_site_id
 _symmetry_equiv_pos_as_xyz
  1  'x, y, z'
loop_
 _atom_site_type_symbol
 _atom_site_label
 _atom_site_symmetry_multiplicity
 _atom_site_fract_x
 _atom_site_fract_y
 _atom_site_fract_z
 _atom_site_occupancy
  La  La0  1  0.148531  0.401199  0.403831  1
  La  La1  1  0.150243  0.098296  0.596516  1
  La  La2  1  0.151025  0.103276  0.903044  1
  La  La3  1  0.849365  0.901054  0.096262  1
  Nd  Nd4  1  0.630154  0.256525  0.250767  1
  Nd  Nd5  1  0.370834  0.741069  0.750298  1
  Nd  Nd6  1  0.368099  0.758003  0.250596  1
  Nd  Nd7  1  0.631715  0.245514  0.750386  1
  Nd  Nd8  1  0.150470  0.396649  0.098781  1
  Nd  Nd9  1  0.851727  0.599619  0.901689  1
  Nd  Nd10  1  0.850866  0.604783  0.599501  1
  Nd  Nd11  1  0.850735  0.895467  0.400756  1
  Ga  Ga12  1  0.134339  0.106893  0.250835  1
  Ga  Ga13  1  0.862495  0.891541  0.750946  1
  Ga  Ga14  1  0.863158  0.606194  0.248481  1
  Ga  Ga15  1  0.133206  0.396943  0.749280  1
  Ga  Ga16  1  0.626486  0.251780  0.999020  1
  Ga  Ga17  1  0.374065  0.747181  0.000051  1
  Ga  Ga18  1  0.378768  0.750370  0.500155  1
  Ga  Ga19  1  0.625607  0.249677  0.500204  1
  Ir  Ir20  1  0.355689  0.030735  0.092015  1
  Ir  Ir21  1  0.642706  0.967847  0.908510  1
  Ir  Ir22  1  0.644614  0.968514  0.592918  1
  Ir  Ir23  1  0.645208  0.530101  0.406790  1
  Ir  Ir24  1  0.355648  0.030907  0.407789  1
  Ir  Ir25  1  0.355055  0.470421  0.591910  1
  Ir  Ir26  1  0.355054  0.468856  0.907087  1
  Rh  Rh27  1  0.644139  0.530587  0.091587  1
