# generated using pymatgen
data_Ho16In3HgRuRh3
_symmetry_space_group_name_H-M   'P 1'
_cell_length_a   9.61174240
_cell_length_b   9.62651998
_cell_length_c   9.61174238
_cell_angle_alpha   59.96429355
_cell_angle_beta   59.90090467
_cell_angle_gamma   59.96429586
_symmetry_Int_Tables_number   1
_chemical_formula_structural   Ho16In3HgRuRh3
_chemical_formula_sum   'Ho16 In3 Hg1 Ru1 Rh3'
_cell_volume   628.05549042
_cell_formula_units_Z   1
loop_
 _symmetry_equiv_pos_site_id
 _symmetry_equiv_pos_as_xyz
  1  'x, y, z'
loop_
 _atom_site_type_symbol
 _atom_site_label
 _atom_site_symmetry_multiplicity
 _atom_site_fract_x
 _atom_site_fract_y
 _atom_site_fract_z
 _atom_site_occupancy
  Ho  Ho0  1  0.188087  0.188437  0.811146  1
  Ho  Ho1  1  0.600685  0.601352  0.199856  1
  Ho  Ho2  1  0.440623  0.056749  0.440623  1
  Ho  Ho3  1  0.440687  0.440981  0.058278  1
  Ho  Ho4  1  0.812913  0.185819  0.812913  1
  Ho  Ho5  1  0.189730  0.811987  0.189730  1
  Ho  Ho6  1  0.437331  0.058039  0.061880  1
  Ho  Ho7  1  0.186158  0.813933  0.809518  1
  Ho  Ho8  1  0.059352  0.438044  0.059352  1
  Ho  Ho9  1  0.809518  0.813933  0.186158  1
  Ho  Ho10  1  0.199856  0.601352  0.600685  1
  Ho  Ho11  1  0.058278  0.440981  0.440687  1
  Ho  Ho12  1  0.061880  0.058039  0.437331  1
  Ho  Ho13  1  0.811146  0.188437  0.188087  1
  Ho  Ho14  1  0.601387  0.198920  0.601387  1
  Ho  Ho15  1  0.598219  0.599779  0.598219  1
  In  In16  1  0.832258  0.832447  0.502535  1
  In  In17  1  0.502535  0.832447  0.832258  1
  In  In18  1  0.832019  0.503262  0.832019  1
  Hg  Hg19  1  0.835769  0.836649  0.835769  1
  Ru  Ru20  1  0.391967  0.824532  0.391967  1
  Rh  Rh21  1  0.392931  0.391337  0.392931  1
  Rh  Rh22  1  0.824923  0.391273  0.391749  1
  Rh  Rh23  1  0.391749  0.391273  0.824923  1
