# generated using pymatgen
data_Nb3Al2IrN
_symmetry_space_group_name_H-M   'P 1'
_cell_length_a   8.31190175
_cell_length_b   8.31190170
_cell_length_c   8.31190100
_cell_angle_alpha   59.99999882
_cell_angle_beta   59.99999902
_cell_angle_gamma   59.99999456
_symmetry_Int_Tables_number   1
_chemical_formula_structural   Nb3Al2IrN
_chemical_formula_sum   'Nb12 Al8 Ir4 N4'
_cell_volume   406.05619333
_cell_formula_units_Z   4
loop_
 _symmetry_equiv_pos_site_id
 _symmetry_equiv_pos_as_xyz
  1  'x, y, z'
loop_
 _atom_site_type_symbol
 _atom_site_label
 _atom_site_symmetry_multiplicity
 _atom_site_fract_x
 _atom_site_fract_y
 _atom_site_fract_z
 _atom_site_occupancy
  Nb  Nb0  1  0.813407  0.813407  0.186593  1
  Nb  Nb1  1  0.063407  0.436593  0.436593  1
  Nb  Nb2  1  0.436593  0.063407  0.063407  1
  Nb  Nb3  1  0.063407  0.063407  0.436593  1
  Nb  Nb4  1  0.063407  0.436593  0.063407  1
  Nb  Nb5  1  0.436593  0.063407  0.436593  1
  Nb  Nb6  1  0.186593  0.813407  0.186593  1
  Nb  Nb7  1  0.186593  0.813407  0.813407  1
  Nb  Nb8  1  0.813407  0.186593  0.186593  1
  Nb  Nb9  1  0.813407  0.186593  0.813407  1
  Nb  Nb10  1  0.436593  0.436593  0.063407  1
  Nb  Nb11  1  0.186593  0.186593  0.813407  1
  Al  Al12  1  0.416297  0.751106  0.416297  1
  Al  Al13  1  0.833703  0.833703  0.498894  1
  Al  Al14  1  0.498894  0.833703  0.833703  1
  Al  Al15  1  0.833703  0.833703  0.833703  1
  Al  Al16  1  0.751106  0.416297  0.416297  1
  Al  Al17  1  0.416297  0.416297  0.416297  1
  Al  Al18  1  0.416297  0.416297  0.751106  1
  Al  Al19  1  0.833703  0.498894  0.833703  1
  Ir  Ir20  1  0.625000  0.125000  0.625000  1
  Ir  Ir21  1  0.625000  0.625000  0.125000  1
  Ir  Ir22  1  0.125000  0.625000  0.625000  1
  Ir  Ir23  1  0.625000  0.625000  0.625000  1
  N  N24  1  0.125000  0.625000  0.125000  1
  N  N25  1  0.125000  0.125000  0.625000  1
  N  N26  1  0.625000  0.125000  0.125000  1
  N  N27  1  0.125000  0.125000  0.125000  1
