# generated using pymatgen
data_HfSc3(SiMo)4
_symmetry_space_group_name_H-M   'P 1'
_cell_length_a   3.51784100
_cell_length_b   7.01692872
_cell_length_c   8.21303709
_cell_angle_alpha   90.17024011
_cell_angle_beta   90.00000000
_cell_angle_gamma   90.00000000
_symmetry_Int_Tables_number   1
_chemical_formula_structural   HfSc3(SiMo)4
_chemical_formula_sum   'Hf1 Sc3 Si4 Mo4'
_cell_volume   202.73332265
_cell_formula_units_Z   1
loop_
 _symmetry_equiv_pos_site_id
 _symmetry_equiv_pos_as_xyz
  1  'x, y, z'
loop_
 _atom_site_type_symbol
 _atom_site_label
 _atom_site_symmetry_multiplicity
 _atom_site_fract_x
 _atom_site_fract_y
 _atom_site_fract_z
 _atom_site_occupancy
  Hf  Hf0  1  0.750000  0.456816  0.833212  1
  Sc  Sc1  1  0.250000  0.043479  0.333232  1
  Sc  Sc2  1  0.750000  0.956295  0.666564  1
  Sc  Sc3  1  0.250000  0.542608  0.165396  1
  Si  Si4  1  0.250000  0.256551  0.636804  1
  Si  Si5  1  0.750000  0.742158  0.362518  1
  Si  Si6  1  0.250000  0.757352  0.863409  1
  Si  Si7  1  0.750000  0.242512  0.137243  1
  Mo  Mo8  1  0.750000  0.372566  0.441352  1
  Mo  Mo9  1  0.250000  0.627727  0.561290  1
  Mo  Mo10  1  0.750000  0.871257  0.060360  1
  Mo  Mo11  1  0.250000  0.130679  0.938620  1
