# generated using pymatgen
data_MgCu2Ni2(AsO4)3
_symmetry_space_group_name_H-M   'P 1'
_cell_length_a   8.87230446
_cell_length_b   8.86363665
_cell_length_c   6.80715186
_cell_angle_alpha   74.78114937
_cell_angle_beta   74.78877842
_cell_angle_gamma   94.73588373
_symmetry_Int_Tables_number   1
_chemical_formula_structural   MgCu2Ni2(AsO4)3
_chemical_formula_sum   'Mg2 Cu4 Ni4 As6 O24'
_cell_volume   491.81300723
_cell_formula_units_Z   2
loop_
 _symmetry_equiv_pos_site_id
 _symmetry_equiv_pos_as_xyz
  1  'x, y, z'
loop_
 _atom_site_type_symbol
 _atom_site_label
 _atom_site_symmetry_multiplicity
 _atom_site_fract_x
 _atom_site_fract_y
 _atom_site_fract_z
 _atom_site_occupancy
  Mg  Mg0  1  0.056325  0.370720  0.380270  1
  Mg  Mg1  1  0.943675  0.629280  0.619730  1
  Cu  Cu2  1  0.000000  0.000000  0.000000  1
  Cu  Cu3  1  0.000000  0.000000  0.500000  1
  Cu  Cu4  1  0.498200  0.503532  0.249381  1
  Cu  Cu5  1  0.501800  0.496468  0.750619  1
  Ni  Ni6  1  0.742044  0.258891  0.249411  1
  Ni  Ni7  1  0.257955  0.741109  0.750589  1
  Ni  Ni8  1  0.627044  0.945846  0.120004  1
  Ni  Ni9  1  0.372956  0.054154  0.879996  1
  As  As10  1  0.350995  0.114253  0.377756  1
  As  As11  1  0.649005  0.885747  0.622244  1
  As  As12  1  0.886474  0.651397  0.121824  1
  As  As13  1  0.113526  0.348603  0.878176  1
  As  As14  1  0.290316  0.714269  0.249360  1
  As  As15  1  0.709684  0.285731  0.750640  1
  O  O16  1  0.254995  0.819195  0.019349  1
  O  O17  1  0.745005  0.180805  0.980651  1
  O  O18  1  0.182583  0.745736  0.479804  1
  O  O19  1  0.817417  0.254264  0.520196  1
  O  O20  1  0.496391  0.276321  0.317328  1
  O  O21  1  0.503609  0.723679  0.682672  1
  O  O22  1  0.724870  0.505174  0.180671  1
  O  O23  1  0.275130  0.494826  0.819329  1
  O  O24  1  0.828311  0.835050  0.112449  1
  O  O25  1  0.171689  0.164950  0.887551  1
  O  O26  1  0.167618  0.171668  0.386572  1
  O  O27  1  0.832382  0.828332  0.613428  1
  O  O28  1  0.665185  0.011954  0.375798  1
  O  O29  1  0.334815  0.988046  0.624202  1
  O  O30  1  0.988326  0.333172  0.124843  1
  O  O31  1  0.011674  0.666828  0.875157  1
  O  O32  1  0.404983  0.023593  0.180322  1
  O  O33  1  0.595017  0.976407  0.819678  1
  O  O34  1  0.975838  0.596684  0.318584  1
  O  O35  1  0.024162  0.403316  0.681416  1
  O  O36  1  0.492400  0.726967  0.232834  1
  O  O37  1  0.507600  0.273033  0.767166  1
  O  O38  1  0.275812  0.512277  0.266548  1
  O  O39  1  0.724188  0.487723  0.733452  1
