# generated using pymatgen
data_RbPr2AgS4
_symmetry_space_group_name_H-M   'P 1'
_cell_length_a   4.21252000
_cell_length_b   7.41564572
_cell_length_c   14.65742800
_cell_angle_alpha   90.00000000
_cell_angle_beta   90.00000000
_cell_angle_gamma   73.49917141
_symmetry_Int_Tables_number   1
_chemical_formula_structural   RbPr2AgS4
_chemical_formula_sum   'Rb2 Pr4 Ag2 S8'
_cell_volume   439.01951163
_cell_formula_units_Z   2
loop_
 _symmetry_equiv_pos_site_id
 _symmetry_equiv_pos_as_xyz
  1  'x, y, z'
loop_
 _atom_site_type_symbol
 _atom_site_label
 _atom_site_symmetry_multiplicity
 _atom_site_fract_x
 _atom_site_fract_y
 _atom_site_fract_z
 _atom_site_occupancy
  Rb  Rb0  1  0.888493  0.223012  0.250000  1
  Rb  Rb1  1  0.111506  0.776988  0.750000  1
  Pr  Pr2  1  0.632600  0.734800  0.064193  1
  Pr  Pr3  1  0.632600  0.734800  0.435807  1
  Pr  Pr4  1  0.367400  0.265200  0.564193  1
  Pr  Pr5  1  0.367400  0.265200  0.935807  1
  Ag  Ag6  1  0.165174  0.669653  0.250000  1
  Ag  Ag7  1  0.834826  0.330346  0.750000  1
  S  S8  1  0.000000  0.000000  0.000000  1
  S  S9  1  0.261336  0.477328  0.103396  1
  S  S10  1  0.565269  0.869461  0.250000  1
  S  S11  1  0.261336  0.477328  0.396604  1
  S  S12  1  0.000000  0.000000  0.500000  1
  S  S13  1  0.738664  0.522671  0.603396  1
  S  S14  1  0.434729  0.130540  0.750000  1
  S  S15  1  0.738664  0.522671  0.896604  1
