# generated using pymatgen
data_La5In2Ru3
_symmetry_space_group_name_H-M   'P 1'
_cell_length_a   8.82987829
_cell_length_b   8.82987905
_cell_length_c   8.82987900
_cell_angle_alpha   109.47122053
_cell_angle_beta   109.47122227
_cell_angle_gamma   109.47122050
_symmetry_Int_Tables_number   1
_chemical_formula_structural   La5In2Ru3
_chemical_formula_sum   'La10 In4 Ru6'
_cell_volume   529.95906568
_cell_formula_units_Z   2
loop_
 _symmetry_equiv_pos_site_id
 _symmetry_equiv_pos_as_xyz
  1  'x, y, z'
loop_
 _atom_site_type_symbol
 _atom_site_label
 _atom_site_symmetry_multiplicity
 _atom_site_fract_x
 _atom_site_fract_y
 _atom_site_fract_z
 _atom_site_occupancy
  La  La0  1  0.000000  0.203748  0.000000  1
  La  La1  1  0.750000  0.436418  0.186419  1
  La  La2  1  0.436419  0.686420  0.250000  1
  La  La3  1  0.250000  0.063581  0.313582  1
  La  La4  1  0.203748  0.500001  0.500001  1
  La  La5  1  0.813581  0.250000  0.563581  1
  La  La6  1  0.500000  0.000000  0.703748  1
  La  La7  1  0.063581  0.813581  0.750000  1
  La  La8  1  0.296252  0.296252  0.796253  1
  La  La9  1  0.686420  0.750000  0.936419  1
  In  In10  1  0.000000  0.588183  0.000000  1
  In  In11  1  0.500000  0.000000  0.088183  1
  In  In12  1  0.911817  0.911817  0.411817  1
  In  In13  1  0.588183  0.500000  0.500000  1
  Ru  Ru14  1  0.366193  0.250000  0.116193  1
  Ru  Ru15  1  0.883808  0.133808  0.249999  1
  Ru  Ru16  1  0.133808  0.750000  0.383807  1
  Ru  Ru17  1  0.750000  0.883808  0.633808  1
  Ru  Ru18  1  0.616192  0.366193  0.750000  1
  Ru  Ru19  1  0.250000  0.616192  0.866193  1
