# generated using pymatgen
data_YbLuCuS3
_symmetry_space_group_name_H-M   'P 1'
_cell_length_a   6.49133313
_cell_length_b   6.49133357
_cell_length_c   10.00795300
_cell_angle_alpha   90.00000000
_cell_angle_beta   90.00000000
_cell_angle_gamma   145.94690991
_symmetry_Int_Tables_number   1
_chemical_formula_structural   YbLuCuS3
_chemical_formula_sum   'Yb2 Lu2 Cu2 S6'
_cell_volume   236.14064399
_cell_formula_units_Z   2
loop_
 _symmetry_equiv_pos_site_id
 _symmetry_equiv_pos_as_xyz
  1  'x, y, z'
loop_
 _atom_site_type_symbol
 _atom_site_label
 _atom_site_symmetry_multiplicity
 _atom_site_fract_x
 _atom_site_fract_y
 _atom_site_fract_z
 _atom_site_occupancy
  Yb  Yb0  1  0.244699  0.755303  0.250000  1
  Yb  Yb1  1  0.755303  0.244699  0.750000  1
  Lu  Lu2  1  0.000000  0.000000  0.000000  1
  Lu  Lu3  1  0.000000  0.000000  0.500000  1
  Cu  Cu4  1  0.524161  0.475841  0.250000  1
  Cu  Cu5  1  0.475841  0.524161  0.750000  1
  S  S6  1  0.641257  0.358745  0.070675  1
  S  S7  1  0.912858  0.087144  0.250000  1
  S  S8  1  0.641257  0.358745  0.429325  1
  S  S9  1  0.358745  0.641257  0.570675  1
  S  S10  1  0.087144  0.912858  0.750000  1
  S  S11  1  0.358745  0.641257  0.929325  1
