# generated using pymatgen
data_Yb6Sm2MgCdRu2
_symmetry_space_group_name_H-M   'P 1'
_cell_length_a   9.92804065
_cell_length_b   9.92804095
_cell_length_c   9.90411200
_cell_angle_alpha   60.07969807
_cell_angle_beta   60.07969709
_cell_angle_gamma   60.22752473
_symmetry_Int_Tables_number   1
_chemical_formula_structural   Yb6Sm2MgCdRu2
_chemical_formula_sum   'Yb12 Sm4 Mg2 Cd2 Ru4'
_cell_volume   692.29753331
_cell_formula_units_Z   2
loop_
 _symmetry_equiv_pos_site_id
 _symmetry_equiv_pos_as_xyz
  1  'x, y, z'
loop_
 _atom_site_type_symbol
 _atom_site_label
 _atom_site_symmetry_multiplicity
 _atom_site_fract_x
 _atom_site_fract_y
 _atom_site_fract_z
 _atom_site_occupancy
  Yb  Yb0  1  0.949081  0.548060  0.548667  1
  Yb  Yb1  1  0.548060  0.949081  0.954192  1
  Yb  Yb2  1  0.548060  0.949081  0.548667  1
  Yb  Yb3  1  0.949081  0.548060  0.954192  1
  Yb  Yb4  1  0.548025  0.548025  0.951975  1
  Yb  Yb5  1  0.951256  0.951256  0.548744  1
  Yb  Yb6  1  0.808799  0.192114  0.190675  1
  Yb  Yb7  1  0.192114  0.808799  0.808411  1
  Yb  Yb8  1  0.192114  0.808799  0.190675  1
  Yb  Yb9  1  0.808799  0.192114  0.808411  1
  Yb  Yb10  1  0.190804  0.190804  0.809196  1
  Yb  Yb11  1  0.807420  0.807420  0.192580  1
  Sm  Sm12  1  0.340511  0.340511  0.341332  1
  Sm  Sm13  1  0.340511  0.340511  0.977644  1
  Sm  Sm14  1  0.339965  0.978946  0.340543  1
  Sm  Sm15  1  0.978946  0.339965  0.340543  1
  Mg  Mg16  1  0.577464  0.270675  0.575930  1
  Mg  Mg17  1  0.270675  0.577464  0.575930  1
  Cd  Cd18  1  0.578912  0.578912  0.581244  1
  Cd  Cd19  1  0.578912  0.578912  0.260932  1
  Ru  Ru20  1  0.137949  0.137949  0.138200  1
  Ru  Ru21  1  0.137949  0.137949  0.585901  1
  Ru  Ru22  1  0.137704  0.586886  0.137704  1
  Ru  Ru23  1  0.586886  0.137704  0.137704  1
