# generated using pymatgen
data_Tm3Lu2Tl2Bi
_symmetry_space_group_name_H-M   'P 1'
_cell_length_a   6.50799700
_cell_length_b   8.90555936
_cell_length_c   8.87643000
_cell_angle_alpha   119.78971632
_cell_angle_beta   89.99975349
_cell_angle_gamma   89.99933756
_symmetry_Int_Tables_number   1
_chemical_formula_structural   Tm3Lu2Tl2Bi
_chemical_formula_sum   'Tm6 Lu4 Tl4 Bi2'
_cell_volume   446.47163062
_cell_formula_units_Z   2
loop_
 _symmetry_equiv_pos_site_id
 _symmetry_equiv_pos_as_xyz
  1  'x, y, z'
loop_
 _atom_site_type_symbol
 _atom_site_label
 _atom_site_symmetry_multiplicity
 _atom_site_fract_x
 _atom_site_fract_y
 _atom_site_fract_z
 _atom_site_occupancy
  Tm  Tm0  1  0.749993  0.227465  0.990329  1
  Tm  Tm1  1  0.750007  0.772077  0.761831  1
  Tm  Tm2  1  0.749996  0.999691  0.237520  1
  Tm  Tm3  1  0.250016  0.765268  0.000804  1
  Tm  Tm4  1  0.249983  0.234511  0.235119  1
  Tm  Tm5  1  0.249997  0.000126  0.764070  1
  Lu  Lu6  1  0.492474  0.328505  0.667075  1
  Lu  Lu7  1  0.492615  0.671552  0.338648  1
  Lu  Lu8  1  0.007376  0.671530  0.338633  1
  Lu  Lu9  1  0.007536  0.328492  0.667070  1
  Tl  Tl10  1  0.750006  0.000155  0.596023  1
  Tl  Tl11  1  0.250028  0.397486  0.003523  1
  Tl  Tl12  1  0.249976  0.602425  0.605746  1
  Tl  Tl13  1  0.249994  0.000073  0.397430  1
  Bi  Bi14  1  0.749999  0.604097  0.999875  1
  Bi  Bi15  1  0.750003  0.396548  0.396306  1
