# generated using pymatgen
data_Na6ScMoF12
_symmetry_space_group_name_H-M   'P 1'
_cell_length_a   6.49346072
_cell_length_b   6.49345967
_cell_length_c   6.49346100
_cell_angle_alpha   92.13053776
_cell_angle_beta   92.13051976
_cell_angle_gamma   92.13053248
_symmetry_Int_Tables_number   1
_chemical_formula_structural   Na6ScMoF12
_chemical_formula_sum   'Na6 Sc1 Mo1 F12'
_cell_volume   273.21465073
_cell_formula_units_Z   1
loop_
 _symmetry_equiv_pos_site_id
 _symmetry_equiv_pos_as_xyz
  1  'x, y, z'
loop_
 _atom_site_type_symbol
 _atom_site_label
 _atom_site_symmetry_multiplicity
 _atom_site_fract_x
 _atom_site_fract_y
 _atom_site_fract_z
 _atom_site_occupancy
  Na  Na0  1  0.745551  0.935979  0.438222  1
  Na  Na1  1  0.935979  0.438222  0.745551  1
  Na  Na2  1  0.438222  0.745551  0.935979  1
  Na  Na3  1  0.254449  0.064021  0.561778  1
  Na  Na4  1  0.064021  0.561778  0.254449  1
  Na  Na5  1  0.561778  0.254449  0.064021  1
  Sc  Sc6  1  0.500000  0.500000  0.500000  1
  Mo  Mo7  1  0.000000  0.000000  0.000000  1
  F  F8  1  0.587017  0.456800  0.796559  1
  F  F9  1  0.456800  0.796559  0.587017  1
  F  F10  1  0.796559  0.587017  0.456800  1
  F  F11  1  0.412983  0.543200  0.203441  1
  F  F12  1  0.543200  0.203441  0.412983  1
  F  F13  1  0.203441  0.412983  0.543200  1
  F  F14  1  0.073709  0.918209  0.301254  1
  F  F15  1  0.918209  0.301254  0.073709  1
  F  F16  1  0.698746  0.926291  0.081791  1
  F  F17  1  0.081791  0.698746  0.926291  1
  F  F18  1  0.926291  0.081791  0.698746  1
  F  F19  1  0.301254  0.073709  0.918209  1
