# generated using pymatgen
data_PrNd2Cr(Co4P3)2
_symmetry_space_group_name_H-M   'P 1'
_cell_length_a   3.77192700
_cell_length_b   10.70975900
_cell_length_c   12.42554700
_cell_angle_alpha   90.00000000
_cell_angle_beta   90.00000000
_cell_angle_gamma   90.00000000
_symmetry_Int_Tables_number   1
_chemical_formula_structural   PrNd2Cr(Co4P3)2
_chemical_formula_sum   'Pr2 Nd4 Cr2 Co16 P12'
_cell_volume   501.94772886
_cell_formula_units_Z   2
loop_
 _symmetry_equiv_pos_site_id
 _symmetry_equiv_pos_as_xyz
  1  'x, y, z'
loop_
 _atom_site_type_symbol
 _atom_site_label
 _atom_site_symmetry_multiplicity
 _atom_site_fract_x
 _atom_site_fract_y
 _atom_site_fract_z
 _atom_site_occupancy
  Pr  Pr0  1  0.000000  0.500000  0.522475  1
  Pr  Pr1  1  0.500000  0.000000  0.477525  1
  Nd  Nd2  1  0.500000  0.818217  0.205085  1
  Nd  Nd3  1  0.500000  0.181783  0.205085  1
  Nd  Nd4  1  0.000000  0.681783  0.794915  1
  Nd  Nd5  1  0.000000  0.318217  0.794915  1
  Cr  Cr6  1  0.500000  0.500000  0.153671  1
  Cr  Cr7  1  0.000000  0.000000  0.846329  1
  Co  Co8  1  0.500000  0.500000  0.704912  1
  Co  Co9  1  0.000000  0.000000  0.295088  1
  Co  Co10  1  0.000000  0.500000  0.988402  1
  Co  Co11  1  0.500000  0.000000  0.011598  1
  Co  Co12  1  0.500000  0.332790  0.994660  1
  Co  Co13  1  0.500000  0.667210  0.994660  1
  Co  Co14  1  0.000000  0.167210  0.005340  1
  Co  Co15  1  0.000000  0.832790  0.005340  1
  Co  Co16  1  0.500000  0.296073  0.430178  1
  Co  Co17  1  0.500000  0.703927  0.430178  1
  Co  Co18  1  0.000000  0.203927  0.569822  1
  Co  Co19  1  0.000000  0.796073  0.569822  1
  Co  Co20  1  0.500000  0.881761  0.711009  1
  Co  Co21  1  0.500000  0.118239  0.711009  1
  Co  Co22  1  0.000000  0.618239  0.288991  1
  Co  Co23  1  0.000000  0.381761  0.288991  1
  P  P24  1  0.500000  0.500000  0.886920  1
  P  P25  1  0.000000  0.000000  0.113080  1
  P  P26  1  0.500000  0.500000  0.340399  1
  P  P27  1  0.000000  0.000000  0.659601  1
  P  P28  1  0.500000  0.306080  0.614678  1
  P  P29  1  0.500000  0.693920  0.614678  1
  P  P30  1  0.000000  0.193920  0.385322  1
  P  P31  1  0.000000  0.806080  0.385322  1
  P  P32  1  0.500000  0.848349  0.894871  1
  P  P33  1  0.500000  0.151651  0.894871  1
  P  P34  1  0.000000  0.651651  0.105129  1
  P  P35  1  0.000000  0.348349  0.105129  1
