# generated using pymatgen
data_SrLu(Al5Os)4
_symmetry_space_group_name_H-M   'P 1'
_cell_length_a   6.88298388
_cell_length_b   6.88298440
_cell_length_c   9.17910900
_cell_angle_alpha   90.00000000
_cell_angle_beta   90.00000000
_cell_angle_gamma   96.39489007
_symmetry_Int_Tables_number   1
_chemical_formula_structural   SrLu(Al5Os)4
_chemical_formula_sum   'Sr1 Lu1 Al20 Os4'
_cell_volume   432.15881913
_cell_formula_units_Z   1
loop_
 _symmetry_equiv_pos_site_id
 _symmetry_equiv_pos_as_xyz
  1  'x, y, z'
loop_
 _atom_site_type_symbol
 _atom_site_label
 _atom_site_symmetry_multiplicity
 _atom_site_fract_x
 _atom_site_fract_y
 _atom_site_fract_z
 _atom_site_occupancy
  Sr  Sr0  1  0.875978  0.124022  0.750000  1
  Lu  Lu1  1  0.128587  0.871413  0.250000  1
  Al  Al2  1  0.519301  0.781531  0.750000  1
  Al  Al3  1  0.782018  0.518702  0.250000  1
  Al  Al4  1  0.481298  0.217982  0.250000  1
  Al  Al5  1  0.218469  0.480699  0.750000  1
  Al  Al6  1  0.622965  0.377035  0.961172  1
  Al  Al7  1  0.375968  0.624032  0.052246  1
  Al  Al8  1  0.622965  0.377035  0.538828  1
  Al  Al9  1  0.375968  0.624032  0.447754  1
  Al  Al10  1  0.409519  0.143306  0.750000  1
  Al  Al11  1  0.145971  0.422262  0.250000  1
  Al  Al12  1  0.577738  0.854029  0.250000  1
  Al  Al13  1  0.856694  0.590481  0.750000  1
  Al  Al14  1  0.846008  0.153992  0.397318  1
  Al  Al15  1  0.161734  0.838266  0.600709  1
  Al  Al16  1  0.846008  0.153992  0.102682  1
  Al  Al17  1  0.161734  0.838266  0.899291  1
  Al  Al18  1  0.774856  0.775553  0.004426  1
  Al  Al19  1  0.774856  0.775553  0.495574  1
  Al  Al20  1  0.224447  0.225144  0.004426  1
  Al  Al21  1  0.224447  0.225144  0.495574  1
  Os  Os22  1  0.496450  0.000215  0.001740  1
  Os  Os23  1  0.999785  0.503550  0.001740  1
  Os  Os24  1  0.496450  0.000215  0.498260  1
  Os  Os25  1  0.999785  0.503550  0.498260  1
