# generated using pymatgen
data_Er4Lu(SiBi)2
_symmetry_space_group_name_H-M   'P 1'
_cell_length_a   8.57472111
_cell_length_b   8.57472050
_cell_length_c   7.83403400
_cell_angle_alpha   90.00000000
_cell_angle_beta   90.00000000
_cell_angle_gamma   125.75344834
_symmetry_Int_Tables_number   1
_chemical_formula_structural   Er4Lu(SiBi)2
_chemical_formula_sum   'Er8 Lu2 Si4 Bi4'
_cell_volume   467.44952852
_cell_formula_units_Z   2
loop_
 _symmetry_equiv_pos_site_id
 _symmetry_equiv_pos_as_xyz
  1  'x, y, z'
loop_
 _atom_site_type_symbol
 _atom_site_label
 _atom_site_symmetry_multiplicity
 _atom_site_fract_x
 _atom_site_fract_y
 _atom_site_fract_z
 _atom_site_occupancy
  Er  Er0  1  0.042383  0.286120  0.336053  1
  Er  Er1  1  0.957617  0.713880  0.663947  1
  Er  Er2  1  0.457617  0.213880  0.836053  1
  Er  Er3  1  0.786120  0.542383  0.163947  1
  Er  Er4  1  0.542383  0.786120  0.163947  1
  Er  Er5  1  0.213880  0.457617  0.836053  1
  Er  Er6  1  0.713880  0.957617  0.663947  1
  Er  Er7  1  0.286120  0.042383  0.336053  1
  Lu  Lu8  1  0.000000  0.000000  0.000000  1
  Lu  Lu9  1  0.500000  0.500000  0.500000  1
  Si  Si10  1  0.364196  0.364196  0.134594  1
  Si  Si11  1  0.635804  0.635804  0.865406  1
  Si  Si12  1  0.135804  0.135804  0.634594  1
  Si  Si13  1  0.864196  0.864196  0.365406  1
  Bi  Bi14  1  0.792944  0.207056  0.000000  1
  Bi  Bi15  1  0.207057  0.792944  0.000000  1
  Bi  Bi16  1  0.707056  0.292944  0.500000  1
  Bi  Bi17  1  0.292944  0.707056  0.500000  1
