# generated using pymatgen
data_Ho3In3IrRhAu
_symmetry_space_group_name_H-M   'P 1'
_cell_length_a   7.74238200
_cell_length_b   7.74238157
_cell_length_c   3.81024700
_cell_angle_alpha   90.00000000
_cell_angle_beta   90.00000000
_cell_angle_gamma   120.00000184
_symmetry_Int_Tables_number   1
_chemical_formula_structural   Ho3In3IrRhAu
_chemical_formula_sum   'Ho3 In3 Ir1 Rh1 Au1'
_cell_volume   197.80302066
_cell_formula_units_Z   1
loop_
 _symmetry_equiv_pos_site_id
 _symmetry_equiv_pos_as_xyz
  1  'x, y, z'
loop_
 _atom_site_type_symbol
 _atom_site_label
 _atom_site_symmetry_multiplicity
 _atom_site_fract_x
 _atom_site_fract_y
 _atom_site_fract_z
 _atom_site_occupancy
  Ho  Ho0  1  0.413658  0.391377  0.500000  1
  Ho  Ho1  1  0.608623  0.022281  0.500000  1
  Ho  Ho2  1  0.977719  0.586342  0.500000  1
  In  In3  1  0.742996  0.740971  0.000000  1
  In  In4  1  0.259029  0.002025  0.000000  1
  In  In5  1  0.997975  0.257004  0.000000  1
  Ir  Ir6  1  0.666667  0.333333  0.000000  1
  Rh  Rh7  1  0.000000  0.000000  0.500000  1
  Au  Au8  1  0.333333  0.666667  0.000000  1
