# generated using pymatgen
data_Sr3Bi4PbO14
_symmetry_space_group_name_H-M   'P 1'
_cell_length_a   7.96536933
_cell_length_b   7.84995735
_cell_length_c   7.96536900
_cell_angle_alpha   59.51244738
_cell_angle_beta   59.99999723
_cell_angle_gamma   59.51244832
_symmetry_Int_Tables_number   1
_chemical_formula_structural   Sr3Bi4PbO14
_chemical_formula_sum   'Sr3 Bi4 Pb1 O14'
_cell_volume   349.56184159
_cell_formula_units_Z   1
loop_
 _symmetry_equiv_pos_site_id
 _symmetry_equiv_pos_as_xyz
  1  'x, y, z'
loop_
 _atom_site_type_symbol
 _atom_site_label
 _atom_site_symmetry_multiplicity
 _atom_site_fract_x
 _atom_site_fract_y
 _atom_site_fract_z
 _atom_site_occupancy
  Sr  Sr0  1  0.625000  0.125000  0.125000  1
  Sr  Sr1  1  0.125000  0.125000  0.125000  1
  Sr  Sr2  1  0.125000  0.125000  0.625000  1
  Bi  Bi3  1  0.625000  0.625000  0.125000  1
  Bi  Bi4  1  0.625000  0.625000  0.625000  1
  Bi  Bi5  1  0.625000  0.125000  0.625000  1
  Bi  Bi6  1  0.125000  0.625000  0.625000  1
  Pb  Pb7  1  0.125000  0.625000  0.125000  1
  O  O8  1  0.714753  0.295931  0.274564  1
  O  O9  1  0.716399  0.687990  0.297805  1
  O  O10  1  0.297805  0.687990  0.297805  1
  O  O11  1  0.017952  0.946142  0.017952  1
  O  O12  1  0.714753  0.295931  0.714753  1
  O  O13  1  0.952195  0.562010  0.533601  1
  O  O14  1  0.297805  0.687990  0.716399  1
  O  O15  1  0.535247  0.954069  0.535247  1
  O  O16  1  0.232048  0.303858  0.232048  1
  O  O17  1  0.952195  0.562010  0.952195  1
  O  O18  1  0.533601  0.562010  0.952195  1
  O  O19  1  0.975436  0.954069  0.535247  1
  O  O20  1  0.535247  0.954069  0.975436  1
  O  O21  1  0.274564  0.295931  0.714753  1
