# generated using pymatgen
data_SmGaAgPt3
_symmetry_space_group_name_H-M   'P 1'
_cell_length_a   5.52927020
_cell_length_b   5.52927029
_cell_length_c   5.22168002
_cell_angle_alpha   58.03146684
_cell_angle_beta   58.03148107
_cell_angle_gamma   60.00000150
_symmetry_Int_Tables_number   1
_chemical_formula_structural   SmGaAgPt3
_chemical_formula_sum   'Sm1 Ga1 Ag1 Pt3'
_cell_volume   109.40736111
_cell_formula_units_Z   1
loop_
 _symmetry_equiv_pos_site_id
 _symmetry_equiv_pos_as_xyz
  1  'x, y, z'
loop_
 _atom_site_type_symbol
 _atom_site_label
 _atom_site_symmetry_multiplicity
 _atom_site_fract_x
 _atom_site_fract_y
 _atom_site_fract_z
 _atom_site_occupancy
  Sm  Sm0  1  0.996000  0.996000  0.012000  1
  Ga  Ga1  1  0.376986  0.376986  0.869042  1
  Ag  Ag2  1  0.747711  0.747711  0.756869  1
  Pt  Pt3  1  0.377735  0.377735  0.370697  1
  Pt  Pt4  1  0.873833  0.377735  0.370697  1
  Pt  Pt5  1  0.377735  0.873833  0.370697  1
