# generated using pymatgen
data_Ga12Tc
_symmetry_space_group_name_H-M   'P 1'
_cell_length_a   6.62297516
_cell_length_b   6.62297436
_cell_length_c   6.62297500
_cell_angle_alpha   109.47121954
_cell_angle_beta   109.47121709
_cell_angle_gamma   109.47122231
_symmetry_Int_Tables_number   1
_chemical_formula_structural   Ga12Tc
_chemical_formula_sum   'Ga12 Tc1'
_cell_volume   223.63379865
_cell_formula_units_Z   1
loop_
 _symmetry_equiv_pos_site_id
 _symmetry_equiv_pos_as_xyz
  1  'x, y, z'
loop_
 _atom_site_type_symbol
 _atom_site_label
 _atom_site_symmetry_multiplicity
 _atom_site_fract_x
 _atom_site_fract_y
 _atom_site_fract_z
 _atom_site_occupancy
  Ga  Ga0  1  0.309123  0.191303  0.500427  1
  Ga  Ga1  1  0.808697  0.117819  0.309123  1
  Ga  Ga2  1  0.882181  0.690877  0.191303  1
  Ga  Ga3  1  0.808697  0.499573  0.690877  1
  Ga  Ga4  1  0.117819  0.309123  0.808697  1
  Ga  Ga5  1  0.191303  0.882181  0.690877  1
  Ga  Ga6  1  0.499573  0.690877  0.808697  1
  Ga  Ga7  1  0.500427  0.309123  0.191303  1
  Ga  Ga8  1  0.191303  0.500427  0.309123  1
  Ga  Ga9  1  0.309123  0.808697  0.117819  1
  Ga  Ga10  1  0.690877  0.191303  0.882181  1
  Ga  Ga11  1  0.690877  0.808697  0.499573  1
  Tc  Tc12  1  0.000000  0.000000  0.000000  1
