# generated using pymatgen
data_Lu8Be3Si13W12
_symmetry_space_group_name_H-M   'P 1'
_cell_length_a   6.63900706
_cell_length_b   6.78874463
_cell_length_c   12.81015900
_cell_angle_alpha   90.00000000
_cell_angle_beta   90.00000000
_cell_angle_gamma   89.85338503
_symmetry_Int_Tables_number   1
_chemical_formula_structural   Lu8Be3Si13W12
_chemical_formula_sum   'Lu8 Be3 Si13 W12'
_cell_volume   577.35868258
_cell_formula_units_Z   1
loop_
 _symmetry_equiv_pos_site_id
 _symmetry_equiv_pos_as_xyz
  1  'x, y, z'
loop_
 _atom_site_type_symbol
 _atom_site_label
 _atom_site_symmetry_multiplicity
 _atom_site_fract_x
 _atom_site_fract_y
 _atom_site_fract_z
 _atom_site_occupancy
  Lu  Lu0  1  0.500398  0.668446  0.596035  1
  Lu  Lu1  1  0.999455  0.832273  0.903892  1
  Lu  Lu2  1  0.503450  0.334159  0.092609  1
  Lu  Lu3  1  0.002331  0.170968  0.406008  1
  Lu  Lu4  1  0.503450  0.334159  0.407391  1
  Lu  Lu5  1  0.002331  0.170968  0.093992  1
  Lu  Lu6  1  0.500398  0.668446  0.903965  1
  Lu  Lu7  1  0.999455  0.832273  0.596108  1
  Be  Be8  1  0.457328  0.374337  0.750000  1
  Be  Be9  1  0.956873  0.125979  0.750000  1
  Be  Be10  1  0.541956  0.626016  0.250000  1
  Si  Si11  1  0.665692  0.959584  0.457640  1
  Si  Si12  1  0.164668  0.540922  0.041823  1
  Si  Si13  1  0.335498  0.041403  0.957273  1
  Si  Si14  1  0.835570  0.456839  0.544051  1
  Si  Si15  1  0.335498  0.041403  0.542727  1
  Si  Si16  1  0.835570  0.456839  0.955949  1
  Si  Si17  1  0.665692  0.959584  0.042360  1
  Si  Si18  1  0.164668  0.540922  0.458177  1
  Si  Si19  1  0.036436  0.875751  0.250000  1
  Si  Si20  1  0.707532  0.873032  0.750000  1
  Si  Si21  1  0.207136  0.626226  0.750000  1
  Si  Si22  1  0.301380  0.138283  0.250000  1
  Si  Si23  1  0.791607  0.371173  0.250000  1
  W  W24  1  0.661026  0.170114  0.628569  1
  W  W25  1  0.162233  0.328606  0.871631  1
  W  W26  1  0.338991  0.829390  0.126902  1
  W  W27  1  0.831487  0.663369  0.375031  1
  W  W28  1  0.338991  0.829390  0.373098  1
  W  W29  1  0.831487  0.663369  0.124969  1
  W  W30  1  0.661026  0.170114  0.871431  1
  W  W31  1  0.162233  0.328606  0.628369  1
  W  W32  1  0.836478  0.486836  0.750000  1
  W  W33  1  0.335186  0.012775  0.750000  1
  W  W34  1  0.163730  0.505442  0.250000  1
  W  W35  1  0.662758  0.992006  0.250000  1
