# generated using pymatgen
data_Tb13Tm7(Bi2Os)4
_symmetry_space_group_name_H-M   'P 1'
_cell_length_a   7.96482587
_cell_length_b   9.03402889
_cell_length_c   12.53005910
_cell_angle_alpha   89.96784649
_cell_angle_beta   90.03593012
_cell_angle_gamma   90.03955153
_symmetry_Int_Tables_number   1
_chemical_formula_structural   Tb13Tm7(Bi2Os)4
_chemical_formula_sum   'Tb13 Tm7 Bi8 Os4'
_cell_volume   901.59319084
_cell_formula_units_Z   1
loop_
 _symmetry_equiv_pos_site_id
 _symmetry_equiv_pos_as_xyz
  1  'x, y, z'
loop_
 _atom_site_type_symbol
 _atom_site_label
 _atom_site_symmetry_multiplicity
 _atom_site_fract_x
 _atom_site_fract_y
 _atom_site_fract_z
 _atom_site_occupancy
  Tb  Tb0  1  0.842061  0.750509  0.791860  1
  Tb  Tb1  1  0.157395  0.249909  0.208140  1
  Tb  Tb2  1  0.342837  0.249801  0.707501  1
  Tb  Tb3  1  0.657328  0.750099  0.292172  1
  Tb  Tb4  1  0.376472  0.750134  0.692036  1
  Tb  Tb5  1  0.623527  0.249881  0.307837  1
  Tb  Tb6  1  0.875535  0.249501  0.807364  1
  Tb  Tb7  1  0.123192  0.750789  0.192782  1
  Tb  Tb8  1  0.942115  0.750096  0.504632  1
  Tb  Tb9  1  0.057468  0.249964  0.495203  1
  Tb  Tb10  1  0.443160  0.249159  0.995548  1
  Tb  Tb11  1  0.558337  0.750575  0.004700  1
  Tb  Tb12  1  0.175073  0.542639  0.936231  1
  Tm  Tm13  1  0.671841  0.042959  0.563502  1
  Tm  Tm14  1  0.328341  0.956947  0.436443  1
  Tm  Tm15  1  0.171750  0.957066  0.936532  1
  Tm  Tm16  1  0.328265  0.543190  0.436511  1
  Tm  Tm17  1  0.828344  0.043150  0.063534  1
  Tm  Tm18  1  0.671899  0.457057  0.563430  1
  Tm  Tm19  1  0.827355  0.456708  0.063850  1
  Bi  Bi20  1  0.569442  0.493177  0.827368  1
  Bi  Bi21  1  0.431532  0.506579  0.172250  1
  Bi  Bi22  1  0.067988  0.506557  0.671901  1
  Bi  Bi23  1  0.431776  0.993488  0.172316  1
  Bi  Bi24  1  0.931764  0.493425  0.327798  1
  Bi  Bi25  1  0.568033  0.006604  0.827699  1
  Bi  Bi26  1  0.931692  0.006664  0.327909  1
  Bi  Bi27  1  0.068306  0.993422  0.672189  1
  Os  Os28  1  0.573525  0.749985  0.510054  1
  Os  Os29  1  0.426737  0.250046  0.489982  1
  Os  Os30  1  0.072522  0.248883  0.990148  1
  Os  Os31  1  0.924386  0.751038  0.010575  1
