# generated using pymatgen
data_Tm6Al24Ru3Pt2Rh3
_symmetry_space_group_name_H-M   'P 1'
_cell_length_a   8.79084266
_cell_length_b   8.80369240
_cell_length_c   9.47684607
_cell_angle_alpha   90.17408950
_cell_angle_beta   89.95706314
_cell_angle_gamma   119.87384445
_symmetry_Int_Tables_number   1
_chemical_formula_structural   Tm6Al24Ru3Pt2Rh3
_chemical_formula_sum   'Tm6 Al24 Ru3 Pt2 Rh3'
_cell_volume   635.97249912
_cell_formula_units_Z   1
loop_
 _symmetry_equiv_pos_site_id
 _symmetry_equiv_pos_as_xyz
  1  'x, y, z'
loop_
 _atom_site_type_symbol
 _atom_site_label
 _atom_site_symmetry_multiplicity
 _atom_site_fract_x
 _atom_site_fract_y
 _atom_site_fract_z
 _atom_site_occupancy
  Tm  Tm0  1  0.804616  0.191737  0.750695  1
  Tm  Tm1  1  0.195384  0.808263  0.249305  1
  Tm  Tm2  1  0.386585  0.191214  0.749508  1
  Tm  Tm3  1  0.613415  0.808786  0.250492  1
  Tm  Tm4  1  0.807046  0.613794  0.748184  1
  Tm  Tm5  1  0.192954  0.386206  0.251816  1
  Al  Al6  1  0.668950  0.337874  0.966467  1
  Al  Al7  1  0.331050  0.662126  0.033533  1
  Al  Al8  1  0.332252  0.670142  0.467961  1
  Al  Al9  1  0.667748  0.329858  0.532039  1
  Al  Al10  1  0.835361  0.161626  0.421851  1
  Al  Al11  1  0.164639  0.838374  0.578149  1
  Al  Al12  1  0.325955  0.158095  0.423691  1
  Al  Al13  1  0.158911  0.833234  0.920809  1
  Al  Al14  1  0.674045  0.841905  0.576309  1
  Al  Al15  1  0.841089  0.166766  0.079191  1
  Al  Al16  1  0.840544  0.674657  0.422628  1
  Al  Al17  1  0.674572  0.833102  0.922686  1
  Al  Al18  1  0.159456  0.325343  0.577372  1
  Al  Al19  1  0.325428  0.166898  0.077314  1
  Al  Al20  1  0.162823  0.325354  0.922766  1
  Al  Al21  1  0.837177  0.674646  0.077234  1
  Al  Al22  1  0.436612  0.561720  0.753128  1
  Al  Al23  1  0.563388  0.438280  0.246872  1
  Al  Al24  1  0.122135  0.560462  0.750048  1
  Al  Al25  1  0.877865  0.439538  0.249952  1
  Al  Al26  1  0.436658  0.873500  0.746333  1
  Al  Al27  1  0.563342  0.126500  0.253667  1
  Al  Al28  1  0.000511  0.998730  0.749917  1
  Al  Al29  1  0.999489  0.001270  0.250083  1
  Ru  Ru30  1  0.500000  0.000000  0.500000  1
  Ru  Ru31  1  0.000000  0.000000  0.000000  1
  Ru  Ru32  1  0.000000  0.000000  0.500000  1
  Pt  Pt33  1  0.500000  0.500000  0.500000  1
  Pt  Pt34  1  0.500000  0.000000  0.000000  1
  Rh  Rh35  1  0.500000  0.500000  0.000000  1
  Rh  Rh36  1  0.000000  0.500000  0.000000  1
  Rh  Rh37  1  0.000000  0.500000  0.500000  1
