# generated using pymatgen
data_Ho8Hf12Si15Ni
_symmetry_space_group_name_H-M   'P 1'
_cell_length_a   7.27886813
_cell_length_b   7.24794226
_cell_length_c   13.36655574
_cell_angle_alpha   90.08623383
_cell_angle_beta   90.19859601
_cell_angle_gamma   89.86301533
_symmetry_Int_Tables_number   1
_chemical_formula_structural   Ho8Hf12Si15Ni
_chemical_formula_sum   'Ho8 Hf12 Si15 Ni1'
_cell_volume   705.16987966
_cell_formula_units_Z   1
loop_
 _symmetry_equiv_pos_site_id
 _symmetry_equiv_pos_as_xyz
  1  'x, y, z'
loop_
 _atom_site_type_symbol
 _atom_site_label
 _atom_site_symmetry_multiplicity
 _atom_site_fract_x
 _atom_site_fract_y
 _atom_site_fract_z
 _atom_site_occupancy
  Ho  Ho0  1  0.496519  0.155032  0.535554  1
  Ho  Ho1  1  0.503528  0.843446  0.034645  1
  Ho  Ho2  1  0.652665  0.004346  0.287372  1
  Ho  Ho3  1  0.345581  0.995774  0.784925  1
  Ho  Ho4  1  0.848441  0.503070  0.965392  1
  Ho  Ho5  1  0.153346  0.494387  0.464300  1
  Ho  Ho6  1  0.003996  0.655930  0.715567  1
  Ho  Ho7  1  0.990188  0.340288  0.211546  1
  Hf  Hf8  1  0.677304  0.324648  0.749392  1
  Hf  Hf9  1  0.322396  0.674395  0.249650  1
  Hf  Hf10  1  0.823901  0.824080  0.500159  1
  Hf  Hf11  1  0.177365  0.176530  0.000390  1
  Hf  Hf12  1  0.507315  0.347296  0.124285  1
  Hf  Hf13  1  0.503514  0.648381  0.625366  1
  Hf  Hf14  1  0.851035  0.005749  0.878888  1
  Hf  Hf15  1  0.147623  0.996740  0.374534  1
  Hf  Hf16  1  0.646623  0.502634  0.376041  1
  Hf  Hf17  1  0.352254  0.499479  0.874237  1
  Hf  Hf18  1  0.998411  0.860625  0.126167  1
  Hf  Hf19  1  0.996717  0.147266  0.624755  1
  Si  Si20  1  0.204804  0.859949  0.568099  1
  Si  Si21  1  0.641042  0.703958  0.817452  1
  Si  Si22  1  0.358595  0.296401  0.316310  1
  Si  Si23  1  0.859786  0.203910  0.433415  1
  Si  Si24  1  0.142201  0.795595  0.932376  1
  Si  Si25  1  0.699372  0.642100  0.185559  1
  Si  Si26  1  0.296571  0.360271  0.682562  1
  Si  Si27  1  0.552361  0.208203  0.935544  1
  Si  Si28  1  0.449072  0.794437  0.435898  1
  Si  Si29  1  0.705436  0.950958  0.686264  1
  Si  Si30  1  0.294809  0.050818  0.185838  1
  Si  Si31  1  0.796303  0.450867  0.564800  1
  Si  Si32  1  0.207273  0.550328  0.064015  1
  Si  Si33  1  0.949145  0.703791  0.314774  1
  Si  Si34  1  0.051375  0.295348  0.813133  1
  Ni  Ni35  1  0.793131  0.132969  0.060796  1
