# generated using pymatgen
data_Tb6Er10Cd4Ru3Pt
_symmetry_space_group_name_H-M   'P 1'
_cell_length_a   9.60908730
_cell_length_b   9.63718016
_cell_length_c   9.63637866
_cell_angle_alpha   59.59535223
_cell_angle_beta   59.49700132
_cell_angle_gamma   59.50133585
_symmetry_Int_Tables_number   1
_chemical_formula_structural   Tb6Er10Cd4Ru3Pt
_chemical_formula_sum   'Tb6 Er10 Cd4 Ru3 Pt1'
_cell_volume   624.27525893
_cell_formula_units_Z   1
loop_
 _symmetry_equiv_pos_site_id
 _symmetry_equiv_pos_as_xyz
  1  'x, y, z'
loop_
 _atom_site_type_symbol
 _atom_site_label
 _atom_site_symmetry_multiplicity
 _atom_site_fract_x
 _atom_site_fract_y
 _atom_site_fract_z
 _atom_site_occupancy
  Tb  Tb0  1  0.937562  0.561085  0.561053  1
  Tb  Tb1  1  0.557244  0.938985  0.938963  1
  Tb  Tb2  1  0.557197  0.938855  0.564735  1
  Tb  Tb3  1  0.938219  0.560573  0.940062  1
  Tb  Tb4  1  0.557211  0.564749  0.938877  1
  Tb  Tb5  1  0.938256  0.940077  0.560545  1
  Er  Er6  1  0.344782  0.350326  0.350337  1
  Er  Er7  1  0.345637  0.350602  0.955594  1
  Er  Er8  1  0.345641  0.955582  0.350596  1
  Er  Er9  1  0.962433  0.346094  0.346126  1
  Er  Er10  1  0.815155  0.188432  0.188425  1
  Er  Er11  1  0.186289  0.811926  0.811940  1
  Er  Er12  1  0.187743  0.811441  0.187686  1
  Er  Er13  1  0.815410  0.188515  0.806384  1
  Er  Er14  1  0.187745  0.187658  0.811472  1
  Er  Er15  1  0.815330  0.806339  0.188564  1
  Cd  Cd16  1  0.580236  0.579947  0.579953  1
  Cd  Cd17  1  0.580554  0.580108  0.258778  1
  Cd  Cd18  1  0.580574  0.258798  0.580094  1
  Cd  Cd19  1  0.257083  0.580788  0.580789  1
  Ru  Ru20  1  0.144349  0.138620  0.138623  1
  Ru  Ru21  1  0.145012  0.139783  0.578036  1
  Ru  Ru22  1  0.144946  0.578153  0.139757  1
  Pt  Pt23  1  0.575388  0.142566  0.142613  1
