# generated using pymatgen
data_TaNb5(In2Br9)2
_symmetry_space_group_name_H-M   'P 1'
_cell_length_a   10.36088190
_cell_length_b   10.35783552
_cell_length_c   10.20030994
_cell_angle_alpha   77.35419265
_cell_angle_beta   77.62385873
_cell_angle_gamma   117.32131019
_symmetry_Int_Tables_number   1
_chemical_formula_structural   TaNb5(In2Br9)2
_chemical_formula_sum   'Ta1 Nb5 In4 Br18'
_cell_volume   884.17130396
_cell_formula_units_Z   1
loop_
 _symmetry_equiv_pos_site_id
 _symmetry_equiv_pos_as_xyz
  1  'x, y, z'
loop_
 _atom_site_type_symbol
 _atom_site_label
 _atom_site_symmetry_multiplicity
 _atom_site_fract_x
 _atom_site_fract_y
 _atom_site_fract_z
 _atom_site_occupancy
  Ta  Ta0  1  0.543968  0.710933  0.365964  1
  Nb  Nb1  1  0.288594  0.455777  0.634271  1
  Nb  Nb2  1  0.455469  0.286897  0.635273  1
  Nb  Nb3  1  0.711243  0.543804  0.365838  1
  Nb  Nb4  1  0.384274  0.384201  0.376922  1
  Nb  Nb5  1  0.615817  0.615732  0.623022  1
  In  In6  1  0.272883  0.951842  0.164168  1
  In  In7  1  0.047499  0.727086  0.835471  1
  In  In8  1  0.727796  0.049238  0.835167  1
  In  In9  1  0.952400  0.273474  0.164508  1
  Br  Br10  1  0.997212  0.393661  0.823886  1
  Br  Br11  1  0.605954  0.001077  0.177573  1
  Br  Br12  1  0.182795  0.182558  0.828894  1
  Br  Br13  1  0.815424  0.817504  0.172101  1
  Br  Br14  1  0.381259  0.586747  0.815560  1
  Br  Br15  1  0.414783  0.620859  0.184528  1
  Br  Br16  1  0.618695  0.413124  0.184220  1
  Br  Br17  1  0.586628  0.381020  0.815707  1
  Br  Br18  1  0.693555  0.902154  0.484839  1
  Br  Br19  1  0.097724  0.305356  0.513657  1
  Br  Br20  1  0.305554  0.097395  0.513656  1
  Br  Br21  1  0.902353  0.694559  0.486188  1
  Br  Br22  1  0.706161  0.293109  0.500090  1
  Br  Br23  1  0.295704  0.707590  0.498388  1
  Br  Br24  1  0.226784  0.227547  0.210473  1
  Br  Br25  1  0.773015  0.773415  0.789191  1
  Br  Br26  1  0.393587  0.996332  0.824855  1
  Br  Br27  1  0.002869  0.607010  0.175589  1
