# generated using pymatgen
data_Er17Tm3(Cd3Ru)2
_symmetry_space_group_name_H-M   'P 1'
_cell_length_a   9.49290804
_cell_length_b   9.49401820
_cell_length_c   9.74902802
_cell_angle_alpha   89.99999873
_cell_angle_beta   89.99312777
_cell_angle_gamma   120.00386206
_symmetry_Int_Tables_number   1
_chemical_formula_structural   Er17Tm3(Cd3Ru)2
_chemical_formula_sum   'Er17 Tm3 Cd6 Ru2'
_cell_volume   760.89438141
_cell_formula_units_Z   1
loop_
 _symmetry_equiv_pos_site_id
 _symmetry_equiv_pos_as_xyz
  1  'x, y, z'
loop_
 _atom_site_type_symbol
 _atom_site_label
 _atom_site_symmetry_multiplicity
 _atom_site_fract_x
 _atom_site_fract_y
 _atom_site_fract_z
 _atom_site_occupancy
  Er  Er0  1  0.209803  0.790302  0.440698  1
  Er  Er1  1  0.209803  0.419502  0.440698  1
  Er  Er2  1  0.580454  0.790227  0.440517  1
  Er  Er3  1  0.790266  0.209796  0.559319  1
  Er  Er4  1  0.790266  0.580469  0.559319  1
  Er  Er5  1  0.419529  0.209764  0.559340  1
  Er  Er6  1  0.790201  0.209670  0.940727  1
  Er  Er7  1  0.790201  0.580530  0.940727  1
  Er  Er8  1  0.419494  0.209746  0.940678  1
  Er  Er9  1  0.209925  0.790234  0.059303  1
  Er  Er10  1  0.209925  0.419692  0.059303  1
  Er  Er11  1  0.540802  0.459258  0.249922  1
  Er  Er12  1  0.540802  0.081543  0.249922  1
  Er  Er13  1  0.918281  0.459140  0.250066  1
  Er  Er14  1  0.459155  0.540967  0.750085  1
  Er  Er15  1  0.459155  0.918189  0.750085  1
  Er  Er16  1  0.081752  0.540876  0.750003  1
  Tm  Tm17  1  0.000023  0.000012  0.500030  1
  Tm  Tm18  1  0.999835  0.999917  0.000039  1
  Tm  Tm19  1  0.580284  0.790143  0.059337  1
  Cd  Cd20  1  0.885526  0.114377  0.249974  1
  Cd  Cd21  1  0.885526  0.771150  0.249974  1
  Cd  Cd22  1  0.228884  0.114442  0.249991  1
  Cd  Cd23  1  0.114443  0.885602  0.750009  1
  Cd  Cd24  1  0.114443  0.228839  0.750009  1
  Cd  Cd25  1  0.771095  0.885547  0.750060  1
  Ru  Ru26  1  0.333505  0.666753  0.249880  1
  Ru  Ru27  1  0.666623  0.333311  0.749983  1
