# generated using pymatgen
data_SmCdCu3Pd
_symmetry_space_group_name_H-M   'P 1'
_cell_length_a   5.21175505
_cell_length_b   5.23137621
_cell_length_c   5.21175500
_cell_angle_alpha   60.12398779
_cell_angle_beta   59.99999398
_cell_angle_gamma   60.12397885
_symmetry_Int_Tables_number   1
_chemical_formula_structural   SmCdCu3Pd
_chemical_formula_sum   'Sm1 Cd1 Cu3 Pd1'
_cell_volume   100.66540791
_cell_formula_units_Z   1
loop_
 _symmetry_equiv_pos_site_id
 _symmetry_equiv_pos_as_xyz
  1  'x, y, z'
loop_
 _atom_site_type_symbol
 _atom_site_label
 _atom_site_symmetry_multiplicity
 _atom_site_fract_x
 _atom_site_fract_y
 _atom_site_fract_z
 _atom_site_occupancy
  Sm  Sm0  1  0.750560  0.748322  0.750560  1
  Cd  Cd1  1  0.999238  0.002286  0.999238  1
  Cu  Cu2  1  0.375027  0.373465  0.375027  1
  Cu  Cu3  1  0.876483  0.373465  0.375027  1
  Cu  Cu4  1  0.375027  0.373465  0.876483  1
  Pd  Pd5  1  0.373668  0.878997  0.373668  1
