# generated using pymatgen
data_Y6Cd23P
_symmetry_space_group_name_H-M   'P 1'
_cell_length_a   9.93353281
_cell_length_b   9.93353269
_cell_length_c   9.93353200
_cell_angle_alpha   60.00000229
_cell_angle_beta   60.00000271
_cell_angle_gamma   60.00000716
_symmetry_Int_Tables_number   1
_chemical_formula_structural   Y6Cd23P
_chemical_formula_sum   'Y6 Cd23 P1'
_cell_volume   693.10046970
_cell_formula_units_Z   1
loop_
 _symmetry_equiv_pos_site_id
 _symmetry_equiv_pos_as_xyz
  1  'x, y, z'
loop_
 _atom_site_type_symbol
 _atom_site_label
 _atom_site_symmetry_multiplicity
 _atom_site_fract_x
 _atom_site_fract_y
 _atom_site_fract_z
 _atom_site_occupancy
  Y  Y0  1  0.801967  0.801967  0.198033  1
  Y  Y1  1  0.198033  0.801967  0.198033  1
  Y  Y2  1  0.801967  0.198033  0.198033  1
  Y  Y3  1  0.198033  0.198033  0.801967  1
  Y  Y4  1  0.801967  0.198033  0.801967  1
  Y  Y5  1  0.198033  0.801967  0.801967  1
  Cd  Cd6  1  0.835826  0.835826  0.492524  1
  Cd  Cd7  1  0.835826  0.492524  0.835826  1
  Cd  Cd8  1  0.492524  0.835826  0.835826  1
  Cd  Cd9  1  0.835826  0.835826  0.835826  1
  Cd  Cd10  1  0.164174  0.164174  0.507476  1
  Cd  Cd11  1  0.164174  0.507476  0.164174  1
  Cd  Cd12  1  0.507476  0.164174  0.164174  1
  Cd  Cd13  1  0.164174  0.164174  0.164174  1
  Cd  Cd14  1  0.621232  0.621232  0.136305  1
  Cd  Cd15  1  0.621232  0.136305  0.621232  1
  Cd  Cd16  1  0.136305  0.621232  0.621232  1
  Cd  Cd17  1  0.621232  0.621232  0.621232  1
  Cd  Cd18  1  0.378768  0.378768  0.863695  1
  Cd  Cd19  1  0.378768  0.863695  0.378768  1
  Cd  Cd20  1  0.863695  0.378768  0.378768  1
  Cd  Cd21  1  0.378768  0.378768  0.378768  1
  Cd  Cd22  1  0.000000  0.000000  0.500000  1
  Cd  Cd23  1  0.500000  0.000000  0.500000  1
  Cd  Cd24  1  0.000000  0.500000  0.500000  1
  Cd  Cd25  1  0.500000  0.500000  0.000000  1
  Cd  Cd26  1  0.000000  0.500000  0.000000  1
  Cd  Cd27  1  0.500000  0.000000  0.000000  1
  Cd  Cd28  1  0.500000  0.500000  0.500000  1
  P  P29  1  0.000000  0.000000  0.000000  1
