# generated using pymatgen
data_MgBi3(Ru2O7)2
_symmetry_space_group_name_H-M   'P 1'
_cell_length_a   7.21481410
_cell_length_b   7.24622785
_cell_length_c   7.24565499
_cell_angle_alpha   60.71155662
_cell_angle_beta   60.63397175
_cell_angle_gamma   60.63746395
_symmetry_Int_Tables_number   1
_chemical_formula_structural   MgBi3(Ru2O7)2
_chemical_formula_sum   'Mg1 Bi3 Ru4 O14'
_cell_volume   271.85181874
_cell_formula_units_Z   1
loop_
 _symmetry_equiv_pos_site_id
 _symmetry_equiv_pos_as_xyz
  1  'x, y, z'
loop_
 _atom_site_type_symbol
 _atom_site_label
 _atom_site_symmetry_multiplicity
 _atom_site_fract_x
 _atom_site_fract_y
 _atom_site_fract_z
 _atom_site_occupancy
  Mg  Mg0  1  0.500000  0.500000  0.500000  1
  Bi  Bi1  1  0.500000  0.000000  0.500000  1
  Bi  Bi2  1  0.000000  0.500000  0.500000  1
  Bi  Bi3  1  0.500000  0.500000  0.000000  1
  Ru  Ru4  1  0.000000  0.000000  0.000000  1
  Ru  Ru5  1  0.000000  0.500000  0.000000  1
  Ru  Ru6  1  0.500000  0.000000  0.000000  1
  Ru  Ru7  1  0.000000  0.000000  0.500000  1
  O  O8  1  0.609896  0.613847  0.613865  1
  O  O9  1  0.390104  0.386153  0.386135  1
  O  O10  1  0.918349  0.919859  0.329085  1
  O  O11  1  0.330642  0.917892  0.917850  1
  O  O12  1  0.918367  0.329056  0.919850  1
  O  O13  1  0.322705  0.323395  0.934631  1
  O  O14  1  0.917717  0.331819  0.331872  1
  O  O15  1  0.322740  0.934446  0.323475  1
  O  O16  1  0.081651  0.080141  0.670915  1
  O  O17  1  0.669358  0.082108  0.082150  1
  O  O18  1  0.081633  0.670944  0.080150  1
  O  O19  1  0.677295  0.676605  0.065369  1
  O  O20  1  0.082283  0.668181  0.668128  1
  O  O21  1  0.677260  0.065554  0.676525  1
