# generated using pymatgen
data_PrAgIrRhO7
_symmetry_space_group_name_H-M   'P 1'
_cell_length_a   7.29558789
_cell_length_b   7.19593089
_cell_length_c   7.29558897
_cell_angle_alpha   60.45084919
_cell_angle_beta   61.65174320
_cell_angle_gamma   60.45084267
_symmetry_Int_Tables_number   1
_chemical_formula_structural   PrAgIrRhO7
_chemical_formula_sum   'Pr2 Ag2 Ir2 Rh2 O14'
_cell_volume   275.94547941
_cell_formula_units_Z   2
loop_
 _symmetry_equiv_pos_site_id
 _symmetry_equiv_pos_as_xyz
  1  'x, y, z'
loop_
 _atom_site_type_symbol
 _atom_site_label
 _atom_site_symmetry_multiplicity
 _atom_site_fract_x
 _atom_site_fract_y
 _atom_site_fract_z
 _atom_site_occupancy
  Pr  Pr0  1  0.125000  0.125000  0.625000  1
  Pr  Pr1  1  0.625000  0.125000  0.125000  1
  Ag  Ag2  1  0.125000  0.125000  0.125000  1
  Ag  Ag3  1  0.125000  0.625000  0.125000  1
  Ir  Ir4  1  0.125000  0.625000  0.625000  1
  Ir  Ir5  1  0.625000  0.625000  0.125000  1
  Rh  Rh6  1  0.625000  0.625000  0.625000  1
  Rh  Rh7  1  0.625000  0.125000  0.625000  1
  O  O8  1  0.951644  0.551926  0.547803  1
  O  O9  1  0.298356  0.301373  0.702197  1
  O  O10  1  0.940180  0.559820  0.940180  1
  O  O11  1  0.702197  0.301373  0.298356  1
  O  O12  1  0.547803  0.551926  0.951644  1
  O  O13  1  0.534949  0.965051  0.534949  1
  O  O14  1  0.547803  0.948627  0.951644  1
  O  O15  1  0.232291  0.267709  0.232291  1
  O  O16  1  0.298356  0.698074  0.702197  1
  O  O17  1  0.715051  0.284949  0.715051  1
  O  O18  1  0.017709  0.982291  0.017709  1
  O  O19  1  0.951644  0.948627  0.547803  1
  O  O20  1  0.309820  0.690180  0.309820  1
  O  O21  1  0.702197  0.698074  0.298356  1
