# generated using pymatgen
data_LuHf3Si5GeIr7
_symmetry_space_group_name_H-M   'P 1'
_cell_length_a   7.04300505
_cell_length_b   7.03205359
_cell_length_c   7.04479630
_cell_angle_alpha   109.67476831
_cell_angle_beta   109.73677099
_cell_angle_gamma   108.96096395
_symmetry_Int_Tables_number   1
_chemical_formula_structural   LuHf3Si5GeIr7
_chemical_formula_sum   'Lu1 Hf3 Si5 Ge1 Ir7'
_cell_volume   268.71302463
_cell_formula_units_Z   1
loop_
 _symmetry_equiv_pos_site_id
 _symmetry_equiv_pos_as_xyz
  1  'x, y, z'
loop_
 _atom_site_type_symbol
 _atom_site_label
 _atom_site_symmetry_multiplicity
 _atom_site_fract_x
 _atom_site_fract_y
 _atom_site_fract_z
 _atom_site_occupancy
  Lu  Lu0  1  0.001403  0.488098  0.000003  1
  Hf  Hf1  1  0.001564  0.001294  0.524048  1
  Hf  Hf2  1  0.474543  0.001332  0.999997  1
  Hf  Hf3  1  0.477514  0.477247  0.475956  1
  Si  Si4  1  0.317667  0.996347  0.322418  1
  Si  Si5  1  0.995026  0.313954  0.318401  1
  Si  Si6  1  0.331973  0.333159  0.999999  1
  Si  Si7  1  0.676628  0.995555  0.681601  1
  Si  Si8  1  0.995247  0.673925  0.677582  1
  Ge  Ge9  1  0.696861  0.699375  0.999998  1
  Ir  Ir10  1  0.747661  0.246975  0.495177  1
  Ir  Ir11  1  0.750477  0.500059  0.254197  1
  Ir  Ir12  1  0.496274  0.245865  0.745803  1
  Ir  Ir13  1  0.250630  0.499585  0.745116  1
  Ir  Ir14  1  0.252475  0.751790  0.504830  1
  Ir  Ir15  1  0.505510  0.754462  0.254876  1
  Ir  Ir16  1  0.028546  0.020977  0.999999  1
