# generated using pymatgen
data_WSe4Cl
_symmetry_space_group_name_H-M   'P 1'
_cell_length_a   6.43183104
_cell_length_b   8.28291439
_cell_length_c   8.11525089
_cell_angle_alpha   112.51763506
_cell_angle_beta   113.32715601
_cell_angle_gamma   97.69198737
_symmetry_Int_Tables_number   1
_chemical_formula_structural   WSe4Cl
_chemical_formula_sum   'W2 Se8 Cl2'
_cell_volume   345.33322978
_cell_formula_units_Z   2
loop_
 _symmetry_equiv_pos_site_id
 _symmetry_equiv_pos_as_xyz
  1  'x, y, z'
loop_
 _atom_site_type_symbol
 _atom_site_label
 _atom_site_symmetry_multiplicity
 _atom_site_fract_x
 _atom_site_fract_y
 _atom_site_fract_z
 _atom_site_occupancy
  W  W0  1  0.222593  0.000181  0.000170  1
  W  W1  1  0.777410  0.999819  0.999831  1
  Se  Se2  1  0.463138  0.763448  0.007977  1
  Se  Se3  1  0.121086  0.295581  0.140885  1
  Se  Se4  1  0.106283  0.925775  0.238338  1
  Se  Se5  1  0.680320  0.204194  0.290047  1
  Se  Se6  1  0.319667  0.795802  0.709952  1
  Se  Se7  1  0.893730  0.074225  0.761663  1
  Se  Se8  1  0.878930  0.704420  0.859116  1
  Se  Se9  1  0.536847  0.236552  0.992024  1
  Cl  Cl10  1  0.667204  0.779849  0.408385  1
  Cl  Cl11  1  0.332795  0.220153  0.591611  1
