# generated using pymatgen
data_Zr6Al16Os3Au4
_symmetry_space_group_name_H-M   'P 1'
_cell_length_a   8.88164371
_cell_length_b   8.79538538
_cell_length_c   8.88173329
_cell_angle_alpha   60.32041253
_cell_angle_beta   59.35816651
_cell_angle_gamma   60.32125077
_symmetry_Int_Tables_number   1
_chemical_formula_structural   Zr6Al16Os3Au4
_chemical_formula_sum   'Zr6 Al16 Os3 Au4'
_cell_volume   490.51147810
_cell_formula_units_Z   1
loop_
 _symmetry_equiv_pos_site_id
 _symmetry_equiv_pos_as_xyz
  1  'x, y, z'
loop_
 _atom_site_type_symbol
 _atom_site_label
 _atom_site_symmetry_multiplicity
 _atom_site_fract_x
 _atom_site_fract_y
 _atom_site_fract_z
 _atom_site_occupancy
  Zr  Zr0  1  0.186640  0.813360  0.813362  1
  Zr  Zr1  1  0.813360  0.186640  0.186638  1
  Zr  Zr2  1  0.803034  0.196966  0.803035  1
  Zr  Zr3  1  0.813362  0.813362  0.186638  1
  Zr  Zr4  1  0.196966  0.803034  0.196965  1
  Zr  Zr5  1  0.186638  0.186638  0.813362  1
  Al  Al6  1  0.838916  0.829346  0.838916  1
  Al  Al7  1  0.829346  0.838916  0.492821  1
  Al  Al8  1  0.492821  0.838917  0.829346  1
  Al  Al9  1  0.838917  0.492821  0.838916  1
  Al  Al10  1  0.161084  0.170654  0.161084  1
  Al  Al11  1  0.170654  0.161084  0.507179  1
  Al  Al12  1  0.161083  0.507179  0.161084  1
  Al  Al13  1  0.507179  0.161083  0.170654  1
  Al  Al14  1  0.610295  0.631584  0.610294  1
  Al  Al15  1  0.631584  0.610295  0.147827  1
  Al  Al16  1  0.147827  0.610295  0.631583  1
  Al  Al17  1  0.610295  0.147827  0.610295  1
  Al  Al18  1  0.389705  0.368416  0.389706  1
  Al  Al19  1  0.368416  0.389705  0.852173  1
  Al  Al20  1  0.389705  0.852173  0.389705  1
  Al  Al21  1  0.852173  0.389705  0.368417  1
  Os  Os22  1  0.500000  0.500000  0.500000  1
  Os  Os23  1  0.500000  0.000000  0.500000  1
  Os  Os24  1  0.000000  0.500000  0.000000  1
  Au  Au25  1  0.000000  0.500000  0.500000  1
  Au  Au26  1  0.500000  0.000000  0.000000  1
  Au  Au27  1  0.500000  0.500000  0.000000  1
  Au  Au28  1  0.000000  0.000000  0.500000  1
