# generated using pymatgen
data_Tm5NpCdO12
_symmetry_space_group_name_H-M   'P 1'
_cell_length_a   6.44763981
_cell_length_b   6.52018915
_cell_length_c   6.52459204
_cell_angle_alpha   99.31459599
_cell_angle_beta   98.29581680
_cell_angle_gamma   98.84812017
_symmetry_Int_Tables_number   1
_chemical_formula_structural   Tm5NpCdO12
_chemical_formula_sum   'Tm5 Np1 Cd1 O12'
_cell_volume   263.39839812
_cell_formula_units_Z   1
loop_
 _symmetry_equiv_pos_site_id
 _symmetry_equiv_pos_as_xyz
  1  'x, y, z'
loop_
 _atom_site_type_symbol
 _atom_site_label
 _atom_site_symmetry_multiplicity
 _atom_site_fract_x
 _atom_site_fract_y
 _atom_site_fract_z
 _atom_site_occupancy
  Tm  Tm0  1  0.613972  0.330891  0.147783  1
  Tm  Tm1  1  0.324622  0.147964  0.610857  1
  Tm  Tm2  1  0.671232  0.858263  0.388053  1
  Tm  Tm3  1  0.392420  0.669666  0.852480  1
  Tm  Tm4  1  0.147847  0.611542  0.330113  1
  Np  Np5  1  0.003581  0.998412  0.003771  1
  Cd  Cd6  1  0.848554  0.400675  0.664426  1
  O  O7  1  0.922057  0.017866  0.698902  1
  O  O8  1  0.964618  0.297884  0.100443  1
  O  O9  1  0.567378  0.169422  0.408947  1
  O  O10  1  0.820702  0.584126  0.384769  1
  O  O11  1  0.308307  0.084955  0.955237  1
  O  O12  1  0.570584  0.405986  0.824010  1
  O  O13  1  0.425460  0.593885  0.175901  1
  O  O14  1  0.692874  0.915590  0.041608  1
  O  O15  1  0.179648  0.429011  0.590849  1
  O  O16  1  0.409141  0.822645  0.576097  1
  O  O17  1  0.055685  0.700072  0.936422  1
  O  O18  1  0.081319  0.961143  0.309330  1
