# generated using pymatgen
data_MgCo2(NiP)3
_symmetry_space_group_name_H-M   'P 1'
_cell_length_a   3.58918500
_cell_length_b   10.23633800
_cell_length_c   11.77907200
_cell_angle_alpha   90.00000000
_cell_angle_beta   90.00000000
_cell_angle_gamma   90.00000000
_symmetry_Int_Tables_number   1
_chemical_formula_structural   MgCo2(NiP)3
_chemical_formula_sum   'Mg4 Co8 Ni12 P12'
_cell_volume   432.76441045
_cell_formula_units_Z   4
loop_
 _symmetry_equiv_pos_site_id
 _symmetry_equiv_pos_as_xyz
  1  'x, y, z'
loop_
 _atom_site_type_symbol
 _atom_site_label
 _atom_site_symmetry_multiplicity
 _atom_site_fract_x
 _atom_site_fract_y
 _atom_site_fract_z
 _atom_site_occupancy
  Mg  Mg0  1  0.250000  0.577787  0.705154  1
  Mg  Mg1  1  0.250000  0.922213  0.205154  1
  Mg  Mg2  1  0.750000  0.422213  0.294846  1
  Mg  Mg3  1  0.750000  0.077787  0.794846  1
  Co  Co4  1  0.250000  0.879082  0.701198  1
  Co  Co5  1  0.250000  0.620918  0.201198  1
  Co  Co6  1  0.750000  0.120918  0.298802  1
  Co  Co7  1  0.750000  0.379082  0.798802  1
  Co  Co8  1  0.250000  0.463863  0.931598  1
  Co  Co9  1  0.250000  0.036137  0.431598  1
  Co  Co10  1  0.750000  0.536137  0.068402  1
  Co  Co11  1  0.750000  0.963863  0.568402  1
  Ni  Ni12  1  0.250000  0.713823  0.990237  1
  Ni  Ni13  1  0.250000  0.786177  0.490237  1
  Ni  Ni14  1  0.750000  0.286177  0.009763  1
  Ni  Ni15  1  0.750000  0.213823  0.509763  1
  Ni  Ni16  1  0.250000  0.407802  0.480278  1
  Ni  Ni17  1  0.250000  0.092198  0.980278  1
  Ni  Ni18  1  0.750000  0.592198  0.519722  1
  Ni  Ni19  1  0.750000  0.907802  0.019722  1
  Ni  Ni20  1  0.250000  0.225612  0.174440  1
  Ni  Ni21  1  0.250000  0.274389  0.674440  1
  Ni  Ni22  1  0.750000  0.774389  0.825560  1
  Ni  Ni23  1  0.750000  0.725611  0.325560  1
  P  P24  1  0.250000  0.425479  0.115530  1
  P  P25  1  0.250000  0.074521  0.615530  1
  P  P26  1  0.750000  0.574521  0.884470  1
  P  P27  1  0.750000  0.925479  0.384470  1
  P  P28  1  0.250000  0.265133  0.865332  1
  P  P29  1  0.250000  0.234867  0.365332  1
  P  P30  1  0.750000  0.734867  0.134668  1
  P  P31  1  0.750000  0.765133  0.634668  1
  P  P32  1  0.250000  0.599299  0.388410  1
  P  P33  1  0.250000  0.900701  0.888410  1
  P  P34  1  0.750000  0.400701  0.611590  1
  P  P35  1  0.750000  0.099299  0.111590  1
