# generated using pymatgen
data_Y2Pa(Ni3P2)3
_symmetry_space_group_name_H-M   'P 1'
_cell_length_a   3.79056200
_cell_length_b   10.46322200
_cell_length_c   12.29687800
_cell_angle_alpha   90.00000000
_cell_angle_beta   90.00000000
_cell_angle_gamma   90.00000000
_symmetry_Int_Tables_number   1
_chemical_formula_structural   Y2Pa(Ni3P2)3
_chemical_formula_sum   'Y4 Pa2 Ni18 P12'
_cell_volume   487.71252487
_cell_formula_units_Z   2
loop_
 _symmetry_equiv_pos_site_id
 _symmetry_equiv_pos_as_xyz
  1  'x, y, z'
loop_
 _atom_site_type_symbol
 _atom_site_label
 _atom_site_symmetry_multiplicity
 _atom_site_fract_x
 _atom_site_fract_y
 _atom_site_fract_z
 _atom_site_occupancy
  Y  Y0  1  0.251828  0.685144  0.794362  1
  Y  Y1  1  0.251828  0.314856  0.794362  1
  Y  Y2  1  0.751828  0.814856  0.205638  1
  Y  Y3  1  0.751828  0.185144  0.205638  1
  Pa  Pa4  1  0.751841  0.000000  0.477229  1
  Pa  Pa5  1  0.251841  0.500000  0.522771  1
  Ni  Ni6  1  0.752005  0.000000  0.017012  1
  Ni  Ni7  1  0.252005  0.500000  0.982988  1
  Ni  Ni8  1  0.251930  0.195674  0.570990  1
  Ni  Ni9  1  0.251930  0.804326  0.570990  1
  Ni  Ni10  1  0.751930  0.304326  0.429010  1
  Ni  Ni11  1  0.751930  0.695674  0.429010  1
  Ni  Ni12  1  0.251833  0.620410  0.288974  1
  Ni  Ni13  1  0.251833  0.379590  0.288974  1
  Ni  Ni14  1  0.751833  0.879590  0.711026  1
  Ni  Ni15  1  0.751833  0.120410  0.711026  1
  Ni  Ni16  1  0.251857  0.167239  0.005896  1
  Ni  Ni17  1  0.251857  0.832761  0.005896  1
  Ni  Ni18  1  0.751857  0.332761  0.994104  1
  Ni  Ni19  1  0.751857  0.667239  0.994104  1
  Ni  Ni20  1  0.251268  0.000000  0.844877  1
  Ni  Ni21  1  0.751268  0.500000  0.155123  1
  Ni  Ni22  1  0.251813  0.000000  0.304179  1
  Ni  Ni23  1  0.751813  0.500000  0.695821  1
  P  P24  1  0.251865  0.190635  0.385675  1
  P  P25  1  0.251865  0.809365  0.385675  1
  P  P26  1  0.751865  0.309365  0.614325  1
  P  P27  1  0.751865  0.690635  0.614325  1
  P  P28  1  0.251844  0.000000  0.124464  1
  P  P29  1  0.751844  0.500000  0.875536  1
  P  P30  1  0.251785  0.651435  0.106336  1
  P  P31  1  0.251785  0.348565  0.106336  1
  P  P32  1  0.751785  0.848565  0.893664  1
  P  P33  1  0.751785  0.151435  0.893664  1
  P  P34  1  0.251835  0.000000  0.659977  1
  P  P35  1  0.751835  0.500000  0.340023  1
