# generated using pymatgen
data_Ho2ErSi3Pd
_symmetry_space_group_name_H-M   'P 1'
_cell_length_a   5.64246145
_cell_length_b   5.64246022
_cell_length_c   13.57296410
_cell_angle_alpha   71.39210988
_cell_angle_beta   71.39211473
_cell_angle_gamma   44.07769629
_symmetry_Int_Tables_number   1
_chemical_formula_structural   Ho2ErSi3Pd
_chemical_formula_sum   'Ho4 Er2 Si6 Pd2'
_cell_volume   282.22945042
_cell_formula_units_Z   2
loop_
 _symmetry_equiv_pos_site_id
 _symmetry_equiv_pos_as_xyz
  1  'x, y, z'
loop_
 _atom_site_type_symbol
 _atom_site_label
 _atom_site_symmetry_multiplicity
 _atom_site_fract_x
 _atom_site_fract_y
 _atom_site_fract_z
 _atom_site_occupancy
  Ho  Ho0  1  0.472484  0.472484  0.376181  1
  Ho  Ho1  1  0.602837  0.602837  0.077435  1
  Ho  Ho2  1  0.744736  0.744736  0.774979  1
  Ho  Ho3  1  0.527503  0.527503  0.623831  1
  Er  Er4  1  0.397177  0.397177  0.922565  1
  Er  Er5  1  0.255387  0.255387  0.225122  1
  Si  Si6  1  0.876710  0.876710  0.544434  1
  Si  Si7  1  0.961226  0.961226  0.229630  1
  Si  Si8  1  0.886826  0.886826  0.074436  1
  Si  Si9  1  0.113131  0.113131  0.925571  1
  Si  Si10  1  0.123371  0.123371  0.455454  1
  Si  Si11  1  0.038628  0.038628  0.770495  1
  Pd  Pd12  1  0.753583  0.753583  0.400778  1
  Pd  Pd13  1  0.246403  0.246403  0.599089  1
