# generated using pymatgen
data_HoTm4Co2Os
_symmetry_space_group_name_H-M   'P 1'
_cell_length_a   8.55708329
_cell_length_b   8.54756579
_cell_length_c   8.55708200
_cell_angle_alpha   131.47915191
_cell_angle_beta   131.51481870
_cell_angle_gamma   71.04740649
_symmetry_Int_Tables_number   1
_chemical_formula_structural   HoTm4Co2Os
_chemical_formula_sum   'Ho2 Tm8 Co4 Os2'
_cell_volume   343.75700400
_cell_formula_units_Z   2
loop_
 _symmetry_equiv_pos_site_id
 _symmetry_equiv_pos_as_xyz
  1  'x, y, z'
loop_
 _atom_site_type_symbol
 _atom_site_label
 _atom_site_symmetry_multiplicity
 _atom_site_fract_x
 _atom_site_fract_y
 _atom_site_fract_z
 _atom_site_occupancy
  Ho  Ho0  1  0.178714  0.678382  0.142513  1
  Ho  Ho1  1  0.964131  0.821618  0.500332  1
  Tm  Tm2  1  0.678692  0.535666  0.499626  1
  Tm  Tm3  1  0.463960  0.964334  0.143026  1
  Tm  Tm4  1  0.820548  0.321032  0.857085  1
  Tm  Tm5  1  0.536925  0.036731  0.858745  1
  Tm  Tm6  1  0.999979  0.000408  0.000437  1
  Tm  Tm7  1  0.036053  0.178968  0.499516  1
  Tm  Tm8  1  0.322014  0.463269  0.500194  1
  Tm  Tm9  1  0.500029  0.499592  0.999571  1
  Co  Co10  1  0.112373  0.611256  0.724496  1
  Co  Co11  1  0.887267  0.386169  0.273833  1
  Co  Co12  1  0.613242  0.888744  0.501117  1
  Co  Co13  1  0.387664  0.113831  0.501099  1
  Os  Os14  1  0.250526  0.250000  0.000526  1
  Os  Os15  1  0.747885  0.750000  0.997885  1
