# generated using pymatgen
data_Tb4Ho7TmRu4
_symmetry_space_group_name_H-M   'P 1'
_cell_length_a   6.30313622
_cell_length_b   7.29840098
_cell_length_c   9.12264326
_cell_angle_alpha   89.98931503
_cell_angle_beta   90.08547738
_cell_angle_gamma   89.96890054
_symmetry_Int_Tables_number   1
_chemical_formula_structural   Tb4Ho7TmRu4
_chemical_formula_sum   'Tb4 Ho7 Tm1 Ru4'
_cell_volume   419.66673922
_cell_formula_units_Z   1
loop_
 _symmetry_equiv_pos_site_id
 _symmetry_equiv_pos_as_xyz
  1  'x, y, z'
loop_
 _atom_site_type_symbol
 _atom_site_label
 _atom_site_symmetry_multiplicity
 _atom_site_fract_x
 _atom_site_fract_y
 _atom_site_fract_z
 _atom_site_occupancy
  Tb  Tb0  1  0.633258  0.041032  0.250279  1
  Tb  Tb1  1  0.367172  0.959324  0.749790  1
  Tb  Tb2  1  0.132804  0.458893  0.749631  1
  Tb  Tb3  1  0.866718  0.540697  0.250330  1
  Ho  Ho4  1  0.169430  0.176405  0.064445  1
  Ho  Ho5  1  0.830619  0.823788  0.935543  1
  Ho  Ho6  1  0.669270  0.323544  0.935121  1
  Ho  Ho7  1  0.830409  0.823617  0.564375  1
  Ho  Ho8  1  0.330765  0.676313  0.064447  1
  Ho  Ho9  1  0.169403  0.176492  0.435806  1
  Ho  Ho10  1  0.331015  0.676002  0.435844  1
  Tm  Tm11  1  0.669159  0.323959  0.564656  1
  Ru  Ru12  1  0.460942  0.385159  0.250639  1
  Ru  Ru13  1  0.539562  0.614344  0.749612  1
  Ru  Ru14  1  0.960001  0.115101  0.749605  1
  Ru  Ru15  1  0.039478  0.885329  0.249878  1
