# generated using pymatgen
data_Dy8Th4CoTc3
_symmetry_space_group_name_H-M   'P 1'
_cell_length_a   6.37051618
_cell_length_b   7.24647194
_cell_length_c   9.57710200
_cell_angle_alpha   90.00000000
_cell_angle_beta   90.00000000
_cell_angle_gamma   90.04621958
_symmetry_Int_Tables_number   1
_chemical_formula_structural   Dy8Th4CoTc3
_chemical_formula_sum   'Dy8 Th4 Co1 Tc3'
_cell_volume   442.11495849
_cell_formula_units_Z   1
loop_
 _symmetry_equiv_pos_site_id
 _symmetry_equiv_pos_as_xyz
  1  'x, y, z'
loop_
 _atom_site_type_symbol
 _atom_site_label
 _atom_site_symmetry_multiplicity
 _atom_site_fract_x
 _atom_site_fract_y
 _atom_site_fract_z
 _atom_site_occupancy
  Dy  Dy0  1  0.672890  0.325021  0.932913  1
  Dy  Dy1  1  0.167245  0.178233  0.432361  1
  Dy  Dy2  1  0.833256  0.824006  0.565184  1
  Dy  Dy3  1  0.167245  0.178233  0.067639  1
  Dy  Dy4  1  0.833256  0.824006  0.934816  1
  Dy  Dy5  1  0.672890  0.325021  0.567087  1
  Dy  Dy6  1  0.334435  0.668750  0.068634  1
  Dy  Dy7  1  0.334435  0.668750  0.431366  1
  Th  Th8  1  0.147688  0.451199  0.750000  1
  Th  Th9  1  0.360077  0.951968  0.750000  1
  Th  Th10  1  0.841951  0.550706  0.250000  1
  Th  Th11  1  0.641459  0.055891  0.250000  1
  Co  Co12  1  0.472782  0.368594  0.250000  1
  Tc  Tc13  1  0.519910  0.626649  0.750000  1
  Tc  Tc14  1  0.984661  0.128158  0.750000  1
  Tc  Tc15  1  0.015822  0.874817  0.250000  1
