# generated using pymatgen
data_Ba3LuTiIrO9
_symmetry_space_group_name_H-M   'P 1'
_cell_length_a   5.92862000
_cell_length_b   5.92861954
_cell_length_c   14.67490900
_cell_angle_alpha   90.00000000
_cell_angle_beta   90.00000000
_cell_angle_gamma   120.00000256
_symmetry_Int_Tables_number   1
_chemical_formula_structural   Ba3LuTiIrO9
_chemical_formula_sum   'Ba6 Lu2 Ti2 Ir2 O18'
_cell_volume   446.69720314
_cell_formula_units_Z   2
loop_
 _symmetry_equiv_pos_site_id
 _symmetry_equiv_pos_as_xyz
  1  'x, y, z'
loop_
 _atom_site_type_symbol
 _atom_site_label
 _atom_site_symmetry_multiplicity
 _atom_site_fract_x
 _atom_site_fract_y
 _atom_site_fract_z
 _atom_site_occupancy
  Ba  Ba0  1  0.333333  0.666667  0.593355  1
  Ba  Ba1  1  0.666667  0.333333  0.396595  1
  Ba  Ba2  1  0.666667  0.333333  0.093355  1
  Ba  Ba3  1  0.333333  0.666667  0.896595  1
  Ba  Ba4  1  0.000000  0.000000  0.248840  1
  Ba  Ba5  1  0.000000  0.000000  0.748840  1
  Lu  Lu6  1  0.000000  0.000000  0.499202  1
  Lu  Lu7  1  0.000000  0.000000  0.999202  1
  Ti  Ti8  1  0.666667  0.333333  0.648775  1
  Ti  Ti9  1  0.333333  0.666667  0.148775  1
  Ir  Ir10  1  0.333333  0.666667  0.339284  1
  Ir  Ir11  1  0.666667  0.333333  0.839284  1
  O  O12  1  0.172474  0.827526  0.089135  1
  O  O13  1  0.172474  0.344947  0.089135  1
  O  O14  1  0.655053  0.827526  0.089135  1
  O  O15  1  0.826085  0.173915  0.916155  1
  O  O16  1  0.826085  0.652171  0.916155  1
  O  O17  1  0.347829  0.173915  0.916155  1
  O  O18  1  0.827526  0.172474  0.589135  1
  O  O19  1  0.827526  0.655053  0.589135  1
  O  O20  1  0.344947  0.172474  0.589135  1
  O  O21  1  0.173915  0.826085  0.416155  1
  O  O22  1  0.173915  0.347829  0.416155  1
  O  O23  1  0.652171  0.826085  0.416155  1
  O  O24  1  0.484077  0.515923  0.252694  1
  O  O25  1  0.484077  0.968154  0.252694  1
  O  O26  1  0.031846  0.515923  0.252694  1
  O  O27  1  0.515923  0.484077  0.752694  1
  O  O28  1  0.515923  0.031846  0.752694  1
  O  O29  1  0.968154  0.484077  0.752694  1
