# generated using pymatgen
data_Tb7Ho(AgIr)2
_symmetry_space_group_name_H-M   'P 1'
_cell_length_a   9.56786951
_cell_length_b   9.57203380
_cell_length_c   9.53966700
_cell_angle_alpha   60.11179612
_cell_angle_beta   60.09746235
_cell_angle_gamma   60.18920259
_symmetry_Int_Tables_number   1
_chemical_formula_structural   Tb7Ho(AgIr)2
_chemical_formula_sum   'Tb14 Ho2 Ag4 Ir4'
_cell_volume   619.64336276
_cell_formula_units_Z   2
loop_
 _symmetry_equiv_pos_site_id
 _symmetry_equiv_pos_as_xyz
  1  'x, y, z'
loop_
 _atom_site_type_symbol
 _atom_site_label
 _atom_site_symmetry_multiplicity
 _atom_site_fract_x
 _atom_site_fract_y
 _atom_site_fract_z
 _atom_site_occupancy
  Tb  Tb0  1  0.938393  0.561634  0.938706  1
  Tb  Tb1  1  0.312687  0.687251  0.312894  1
  Tb  Tb2  1  0.938393  0.561634  0.561266  1
  Tb  Tb3  1  0.312951  0.313026  0.687011  1
  Tb  Tb4  1  0.101852  0.101862  0.102124  1
  Tb  Tb5  1  0.560903  0.561289  0.938904  1
  Tb  Tb6  1  0.101852  0.101862  0.694161  1
  Tb  Tb7  1  0.687165  0.312897  0.686862  1
  Tb  Tb8  1  0.687199  0.686936  0.312933  1
  Tb  Tb9  1  0.687165  0.312897  0.313076  1
  Tb  Tb10  1  0.312687  0.687251  0.687168  1
  Tb  Tb11  1  0.561588  0.938216  0.561617  1
  Tb  Tb12  1  0.693838  0.102260  0.101951  1
  Tb  Tb13  1  0.561588  0.938216  0.938579  1
  Ho  Ho14  1  0.102022  0.694695  0.101642  1
  Ho  Ho15  1  0.938259  0.938214  0.561763  1
  Ag  Ag16  1  0.332088  0.332613  0.332020  1
  Ag  Ag17  1  0.003517  0.332477  0.332003  1
  Ag  Ag18  1  0.332162  0.003346  0.332246  1
  Ag  Ag19  1  0.332088  0.332613  0.003277  1
  Ir  Ir20  1  0.893539  0.892214  0.891917  1
  Ir  Ir21  1  0.893539  0.892214  0.322330  1
  Ir  Ir22  1  0.321370  0.892485  0.893073  1
  Ir  Ir23  1  0.893150  0.321898  0.892476  1
