# generated using pymatgen
data_Y(PaRh2)5
_symmetry_space_group_name_H-M   'P 1'
_cell_length_a   5.82464648
_cell_length_b   5.82464648
_cell_length_c   9.27641342
_cell_angle_alpha   87.05328765
_cell_angle_beta   87.05328909
_cell_angle_gamma   104.59217705
_symmetry_Int_Tables_number   1
_chemical_formula_structural   Y(PaRh2)5
_chemical_formula_sum   'Y1 Pa5 Rh10'
_cell_volume   303.48683097
_cell_formula_units_Z   1
loop_
 _symmetry_equiv_pos_site_id
 _symmetry_equiv_pos_as_xyz
  1  'x, y, z'
loop_
 _atom_site_type_symbol
 _atom_site_label
 _atom_site_symmetry_multiplicity
 _atom_site_fract_x
 _atom_site_fract_y
 _atom_site_fract_z
 _atom_site_occupancy
  Y  Y0  1  0.801385  0.198615  0.500000  1
  Pa  Pa1  1  0.611741  0.610274  0.728936  1
  Pa  Pa2  1  0.389726  0.388259  0.271064  1
  Pa  Pa3  1  0.210106  0.789894  0.000000  1
  Pa  Pa4  1  0.189515  0.810485  0.500000  1
  Pa  Pa5  1  0.790458  0.209542  0.000000  1
  Rh  Rh6  1  0.699156  0.702336  0.016734  1
  Rh  Rh7  1  0.693978  0.684600  0.436998  1
  Rh  Rh8  1  0.297664  0.300844  0.983266  1
  Rh  Rh9  1  0.315400  0.306022  0.563002  1
  Rh  Rh10  1  0.496710  0.032086  0.771252  1
  Rh  Rh11  1  0.491142  0.954509  0.240877  1
  Rh  Rh12  1  0.998122  0.998509  0.232298  1
  Rh  Rh13  1  0.001491  0.001878  0.767702  1
  Rh  Rh14  1  0.045491  0.508858  0.759123  1
  Rh  Rh15  1  0.967914  0.503290  0.228748  1
