# generated using pymatgen
data_LaZr(NbSe2)8
_symmetry_space_group_name_H-M   'P 1'
_cell_length_a   7.00672819
_cell_length_b   7.00480955
_cell_length_c   14.31481000
_cell_angle_alpha   90.00000000
_cell_angle_beta   89.98674467
_cell_angle_gamma   119.99100071
_symmetry_Int_Tables_number   1
_chemical_formula_structural   LaZr(NbSe2)8
_chemical_formula_sum   'La1 Zr1 Nb8 Se16'
_cell_volume   608.50924682
_cell_formula_units_Z   1
loop_
 _symmetry_equiv_pos_site_id
 _symmetry_equiv_pos_as_xyz
  1  'x, y, z'
loop_
 _atom_site_type_symbol
 _atom_site_label
 _atom_site_symmetry_multiplicity
 _atom_site_fract_x
 _atom_site_fract_y
 _atom_site_fract_z
 _atom_site_occupancy
  La  La0  1  0.000000  0.000000  0.000000  1
  Zr  Zr1  1  0.000000  0.000000  0.500000  1
  Nb  Nb2  1  0.986680  0.493341  0.263739  1
  Nb  Nb3  1  0.013320  0.506659  0.736261  1
  Nb  Nb4  1  0.493278  0.506190  0.736194  1
  Nb  Nb5  1  0.506722  0.012913  0.263806  1
  Nb  Nb6  1  0.000340  0.000170  0.736038  1
  Nb  Nb7  1  0.999660  0.999830  0.263962  1
  Nb  Nb8  1  0.506722  0.493810  0.263806  1
  Nb  Nb9  1  0.493278  0.987087  0.736194  1
  Se  Se10  1  0.333390  0.666696  0.616336  1
  Se  Se11  1  0.666675  0.333336  0.142339  1
  Se  Se12  1  0.666610  0.333304  0.383664  1
  Se  Se13  1  0.333325  0.666664  0.857661  1
  Se  Se14  1  0.170084  0.339962  0.380498  1
  Se  Se15  1  0.829903  0.169767  0.851762  1
  Se  Se16  1  0.339922  0.169960  0.851868  1
  Se  Se17  1  0.659687  0.829844  0.380673  1
  Se  Se18  1  0.170084  0.830122  0.380498  1
  Se  Se19  1  0.829903  0.660138  0.851762  1
  Se  Se20  1  0.170097  0.339862  0.148238  1
  Se  Se21  1  0.829916  0.169878  0.619502  1
  Se  Se22  1  0.340313  0.170156  0.619327  1
  Se  Se23  1  0.660078  0.830040  0.148132  1
  Se  Se24  1  0.170097  0.830233  0.148238  1
  Se  Se25  1  0.829916  0.660038  0.619502  1
