# generated using pymatgen
data_La9Nd7Mg4(OsPt)2
_symmetry_space_group_name_H-M   'P 1'
_cell_length_a   10.14611380
_cell_length_b   10.14611328
_cell_length_c   10.22374600
_cell_angle_alpha   59.74656686
_cell_angle_beta   59.74656856
_cell_angle_gamma   59.87919129
_symmetry_Int_Tables_number   1
_chemical_formula_structural   La9Nd7Mg4(OsPt)2
_chemical_formula_sum   'La9 Nd7 Mg4 Os2 Pt2'
_cell_volume   740.67072658
_cell_formula_units_Z   1
loop_
 _symmetry_equiv_pos_site_id
 _symmetry_equiv_pos_as_xyz
  1  'x, y, z'
loop_
 _atom_site_type_symbol
 _atom_site_label
 _atom_site_symmetry_multiplicity
 _atom_site_fract_x
 _atom_site_fract_y
 _atom_site_fract_z
 _atom_site_occupancy
  La  La0  1  0.345198  0.345198  0.351339  1
  La  La1  1  0.345198  0.345198  0.958265  1
  La  La2  1  0.341787  0.965878  0.346168  1
  La  La3  1  0.965878  0.341787  0.346168  1
  La  La4  1  0.816848  0.186945  0.190116  1
  La  La5  1  0.186945  0.816848  0.806091  1
  La  La6  1  0.186945  0.816848  0.190116  1
  La  La7  1  0.816848  0.186945  0.806091  1
  La  La8  1  0.187739  0.187739  0.812261  1
  Nd  Nd9  1  0.806813  0.806813  0.193187  1
  Nd  Nd10  1  0.934130  0.560695  0.567737  1
  Nd  Nd11  1  0.560695  0.934130  0.937438  1
  Nd  Nd12  1  0.560695  0.934130  0.567737  1
  Nd  Nd13  1  0.934130  0.560695  0.937438  1
  Nd  Nd14  1  0.565184  0.565184  0.934816  1
  Nd  Nd15  1  0.935432  0.935432  0.564568  1
  Mg  Mg16  1  0.579464  0.579464  0.578186  1
  Mg  Mg17  1  0.579464  0.579464  0.262887  1
  Mg  Mg18  1  0.579526  0.261633  0.579422  1
  Mg  Mg19  1  0.261633  0.579526  0.579422  1
  Os  Os20  1  0.142832  0.142832  0.135328  1
  Os  Os21  1  0.142832  0.142832  0.579009  1
  Pt  Pt22  1  0.146426  0.577359  0.138109  1
  Pt  Pt23  1  0.577359  0.146426  0.138109  1
