# generated using pymatgen
data_Nd8Dy(CdAu4)5
_symmetry_space_group_name_H-M   'P 1'
_cell_length_a   8.74447376
_cell_length_b   8.74447532
_cell_length_c   10.40889400
_cell_angle_alpha   89.93422874
_cell_angle_beta   89.93422218
_cell_angle_gamma   108.18939707
_symmetry_Int_Tables_number   1
_chemical_formula_structural   Nd8Dy(CdAu4)5
_chemical_formula_sum   'Nd8 Dy1 Cd5 Au20'
_cell_volume   756.15082998
_cell_formula_units_Z   1
loop_
 _symmetry_equiv_pos_site_id
 _symmetry_equiv_pos_as_xyz
  1  'x, y, z'
loop_
 _atom_site_type_symbol
 _atom_site_label
 _atom_site_symmetry_multiplicity
 _atom_site_fract_x
 _atom_site_fract_y
 _atom_site_fract_z
 _atom_site_occupancy
  Nd  Nd0  1  0.701165  0.298835  0.000000  1
  Nd  Nd1  1  0.200266  0.799734  0.500000  1
  Nd  Nd2  1  0.806712  0.806712  0.291129  1
  Nd  Nd3  1  0.298549  0.298549  0.199180  1
  Nd  Nd4  1  0.799734  0.200266  0.500000  1
  Nd  Nd5  1  0.298835  0.701165  0.000000  1
  Nd  Nd6  1  0.701451  0.701451  0.800820  1
  Nd  Nd7  1  0.193288  0.193288  0.708871  1
  Dy  Dy8  1  0.500000  0.500000  0.500000  1
  Cd  Cd9  1  0.520593  0.019837  0.249152  1
  Cd  Cd10  1  0.980163  0.479407  0.750848  1
  Cd  Cd11  1  0.000000  0.000000  0.000000  1
  Cd  Cd12  1  0.019837  0.520593  0.249152  1
  Cd  Cd13  1  0.479407  0.980163  0.750848  1
  Au  Au14  1  0.151375  0.430891  0.481484  1
  Au  Au15  1  0.901924  0.901924  0.593920  1
  Au  Au16  1  0.569109  0.848625  0.518516  1
  Au  Au17  1  0.887666  0.168183  0.209246  1
  Au  Au18  1  0.384759  0.665701  0.290033  1
  Au  Au19  1  0.665701  0.384759  0.290033  1
  Au  Au20  1  0.403016  0.403016  0.904705  1
  Au  Au21  1  0.931004  0.653761  0.018683  1
  Au  Au22  1  0.334299  0.615241  0.709967  1
  Au  Au23  1  0.346239  0.068996  0.981317  1
  Au  Au24  1  0.596984  0.596984  0.095295  1
  Au  Au25  1  0.653761  0.931004  0.018683  1
  Au  Au26  1  0.098076  0.098076  0.406080  1
  Au  Au27  1  0.615241  0.334299  0.709967  1
  Au  Au28  1  0.112334  0.831817  0.790754  1
  Au  Au29  1  0.068996  0.346239  0.981317  1
  Au  Au30  1  0.848625  0.569109  0.518516  1
  Au  Au31  1  0.168183  0.887666  0.209246  1
  Au  Au32  1  0.430891  0.151375  0.481484  1
  Au  Au33  1  0.831817  0.112334  0.790754  1
