# generated using pymatgen
data_Tb2CeSmCdRu
_symmetry_space_group_name_H-M   'P 1'
_cell_length_a   9.68883187
_cell_length_b   9.68883186
_cell_length_c   9.69353110
_cell_angle_alpha   59.99743925
_cell_angle_beta   59.99744149
_cell_angle_gamma   60.06085066
_symmetry_Int_Tables_number   1
_chemical_formula_structural   Tb2CeSmCdRu
_chemical_formula_sum   'Tb8 Ce4 Sm4 Cd4 Ru4'
_cell_volume   643.71311154
_cell_formula_units_Z   4
loop_
 _symmetry_equiv_pos_site_id
 _symmetry_equiv_pos_as_xyz
  1  'x, y, z'
loop_
 _atom_site_type_symbol
 _atom_site_label
 _atom_site_symmetry_multiplicity
 _atom_site_fract_x
 _atom_site_fract_y
 _atom_site_fract_z
 _atom_site_occupancy
  Tb  Tb0  1  0.561345  0.938785  0.560802  1
  Tb  Tb1  1  0.938785  0.561345  0.560802  1
  Tb  Tb2  1  0.189132  0.189132  0.810615  1
  Tb  Tb3  1  0.811345  0.189225  0.811129  1
  Tb  Tb4  1  0.189224  0.811346  0.811129  1
  Tb  Tb5  1  0.811087  0.811088  0.189728  1
  Tb  Tb6  1  0.188569  0.810924  0.189367  1
  Tb  Tb7  1  0.810924  0.188570  0.189368  1
  Ce  Ce8  1  0.345599  0.345599  0.963512  1
  Ce  Ce9  1  0.345662  0.963364  0.345669  1
  Ce  Ce10  1  0.963364  0.345662  0.345669  1
  Ce  Ce11  1  0.345092  0.345092  0.345411  1
  Sm  Sm12  1  0.561504  0.561504  0.938126  1
  Sm  Sm13  1  0.939229  0.560726  0.938499  1
  Sm  Sm14  1  0.560726  0.939229  0.938499  1
  Sm  Sm15  1  0.938608  0.938608  0.560765  1
  Cd  Cd16  1  0.580326  0.580326  0.258592  1
  Cd  Cd17  1  0.580226  0.258000  0.580368  1
  Cd  Cd18  1  0.258000  0.580226  0.580368  1
  Cd  Cd19  1  0.580821  0.580821  0.580079  1
  Ru  Ru20  1  0.145475  0.145475  0.565523  1
  Ru  Ru21  1  0.144713  0.565657  0.145741  1
  Ru  Ru22  1  0.565657  0.144713  0.145741  1
  Ru  Ru23  1  0.144583  0.144583  0.144494  1
