# generated using pymatgen
data_Pr12B3PBr12
_symmetry_space_group_name_H-M   'P 1'
_cell_length_a   10.29602020
_cell_length_b   10.29602037
_cell_length_c   10.29601999
_cell_angle_alpha   109.78376564
_cell_angle_beta   109.78376715
_cell_angle_gamma   109.78376085
_symmetry_Int_Tables_number   1
_chemical_formula_structural   Pr12B3PBr12
_chemical_formula_sum   'Pr12 B3 P1 Br12'
_cell_volume   830.34212225
_cell_formula_units_Z   1
loop_
 _symmetry_equiv_pos_site_id
 _symmetry_equiv_pos_as_xyz
  1  'x, y, z'
loop_
 _atom_site_type_symbol
 _atom_site_label
 _atom_site_symmetry_multiplicity
 _atom_site_fract_x
 _atom_site_fract_y
 _atom_site_fract_z
 _atom_site_occupancy
  Pr  Pr0  1  0.470806  0.494231  0.228304  1
  Pr  Pr1  1  0.750000  0.230681  0.269319  1
  Pr  Pr2  1  0.750000  0.016991  0.483009  1
  Pr  Pr3  1  0.228304  0.470806  0.494231  1
  Pr  Pr4  1  0.269319  0.750000  0.230681  1
  Pr  Pr5  1  0.029194  0.271696  0.005769  1
  Pr  Pr6  1  0.005769  0.029194  0.271696  1
  Pr  Pr7  1  0.483009  0.750000  0.016991  1
  Pr  Pr8  1  0.494231  0.228304  0.470806  1
  Pr  Pr9  1  0.016991  0.483009  0.750000  1
  Pr  Pr10  1  0.271696  0.005769  0.029194  1
  Pr  Pr11  1  0.230681  0.269319  0.750000  1
  B  B12  1  0.498367  0.001633  0.250000  1
  B  B13  1  0.001633  0.250000  0.498367  1
  B  B14  1  0.250000  0.498367  0.001633  1
  P  P15  1  0.250000  0.250000  0.250000  1
  Br  Br16  1  0.250000  0.757850  0.742150  1
  Br  Br17  1  0.512749  0.506433  0.756449  1
  Br  Br18  1  0.987251  0.743551  0.993567  1
  Br  Br19  1  0.742150  0.250000  0.757850  1
  Br  Br20  1  0.993567  0.987251  0.743551  1
  Br  Br21  1  0.250000  0.993593  0.506407  1
  Br  Br22  1  0.756449  0.512749  0.506433  1
  Br  Br23  1  0.506407  0.250000  0.993593  1
  Br  Br24  1  0.757850  0.742150  0.250000  1
  Br  Br25  1  0.743551  0.993567  0.987251  1
  Br  Br26  1  0.993593  0.506407  0.250000  1
  Br  Br27  1  0.506433  0.756449  0.512749  1
