# generated using pymatgen
data_VCl9
_symmetry_space_group_name_H-M   'P 1'
_cell_length_a   7.86825549
_cell_length_b   8.35368981
_cell_length_c   12.72901343
_cell_angle_alpha   94.59324885
_cell_angle_beta   110.62729819
_cell_angle_gamma   89.88950913
_symmetry_Int_Tables_number   1
_chemical_formula_structural   VCl9
_chemical_formula_sum   'V2 Cl18'
_cell_volume   780.20313025
_cell_formula_units_Z   2
loop_
 _symmetry_equiv_pos_site_id
 _symmetry_equiv_pos_as_xyz
  1  'x, y, z'
loop_
 _atom_site_type_symbol
 _atom_site_label
 _atom_site_symmetry_multiplicity
 _atom_site_fract_x
 _atom_site_fract_y
 _atom_site_fract_z
 _atom_site_occupancy
  V  V0  1  0.516873  0.772108  0.814157  1
  V  V1  1  0.483127  0.227892  0.185843  1
  Cl  Cl2  1  0.879027  0.757593  0.464531  1
  Cl  Cl3  1  0.120973  0.242407  0.535469  1
  Cl  Cl4  1  0.068848  0.655037  0.203578  1
  Cl  Cl5  1  0.931152  0.344963  0.796422  1
  Cl  Cl6  1  0.867913  0.788470  0.224232  1
  Cl  Cl7  1  0.132087  0.211530  0.775768  1
  Cl  Cl8  1  0.384029  0.672095  0.644183  1
  Cl  Cl9  1  0.615971  0.327905  0.355817  1
  Cl  Cl10  1  0.454400  0.022941  0.763033  1
  Cl  Cl11  1  0.545600  0.977059  0.236967  1
  Cl  Cl12  1  0.348682  0.798809  0.916304  1
  Cl  Cl13  1  0.651318  0.201191  0.083696  1
  Cl  Cl14  1  0.601280  0.532004  0.876400  1
  Cl  Cl15  1  0.398720  0.467996  0.123600  1
  Cl  Cl16  1  0.122667  0.247976  0.377919  1
  Cl  Cl17  1  0.877333  0.752024  0.622081  1
  Cl  Cl18  1  0.195925  0.153920  0.126314  1
  Cl  Cl19  1  0.804075  0.846080  0.873686  1
