# generated using pymatgen
data_Ce4Ho9Er3(CdIr)4
_symmetry_space_group_name_H-M   'P 1'
_cell_length_a   9.63201690
_cell_length_b   9.63145420
_cell_length_c   9.63442267
_cell_angle_alpha   59.99366911
_cell_angle_beta   60.07338297
_cell_angle_gamma   60.01844921
_symmetry_Int_Tables_number   1
_chemical_formula_structural   Ce4Ho9Er3(CdIr)4
_chemical_formula_sum   'Ce4 Ho9 Er3 Cd4 Ir4'
_cell_volume   632.41162743
_cell_formula_units_Z   1
loop_
 _symmetry_equiv_pos_site_id
 _symmetry_equiv_pos_as_xyz
  1  'x, y, z'
loop_
 _atom_site_type_symbol
 _atom_site_label
 _atom_site_symmetry_multiplicity
 _atom_site_fract_x
 _atom_site_fract_y
 _atom_site_fract_z
 _atom_site_occupancy
  Ce  Ce0  1  0.599643  0.599871  0.599893  1
  Ce  Ce1  1  0.599954  0.599763  0.200244  1
  Ce  Ce2  1  0.599893  0.200594  0.599643  1
  Ce  Ce3  1  0.200244  0.600039  0.599954  1
  Ho  Ho4  1  0.061659  0.438641  0.438277  1
  Ho  Ho5  1  0.438277  0.061423  0.061659  1
  Ho  Ho6  1  0.438302  0.061698  0.438302  1
  Ho  Ho7  1  0.061505  0.438495  0.061505  1
  Ho  Ho8  1  0.438209  0.438576  0.061713  1
  Ho  Ho9  1  0.061713  0.061502  0.438209  1
  Ho  Ho10  1  0.186801  0.813149  0.813487  1
  Ho  Ho11  1  0.813487  0.186563  0.186801  1
  Ho  Ho12  1  0.813123  0.186877  0.813123  1
  Er  Er13  1  0.187467  0.812533  0.187467  1
  Er  Er14  1  0.812621  0.812210  0.187676  1
  Er  Er15  1  0.187676  0.187493  0.812621  1
  Cd  Cd16  1  0.831780  0.832054  0.832211  1
  Cd  Cd17  1  0.832020  0.831870  0.503823  1
  Cd  Cd18  1  0.832211  0.503953  0.831780  1
  Cd  Cd19  1  0.503823  0.832285  0.832020  1
  Ir  Ir20  1  0.392911  0.393590  0.393413  1
  Ir  Ir21  1  0.393033  0.393085  0.820234  1
  Ir  Ir22  1  0.393413  0.820085  0.392911  1
  Ir  Ir23  1  0.820234  0.393647  0.393033  1
