# generated using pymatgen
data_Pr2B10Ru
_symmetry_space_group_name_H-M   'P 1'
_cell_length_a   4.22607600
_cell_length_b   5.77483300
_cell_length_c   11.50896500
_cell_angle_alpha   90.00000000
_cell_angle_beta   90.00000000
_cell_angle_gamma   90.00000000
_symmetry_Int_Tables_number   1
_chemical_formula_structural   Pr2B10Ru
_chemical_formula_sum   'Pr4 B20 Ru2'
_cell_volume   280.87494595
_cell_formula_units_Z   2
loop_
 _symmetry_equiv_pos_site_id
 _symmetry_equiv_pos_as_xyz
  1  'x, y, z'
loop_
 _atom_site_type_symbol
 _atom_site_label
 _atom_site_symmetry_multiplicity
 _atom_site_fract_x
 _atom_site_fract_y
 _atom_site_fract_z
 _atom_site_occupancy
  Pr  Pr0  1  0.500000  0.217314  0.368497  1
  Pr  Pr1  1  0.500000  0.782686  0.631503  1
  Pr  Pr2  1  0.500000  0.282686  0.868497  1
  Pr  Pr3  1  0.500000  0.717314  0.131503  1
  B  B4  1  0.000000  0.379737  0.042518  1
  B  B5  1  0.000000  0.620263  0.957482  1
  B  B6  1  0.000000  0.120263  0.542518  1
  B  B7  1  0.000000  0.879737  0.457482  1
  B  B8  1  0.000000  0.363313  0.197237  1
  B  B9  1  0.000000  0.636687  0.802763  1
  B  B10  1  0.000000  0.136687  0.697237  1
  B  B11  1  0.000000  0.863313  0.302763  1
  B  B12  1  0.000000  0.056519  0.192071  1
  B  B13  1  0.000000  0.943481  0.807929  1
  B  B14  1  0.000000  0.443481  0.692071  1
  B  B15  1  0.000000  0.556519  0.307929  1
  B  B16  1  0.299337  0.220034  0.117873  1
  B  B17  1  0.700663  0.779966  0.882127  1
  B  B18  1  0.299337  0.779966  0.882127  1
  B  B19  1  0.700663  0.279966  0.617873  1
  B  B20  1  0.700663  0.220034  0.117873  1
  B  B21  1  0.299337  0.720034  0.382127  1
  B  B22  1  0.700663  0.720034  0.382127  1
  B  B23  1  0.299337  0.279966  0.617873  1
  Ru  Ru24  1  0.000000  0.000000  0.000000  1
  Ru  Ru25  1  0.000000  0.500000  0.500000  1
