# generated using pymatgen
data_YbTmLu(BPt2)3
_symmetry_space_group_name_H-M   'P 1'
_cell_length_a   5.35431600
_cell_length_b   5.36137666
_cell_length_c   7.77353300
_cell_angle_alpha   90.00000000
_cell_angle_beta   90.00000000
_cell_angle_gamma   119.69982182
_symmetry_Int_Tables_number   1
_chemical_formula_structural   YbTmLu(BPt2)3
_chemical_formula_sum   'Yb1 Tm1 Lu1 B3 Pt6'
_cell_volume   193.83630264
_cell_formula_units_Z   1
loop_
 _symmetry_equiv_pos_site_id
 _symmetry_equiv_pos_as_xyz
  1  'x, y, z'
loop_
 _atom_site_type_symbol
 _atom_site_label
 _atom_site_symmetry_multiplicity
 _atom_site_fract_x
 _atom_site_fract_y
 _atom_site_fract_z
 _atom_site_occupancy
  Yb  Yb0  1  0.500000  0.500000  0.833121  1
  Tm  Tm1  1  0.000000  0.500000  0.164184  1
  Lu  Lu2  1  0.500000  0.000000  0.502659  1
  B  B3  1  0.500000  0.500000  0.333497  1
  B  B4  1  0.500000  0.000000  0.998516  1
  B  B5  1  0.000000  0.500000  0.668037  1
  Pt  Pt6  1  0.149332  0.851816  0.832743  1
  Pt  Pt7  1  0.146154  0.299633  0.498314  1
  Pt  Pt8  1  0.699309  0.853725  0.168936  1
  Pt  Pt9  1  0.850668  0.148184  0.832743  1
  Pt  Pt10  1  0.853846  0.700367  0.498314  1
  Pt  Pt11  1  0.300691  0.146275  0.168936  1
