# generated using pymatgen
data_Sr2Ti3P7Pd9
_symmetry_space_group_name_H-M   'P 1'
_cell_length_a   9.94197100
_cell_length_b   9.94197086
_cell_length_c   3.97029400
_cell_angle_alpha   90.00000000
_cell_angle_beta   90.00000000
_cell_angle_gamma   120.00000379
_symmetry_Int_Tables_number   1
_chemical_formula_structural   Sr2Ti3P7Pd9
_chemical_formula_sum   'Sr2 Ti3 P7 Pd9'
_cell_volume   339.85859717
_cell_formula_units_Z   1
loop_
 _symmetry_equiv_pos_site_id
 _symmetry_equiv_pos_as_xyz
  1  'x, y, z'
loop_
 _atom_site_type_symbol
 _atom_site_label
 _atom_site_symmetry_multiplicity
 _atom_site_fract_x
 _atom_site_fract_y
 _atom_site_fract_z
 _atom_site_occupancy
  Sr  Sr0  1  0.000000  0.000000  0.763588  1
  Sr  Sr1  1  0.333333  0.666667  0.263503  1
  Ti  Ti2  1  0.791379  0.553853  0.764095  1
  Ti  Ti3  1  0.446147  0.237526  0.764095  1
  Ti  Ti4  1  0.762474  0.208621  0.764095  1
  P  P5  1  0.666667  0.333333  0.265588  1
  P  P6  1  0.065756  0.624686  0.763717  1
  P  P7  1  0.375314  0.441069  0.763717  1
  P  P8  1  0.558931  0.934244  0.763717  1
  P  P9  1  0.262510  0.042510  0.263629  1
  P  P10  1  0.957490  0.220000  0.263629  1
  P  P11  1  0.780000  0.737490  0.263629  1
  Pd  Pd12  1  0.513570  0.058447  0.263769  1
  Pd  Pd13  1  0.941553  0.455122  0.263769  1
  Pd  Pd14  1  0.544878  0.486430  0.263769  1
  Pd  Pd15  1  0.100074  0.379864  0.763586  1
  Pd  Pd16  1  0.620136  0.720210  0.763586  1
  Pd  Pd17  1  0.279790  0.899926  0.763586  1
  Pd  Pd18  1  0.230276  0.266228  0.263623  1
  Pd  Pd19  1  0.733772  0.964048  0.263623  1
  Pd  Pd20  1  0.035952  0.769724  0.263623  1
