# generated using pymatgen
data_Ca10Si5AsF
_symmetry_space_group_name_H-M   'P 1'
_cell_length_a   9.08096883
_cell_length_b   9.08096856
_cell_length_c   9.08096797
_cell_angle_alpha   130.03127396
_cell_angle_beta   130.42021580
_cell_angle_gamma   73.04657349
_symmetry_Int_Tables_number   1
_chemical_formula_structural   Ca10Si5AsF
_chemical_formula_sum   'Ca10 Si5 As1 F1'
_cell_volume   426.29971235
_cell_formula_units_Z   1
loop_
 _symmetry_equiv_pos_site_id
 _symmetry_equiv_pos_as_xyz
  1  'x, y, z'
loop_
 _atom_site_type_symbol
 _atom_site_label
 _atom_site_symmetry_multiplicity
 _atom_site_fract_x
 _atom_site_fract_y
 _atom_site_fract_z
 _atom_site_occupancy
  Ca  Ca0  1  0.770122  0.433716  0.996306  1
  Ca  Ca1  1  0.437410  0.773817  0.003694  1
  Ca  Ca2  1  0.931732  0.934382  0.645139  1
  Ca  Ca3  1  0.289242  0.286592  0.354861  1
  Ca  Ca4  1  0.710758  0.065618  0.997350  1
  Ca  Ca5  1  0.068268  0.713408  0.002650  1
  Ca  Ca6  1  0.562590  0.566284  0.336406  1
  Ca  Ca7  1  0.229877  0.226183  0.663594  1
  Ca  Ca8  1  0.251660  0.751660  0.500000  1
  Ca  Ca9  1  0.748340  0.248340  0.500000  1
  Si  Si10  1  0.500000  0.000000  0.500000  1
  Si  Si11  1  0.133325  0.361957  0.999855  1
  Si  Si12  1  0.362102  0.133471  0.000145  1
  Si  Si13  1  0.866675  0.866529  0.228631  1
  Si  Si14  1  0.637898  0.638043  0.771369  1
  As  As15  1  0.000000  0.500000  0.500000  1
  F  F16  1  0.500000  0.500000  0.000000  1
