# generated using pymatgen
data_LaCl37
_symmetry_space_group_name_H-M   'P 1'
_cell_length_a   12.78763379
_cell_length_b   13.76759013
_cell_length_c   12.98174600
_cell_angle_alpha   103.00376751
_cell_angle_beta   48.80056927
_cell_angle_gamma   81.50743368
_symmetry_Int_Tables_number   1
_chemical_formula_structural   LaCl37
_chemical_formula_sum   'La1 Cl37'
_cell_volume   1533.02354663
_cell_formula_units_Z   1
loop_
 _symmetry_equiv_pos_site_id
 _symmetry_equiv_pos_as_xyz
  1  'x, y, z'
loop_
 _atom_site_type_symbol
 _atom_site_label
 _atom_site_symmetry_multiplicity
 _atom_site_fract_x
 _atom_site_fract_y
 _atom_site_fract_z
 _atom_site_occupancy
  La  La0  1  0.500000  0.000000  0.000000  1
  Cl  Cl1  1  0.776523  0.308889  0.156183  1
  Cl  Cl2  1  0.223477  0.691111  0.843817  1
  Cl  Cl3  1  0.723243  0.078808  0.364620  1
  Cl  Cl4  1  0.276757  0.921192  0.635380  1
  Cl  Cl5  1  0.109574  0.334903  0.154899  1
  Cl  Cl6  1  0.890426  0.665097  0.845101  1
  Cl  Cl7  1  0.863928  0.533690  0.247712  1
  Cl  Cl8  1  0.136072  0.466310  0.752288  1
  Cl  Cl9  1  0.684175  0.283393  0.531069  1
  Cl  Cl10  1  0.315825  0.716607  0.468931  1
  Cl  Cl11  1  0.043497  0.132284  0.488099  1
  Cl  Cl12  1  0.956503  0.867716  0.511901  1
  Cl  Cl13  1  0.987928  0.004195  0.279913  1
  Cl  Cl14  1  0.012072  0.995805  0.720087  1
  Cl  Cl15  1  0.947162  0.354284  0.619627  1
  Cl  Cl16  1  0.052838  0.645716  0.380373  1
  Cl  Cl17  1  0.586094  0.421129  0.238164  1
  Cl  Cl18  1  0.413906  0.578871  0.761836  1
  Cl  Cl19  1  0.172483  0.480540  0.278293  1
  Cl  Cl20  1  0.827517  0.519460  0.721707  1
  Cl  Cl21  1  0.000000  0.500000  0.000000  1
  Cl  Cl22  1  0.561831  0.957660  0.160697  1
  Cl  Cl23  1  0.438169  0.042340  0.839303  1
  Cl  Cl24  1  0.287600  0.046731  0.335376  1
  Cl  Cl25  1  0.712400  0.953269  0.664624  1
  Cl  Cl26  1  0.529229  0.126810  0.413453  1
  Cl  Cl27  1  0.470771  0.873190  0.586547  1
  Cl  Cl28  1  0.079069  0.214482  0.067252  1
  Cl  Cl29  1  0.920931  0.785518  0.932748  1
  Cl  Cl30  1  0.675459  0.684852  0.392148  1
  Cl  Cl31  1  0.324541  0.315148  0.607852  1
  Cl  Cl32  1  0.904223  0.134708  0.908483  1
  Cl  Cl33  1  0.095777  0.865292  0.091517  1
  Cl  Cl34  1  0.446538  0.208621  0.106416  1
  Cl  Cl35  1  0.553462  0.791379  0.893584  1
  Cl  Cl36  1  0.664281  0.423017  0.646183  1
  Cl  Cl37  1  0.335719  0.576983  0.353817  1
