# generated using pymatgen
data_NbFe3GeMo
_symmetry_space_group_name_H-M   'P 1'
_cell_length_a   4.83559910
_cell_length_b   4.83807867
_cell_length_c   7.96429701
_cell_angle_alpha   90.00014948
_cell_angle_beta   89.99413391
_cell_angle_gamma   120.03019956
_symmetry_Int_Tables_number   1
_chemical_formula_structural   NbFe3GeMo
_chemical_formula_sum   'Nb2 Fe6 Ge2 Mo2'
_cell_volume   161.31288157
_cell_formula_units_Z   2
loop_
 _symmetry_equiv_pos_site_id
 _symmetry_equiv_pos_as_xyz
  1  'x, y, z'
loop_
 _atom_site_type_symbol
 _atom_site_label
 _atom_site_symmetry_multiplicity
 _atom_site_fract_x
 _atom_site_fract_y
 _atom_site_fract_z
 _atom_site_occupancy
  Nb  Nb0  1  0.666653  0.333328  0.576178  1
  Nb  Nb1  1  0.333347  0.666672  0.423822  1
  Fe  Fe2  1  0.173270  0.346532  0.750798  1
  Fe  Fe3  1  0.173284  0.826738  0.750802  1
  Fe  Fe4  1  0.653559  0.826790  0.750814  1
  Fe  Fe5  1  0.826730  0.653468  0.249202  1
  Fe  Fe6  1  0.826716  0.173262  0.249198  1
  Fe  Fe7  1  0.346441  0.173210  0.249186  1
  Ge  Ge8  1  0.000000  0.000000  0.500000  1
  Ge  Ge9  1  0.000000  0.000000  0.000000  1
  Mo  Mo10  1  0.333383  0.666687  0.056177  1
  Mo  Mo11  1  0.666617  0.333313  0.943823  1
