# generated using pymatgen
data_NdTm(AlZn)2
_symmetry_space_group_name_H-M   'P 1'
_cell_length_a   4.51622100
_cell_length_b   4.51622028
_cell_length_c   7.29125300
_cell_angle_alpha   90.00000000
_cell_angle_beta   90.00000000
_cell_angle_gamma   120.00001257
_symmetry_Int_Tables_number   1
_chemical_formula_structural   NdTm(AlZn)2
_chemical_formula_sum   'Nd1 Tm1 Al2 Zn2'
_cell_volume   128.79026823
_cell_formula_units_Z   1
loop_
 _symmetry_equiv_pos_site_id
 _symmetry_equiv_pos_as_xyz
  1  'x, y, z'
loop_
 _atom_site_type_symbol
 _atom_site_label
 _atom_site_symmetry_multiplicity
 _atom_site_fract_x
 _atom_site_fract_y
 _atom_site_fract_z
 _atom_site_occupancy
  Nd  Nd0  1  0.000000  0.000000  0.500000  1
  Tm  Tm1  1  0.000000  0.000000  0.000000  1
  Al  Al2  1  0.333333  0.666667  0.224664  1
  Al  Al3  1  0.666667  0.333333  0.775336  1
  Zn  Zn4  1  0.333333  0.666667  0.779136  1
  Zn  Zn5  1  0.666667  0.333333  0.220864  1
