# generated using pymatgen
data_Ba5PN4O
_symmetry_space_group_name_H-M   'P 1'
_cell_length_a   7.85773926
_cell_length_b   7.85773933
_cell_length_c   9.32803302
_cell_angle_alpha   75.87473924
_cell_angle_beta   75.87473983
_cell_angle_gamma   94.63898398
_symmetry_Int_Tables_number   1
_chemical_formula_structural   Ba5PN4O
_chemical_formula_sum   'Ba10 P2 N8 O2'
_cell_volume   535.57585504
_cell_formula_units_Z   2
loop_
 _symmetry_equiv_pos_site_id
 _symmetry_equiv_pos_as_xyz
  1  'x, y, z'
loop_
 _atom_site_type_symbol
 _atom_site_label
 _atom_site_symmetry_multiplicity
 _atom_site_fract_x
 _atom_site_fract_y
 _atom_site_fract_z
 _atom_site_occupancy
  Ba  Ba0  1  0.392744  0.392744  0.369933  1
  Ba  Ba1  1  0.607256  0.607256  0.630067  1
  Ba  Ba2  1  0.671758  0.671758  0.002118  1
  Ba  Ba3  1  0.328242  0.328242  0.997882  1
  Ba  Ba4  1  0.927960  0.927960  0.203847  1
  Ba  Ba5  1  0.072040  0.072040  0.796153  1
  Ba  Ba6  1  0.565031  0.088231  0.759968  1
  Ba  Ba7  1  0.911769  0.434969  0.240032  1
  Ba  Ba8  1  0.434969  0.911769  0.240032  1
  Ba  Ba9  1  0.088231  0.565031  0.759968  1
  P  P10  1  0.756207  0.243793  0.000000  1
  P  P11  1  0.243793  0.756207  0.000000  1
  N  N12  1  0.721847  0.032066  0.992261  1
  N  N13  1  0.967934  0.278153  0.007739  1
  N  N14  1  0.278153  0.967934  0.007739  1
  N  N15  1  0.032066  0.721847  0.992261  1
  N  N16  1  0.385426  0.725525  0.843027  1
  N  N17  1  0.274475  0.614574  0.156972  1
  N  N18  1  0.614574  0.274475  0.156972  1
  N  N19  1  0.725525  0.385426  0.843027  1
  O  O20  1  0.647940  0.647940  0.320443  1
  O  O21  1  0.352060  0.352060  0.679557  1
