# generated using pymatgen
data_Zr2Sc(SnRh)3
_symmetry_space_group_name_H-M   'P 1'
_cell_length_a   7.45581200
_cell_length_b   7.49980780
_cell_length_c   7.17217200
_cell_angle_alpha   90.00000000
_cell_angle_beta   90.00000000
_cell_angle_gamma   119.80613477
_symmetry_Int_Tables_number   1
_chemical_formula_structural   Zr2Sc(SnRh)3
_chemical_formula_sum   'Zr4 Sc2 Sn6 Rh6'
_cell_volume   347.99379517
_cell_formula_units_Z   2
loop_
 _symmetry_equiv_pos_site_id
 _symmetry_equiv_pos_as_xyz
  1  'x, y, z'
loop_
 _atom_site_type_symbol
 _atom_site_label
 _atom_site_symmetry_multiplicity
 _atom_site_fract_x
 _atom_site_fract_y
 _atom_site_fract_z
 _atom_site_occupancy
  Zr  Zr0  1  0.390915  0.399807  0.750000  1
  Zr  Zr1  1  0.008036  0.607742  0.750000  1
  Zr  Zr2  1  0.400293  0.392258  0.250000  1
  Zr  Zr3  1  0.991108  0.600193  0.250000  1
  Sc  Sc4  1  0.602390  0.994036  0.750000  1
  Sc  Sc5  1  0.608354  0.005964  0.250000  1
  Sn  Sn6  1  0.275507  0.000000  0.000000  1
  Sn  Sn7  1  0.728815  0.732736  0.500432  1
  Sn  Sn8  1  0.996079  0.267264  0.499568  1
  Sn  Sn9  1  0.996079  0.267264  0.000432  1
  Sn  Sn10  1  0.728815  0.732736  0.999568  1
  Sn  Sn11  1  0.275507  0.000000  0.500000  1
  Rh  Rh12  1  0.667207  0.339825  0.982783  1
  Rh  Rh13  1  0.667207  0.339825  0.517217  1
  Rh  Rh14  1  0.327380  0.660175  0.017217  1
  Rh  Rh15  1  0.327380  0.660175  0.482783  1
  Rh  Rh16  1  0.004696  0.000466  0.750000  1
  Rh  Rh17  1  0.004231  0.999534  0.250000  1
