# generated using pymatgen
data_HoPa3(GePt)4
_symmetry_space_group_name_H-M   'P 1'
_cell_length_a   4.40652200
_cell_length_b   7.03424622
_cell_length_c   7.66347123
_cell_angle_alpha   89.97160029
_cell_angle_beta   90.00000000
_cell_angle_gamma   90.00000000
_symmetry_Int_Tables_number   1
_chemical_formula_structural   HoPa3(GePt)4
_chemical_formula_sum   'Ho1 Pa3 Ge4 Pt4'
_cell_volume   237.54122217
_cell_formula_units_Z   1
loop_
 _symmetry_equiv_pos_site_id
 _symmetry_equiv_pos_as_xyz
  1  'x, y, z'
loop_
 _atom_site_type_symbol
 _atom_site_label
 _atom_site_symmetry_multiplicity
 _atom_site_fract_x
 _atom_site_fract_y
 _atom_site_fract_z
 _atom_site_occupancy
  Ho  Ho0  1  0.750000  0.003259  0.202665  1
  Pa  Pa1  1  0.250000  0.494119  0.705137  1
  Pa  Pa2  1  0.250000  0.995860  0.794171  1
  Pa  Pa3  1  0.750000  0.503050  0.296885  1
  Ge  Ge4  1  0.250000  0.804109  0.408836  1
  Ge  Ge5  1  0.250000  0.307423  0.091949  1
  Ge  Ge6  1  0.750000  0.193405  0.587953  1
  Ge  Ge7  1  0.750000  0.693191  0.912083  1
  Pt  Pt8  1  0.250000  0.209457  0.417933  1
  Pt  Pt9  1  0.250000  0.714128  0.082662  1
  Pt  Pt10  1  0.750000  0.789071  0.583112  1
  Pt  Pt11  1  0.750000  0.292928  0.916614  1
