# generated using pymatgen
data_Ca2YbCd3Si2Pb
_symmetry_space_group_name_H-M   'P 1'
_cell_length_a   7.41012405
_cell_length_b   7.39846829
_cell_length_c   4.64594700
_cell_angle_alpha   90.00000000
_cell_angle_beta   90.00000000
_cell_angle_gamma   119.94798609
_symmetry_Int_Tables_number   1
_chemical_formula_structural   Ca2YbCd3Si2Pb
_chemical_formula_sum   'Ca2 Yb1 Cd3 Si2 Pb1'
_cell_volume   220.69859344
_cell_formula_units_Z   1
loop_
 _symmetry_equiv_pos_site_id
 _symmetry_equiv_pos_as_xyz
  1  'x, y, z'
loop_
 _atom_site_type_symbol
 _atom_site_label
 _atom_site_symmetry_multiplicity
 _atom_site_fract_x
 _atom_site_fract_y
 _atom_site_fract_z
 _atom_site_occupancy
  Ca  Ca0  1  0.432870  0.432855  0.500000  1
  Ca  Ca1  1  0.567130  0.999984  0.500000  1
  Yb  Yb2  1  0.000000  0.567282  0.500000  1
  Cd  Cd3  1  0.729040  0.728603  0.000000  1
  Cd  Cd4  1  0.270960  0.999564  0.000000  1
  Cd  Cd5  1  0.000000  0.272091  0.000000  1
  Si  Si6  1  0.667007  0.333629  0.000000  1
  Si  Si7  1  0.332993  0.666623  0.000000  1
  Pb  Pb8  1  0.000000  0.999368  0.500000  1
