# generated using pymatgen
data_Y4ErRu2
_symmetry_space_group_name_H-M   'P 1'
_cell_length_a   6.36323101
_cell_length_b   7.29229602
_cell_length_c   8.50600094
_cell_angle_alpha   96.69253992
_cell_angle_beta   111.96521036
_cell_angle_gamma   90.00000245
_symmetry_Int_Tables_number   1
_chemical_formula_structural   Y4ErRu2
_chemical_formula_sum   'Y8 Er2 Ru4'
_cell_volume   363.14772664
_cell_formula_units_Z   2
loop_
 _symmetry_equiv_pos_site_id
 _symmetry_equiv_pos_as_xyz
  1  'x, y, z'
loop_
 _atom_site_type_symbol
 _atom_site_label
 _atom_site_symmetry_multiplicity
 _atom_site_fract_x
 _atom_site_fract_y
 _atom_site_fract_z
 _atom_site_occupancy
  Y  Y0  1  0.792139  0.584383  0.814260  1
  Y  Y1  1  0.977879  0.915617  0.185740  1
  Y  Y2  1  0.207861  0.415617  0.185740  1
  Y  Y3  1  0.022121  0.084383  0.814260  1
  Y  Y4  1  0.206605  0.684917  0.566619  1
  Y  Y5  1  0.639985  0.815083  0.433381  1
  Y  Y6  1  0.793395  0.315083  0.433381  1
  Y  Y7  1  0.360015  0.184917  0.566619  1
  Er  Er8  1  0.421827  0.750000  0.000000  1
  Er  Er9  1  0.578173  0.250000  0.000000  1
  Ru  Ru10  1  0.602873  0.924718  0.781521  1
  Ru  Ru11  1  0.821351  0.575282  0.218479  1
  Ru  Ru12  1  0.397127  0.075282  0.218479  1
  Ru  Ru13  1  0.178649  0.424718  0.781521  1
