# generated using pymatgen
data_Ca3PrRu2(RhO7)2
_symmetry_space_group_name_H-M   'P 1'
_cell_length_a   7.27316418
_cell_length_b   7.33300973
_cell_length_c   7.29873821
_cell_angle_alpha   60.42110217
_cell_angle_beta   60.11584099
_cell_angle_gamma   60.26959827
_symmetry_Int_Tables_number   1
_chemical_formula_structural   Ca3PrRu2(RhO7)2
_chemical_formula_sum   'Ca3 Pr1 Ru2 Rh2 O14'
_cell_volume   276.92808991
_cell_formula_units_Z   1
loop_
 _symmetry_equiv_pos_site_id
 _symmetry_equiv_pos_as_xyz
  1  'x, y, z'
loop_
 _atom_site_type_symbol
 _atom_site_label
 _atom_site_symmetry_multiplicity
 _atom_site_fract_x
 _atom_site_fract_y
 _atom_site_fract_z
 _atom_site_occupancy
  Ca  Ca0  1  0.625000  0.625000  0.125000  1
  Ca  Ca1  1  0.125000  0.625000  0.625000  1
  Ca  Ca2  1  0.625000  0.625000  0.625000  1
  Pr  Pr3  1  0.625000  0.125000  0.625000  1
  Ru  Ru4  1  0.125000  0.625000  0.125000  1
  Ru  Ru5  1  0.125000  0.125000  0.625000  1
  Rh  Rh6  1  0.625000  0.125000  0.125000  1
  Rh  Rh7  1  0.125000  0.125000  0.125000  1
  O  O8  1  0.195702  0.203743  0.797220  1
  O  O9  1  0.190569  0.801253  0.199844  1
  O  O10  1  0.455710  0.041537  0.047043  1
  O  O11  1  0.186417  0.814525  0.812642  1
  O  O12  1  0.063583  0.435475  0.437358  1
  O  O13  1  0.808336  0.801253  0.199844  1
  O  O14  1  0.441664  0.448747  0.050156  1
  O  O15  1  0.496765  0.506678  0.499794  1
  O  O16  1  0.054298  0.046257  0.452780  1
  O  O17  1  0.446664  0.046257  0.452780  1
  O  O18  1  0.059431  0.448747  0.050156  1
  O  O19  1  0.753235  0.743322  0.750206  1
  O  O20  1  0.803336  0.203743  0.797220  1
  O  O21  1  0.794290  0.208463  0.202957  1
