# generated using pymatgen
data_Nd8UPd23Pt
_symmetry_space_group_name_H-M   'P 1'
_cell_length_a   8.50958400
_cell_length_b   8.51833500
_cell_length_c   8.51833500
_cell_angle_alpha   90.00000000
_cell_angle_beta   90.00000000
_cell_angle_gamma   90.00000000
_symmetry_Int_Tables_number   1
_chemical_formula_structural   Nd8UPd23Pt
_chemical_formula_sum   'Nd8 U1 Pd23 Pt1'
_cell_volume   617.47269947
_cell_formula_units_Z   1
loop_
 _symmetry_equiv_pos_site_id
 _symmetry_equiv_pos_as_xyz
  1  'x, y, z'
loop_
 _atom_site_type_symbol
 _atom_site_label
 _atom_site_symmetry_multiplicity
 _atom_site_fract_x
 _atom_site_fract_y
 _atom_site_fract_z
 _atom_site_occupancy
  Nd  Nd0  1  0.253641  0.252380  0.252380  1
  Nd  Nd1  1  0.746402  0.745557  0.745557  1
  Nd  Nd2  1  0.746402  0.745557  0.254443  1
  Nd  Nd3  1  0.746402  0.254443  0.745557  1
  Nd  Nd4  1  0.253641  0.252380  0.747620  1
  Nd  Nd5  1  0.253641  0.747620  0.252380  1
  Nd  Nd6  1  0.253641  0.747620  0.747620  1
  Nd  Nd7  1  0.746402  0.254443  0.254443  1
  U  U8  1  0.001336  0.000000  0.000000  1
  Pd  Pd9  1  0.266510  0.500000  0.000000  1
  Pd  Pd10  1  0.732105  0.500000  0.000000  1
  Pd  Pd11  1  0.000544  0.267250  0.500000  1
  Pd  Pd12  1  0.500986  0.267237  0.000000  1
  Pd  Pd13  1  0.000544  0.732750  0.500000  1
  Pd  Pd14  1  0.500986  0.732763  0.000000  1
  Pd  Pd15  1  0.500986  0.000000  0.267237  1
  Pd  Pd16  1  0.266510  0.000000  0.500000  1
  Pd  Pd17  1  0.500986  0.000000  0.732763  1
  Pd  Pd18  1  0.732105  0.000000  0.500000  1
  Pd  Pd19  1  0.000544  0.500000  0.267250  1
  Pd  Pd20  1  0.000544  0.500000  0.732750  1
  Pd  Pd21  1  0.254493  0.500000  0.500000  1
  Pd  Pd22  1  0.745989  0.500000  0.500000  1
  Pd  Pd23  1  0.499435  0.254159  0.500000  1
  Pd  Pd24  1  0.499435  0.745841  0.500000  1
  Pd  Pd25  1  0.499435  0.500000  0.254159  1
  Pd  Pd26  1  0.499435  0.500000  0.745841  1
  Pd  Pd27  1  0.688494  0.000000  0.000000  1
  Pd  Pd28  1  0.998525  0.314411  0.000000  1
  Pd  Pd29  1  0.998525  0.685589  0.000000  1
  Pd  Pd30  1  0.998525  0.000000  0.314411  1
  Pd  Pd31  1  0.998525  0.000000  0.685589  1
  Pt  Pt32  1  0.314330  0.000000  0.000000  1
