# generated using pymatgen
data_ZnCoSb4(Br2O3)2
_symmetry_space_group_name_H-M   'P 1'
_cell_length_a   8.74831232
_cell_length_b   9.77643206
_cell_length_c   9.94872003
_cell_angle_alpha   64.50218953
_cell_angle_beta   81.34767609
_cell_angle_gamma   87.35529099
_symmetry_Int_Tables_number   1
_chemical_formula_structural   ZnCoSb4(Br2O3)2
_chemical_formula_sum   'Zn2 Co2 Sb8 Br8 O12'
_cell_volume   759.10635063
_cell_formula_units_Z   2
loop_
 _symmetry_equiv_pos_site_id
 _symmetry_equiv_pos_as_xyz
  1  'x, y, z'
loop_
 _atom_site_type_symbol
 _atom_site_label
 _atom_site_symmetry_multiplicity
 _atom_site_fract_x
 _atom_site_fract_y
 _atom_site_fract_z
 _atom_site_occupancy
  Zn  Zn0  1  0.497958  0.639961  0.104628  1
  Zn  Zn1  1  0.502032  0.860046  0.395379  1
  Co  Co2  1  0.508441  0.142763  0.601308  1
  Co  Co3  1  0.491574  0.357246  0.898673  1
  Sb  Sb4  1  0.683910  0.010505  0.931922  1
  Sb  Sb5  1  0.681322  0.513410  0.430208  1
  Sb  Sb6  1  0.318677  0.986603  0.069796  1
  Sb  Sb7  1  0.316083  0.489488  0.568085  1
  Sb  Sb8  1  0.684954  0.790345  0.721409  1
  Sb  Sb9  1  0.683961  0.294616  0.217300  1
  Sb  Sb10  1  0.316056  0.205400  0.282701  1
  Sb  Sb11  1  0.315058  0.709656  0.778597  1
  Br  Br12  1  0.772240  0.930336  0.287651  1
  Br  Br13  1  0.765564  0.427010  0.788697  1
  Br  Br14  1  0.234424  0.073031  0.711200  1
  Br  Br15  1  0.227771  0.569609  0.212406  1
  Br  Br16  1  0.854309  0.239855  0.463841  1
  Br  Br17  1  0.861686  0.739742  0.961550  1
  Br  Br18  1  0.138319  0.760258  0.538470  1
  Br  Br19  1  0.145673  0.260106  0.036155  1
  O  O20  1  0.481541  0.644742  0.424137  1
  O  O21  1  0.483274  0.142309  0.926568  1
  O  O22  1  0.516721  0.357697  0.573426  1
  O  O23  1  0.518451  0.855261  0.075877  1
  O  O24  1  0.375410  0.012933  0.251382  1
  O  O25  1  0.373626  0.516130  0.748043  1
  O  O26  1  0.626356  0.983869  0.751968  1
  O  O27  1  0.624576  0.487071  0.248628  1
  O  O28  1  0.516704  0.171331  0.389133  1
  O  O29  1  0.515223  0.667636  0.890189  1
  O  O30  1  0.484790  0.832364  0.609816  1
  O  O31  1  0.483311  0.328671  0.110853  1
