# generated using pymatgen
data_Pr11In9Pd4
_symmetry_space_group_name_H-M   'P 1'
_cell_length_a   13.58210921
_cell_length_b   13.58216946
_cell_length_c   3.85481400
_cell_angle_alpha   90.00000000
_cell_angle_beta   90.00000000
_cell_angle_gamma   111.16389226
_symmetry_Int_Tables_number   1
_chemical_formula_structural   Pr11In9Pd4
_chemical_formula_sum   'Pr11 In9 Pd4'
_cell_volume   663.15129339
_cell_formula_units_Z   1
loop_
 _symmetry_equiv_pos_site_id
 _symmetry_equiv_pos_as_xyz
  1  'x, y, z'
loop_
 _atom_site_type_symbol
 _atom_site_label
 _atom_site_symmetry_multiplicity
 _atom_site_fract_x
 _atom_site_fract_y
 _atom_site_fract_z
 _atom_site_occupancy
  Pr  Pr0  1  0.417651  0.069837  0.000000  1
  Pr  Pr1  1  0.582349  0.930163  0.000000  1
  Pr  Pr2  1  0.069838  0.417649  0.000000  1
  Pr  Pr3  1  0.930162  0.582351  0.000000  1
  Pr  Pr4  1  0.159171  0.840834  0.000000  1
  Pr  Pr5  1  0.840829  0.159166  0.000000  1
  Pr  Pr6  1  0.370222  0.629779  0.000000  1
  Pr  Pr7  1  0.629778  0.370221  0.000000  1
  Pr  Pr8  1  0.307544  0.307543  0.000000  1
  Pr  Pr9  1  0.692456  0.692457  0.000000  1
  Pr  Pr10  1  0.000000  0.000000  0.000000  1
  In  In11  1  0.366748  0.839044  0.500000  1
  In  In12  1  0.633252  0.160956  0.500000  1
  In  In13  1  0.839047  0.366753  0.500000  1
  In  In14  1  0.160953  0.633247  0.500000  1
  In  In15  1  0.219616  0.076662  0.500000  1
  In  In16  1  0.780384  0.923338  0.500000  1
  In  In17  1  0.076661  0.219615  0.500000  1
  In  In18  1  0.923339  0.780385  0.500000  1
  In  In19  1  0.500000  0.500000  0.500000  1
  Pd  Pd20  1  0.450055  0.248368  0.500000  1
  Pd  Pd21  1  0.549945  0.751632  0.500000  1
  Pd  Pd22  1  0.248369  0.450055  0.500000  1
  Pd  Pd23  1  0.751631  0.549945  0.500000  1
