# generated using pymatgen
data_Ho3Lu3(Zn3C)2
_symmetry_space_group_name_H-M   'P 1'
_cell_length_a   9.04657768
_cell_length_b   9.04657714
_cell_length_c   9.04657900
_cell_angle_alpha   59.99999687
_cell_angle_beta   59.99999884
_cell_angle_gamma   59.99999725
_symmetry_Int_Tables_number   1
_chemical_formula_structural   Ho3Lu3(Zn3C)2
_chemical_formula_sum   'Ho6 Lu6 Zn12 C4'
_cell_volume   523.52565270
_cell_formula_units_Z   2
loop_
 _symmetry_equiv_pos_site_id
 _symmetry_equiv_pos_as_xyz
  1  'x, y, z'
loop_
 _atom_site_type_symbol
 _atom_site_label
 _atom_site_symmetry_multiplicity
 _atom_site_fract_x
 _atom_site_fract_y
 _atom_site_fract_z
 _atom_site_occupancy
  Ho  Ho0  1  0.447284  0.447284  0.052716  1
  Ho  Ho1  1  0.052716  0.447284  0.052716  1
  Ho  Ho2  1  0.447284  0.052716  0.052716  1
  Ho  Ho3  1  0.052716  0.052716  0.447284  1
  Ho  Ho4  1  0.447284  0.052716  0.447284  1
  Ho  Ho5  1  0.052716  0.447284  0.447284  1
  Lu  Lu6  1  0.804178  0.804178  0.195822  1
  Lu  Lu7  1  0.195822  0.804178  0.195822  1
  Lu  Lu8  1  0.804178  0.195822  0.195822  1
  Lu  Lu9  1  0.195822  0.195822  0.804178  1
  Lu  Lu10  1  0.804178  0.195822  0.804178  1
  Lu  Lu11  1  0.195822  0.804178  0.804178  1
  Zn  Zn12  1  0.827566  0.827566  0.517303  1
  Zn  Zn13  1  0.827566  0.517303  0.827566  1
  Zn  Zn14  1  0.517303  0.827566  0.827566  1
  Zn  Zn15  1  0.827566  0.827566  0.827566  1
  Zn  Zn16  1  0.423372  0.423372  0.729883  1
  Zn  Zn17  1  0.423372  0.729883  0.423372  1
  Zn  Zn18  1  0.729883  0.423372  0.423372  1
  Zn  Zn19  1  0.423372  0.423372  0.423372  1
  Zn  Zn20  1  0.625424  0.625424  0.123728  1
  Zn  Zn21  1  0.625424  0.123728  0.625424  1
  Zn  Zn22  1  0.123728  0.625424  0.625424  1
  Zn  Zn23  1  0.625424  0.625424  0.625424  1
  C  C24  1  0.121592  0.121592  0.635224  1
  C  C25  1  0.121592  0.635224  0.121592  1
  C  C26  1  0.635224  0.121592  0.121592  1
  C  C27  1  0.121592  0.121592  0.121592  1
