# generated using pymatgen
data_Er4Al18(OsPd)3
_symmetry_space_group_name_H-M   'P 1'
_cell_length_a   7.57339416
_cell_length_b   7.57339440
_cell_length_c   9.48499314
_cell_angle_alpha   90.08050785
_cell_angle_beta   90.08050528
_cell_angle_gamma   119.14785191
_symmetry_Int_Tables_number   1
_chemical_formula_structural   Er4Al18(OsPd)3
_chemical_formula_sum   'Er4 Al18 Os3 Pd3'
_cell_volume   475.13020190
_cell_formula_units_Z   1
loop_
 _symmetry_equiv_pos_site_id
 _symmetry_equiv_pos_as_xyz
  1  'x, y, z'
loop_
 _atom_site_type_symbol
 _atom_site_label
 _atom_site_symmetry_multiplicity
 _atom_site_fract_x
 _atom_site_fract_y
 _atom_site_fract_z
 _atom_site_occupancy
  Er  Er0  1  0.993427  0.674157  0.247409  1
  Er  Er1  1  0.004991  0.324562  0.751929  1
  Er  Er2  1  0.675438  0.995009  0.248071  1
  Er  Er3  1  0.325843  0.006573  0.752591  1
  Al  Al4  1  0.127511  0.128874  0.249890  1
  Al  Al5  1  0.871126  0.872489  0.750110  1
  Al  Al6  1  0.996780  0.330674  0.074633  1
  Al  Al7  1  0.994028  0.661851  0.924449  1
  Al  Al8  1  0.998446  0.668212  0.577349  1
  Al  Al9  1  0.331788  0.001554  0.422651  1
  Al  Al10  1  0.000928  0.333015  0.424412  1
  Al  Al11  1  0.666985  0.999072  0.575588  1
  Al  Al12  1  0.669326  0.003220  0.925367  1
  Al  Al13  1  0.338149  0.005972  0.075551  1
  Al  Al14  1  0.328850  0.329647  0.554700  1
  Al  Al15  1  0.670353  0.671150  0.445300  1
  Al  Al16  1  0.672757  0.666659  0.048199  1
  Al  Al17  1  0.333341  0.327243  0.951801  1
  Al  Al18  1  0.341328  0.549594  0.249394  1
  Al  Al19  1  0.657578  0.449559  0.753279  1
  Al  Al20  1  0.550441  0.342422  0.246721  1
  Al  Al21  1  0.450406  0.658672  0.750606  1
  Os  Os22  1  0.672171  0.327829  0.000000  1
  Os  Os23  1  0.001218  0.998782  0.000000  1
  Os  Os24  1  0.999686  0.000314  0.500000  1
  Pd  Pd25  1  0.327942  0.672058  0.000000  1
  Pd  Pd26  1  0.327628  0.672372  0.500000  1
  Pd  Pd27  1  0.671534  0.328466  0.500000  1
