# generated using pymatgen
data_Dy5YAu20
_symmetry_space_group_name_H-M   'P 1'
_cell_length_a   10.94247505
_cell_length_b   10.94197872
_cell_length_c   5.05063300
_cell_angle_alpha   90.00000000
_cell_angle_beta   90.00000000
_cell_angle_gamma   119.99032889
_symmetry_Int_Tables_number   1
_chemical_formula_structural   Dy5YAu20
_chemical_formula_sum   'Dy5 Y1 Au20'
_cell_volume   523.75742095
_cell_formula_units_Z   1
loop_
 _symmetry_equiv_pos_site_id
 _symmetry_equiv_pos_as_xyz
  1  'x, y, z'
loop_
 _atom_site_type_symbol
 _atom_site_label
 _atom_site_symmetry_multiplicity
 _atom_site_fract_x
 _atom_site_fract_y
 _atom_site_fract_z
 _atom_site_occupancy
  Dy  Dy0  1  0.256537  0.895843  0.250000  1
  Dy  Dy1  1  0.104195  0.360723  0.250000  1
  Dy  Dy2  1  0.360686  0.256546  0.750000  1
  Dy  Dy3  1  0.743486  0.104139  0.750000  1
  Dy  Dy4  1  0.895838  0.639333  0.750000  1
  Y  Y5  1  0.639231  0.743432  0.250000  1
  Au  Au6  1  0.876874  0.054276  0.250000  1
  Au  Au7  1  0.946222  0.822729  0.250000  1
  Au  Au8  1  0.177366  0.123302  0.250000  1
  Au  Au9  1  0.123296  0.945941  0.750000  1
  Au  Au10  1  0.054077  0.177396  0.750000  1
  Au  Au11  1  0.822875  0.876876  0.750000  1
  Au  Au12  1  0.565677  0.976958  0.250000  1
  Au  Au13  1  0.023221  0.588972  0.250000  1
  Au  Au14  1  0.410857  0.433988  0.250000  1
  Au  Au15  1  0.434250  0.023197  0.750000  1
  Au  Au16  1  0.976815  0.411040  0.750000  1
  Au  Au17  1  0.588874  0.565482  0.750000  1
  Au  Au18  1  0.795384  0.285100  0.250000  1
  Au  Au19  1  0.714993  0.510143  0.250000  1
  Au  Au20  1  0.489701  0.204601  0.250000  1
  Au  Au21  1  0.204621  0.714922  0.750000  1
  Au  Au22  1  0.285097  0.489709  0.750000  1
  Au  Au23  1  0.510109  0.795420  0.750000  1
  Au  Au24  1  0.666658  0.333333  0.750000  1
  Au  Au25  1  0.333060  0.666598  0.250000  1
