# generated using pymatgen
data_YbNp9O20
_symmetry_space_group_name_H-M   'P 1'
_cell_length_a   6.57835314
_cell_length_b   7.60899689
_cell_length_c   8.50014304
_cell_angle_alpha   103.07302743
_cell_angle_beta   97.38899970
_cell_angle_gamma   106.75674816
_symmetry_Int_Tables_number   1
_chemical_formula_structural   YbNp9O20
_chemical_formula_sum   'Yb1 Np9 O20'
_cell_volume   388.18374336
_cell_formula_units_Z   1
loop_
 _symmetry_equiv_pos_site_id
 _symmetry_equiv_pos_as_xyz
  1  'x, y, z'
loop_
 _atom_site_type_symbol
 _atom_site_label
 _atom_site_symmetry_multiplicity
 _atom_site_fract_x
 _atom_site_fract_y
 _atom_site_fract_z
 _atom_site_occupancy
  Yb  Yb0  1  0.000000  0.000000  0.000000  1
  Np  Np1  1  0.801094  0.602659  0.603103  1
  Np  Np2  1  0.000000  0.500000  0.000000  1
  Np  Np3  1  0.599571  0.197973  0.197244  1
  Np  Np4  1  0.799637  0.099512  0.603020  1
  Np  Np5  1  0.605260  0.702258  0.199018  1
  Np  Np6  1  0.198906  0.397341  0.396897  1
  Np  Np7  1  0.394740  0.297742  0.800982  1
  Np  Np8  1  0.200363  0.900488  0.396980  1
  Np  Np9  1  0.400429  0.802027  0.802756  1
  O  O10  1  0.849213  0.325146  0.454617  1
  O  O11  1  0.639471  0.921516  0.053571  1
  O  O12  1  0.853591  0.827193  0.451487  1
  O  O13  1  0.950799  0.766427  0.154865  1
  O  O14  1  0.444369  0.520771  0.649183  1
  O  O15  1  0.646839  0.425907  0.048594  1
  O  O16  1  0.742265  0.373393  0.751126  1
  O  O17  1  0.261046  0.129730  0.258049  1
  O  O18  1  0.947427  0.286196  0.155916  1
  O  O19  1  0.554678  0.974508  0.353178  1
  O  O20  1  0.052573  0.713804  0.844084  1
  O  O21  1  0.445322  0.025492  0.646822  1
  O  O22  1  0.738954  0.870270  0.741951  1
  O  O23  1  0.353161  0.574093  0.951406  1
  O  O24  1  0.257735  0.626607  0.248874  1
  O  O25  1  0.049201  0.233573  0.845135  1
  O  O26  1  0.555631  0.479229  0.350817  1
  O  O27  1  0.146409  0.172807  0.548513  1
  O  O28  1  0.360529  0.078484  0.946429  1
  O  O29  1  0.150787  0.674854  0.545383  1
