# generated using pymatgen
data_Pr8Nd(BiO)5
_symmetry_space_group_name_H-M   'P 1'
_cell_length_a   10.43021900
_cell_length_b   10.45706200
_cell_length_c   9.40644300
_cell_angle_alpha   90.00000000
_cell_angle_beta   90.00000000
_cell_angle_gamma   90.00108080
_symmetry_Int_Tables_number   1
_chemical_formula_structural   Pr8Nd(BiO)5
_chemical_formula_sum   'Pr16 Nd2 Bi10 O10'
_cell_volume   1025.95553387
_cell_formula_units_Z   2
loop_
 _symmetry_equiv_pos_site_id
 _symmetry_equiv_pos_as_xyz
  1  'x, y, z'
loop_
 _atom_site_type_symbol
 _atom_site_label
 _atom_site_symmetry_multiplicity
 _atom_site_fract_x
 _atom_site_fract_y
 _atom_site_fract_z
 _atom_site_occupancy
  Pr  Pr0  1  0.500000  0.000000  0.671987  1
  Pr  Pr1  1  0.000000  0.500000  0.327689  1
  Pr  Pr2  1  0.103773  0.205248  0.659570  1
  Pr  Pr3  1  0.896227  0.794752  0.659570  1
  Pr  Pr4  1  0.294578  0.604256  0.659311  1
  Pr  Pr5  1  0.705422  0.395744  0.659311  1
  Pr  Pr6  1  0.395831  0.294912  0.340698  1
  Pr  Pr7  1  0.604169  0.705088  0.340698  1
  Pr  Pr8  1  0.204884  0.895607  0.340485  1
  Pr  Pr9  1  0.795116  0.104393  0.340485  1
  Pr  Pr10  1  0.726863  0.917984  0.001422  1
  Pr  Pr11  1  0.273137  0.082016  0.001422  1
  Pr  Pr12  1  0.582457  0.226110  0.001276  1
  Pr  Pr13  1  0.417543  0.773890  0.001276  1
  Pr  Pr14  1  0.774833  0.581929  0.998783  1
  Pr  Pr15  1  0.225167  0.418071  0.998783  1
  Nd  Nd16  1  0.917393  0.274061  0.998406  1
  Nd  Nd17  1  0.082607  0.725939  0.998406  1
  Bi  Bi18  1  0.500000  0.000000  0.312456  1
  Bi  Bi19  1  0.000000  0.500000  0.687495  1
  Bi  Bi20  1  0.403453  0.304294  0.699613  1
  Bi  Bi21  1  0.596547  0.695706  0.699613  1
  Bi  Bi22  1  0.195579  0.903430  0.699760  1
  Bi  Bi23  1  0.804421  0.096570  0.699760  1
  Bi  Bi24  1  0.096199  0.195859  0.300077  1
  Bi  Bi25  1  0.903801  0.804141  0.300077  1
  Bi  Bi26  1  0.304265  0.596492  0.300524  1
  Bi  Bi27  1  0.695735  0.403508  0.300524  1
  O  O28  1  0.500000  0.000000  0.932808  1
  O  O29  1  0.000000  0.500000  0.066297  1
  O  O30  1  0.776442  0.121991  0.086546  1
  O  O31  1  0.223558  0.878009  0.086546  1
  O  O32  1  0.378958  0.274763  0.087571  1
  O  O33  1  0.621042  0.725237  0.087571  1
  O  O34  1  0.726935  0.378255  0.913098  1
  O  O35  1  0.273065  0.621745  0.913098  1
  O  O36  1  0.118912  0.225415  0.913495  1
  O  O37  1  0.881088  0.774585  0.913495  1
