# generated using pymatgen
data_RbNa2AuSe13
_symmetry_space_group_name_H-M   'P 1'
_cell_length_a   4.74900400
_cell_length_b   13.95473402
_cell_length_c   15.44845494
_cell_angle_alpha   84.18804811
_cell_angle_beta   90.00000000
_cell_angle_gamma   90.00000000
_symmetry_Int_Tables_number   1
_chemical_formula_structural   RbNa2AuSe13
_chemical_formula_sum   'Rb2 Na4 Au2 Se26'
_cell_volume   1018.52324991
_cell_formula_units_Z   2
loop_
 _symmetry_equiv_pos_site_id
 _symmetry_equiv_pos_as_xyz
  1  'x, y, z'
loop_
 _atom_site_type_symbol
 _atom_site_label
 _atom_site_symmetry_multiplicity
 _atom_site_fract_x
 _atom_site_fract_y
 _atom_site_fract_z
 _atom_site_occupancy
  Rb  Rb0  1  0.124961  0.250000  0.000000  1
  Rb  Rb1  1  0.875039  0.750000  0.000000  1
  Na  Na2  1  0.152875  0.166541  0.719864  1
  Na  Na3  1  0.152875  0.333459  0.280136  1
  Na  Na4  1  0.847125  0.833459  0.280136  1
  Na  Na5  1  0.847125  0.666541  0.719864  1
  Au  Au6  1  0.000000  0.500000  0.500000  1
  Au  Au7  1  0.000000  0.000000  0.500000  1
  Se  Se8  1  0.294428  0.557902  0.621667  1
  Se  Se9  1  0.677358  0.577128  0.269717  1
  Se  Se10  1  0.322642  0.077128  0.269717  1
  Se  Se11  1  0.322642  0.422872  0.730283  1
  Se  Se12  1  0.981734  0.528513  0.158342  1
  Se  Se13  1  0.981734  0.971487  0.841658  1
  Se  Se14  1  0.018266  0.471487  0.841658  1
  Se  Se15  1  0.018266  0.028513  0.158342  1
  Se  Se16  1  0.683052  0.428309  0.081235  1
  Se  Se17  1  0.677358  0.922872  0.730283  1
  Se  Se18  1  0.316948  0.571691  0.918765  1
  Se  Se19  1  0.316948  0.928309  0.081235  1
  Se  Se20  1  0.634377  0.279781  0.169360  1
  Se  Se21  1  0.634377  0.220219  0.830640  1
  Se  Se22  1  0.365623  0.720219  0.830640  1
  Se  Se23  1  0.365623  0.779781  0.169360  1
  Se  Se24  1  0.078437  0.660285  0.411154  1
  Se  Se25  1  0.078437  0.839715  0.588846  1
  Se  Se26  1  0.921563  0.339715  0.588846  1
  Se  Se27  1  0.921563  0.160285  0.411154  1
  Se  Se28  1  0.628620  0.250000  0.500000  1
  Se  Se29  1  0.371380  0.750000  0.500000  1
  Se  Se30  1  0.705572  0.442098  0.378333  1
  Se  Se31  1  0.705572  0.057902  0.621667  1
  Se  Se32  1  0.683052  0.071691  0.918765  1
  Se  Se33  1  0.294428  0.942098  0.378333  1
