# generated using pymatgen
data_Lu7S8
_symmetry_space_group_name_H-M   'P 1'
_cell_length_a   7.60853131
_cell_length_b   7.60647072
_cell_length_c   7.60857331
_cell_angle_alpha   119.98870926
_cell_angle_beta   90.03292310
_cell_angle_gamma   119.98910871
_symmetry_Int_Tables_number   1
_chemical_formula_structural   Lu7S8
_chemical_formula_sum   'Lu7 S8'
_cell_volume   311.38165300
_cell_formula_units_Z   1
loop_
 _symmetry_equiv_pos_site_id
 _symmetry_equiv_pos_as_xyz
  1  'x, y, z'
loop_
 _atom_site_type_symbol
 _atom_site_label
 _atom_site_symmetry_multiplicity
 _atom_site_fract_x
 _atom_site_fract_y
 _atom_site_fract_z
 _atom_site_occupancy
  Lu  Lu0  1  0.249796  0.000027  0.249799  1
  Lu  Lu1  1  0.249791  0.499542  0.249767  1
  Lu  Lu2  1  0.750207  0.999981  0.249788  1
  Lu  Lu3  1  0.249984  0.500025  0.750027  1
  Lu  Lu4  1  0.249785  0.999997  0.750202  1
  Lu  Lu5  1  0.750208  0.999979  0.750191  1
  Lu  Lu6  1  0.750221  0.500406  0.750202  1
  S  S7  1  0.000014  0.000002  0.999993  1
  S  S8  1  0.499994  0.000017  0.500018  1
  S  S9  1  0.000312  0.000663  0.500316  1
  S  S10  1  0.000305  0.499976  0.500319  1
  S  S11  1  0.499703  0.500004  0.500304  1
  S  S12  1  0.000304  0.500008  0.999699  1
  S  S13  1  0.499695  0.500038  0.999694  1
  S  S14  1  0.499683  0.999339  0.999689  1
