# generated using pymatgen
data_ThCu5Hg
_symmetry_space_group_name_H-M   'P 1'
_cell_length_a   5.09011200
_cell_length_b   8.34487800
_cell_length_c   10.56375600
_cell_angle_alpha   90.00000000
_cell_angle_beta   90.00000000
_cell_angle_gamma   90.00000000
_symmetry_Int_Tables_number   1
_chemical_formula_structural   ThCu5Hg
_chemical_formula_sum   'Th4 Cu20 Hg4'
_cell_volume   448.70994133
_cell_formula_units_Z   4
loop_
 _symmetry_equiv_pos_site_id
 _symmetry_equiv_pos_as_xyz
  1  'x, y, z'
loop_
 _atom_site_type_symbol
 _atom_site_label
 _atom_site_symmetry_multiplicity
 _atom_site_fract_x
 _atom_site_fract_y
 _atom_site_fract_z
 _atom_site_occupancy
  Th  Th0  1  0.750000  0.245165  0.934273  1
  Th  Th1  1  0.250000  0.754835  0.065727  1
  Th  Th2  1  0.750000  0.745165  0.565727  1
  Th  Th3  1  0.250000  0.254835  0.434273  1
  Cu  Cu4  1  0.999946  0.432151  0.186399  1
  Cu  Cu5  1  0.499946  0.567849  0.813601  1
  Cu  Cu6  1  0.500054  0.932151  0.313601  1
  Cu  Cu7  1  0.000054  0.067849  0.686399  1
  Cu  Cu8  1  0.000054  0.567849  0.813601  1
  Cu  Cu9  1  0.500054  0.432151  0.186399  1
  Cu  Cu10  1  0.499946  0.067849  0.686399  1
  Cu  Cu11  1  0.999946  0.932151  0.313601  1
  Cu  Cu12  1  0.750000  0.443834  0.390225  1
  Cu  Cu13  1  0.250000  0.556166  0.609775  1
  Cu  Cu14  1  0.750000  0.943834  0.109775  1
  Cu  Cu15  1  0.250000  0.056166  0.890225  1
  Cu  Cu16  1  0.750000  0.183694  0.258446  1
  Cu  Cu17  1  0.250000  0.816306  0.741554  1
  Cu  Cu18  1  0.750000  0.683694  0.241554  1
  Cu  Cu19  1  0.250000  0.316306  0.758446  1
  Cu  Cu20  1  0.750000  0.082339  0.485355  1
  Cu  Cu21  1  0.250000  0.917661  0.514645  1
  Cu  Cu22  1  0.750000  0.582339  0.014645  1
  Cu  Cu23  1  0.250000  0.417661  0.985355  1
  Hg  Hg24  1  0.750000  0.363150  0.634162  1
  Hg  Hg25  1  0.250000  0.636850  0.365838  1
  Hg  Hg26  1  0.750000  0.863150  0.865838  1
  Hg  Hg27  1  0.250000  0.136850  0.134162  1
