# generated using pymatgen
data_Ta4Al3V3Cu2
_symmetry_space_group_name_H-M   'P 1'
_cell_length_a   4.97845804
_cell_length_b   4.97878686
_cell_length_c   8.40410900
_cell_angle_alpha   90.00047283
_cell_angle_beta   90.00004801
_cell_angle_gamma   59.71237971
_symmetry_Int_Tables_number   1
_chemical_formula_structural   Ta4Al3V3Cu2
_chemical_formula_sum   'Ta4 Al3 V3 Cu2'
_cell_volume   179.87660781
_cell_formula_units_Z   1
loop_
 _symmetry_equiv_pos_site_id
 _symmetry_equiv_pos_as_xyz
  1  'x, y, z'
loop_
 _atom_site_type_symbol
 _atom_site_label
 _atom_site_symmetry_multiplicity
 _atom_site_fract_x
 _atom_site_fract_y
 _atom_site_fract_z
 _atom_site_occupancy
  Ta  Ta0  1  0.333999  0.333981  0.055393  1
  Ta  Ta1  1  0.669460  0.669468  0.936288  1
  Ta  Ta2  1  0.669460  0.669469  0.563709  1
  Ta  Ta3  1  0.334000  0.333980  0.444604  1
  Al  Al4  1  0.818260  0.818257  0.249999  1
  Al  Al5  1  0.004897  0.004915  0.492972  1
  Al  Al6  1  0.004888  0.004919  0.007030  1
  V  V7  1  0.174620  0.658185  0.749998  1
  V  V8  1  0.658200  0.174610  0.749999  1
  V  V9  1  0.173736  0.173733  0.749999  1
  Cu  Cu10  1  0.824439  0.334033  0.250008  1
  Cu  Cu11  1  0.334043  0.824451  0.249999  1
