# generated using pymatgen
data_LaRe2(Sb6Os)2
_symmetry_space_group_name_H-M   'P 1'
_cell_length_a   8.20193376
_cell_length_b   8.21787834
_cell_length_c   8.21787824
_cell_angle_alpha   109.50252086
_cell_angle_beta   109.38612730
_cell_angle_gamma   109.60379767
_symmetry_Int_Tables_number   1
_chemical_formula_structural   LaRe2(Sb6Os)2
_chemical_formula_sum   'La1 Re2 Sb12 Os2'
_cell_volume   425.98039892
_cell_formula_units_Z   1
loop_
 _symmetry_equiv_pos_site_id
 _symmetry_equiv_pos_as_xyz
  1  'x, y, z'
loop_
 _atom_site_type_symbol
 _atom_site_label
 _atom_site_symmetry_multiplicity
 _atom_site_fract_x
 _atom_site_fract_y
 _atom_site_fract_z
 _atom_site_occupancy
  La  La0  1  0.000000  0.000000  0.000000  1
  Re  Re1  1  0.500000  0.000000  0.000000  1
  Re  Re2  1  0.500000  0.500000  0.500000  1
  Sb  Sb3  1  0.336983  0.180970  0.841583  1
  Sb  Sb4  1  0.663017  0.819030  0.158417  1
  Sb  Sb5  1  0.663017  0.504600  0.843987  1
  Sb  Sb6  1  0.336983  0.495400  0.156013  1
  Sb  Sb7  1  0.179642  0.842270  0.337372  1
  Sb  Sb8  1  0.820358  0.157730  0.662628  1
  Sb  Sb9  1  0.504312  0.843050  0.661261  1
  Sb  Sb10  1  0.495688  0.156950  0.338739  1
  Sb  Sb11  1  0.843433  0.338622  0.180085  1
  Sb  Sb12  1  0.156567  0.661378  0.819915  1
  Sb  Sb13  1  0.843433  0.663347  0.504810  1
  Sb  Sb14  1  0.156567  0.336653  0.495190  1
  Os  Os15  1  0.000000  0.000000  0.500000  1
  Os  Os16  1  0.000000  0.500000  0.000000  1
