# generated using pymatgen
data_Ta3AlReSiC
_symmetry_space_group_name_H-M   'P 1'
_cell_length_a   8.26755874
_cell_length_b   8.26755846
_cell_length_c   8.26755877
_cell_angle_alpha   60.13626767
_cell_angle_beta   60.13626863
_cell_angle_gamma   60.13626441
_symmetry_Int_Tables_number   1
_chemical_formula_structural   Ta3AlReSiC
_chemical_formula_sum   'Ta12 Al4 Re4 Si4 C4'
_cell_volume   400.82554542
_cell_formula_units_Z   4
loop_
 _symmetry_equiv_pos_site_id
 _symmetry_equiv_pos_as_xyz
  1  'x, y, z'
loop_
 _atom_site_type_symbol
 _atom_site_label
 _atom_site_symmetry_multiplicity
 _atom_site_fract_x
 _atom_site_fract_y
 _atom_site_fract_z
 _atom_site_occupancy
  Ta  Ta0  1  0.554872  0.945230  0.554872  1
  Ta  Ta1  1  0.308799  0.691506  0.691506  1
  Ta  Ta2  1  0.697078  0.305522  0.305522  1
  Ta  Ta3  1  0.305522  0.697078  0.305522  1
  Ta  Ta4  1  0.691506  0.691506  0.308799  1
  Ta  Ta5  1  0.305522  0.305522  0.697078  1
  Ta  Ta6  1  0.554872  0.554872  0.945230  1
  Ta  Ta7  1  0.945230  0.554872  0.554872  1
  Ta  Ta8  1  0.561139  0.941713  0.941713  1
  Ta  Ta9  1  0.941713  0.941713  0.561139  1
  Ta  Ta10  1  0.691506  0.308799  0.691506  1
  Ta  Ta11  1  0.941713  0.561139  0.941713  1
  Al  Al12  1  0.917680  0.251187  0.917680  1
  Al  Al13  1  0.917680  0.917680  0.251187  1
  Al  Al14  1  0.251187  0.917680  0.917680  1
  Al  Al15  1  0.334826  0.334826  0.334826  1
  Re  Re16  1  0.130909  0.130909  0.130909  1
  Re  Re17  1  0.621849  0.121386  0.121386  1
  Re  Re18  1  0.121386  0.621849  0.121386  1
  Re  Re19  1  0.121386  0.121386  0.621849  1
  Si  Si20  1  0.915835  0.915835  0.915835  1
  Si  Si21  1  0.989698  0.338913  0.338913  1
  Si  Si22  1  0.338913  0.989698  0.338913  1
  Si  Si23  1  0.338913  0.338913  0.989698  1
  C  C24  1  0.625678  0.625678  0.625678  1
  C  C25  1  0.124323  0.625132  0.625132  1
  C  C26  1  0.625132  0.124323  0.625132  1
  C  C27  1  0.625132  0.625132  0.124323  1
