# generated using pymatgen
data_Y3Mn5(Co2P3)2
_symmetry_space_group_name_H-M   'P 1'
_cell_length_a   3.66112700
_cell_length_b   10.81046100
_cell_length_c   12.37486700
_cell_angle_alpha   90.00000000
_cell_angle_beta   90.00000000
_cell_angle_gamma   90.00000000
_symmetry_Int_Tables_number   1
_chemical_formula_structural   Y3Mn5(Co2P3)2
_chemical_formula_sum   'Y6 Mn10 Co8 P12'
_cell_volume   489.77831035
_cell_formula_units_Z   2
loop_
 _symmetry_equiv_pos_site_id
 _symmetry_equiv_pos_as_xyz
  1  'x, y, z'
loop_
 _atom_site_type_symbol
 _atom_site_label
 _atom_site_symmetry_multiplicity
 _atom_site_fract_x
 _atom_site_fract_y
 _atom_site_fract_z
 _atom_site_occupancy
  Y  Y0  1  0.000000  0.500000  0.531732  1
  Y  Y1  1  0.500000  0.000000  0.468268  1
  Y  Y2  1  0.500000  0.821990  0.200755  1
  Y  Y3  1  0.500000  0.178010  0.200755  1
  Y  Y4  1  0.000000  0.678010  0.799245  1
  Y  Y5  1  0.000000  0.321990  0.799245  1
  Mn  Mn6  1  0.500000  0.297783  0.430977  1
  Mn  Mn7  1  0.500000  0.702217  0.430977  1
  Mn  Mn8  1  0.000000  0.202217  0.569023  1
  Mn  Mn9  1  0.000000  0.797783  0.569023  1
  Mn  Mn10  1  0.500000  0.882679  0.707189  1
  Mn  Mn11  1  0.500000  0.117321  0.707189  1
  Mn  Mn12  1  0.000000  0.617321  0.292811  1
  Mn  Mn13  1  0.000000  0.382679  0.292811  1
  Mn  Mn14  1  0.500000  0.500000  0.159656  1
  Mn  Mn15  1  0.000000  0.000000  0.840344  1
  Co  Co16  1  0.000000  0.500000  0.990269  1
  Co  Co17  1  0.500000  0.000000  0.009731  1
  Co  Co18  1  0.500000  0.333436  0.996109  1
  Co  Co19  1  0.500000  0.666564  0.996109  1
  Co  Co20  1  0.000000  0.166564  0.003891  1
  Co  Co21  1  0.000000  0.833436  0.003891  1
  Co  Co22  1  0.500000  0.500000  0.710481  1
  Co  Co23  1  0.000000  0.000000  0.289519  1
  P  P24  1  0.500000  0.317012  0.620932  1
  P  P25  1  0.500000  0.682988  0.620932  1
  P  P26  1  0.000000  0.182988  0.379068  1
  P  P27  1  0.000000  0.817012  0.379068  1
  P  P28  1  0.500000  0.500000  0.887932  1
  P  P29  1  0.000000  0.000000  0.112068  1
  P  P30  1  0.500000  0.845187  0.893351  1
  P  P31  1  0.500000  0.154813  0.893351  1
  P  P32  1  0.000000  0.654813  0.106649  1
  P  P33  1  0.000000  0.345187  0.106649  1
  P  P34  1  0.500000  0.500000  0.355874  1
  P  P35  1  0.000000  0.000000  0.644126  1
