# generated using pymatgen
data_Ho2TmGa5Co
_symmetry_space_group_name_H-M   'P 1'
_cell_length_a   6.86478107
_cell_length_b   6.86478143
_cell_length_c   4.19660400
_cell_angle_alpha   90.00000000
_cell_angle_beta   90.00000000
_cell_angle_gamma   119.79419634
_symmetry_Int_Tables_number   1
_chemical_formula_structural   Ho2TmGa5Co
_chemical_formula_sum   'Ho2 Tm1 Ga5 Co1'
_cell_volume   171.62436505
_cell_formula_units_Z   1
loop_
 _symmetry_equiv_pos_site_id
 _symmetry_equiv_pos_as_xyz
  1  'x, y, z'
loop_
 _atom_site_type_symbol
 _atom_site_label
 _atom_site_symmetry_multiplicity
 _atom_site_fract_x
 _atom_site_fract_y
 _atom_site_fract_z
 _atom_site_occupancy
  Ho  Ho0  1  0.599225  0.999676  0.000000  1
  Ho  Ho1  1  0.999676  0.599225  0.000000  1
  Tm  Tm2  1  0.398896  0.398896  0.000000  1
  Ga  Ga3  1  0.231825  0.000403  0.500000  1
  Ga  Ga4  1  0.000403  0.231825  0.500000  1
  Ga  Ga5  1  0.768444  0.768444  0.500000  1
  Ga  Ga6  1  0.333806  0.665929  0.500000  1
  Ga  Ga7  1  0.665929  0.333806  0.500000  1
  Co  Co8  1  0.001796  0.001796  0.000000  1
