# generated using pymatgen
data_Yb2Sm2Ni13C4
_symmetry_space_group_name_H-M   'P 1'
_cell_length_a   8.32600105
_cell_length_b   8.32600158
_cell_length_c   3.86930800
_cell_angle_alpha   90.00000000
_cell_angle_beta   90.00000000
_cell_angle_gamma   90.57283681
_symmetry_Int_Tables_number   1
_chemical_formula_structural   Yb2Sm2Ni13C4
_chemical_formula_sum   'Yb2 Sm2 Ni13 C4'
_cell_volume   268.21591630
_cell_formula_units_Z   1
loop_
 _symmetry_equiv_pos_site_id
 _symmetry_equiv_pos_as_xyz
  1  'x, y, z'
loop_
 _atom_site_type_symbol
 _atom_site_label
 _atom_site_symmetry_multiplicity
 _atom_site_fract_x
 _atom_site_fract_y
 _atom_site_fract_z
 _atom_site_occupancy
  Yb  Yb0  1  0.808510  0.191490  0.500000  1
  Yb  Yb1  1  0.191490  0.808510  0.500000  1
  Sm  Sm2  1  0.345967  0.345967  0.500000  1
  Sm  Sm3  1  0.654033  0.654033  0.500000  1
  Ni  Ni4  1  0.000000  0.000000  0.000000  1
  Ni  Ni5  1  0.214305  0.571874  0.000000  1
  Ni  Ni6  1  0.785695  0.428126  0.000000  1
  Ni  Ni7  1  0.428126  0.785695  0.000000  1
  Ni  Ni8  1  0.571874  0.214305  0.000000  1
  Ni  Ni9  1  0.000000  0.500000  0.500000  1
  Ni  Ni10  1  0.500000  0.000000  0.500000  1
  Ni  Ni11  1  0.070976  0.288063  0.000000  1
  Ni  Ni12  1  0.929024  0.711937  0.000000  1
  Ni  Ni13  1  0.711937  0.929024  0.000000  1
  Ni  Ni14  1  0.288063  0.070976  0.000000  1
  Ni  Ni15  1  0.116477  0.116477  0.500000  1
  Ni  Ni16  1  0.883523  0.883523  0.500000  1
  C  C17  1  0.000000  0.500000  0.000000  1
  C  C18  1  0.500000  0.000000  0.000000  1
  C  C19  1  0.442472  0.557528  0.000000  1
  C  C20  1  0.557528  0.442472  0.000000  1
