# generated using pymatgen
data_Y4Ru7W
_symmetry_space_group_name_H-M   'P 1'
_cell_length_a   5.47829300
_cell_length_b   5.23803817
_cell_length_c   9.02539400
_cell_angle_alpha   90.00000000
_cell_angle_beta   90.00000000
_cell_angle_gamma   121.52924893
_symmetry_Int_Tables_number   1
_chemical_formula_structural   Y4Ru7W
_chemical_formula_sum   'Y4 Ru7 W1'
_cell_volume   220.75468740
_cell_formula_units_Z   1
loop_
 _symmetry_equiv_pos_site_id
 _symmetry_equiv_pos_as_xyz
  1  'x, y, z'
loop_
 _atom_site_type_symbol
 _atom_site_label
 _atom_site_symmetry_multiplicity
 _atom_site_fract_x
 _atom_site_fract_y
 _atom_site_fract_z
 _atom_site_occupancy
  Y  Y0  1  0.336439  0.672879  0.430568  1
  Y  Y1  1  0.672884  0.345768  0.563658  1
  Y  Y2  1  0.672884  0.345768  0.936342  1
  Y  Y3  1  0.336439  0.672879  0.069432  1
  Ru  Ru4  1  0.172622  0.818462  0.750000  1
  Ru  Ru5  1  0.329207  0.164115  0.250000  1
  Ru  Ru6  1  0.819063  0.638127  0.250000  1
  Ru  Ru7  1  0.645839  0.818462  0.750000  1
  Ru  Ru8  1  0.010622  0.021243  0.000634  1
  Ru  Ru9  1  0.834908  0.164115  0.250000  1
  Ru  Ru10  1  0.010622  0.021243  0.499366  1
  W  W11  1  0.158470  0.316940  0.750000  1
