# generated using pymatgen
data_Tb7Er7Th2(CdNi)4
_symmetry_space_group_name_H-M   'P 1'
_cell_length_a   9.56490997
_cell_length_b   9.56469132
_cell_length_c   9.58051142
_cell_angle_alpha   60.19575240
_cell_angle_beta   60.19707813
_cell_angle_gamma   60.04945777
_symmetry_Int_Tables_number   1
_chemical_formula_structural   Tb7Er7Th2(CdNi)4
_chemical_formula_sum   'Tb7 Er7 Th2 Cd4 Ni4'
_cell_volume   621.82981942
_cell_formula_units_Z   1
loop_
 _symmetry_equiv_pos_site_id
 _symmetry_equiv_pos_as_xyz
  1  'x, y, z'
loop_
 _atom_site_type_symbol
 _atom_site_label
 _atom_site_symmetry_multiplicity
 _atom_site_fract_x
 _atom_site_fract_y
 _atom_site_fract_z
 _atom_site_occupancy
  Tb  Tb0  1  0.813430  0.813430  0.186790  1
  Tb  Tb1  1  0.937986  0.564282  0.565559  1
  Tb  Tb2  1  0.562864  0.937218  0.933906  1
  Tb  Tb3  1  0.564288  0.937986  0.565550  1
  Tb  Tb4  1  0.937221  0.562856  0.933902  1
  Tb  Tb5  1  0.563918  0.563903  0.937220  1
  Tb  Tb6  1  0.936374  0.936373  0.562472  1
  Er  Er7  1  0.347669  0.950810  0.351047  1
  Er  Er8  1  0.950829  0.347675  0.351028  1
  Er  Er9  1  0.812998  0.189692  0.187444  1
  Er  Er10  1  0.189885  0.813493  0.810909  1
  Er  Er11  1  0.189695  0.812991  0.187435  1
  Er  Er12  1  0.813511  0.189881  0.810893  1
  Er  Er13  1  0.187252  0.187244  0.813887  1
  Th  Th14  1  0.343539  0.343516  0.349055  1
  Th  Th15  1  0.343032  0.343027  0.961242  1
  Cd  Cd16  1  0.581969  0.581967  0.579651  1
  Cd  Cd17  1  0.582140  0.582132  0.255797  1
  Cd  Cd18  1  0.583216  0.256602  0.580124  1
  Cd  Cd19  1  0.256610  0.583204  0.580128  1
  Ni  Ni20  1  0.142938  0.142945  0.141054  1
  Ni  Ni21  1  0.142019  0.141985  0.572127  1
  Ni  Ni22  1  0.146293  0.570421  0.141375  1
  Ni  Ni23  1  0.570326  0.146366  0.141403  1
