# generated using pymatgen
data_La3Lu(Rh2O7)2
_symmetry_space_group_name_H-M   'P 1'
_cell_length_a   7.35398662
_cell_length_b   7.35398682
_cell_length_c   7.35398601
_cell_angle_alpha   60.39215809
_cell_angle_beta   60.39215414
_cell_angle_gamma   60.39215625
_symmetry_Int_Tables_number   1
_chemical_formula_structural   La3Lu(Rh2O7)2
_chemical_formula_sum   'La3 Lu1 Rh4 O14'
_cell_volume   283.71887000
_cell_formula_units_Z   1
loop_
 _symmetry_equiv_pos_site_id
 _symmetry_equiv_pos_as_xyz
  1  'x, y, z'
loop_
 _atom_site_type_symbol
 _atom_site_label
 _atom_site_symmetry_multiplicity
 _atom_site_fract_x
 _atom_site_fract_y
 _atom_site_fract_z
 _atom_site_occupancy
  La  La0  1  0.125000  0.625000  0.125000  1
  La  La1  1  0.625000  0.125000  0.125000  1
  La  La2  1  0.125000  0.125000  0.625000  1
  Lu  Lu3  1  0.125000  0.125000  0.125000  1
  Rh  Rh4  1  0.625000  0.625000  0.625000  1
  Rh  Rh5  1  0.625000  0.625000  0.125000  1
  Rh  Rh6  1  0.125000  0.625000  0.625000  1
  Rh  Rh7  1  0.625000  0.125000  0.625000  1
  O  O8  1  0.243115  0.243115  0.243115  1
  O  O9  1  0.292096  0.719360  0.292096  1
  O  O10  1  0.957904  0.957904  0.530640  1
  O  O11  1  0.543959  0.956520  0.543959  1
  O  O12  1  0.706041  0.706041  0.293480  1
  O  O13  1  0.956520  0.543959  0.543959  1
  O  O14  1  0.706041  0.293480  0.706041  1
  O  O15  1  0.292096  0.292096  0.719360  1
  O  O16  1  0.719360  0.292096  0.292096  1
  O  O17  1  0.293480  0.706041  0.706041  1
  O  O18  1  0.957904  0.530640  0.957904  1
  O  O19  1  0.543959  0.543959  0.956520  1
  O  O20  1  0.006885  0.006885  0.006885  1
  O  O21  1  0.530640  0.957904  0.957904  1
