# generated using pymatgen
data_Na(SrPb4)3
_symmetry_space_group_name_H-M   'P 1'
_cell_length_a   12.39411111
_cell_length_b   12.39411107
_cell_length_c   12.39411094
_cell_angle_alpha   33.22315907
_cell_angle_beta   33.22315665
_cell_angle_gamma   33.22316380
_symmetry_Int_Tables_number   1
_chemical_formula_structural   Na(SrPb4)3
_chemical_formula_sum   'Na1 Sr3 Pb12'
_cell_volume   508.81084342
_cell_formula_units_Z   1
loop_
 _symmetry_equiv_pos_site_id
 _symmetry_equiv_pos_as_xyz
  1  'x, y, z'
loop_
 _atom_site_type_symbol
 _atom_site_label
 _atom_site_symmetry_multiplicity
 _atom_site_fract_x
 _atom_site_fract_y
 _atom_site_fract_z
 _atom_site_occupancy
  Na  Na0  1  0.873044  0.873044  0.873044  1
  Sr  Sr1  1  0.126299  0.126299  0.126299  1
  Sr  Sr2  1  0.709189  0.709189  0.709189  1
  Sr  Sr3  1  0.292181  0.292181  0.292181  1
  Pb  Pb4  1  0.287571  0.793136  0.793136  1
  Pb  Pb5  1  0.793136  0.793136  0.287571  1
  Pb  Pb6  1  0.857508  0.383926  0.383926  1
  Pb  Pb7  1  0.383926  0.383926  0.857508  1
  Pb  Pb8  1  0.383926  0.857508  0.383926  1
  Pb  Pb9  1  0.618474  0.138224  0.618474  1
  Pb  Pb10  1  0.138224  0.618474  0.618474  1
  Pb  Pb11  1  0.618474  0.618474  0.138224  1
  Pb  Pb12  1  0.793136  0.287571  0.793136  1
  Pb  Pb13  1  0.206251  0.712412  0.206251  1
  Pb  Pb14  1  0.206251  0.206251  0.712412  1
  Pb  Pb15  1  0.712412  0.206251  0.206251  1
