# generated using pymatgen
data_Hf18CrRe7POs
_symmetry_space_group_name_H-M   'P 1'
_cell_length_a   8.57774400
_cell_length_b   8.57774518
_cell_length_c   8.57868000
_cell_angle_alpha   90.00000000
_cell_angle_beta   90.00000000
_cell_angle_gamma   120.00000315
_symmetry_Int_Tables_number   1
_chemical_formula_structural   Hf18CrRe7POs
_chemical_formula_sum   'Hf18 Cr1 Re7 P1 Os1'
_cell_volume   546.63483905
_cell_formula_units_Z   1
loop_
 _symmetry_equiv_pos_site_id
 _symmetry_equiv_pos_as_xyz
  1  'x, y, z'
loop_
 _atom_site_type_symbol
 _atom_site_label
 _atom_site_symmetry_multiplicity
 _atom_site_fract_x
 _atom_site_fract_y
 _atom_site_fract_z
 _atom_site_occupancy
  Hf  Hf0  1  0.195414  0.804586  0.447890  1
  Hf  Hf1  1  0.195414  0.390826  0.447890  1
  Hf  Hf2  1  0.609174  0.804586  0.447890  1
  Hf  Hf3  1  0.805578  0.194422  0.549255  1
  Hf  Hf4  1  0.805578  0.611155  0.549255  1
  Hf  Hf5  1  0.388845  0.194422  0.549255  1
  Hf  Hf6  1  0.805456  0.194544  0.950616  1
  Hf  Hf7  1  0.805456  0.610912  0.950616  1
  Hf  Hf8  1  0.389088  0.194544  0.950616  1
  Hf  Hf9  1  0.197153  0.802847  0.052575  1
  Hf  Hf10  1  0.197153  0.394303  0.052575  1
  Hf  Hf11  1  0.605697  0.802847  0.052575  1
  Hf  Hf12  1  0.541234  0.458766  0.249928  1
  Hf  Hf13  1  0.541234  0.082469  0.249928  1
  Hf  Hf14  1  0.917531  0.458766  0.249928  1
  Hf  Hf15  1  0.459339  0.540661  0.750067  1
  Hf  Hf16  1  0.459339  0.918676  0.750067  1
  Hf  Hf17  1  0.081324  0.540661  0.750067  1
  Cr  Cr18  1  0.000000  0.000000  0.497077  1
  Re  Re19  1  0.890377  0.109623  0.253931  1
  Re  Re20  1  0.890377  0.780752  0.253931  1
  Re  Re21  1  0.219248  0.109623  0.253931  1
  Re  Re22  1  0.108433  0.891567  0.745952  1
  Re  Re23  1  0.108433  0.216869  0.745952  1
  Re  Re24  1  0.783131  0.891567  0.745952  1
  Re  Re25  1  0.000000  0.000000  0.000874  1
  P  P26  1  0.666667  0.333333  0.750504  1
  Os  Os27  1  0.333333  0.666667  0.250909  1
