# generated using pymatgen
data_TbY(B4W)2
_symmetry_space_group_name_H-M   'P 1'
_cell_length_a   6.05063106
_cell_length_b   11.69442312
_cell_length_c   3.63270800
_cell_angle_alpha   90.00000000
_cell_angle_beta   90.00000000
_cell_angle_gamma   89.98348229
_symmetry_Int_Tables_number   1
_chemical_formula_structural   TbY(B4W)2
_chemical_formula_sum   'Tb2 Y2 B16 W4'
_cell_volume   257.04546619
_cell_formula_units_Z   2
loop_
 _symmetry_equiv_pos_site_id
 _symmetry_equiv_pos_as_xyz
  1  'x, y, z'
loop_
 _atom_site_type_symbol
 _atom_site_label
 _atom_site_symmetry_multiplicity
 _atom_site_fract_x
 _atom_site_fract_y
 _atom_site_fract_z
 _atom_site_occupancy
  Tb  Tb0  1  0.626847  0.350207  0.000000  1
  Tb  Tb1  1  0.373153  0.649793  0.000000  1
  Y  Y2  1  0.126869  0.149748  0.000000  1
  Y  Y3  1  0.873131  0.850252  0.000000  1
  B  B4  1  0.786521  0.186403  0.500000  1
  B  B5  1  0.213479  0.813597  0.500000  1
  B  B6  1  0.286491  0.313582  0.500000  1
  B  B7  1  0.713509  0.686418  0.500000  1
  B  B8  1  0.866399  0.032139  0.500000  1
  B  B9  1  0.133601  0.967861  0.500000  1
  B  B10  1  0.366280  0.467846  0.500000  1
  B  B11  1  0.633720  0.532154  0.500000  1
  B  B12  1  0.886131  0.452815  0.500000  1
  B  B13  1  0.113869  0.547185  0.500000  1
  B  B14  1  0.386081  0.047202  0.500000  1
  B  B15  1  0.613919  0.952798  0.500000  1
  B  B16  1  0.975899  0.306926  0.500000  1
  B  B17  1  0.024101  0.693074  0.500000  1
  B  B18  1  0.475895  0.193038  0.500000  1
  B  B19  1  0.524105  0.806962  0.500000  1
  W  W20  1  0.630620  0.084338  0.000000  1
  W  W21  1  0.369380  0.915662  0.000000  1
  W  W22  1  0.130657  0.415618  0.000000  1
  W  W23  1  0.869343  0.584382  0.000000  1
