# generated using pymatgen
data_Nd9Ho9(ErSi8)2
_symmetry_space_group_name_H-M   'P 1'
_cell_length_a   7.74447488
_cell_length_b   7.74922296
_cell_length_c   14.37774700
_cell_angle_alpha   89.85826916
_cell_angle_beta   90.25530063
_cell_angle_gamma   89.98596248
_symmetry_Int_Tables_number   1
_chemical_formula_structural   Nd9Ho9(ErSi8)2
_chemical_formula_sum   'Nd9 Ho9 Er2 Si16'
_cell_volume   862.85002317
_cell_formula_units_Z   1
loop_
 _symmetry_equiv_pos_site_id
 _symmetry_equiv_pos_as_xyz
  1  'x, y, z'
loop_
 _atom_site_type_symbol
 _atom_site_label
 _atom_site_symmetry_multiplicity
 _atom_site_fract_x
 _atom_site_fract_y
 _atom_site_fract_z
 _atom_site_occupancy
  Nd  Nd0  1  0.012740  0.863267  0.125783  1
  Nd  Nd1  1  0.638889  0.992390  0.458553  1
  Nd  Nd2  1  0.363002  0.006546  0.954120  1
  Nd  Nd3  1  0.989761  0.640562  0.542217  1
  Nd  Nd4  1  0.492373  0.861364  0.206870  1
  Nd  Nd5  1  0.509530  0.139508  0.707660  1
  Nd  Nd6  1  0.859994  0.489985  0.791246  1
  Nd  Nd7  1  0.136654  0.510894  0.294916  1
  Nd  Nd8  1  0.008819  0.360847  0.043283  1
  Ho  Ho9  1  0.488631  0.361274  0.123857  1
  Ho  Ho10  1  0.990650  0.136697  0.625104  1
  Ho  Ho11  1  0.863328  0.008591  0.873977  1
  Ho  Ho12  1  0.136735  0.991875  0.375857  1
  Ho  Ho13  1  0.508839  0.637197  0.625038  1
  Ho  Ho14  1  0.364810  0.489100  0.873351  1
  Ho  Ho15  1  0.636362  0.509918  0.376854  1
  Ho  Ho16  1  0.315636  0.316403  0.500797  1
  Ho  Ho17  1  0.183549  0.815077  0.748774  1
  Er  Er18  1  0.814086  0.185682  0.250714  1
  Er  Er19  1  0.685647  0.682114  0.999831  1
  Si  Si20  1  0.288741  0.934364  0.561511  1
  Si  Si21  1  0.708953  0.067544  0.060410  1
  Si  Si22  1  0.933086  0.289839  0.438798  1
  Si  Si23  1  0.435009  0.213039  0.312545  1
  Si  Si24  1  0.567584  0.787101  0.811470  1
  Si  Si25  1  0.210924  0.433535  0.687895  1
  Si  Si26  1  0.785016  0.562609  0.189823  1
  Si  Si27  1  0.067060  0.706600  0.935190  1
  Si  Si28  1  0.797930  0.844467  0.690080  1
  Si  Si29  1  0.202011  0.162439  0.195474  1
  Si  Si30  1  0.841469  0.798823  0.312895  1
  Si  Si31  1  0.344014  0.702973  0.441485  1
  Si  Si32  1  0.656459  0.297392  0.940109  1
  Si  Si33  1  0.701771  0.345344  0.560548  1
  Si  Si34  1  0.304380  0.653531  0.054715  1
  Si  Si35  1  0.155555  0.201098  0.808250  1
