# generated using pymatgen
data_YbSc2Pa(Al3Ir)6
_symmetry_space_group_name_H-M   'P 1'
_cell_length_a   7.53320177
_cell_length_b   7.52125269
_cell_length_c   9.36363100
_cell_angle_alpha   90.00000000
_cell_angle_beta   90.00000000
_cell_angle_gamma   119.53151117
_symmetry_Int_Tables_number   1
_chemical_formula_structural   YbSc2Pa(Al3Ir)6
_chemical_formula_sum   'Yb1 Sc2 Pa1 Al18 Ir6'
_cell_volume   461.61044228
_cell_formula_units_Z   1
loop_
 _symmetry_equiv_pos_site_id
 _symmetry_equiv_pos_as_xyz
  1  'x, y, z'
loop_
 _atom_site_type_symbol
 _atom_site_label
 _atom_site_symmetry_multiplicity
 _atom_site_fract_x
 _atom_site_fract_y
 _atom_site_fract_z
 _atom_site_occupancy
  Yb  Yb0  1  0.674035  0.994271  0.250000  1
  Sc  Sc1  1  0.001967  0.328134  0.750000  1
  Sc  Sc2  1  0.327253  0.002585  0.750000  1
  Pa  Pa3  1  0.994283  0.672563  0.250000  1
  Al  Al4  1  0.135369  0.132642  0.250000  1
  Al  Al5  1  0.878281  0.880288  0.750000  1
  Al  Al6  1  0.001172  0.331906  0.071446  1
  Al  Al7  1  0.002419  0.664101  0.914893  1
  Al  Al8  1  0.002419  0.664101  0.585107  1
  Al  Al9  1  0.340540  0.004835  0.428574  1
  Al  Al10  1  0.001172  0.331906  0.428554  1
  Al  Al11  1  0.664935  0.003021  0.580422  1
  Al  Al12  1  0.664935  0.003021  0.919578  1
  Al  Al13  1  0.340540  0.004835  0.071426  1
  Al  Al14  1  0.328599  0.328680  0.562716  1
  Al  Al15  1  0.662059  0.665707  0.454263  1
  Al  Al16  1  0.662059  0.665707  0.045737  1
  Al  Al17  1  0.328599  0.328680  0.937284  1
  Al  Al18  1  0.338045  0.547081  0.250000  1
  Al  Al19  1  0.658708  0.443711  0.750000  1
  Al  Al20  1  0.547191  0.344578  0.250000  1
  Al  Al21  1  0.445091  0.660934  0.750000  1
  Ir  Ir22  1  0.674435  0.330336  0.000065  1
  Ir  Ir23  1  0.324754  0.671353  0.999771  1
  Ir  Ir24  1  0.324754  0.671353  0.500229  1
  Ir  Ir25  1  0.674435  0.330336  0.499935  1
  Ir  Ir26  1  0.000976  0.996668  0.001509  1
  Ir  Ir27  1  0.000976  0.996668  0.498491  1
