# generated using pymatgen
data_TbY7Ta8(TiSi4)4
_symmetry_space_group_name_H-M   'P 1'
_cell_length_a   7.05150904
_cell_length_b   7.05489317
_cell_length_c   12.99695518
_cell_angle_alpha   89.98516916
_cell_angle_beta   89.98689727
_cell_angle_gamma   89.98900960
_symmetry_Int_Tables_number   1
_chemical_formula_structural   TbY7Ta8(TiSi4)4
_chemical_formula_sum   'Tb1 Y7 Ta8 Ti4 Si16'
_cell_volume   646.56783506
_cell_formula_units_Z   1
loop_
 _symmetry_equiv_pos_site_id
 _symmetry_equiv_pos_as_xyz
  1  'x, y, z'
loop_
 _atom_site_type_symbol
 _atom_site_label
 _atom_site_symmetry_multiplicity
 _atom_site_fract_x
 _atom_site_fract_y
 _atom_site_fract_z
 _atom_site_occupancy
  Tb  Tb0  1  0.996779  0.660217  0.032535  1
  Y  Y1  1  0.341259  0.001993  0.466887  1
  Y  Y2  1  0.498097  0.840799  0.717263  1
  Y  Y3  1  0.501561  0.158315  0.217080  1
  Y  Y4  1  0.840864  0.498978  0.283318  1
  Y  Y5  1  0.158816  0.502170  0.782554  1
  Y  Y6  1  0.659324  0.997329  0.967470  1
  Y  Y7  1  0.002102  0.340624  0.532963  1
  Ta  Ta8  1  0.328937  0.329503  0.000039  1
  Ta  Ta9  1  0.173631  0.826519  0.249959  1
  Ta  Ta10  1  0.827263  0.173609  0.750023  1
  Ta  Ta11  1  0.671522  0.670435  0.500382  1
  Ta  Ta12  1  0.152964  0.007989  0.874720  1
  Ta  Ta13  1  0.491064  0.653781  0.124878  1
  Ta  Ta14  1  0.507692  0.347260  0.625341  1
  Ta  Ta15  1  0.652587  0.491380  0.874933  1
  Ti  Ti16  1  0.347161  0.508136  0.374967  1
  Ti  Ti17  1  0.846078  0.991643  0.374909  1
  Ti  Ti18  1  0.008483  0.153334  0.124365  1
  Ti  Ti19  1  0.990698  0.844918  0.625192  1
  Si  Si20  1  0.202095  0.131262  0.683092  1
  Si  Si21  1  0.366949  0.704013  0.932905  1
  Si  Si22  1  0.631830  0.297348  0.433842  1
  Si  Si23  1  0.704036  0.365998  0.067102  1
  Si  Si24  1  0.297107  0.633960  0.565538  1
  Si  Si25  1  0.799222  0.869268  0.185197  1
  Si  Si26  1  0.131099  0.200618  0.315382  1
  Si  Si27  1  0.866891  0.798032  0.816221  1
  Si  Si28  1  0.292564  0.955045  0.064801  1
  Si  Si29  1  0.546522  0.793234  0.315055  1
  Si  Si30  1  0.453397  0.205597  0.813830  1
  Si  Si31  1  0.795964  0.547535  0.685011  1
  Si  Si32  1  0.205658  0.452301  0.186558  1
  Si  Si33  1  0.709660  0.045604  0.563228  1
  Si  Si34  1  0.954150  0.293520  0.936796  1
  Si  Si35  1  0.045975  0.707729  0.435669  1
