# generated using pymatgen
data_Lu5(HgTe)2
_symmetry_space_group_name_H-M   'P 1'
_cell_length_a   8.57694011
_cell_length_b   8.57679902
_cell_length_c   7.94082301
_cell_angle_alpha   90.00374555
_cell_angle_beta   90.00124299
_cell_angle_gamma   124.90805352
_symmetry_Int_Tables_number   1
_chemical_formula_structural   Lu5(HgTe)2
_chemical_formula_sum   'Lu10 Hg4 Te4'
_cell_volume   479.04335048
_cell_formula_units_Z   2
loop_
 _symmetry_equiv_pos_site_id
 _symmetry_equiv_pos_as_xyz
  1  'x, y, z'
loop_
 _atom_site_type_symbol
 _atom_site_label
 _atom_site_symmetry_multiplicity
 _atom_site_fract_x
 _atom_site_fract_y
 _atom_site_fract_z
 _atom_site_occupancy
  Lu  Lu0  1  0.000000  0.000000  0.000000  1
  Lu  Lu1  1  0.500000  0.500000  0.500000  1
  Lu  Lu2  1  0.792365  0.535879  0.163490  1
  Lu  Lu3  1  0.464080  0.207577  0.836546  1
  Lu  Lu4  1  0.964108  0.707606  0.663432  1
  Lu  Lu5  1  0.292397  0.035908  0.336490  1
  Lu  Lu6  1  0.207635  0.464121  0.836510  1
  Lu  Lu7  1  0.535920  0.792423  0.163454  1
  Lu  Lu8  1  0.035892  0.292394  0.336568  1
  Lu  Lu9  1  0.707603  0.964092  0.663510  1
  Hg  Hg10  1  0.864530  0.864509  0.366126  1
  Hg  Hg11  1  0.135470  0.135491  0.633874  1
  Hg  Hg12  1  0.635713  0.635347  0.866311  1
  Hg  Hg13  1  0.364287  0.364653  0.133689  1
  Te  Te14  1  0.205638  0.794347  0.000012  1
  Te  Te15  1  0.705614  0.294314  0.500001  1
  Te  Te16  1  0.794362  0.205653  0.999988  1
  Te  Te17  1  0.294386  0.705686  0.499999  1
