# generated using pymatgen
data_LaZnSiRh3
_symmetry_space_group_name_H-M   'P 1'
_cell_length_a   5.67449442
_cell_length_b   6.80711738
_cell_length_c   6.80711673
_cell_angle_alpha   66.70168954
_cell_angle_beta   65.05006378
_cell_angle_gamma   65.05006620
_symmetry_Int_Tables_number   1
_chemical_formula_structural   LaZnSiRh3
_chemical_formula_sum   'La2 Zn2 Si2 Rh6'
_cell_volume   208.44305393
_cell_formula_units_Z   2
loop_
 _symmetry_equiv_pos_site_id
 _symmetry_equiv_pos_as_xyz
  1  'x, y, z'
loop_
 _atom_site_type_symbol
 _atom_site_label
 _atom_site_symmetry_multiplicity
 _atom_site_fract_x
 _atom_site_fract_y
 _atom_site_fract_z
 _atom_site_occupancy
  La  La0  1  0.535715  0.746149  0.746149  1
  La  La1  1  0.464285  0.253851  0.253851  1
  Zn  Zn2  1  0.213228  0.572230  0.572230  1
  Zn  Zn3  1  0.786772  0.427770  0.427770  1
  Si  Si4  1  0.130679  0.093901  0.093901  1
  Si  Si5  1  0.869321  0.906099  0.906099  1
  Rh  Rh6  1  0.500000  0.207488  0.792512  1
  Rh  Rh7  1  0.000000  0.762905  0.237095  1
  Rh  Rh8  1  0.500000  0.792512  0.207488  1
  Rh  Rh9  1  0.000000  0.237095  0.762905  1
  Rh  Rh10  1  0.000000  0.500000  0.000000  1
  Rh  Rh11  1  0.000000  0.000000  0.500000  1
