# generated using pymatgen
data_YHo5(TmIn4)2
_symmetry_space_group_name_H-M   'P 1'
_cell_length_a   6.47288000
_cell_length_b   6.47287814
_cell_length_c   10.23341400
_cell_angle_alpha   90.00000000
_cell_angle_beta   90.00000000
_cell_angle_gamma   102.94636395
_symmetry_Int_Tables_number   1
_chemical_formula_structural   YHo5(TmIn4)2
_chemical_formula_sum   'Y1 Ho5 Tm2 In8'
_cell_volume   417.86223565
_cell_formula_units_Z   1
loop_
 _symmetry_equiv_pos_site_id
 _symmetry_equiv_pos_as_xyz
  1  'x, y, z'
loop_
 _atom_site_type_symbol
 _atom_site_label
 _atom_site_symmetry_multiplicity
 _atom_site_fract_x
 _atom_site_fract_y
 _atom_site_fract_z
 _atom_site_occupancy
  Y  Y0  1  0.478732  0.478732  0.750000  1
  Ho  Ho1  1  0.521365  0.521365  0.250000  1
  Ho  Ho2  1  0.247602  0.752344  0.499910  1
  Ho  Ho3  1  0.247602  0.752344  0.000090  1
  Ho  Ho4  1  0.752344  0.247602  0.499910  1
  Ho  Ho5  1  0.752344  0.247602  0.000090  1
  Tm  Tm6  1  0.987031  0.987031  0.250000  1
  Tm  Tm7  1  0.013055  0.013055  0.750000  1
  In  In8  1  0.251348  0.251348  0.011872  1
  In  In9  1  0.748612  0.748612  0.988142  1
  In  In10  1  0.251348  0.251348  0.488128  1
  In  In11  1  0.748612  0.748612  0.511858  1
  In  In12  1  0.492076  0.013517  0.250000  1
  In  In13  1  0.986334  0.508079  0.750000  1
  In  In14  1  0.508079  0.986334  0.750000  1
  In  In15  1  0.013517  0.492076  0.250000  1
