# generated using pymatgen
data_Pr8Nd12Si15Rh
_symmetry_space_group_name_H-M   'P 1'
_cell_length_a   7.73920303
_cell_length_b   7.98809340
_cell_length_c   15.19385200
_cell_angle_alpha   89.68310364
_cell_angle_beta   89.73620405
_cell_angle_gamma   90.21157402
_symmetry_Int_Tables_number   1
_chemical_formula_structural   Pr8Nd12Si15Rh
_chemical_formula_sum   'Pr8 Nd12 Si15 Rh1'
_cell_volume   939.27555065
_cell_formula_units_Z   1
loop_
 _symmetry_equiv_pos_site_id
 _symmetry_equiv_pos_as_xyz
  1  'x, y, z'
loop_
 _atom_site_type_symbol
 _atom_site_label
 _atom_site_symmetry_multiplicity
 _atom_site_fract_x
 _atom_site_fract_y
 _atom_site_fract_z
 _atom_site_occupancy
  Pr  Pr0  1  0.971076  0.815750  0.098199  1
  Pr  Pr1  1  0.464948  0.684696  0.399494  1
  Pr  Pr2  1  0.528744  0.317404  0.899597  1
  Pr  Pr3  1  0.035110  0.186793  0.602077  1
  Pr  Pr4  1  0.034261  0.183464  0.900997  1
  Pr  Pr5  1  0.535858  0.314363  0.601419  1
  Pr  Pr6  1  0.467124  0.687205  0.102237  1
  Pr  Pr7  1  0.964810  0.815452  0.399040  1
  Nd  Nd8  1  0.646482  0.990883  0.248818  1
  Nd  Nd9  1  0.142151  0.512876  0.247499  1
  Nd  Nd10  1  0.850468  0.487739  0.760296  1
  Nd  Nd11  1  0.356068  0.009595  0.753746  1
  Nd  Nd12  1  0.687348  0.811255  0.883878  1
  Nd  Nd13  1  0.180501  0.683213  0.621334  1
  Nd  Nd14  1  0.817223  0.332578  0.115112  1
  Nd  Nd15  1  0.313161  0.181063  0.377564  1
  Nd  Nd16  1  0.320073  0.181578  0.122680  1
  Nd  Nd17  1  0.815266  0.316034  0.377596  1
  Nd  Nd18  1  0.181961  0.678569  0.879335  1
  Nd  Nd19  1  0.685836  0.817305  0.621495  1
  Si  Si20  1  0.753889  0.620682  0.250565  1
  Si  Si21  1  0.253337  0.880178  0.250789  1
  Si  Si22  1  0.743028  0.117927  0.748633  1
  Si  Si23  1  0.244586  0.379414  0.747079  1
  Si  Si24  1  0.023040  0.104425  0.248125  1
  Si  Si25  1  0.524201  0.400417  0.251216  1
  Si  Si26  1  0.472573  0.603370  0.746420  1
  Si  Si27  1  0.974345  0.899286  0.748798  1
  Si  Si28  1  0.361467  0.973581  0.539992  1
  Si  Si29  1  0.639345  0.026875  0.040757  1
  Si  Si30  1  0.137164  0.472606  0.459962  1
  Si  Si31  1  0.150897  0.471613  0.039938  1
  Si  Si32  1  0.635292  0.027821  0.460352  1
  Si  Si33  1  0.361178  0.968792  0.962493  1
  Si  Si34  1  0.861685  0.527252  0.537434  1
  Rh  Rh35  1  0.865501  0.517941  0.955035  1
