# generated using pymatgen
data_DyLu7InPb3Au8
_symmetry_space_group_name_H-M   'P 1'
_cell_length_a   8.01972557
_cell_length_b   8.03575533
_cell_length_c   7.22563521
_cell_angle_alpha   90.01317887
_cell_angle_beta   90.02370790
_cell_angle_gamma   90.30980497
_symmetry_Int_Tables_number   1
_chemical_formula_structural   DyLu7InPb3Au8
_chemical_formula_sum   'Dy1 Lu7 In1 Pb3 Au8'
_cell_volume   465.64596774
_cell_formula_units_Z   1
loop_
 _symmetry_equiv_pos_site_id
 _symmetry_equiv_pos_as_xyz
  1  'x, y, z'
loop_
 _atom_site_type_symbol
 _atom_site_label
 _atom_site_symmetry_multiplicity
 _atom_site_fract_x
 _atom_site_fract_y
 _atom_site_fract_z
 _atom_site_occupancy
  Dy  Dy0  1  0.847039  0.157045  0.497924  1
  Lu  Lu1  1  0.150579  0.843231  0.497428  1
  Lu  Lu2  1  0.340221  0.353017  0.002233  1
  Lu  Lu3  1  0.654595  0.652974  0.002755  1
  Lu  Lu4  1  0.683816  0.676775  0.498770  1
  Lu  Lu5  1  0.318667  0.321211  0.498255  1
  Lu  Lu6  1  0.179949  0.816614  0.001267  1
  Lu  Lu7  1  0.822750  0.180975  0.001325  1
  In  In8  1  0.999019  0.500220  0.250272  1
  Pb  Pb9  1  0.499993  0.999513  0.251867  1
  Pb  Pb10  1  0.999071  0.499537  0.748727  1
  Pb  Pb11  1  0.500790  0.999315  0.748598  1
  Au  Au12  1  0.630107  0.377548  0.272085  1
  Au  Au13  1  0.367513  0.625736  0.279442  1
  Au  Au14  1  0.130897  0.124465  0.780194  1
  Au  Au15  1  0.873084  0.871723  0.781620  1
  Au  Au16  1  0.373221  0.630209  0.719470  1
  Au  Au17  1  0.624344  0.373222  0.726734  1
  Au  Au18  1  0.876742  0.865765  0.220776  1
  Au  Au19  1  0.127602  0.130907  0.220258  1
