# generated using pymatgen
data_CaDy3(TcB4)4
_symmetry_space_group_name_H-M   'P 1'
_cell_length_a   3.59678400
_cell_length_b   5.97868304
_cell_length_c   11.57436000
_cell_angle_alpha   90.00785877
_cell_angle_beta   90.00000000
_cell_angle_gamma   90.00000000
_symmetry_Int_Tables_number   1
_chemical_formula_structural   CaDy3(TcB4)4
_chemical_formula_sum   'Ca1 Dy3 Tc4 B16'
_cell_volume   248.89539988
_cell_formula_units_Z   1
loop_
 _symmetry_equiv_pos_site_id
 _symmetry_equiv_pos_as_xyz
  1  'x, y, z'
loop_
 _atom_site_type_symbol
 _atom_site_label
 _atom_site_symmetry_multiplicity
 _atom_site_fract_x
 _atom_site_fract_y
 _atom_site_fract_z
 _atom_site_occupancy
  Ca  Ca0  1  0.000000  0.626870  0.349578  1
  Dy  Dy1  1  0.000000  0.373393  0.650072  1
  Dy  Dy2  1  0.000000  0.128162  0.150636  1
  Dy  Dy3  1  0.000000  0.872363  0.849899  1
  Tc  Tc4  1  0.000000  0.633771  0.086298  1
  Tc  Tc5  1  0.000000  0.367187  0.912531  1
  Tc  Tc6  1  0.000000  0.131570  0.415625  1
  Tc  Tc7  1  0.000000  0.870056  0.585988  1
  B  B8  1  0.500000  0.786146  0.184901  1
  B  B9  1  0.500000  0.213286  0.814771  1
  B  B10  1  0.500000  0.285735  0.315299  1
  B  B11  1  0.500000  0.712983  0.684489  1
  B  B12  1  0.500000  0.864088  0.031078  1
  B  B13  1  0.500000  0.136022  0.968609  1
  B  B14  1  0.500000  0.364121  0.468520  1
  B  B15  1  0.500000  0.635781  0.532182  1
  B  B16  1  0.500000  0.885637  0.452602  1
  B  B17  1  0.500000  0.112801  0.547053  1
  B  B18  1  0.500000  0.386951  0.047304  1
  B  B19  1  0.500000  0.613020  0.952619  1
  B  B20  1  0.500000  0.978217  0.307727  1
  B  B21  1  0.500000  0.022463  0.692443  1
  B  B22  1  0.500000  0.476001  0.192353  1
  B  B23  1  0.500000  0.523376  0.807425  1
