# generated using pymatgen
data_Li2LaLuSi4
_symmetry_space_group_name_H-M   'P 1'
_cell_length_a   3.83910100
_cell_length_b   7.71100149
_cell_length_c   10.32824126
_cell_angle_alpha   89.75558088
_cell_angle_beta   90.00000000
_cell_angle_gamma   90.00000000
_symmetry_Int_Tables_number   1
_chemical_formula_structural   Li2LaLuSi4
_chemical_formula_sum   'Li4 La2 Lu2 Si8'
_cell_volume   305.74738244
_cell_formula_units_Z   2
loop_
 _symmetry_equiv_pos_site_id
 _symmetry_equiv_pos_as_xyz
  1  'x, y, z'
loop_
 _atom_site_type_symbol
 _atom_site_label
 _atom_site_symmetry_multiplicity
 _atom_site_fract_x
 _atom_site_fract_y
 _atom_site_fract_z
 _atom_site_occupancy
  Li  Li0  1  0.250000  0.995909  0.388118  1
  Li  Li1  1  0.750000  0.004091  0.611882  1
  Li  Li2  1  0.250000  0.488132  0.104472  1
  Li  Li3  1  0.750000  0.511868  0.895528  1
  La  La4  1  0.250000  0.643061  0.637005  1
  La  La5  1  0.750000  0.356939  0.362995  1
  Lu  Lu6  1  0.250000  0.130519  0.866061  1
  Lu  Lu7  1  0.750000  0.869481  0.133939  1
  Si  Si8  1  0.750000  0.258457  0.059232  1
  Si  Si9  1  0.250000  0.741543  0.940768  1
  Si  Si10  1  0.750000  0.781536  0.419179  1
  Si  Si11  1  0.250000  0.218464  0.580821  1
  Si  Si12  1  0.750000  0.848312  0.828835  1
  Si  Si13  1  0.250000  0.151688  0.171165  1
  Si  Si14  1  0.750000  0.332575  0.687673  1
  Si  Si15  1  0.250000  0.667425  0.312327  1
