# generated using pymatgen
data_PrNd3(CuSn4)2
_symmetry_space_group_name_H-M   'P 1'
_cell_length_a   4.50510500
_cell_length_b   9.04949605
_cell_length_c   17.73167911
_cell_angle_alpha   89.98734787
_cell_angle_beta   90.00000000
_cell_angle_gamma   90.00000000
_symmetry_Int_Tables_number   1
_chemical_formula_structural   PrNd3(CuSn4)2
_chemical_formula_sum   'Pr2 Nd6 Cu4 Sn16'
_cell_volume   722.90156540
_cell_formula_units_Z   2
loop_
 _symmetry_equiv_pos_site_id
 _symmetry_equiv_pos_as_xyz
  1  'x, y, z'
loop_
 _atom_site_type_symbol
 _atom_site_label
 _atom_site_symmetry_multiplicity
 _atom_site_fract_x
 _atom_site_fract_y
 _atom_site_fract_z
 _atom_site_occupancy
  Pr  Pr0  1  0.250000  0.610148  0.647367  1
  Pr  Pr1  1  0.250000  0.366363  0.146903  1
  Nd  Nd2  1  0.250000  0.889707  0.147325  1
  Nd  Nd3  1  0.750000  0.110120  0.852690  1
  Nd  Nd4  1  0.750000  0.633600  0.853229  1
  Nd  Nd5  1  0.250000  0.133413  0.646824  1
  Nd  Nd6  1  0.750000  0.866464  0.353194  1
  Nd  Nd7  1  0.750000  0.389838  0.352704  1
  Cu  Cu8  1  0.750000  0.356863  0.569585  1
  Cu  Cu9  1  0.250000  0.642970  0.430389  1
  Cu  Cu10  1  0.750000  0.142585  0.069532  1
  Cu  Cu11  1  0.250000  0.857096  0.930357  1
  Sn  Sn12  1  0.250000  0.609124  0.007293  1
  Sn  Sn13  1  0.750000  0.868350  0.009481  1
  Sn  Sn14  1  0.750000  0.627790  0.178082  1
  Sn  Sn15  1  0.250000  0.126771  0.322168  1
  Sn  Sn16  1  0.750000  0.391271  0.992311  1
  Sn  Sn17  1  0.750000  0.371572  0.714048  1
  Sn  Sn18  1  0.750000  0.631654  0.509127  1
  Sn  Sn19  1  0.250000  0.872544  0.786269  1
  Sn  Sn20  1  0.750000  0.108722  0.492466  1
  Sn  Sn21  1  0.250000  0.372888  0.822148  1
  Sn  Sn22  1  0.750000  0.127072  0.214042  1
  Sn  Sn23  1  0.250000  0.368182  0.490354  1
  Sn  Sn24  1  0.250000  0.628128  0.286297  1
  Sn  Sn25  1  0.750000  0.873850  0.678060  1
  Sn  Sn26  1  0.250000  0.891466  0.507406  1
  Sn  Sn27  1  0.250000  0.131449  0.990348  1
