# generated using pymatgen
data_Ho3Al27Cr8Re
_symmetry_space_group_name_H-M   'P 1'
_cell_length_a   5.08029386
_cell_length_b   6.86582179
_cell_length_c   19.32356908
_cell_angle_alpha   87.12251033
_cell_angle_beta   97.79844283
_cell_angle_gamma   111.71375553
_symmetry_Int_Tables_number   1
_chemical_formula_structural   Ho3Al27Cr8Re
_chemical_formula_sum   'Ho3 Al27 Cr8 Re1'
_cell_volume   620.39692140
_cell_formula_units_Z   1
loop_
 _symmetry_equiv_pos_site_id
 _symmetry_equiv_pos_as_xyz
  1  'x, y, z'
loop_
 _atom_site_type_symbol
 _atom_site_label
 _atom_site_symmetry_multiplicity
 _atom_site_fract_x
 _atom_site_fract_y
 _atom_site_fract_z
 _atom_site_occupancy
  Ho  Ho0  1  0.333333  0.000000  0.666667  1
  Ho  Ho1  1  0.993733  0.000000  0.998930  1
  Ho  Ho2  1  0.672934  0.000000  0.334403  1
  Al  Al3  1  0.128664  0.350304  0.888355  1
  Al  Al4  1  0.774980  0.353135  0.222551  1
  Al  Al5  1  0.463491  0.350060  0.556148  1
  Al  Al6  1  0.203175  0.649940  0.777186  1
  Al  Al7  1  0.891687  0.646865  0.110782  1
  Al  Al8  1  0.538003  0.649696  0.444978  1
  Al  Al9  1  0.553236  0.350060  0.777186  1
  Al  Al10  1  0.244823  0.353135  0.110782  1
  Al  Al11  1  0.888307  0.350304  0.444978  1
  Al  Al12  1  0.778360  0.649696  0.888355  1
  Al  Al13  1  0.421844  0.646865  0.222551  1
  Al  Al14  1  0.113430  0.649940  0.556148  1
  Al  Al15  1  0.767066  0.776254  0.737533  1
  Al  Al16  1  0.411762  0.775937  0.069597  1
  Al  Al17  1  0.105418  0.776628  0.405397  1
  Al  Al18  1  0.561248  0.223372  0.927937  1
  Al  Al19  1  0.254905  0.224063  0.263736  1
  Al  Al20  1  0.899601  0.223746  0.595800  1
  Al  Al21  1  0.337876  0.776628  0.927937  1
  Al  Al22  1  0.030843  0.775937  0.263736  1
  Al  Al23  1  0.675854  0.776254  0.595800  1
  Al  Al24  1  0.990813  0.223746  0.737533  1
  Al  Al25  1  0.635824  0.224063  0.069597  1
  Al  Al26  1  0.328790  0.223372  0.405397  1
  Al  Al27  1  0.002041  0.000000  0.501205  1
  Al  Al28  1  0.664626  0.000000  0.832128  1
  Al  Al29  1  0.833333  0.000000  0.166667  1
  Cr  Cr30  1  0.500703  0.000000  0.499806  1
  Cr  Cr31  1  0.165964  0.000000  0.833527  1
  Cr  Cr32  1  0.996375  0.486703  0.999365  1
  Cr  Cr33  1  0.670292  0.513297  0.333968  1
  Cr  Cr34  1  0.333333  0.500000  0.666667  1
  Cr  Cr35  1  0.509672  0.513297  0.999365  1
  Cr  Cr36  1  0.156995  0.486703  0.333968  1
  Cr  Cr37  1  0.833333  0.500000  0.666667  1
  Re  Re38  1  0.333333  0.000000  0.166667  1
