# generated using pymatgen
data_Y5IrPt2
_symmetry_space_group_name_H-M   'P 1'
_cell_length_a   11.12172100
_cell_length_b   11.12172100
_cell_length_c   6.35102300
_cell_angle_alpha   90.00000000
_cell_angle_beta   90.00000000
_cell_angle_gamma   90.00000000
_symmetry_Int_Tables_number   1
_chemical_formula_structural   Y5IrPt2
_chemical_formula_sum   'Y20 Ir4 Pt8'
_cell_volume   785.57504292
_cell_formula_units_Z   4
loop_
 _symmetry_equiv_pos_site_id
 _symmetry_equiv_pos_as_xyz
  1  'x, y, z'
loop_
 _atom_site_type_symbol
 _atom_site_label
 _atom_site_symmetry_multiplicity
 _atom_site_fract_x
 _atom_site_fract_y
 _atom_site_fract_z
 _atom_site_occupancy
  Y  Y0  1  0.294755  0.087596  0.375408  1
  Y  Y1  1  0.294755  0.912404  0.875408  1
  Y  Y2  1  0.705245  0.087596  0.875408  1
  Y  Y3  1  0.705245  0.912404  0.375408  1
  Y  Y4  1  0.587596  0.794755  0.875408  1
  Y  Y5  1  0.587596  0.205245  0.375408  1
  Y  Y6  1  0.412404  0.794755  0.375408  1
  Y  Y7  1  0.412404  0.205245  0.875408  1
  Y  Y8  1  0.205245  0.412404  0.624592  1
  Y  Y9  1  0.205245  0.587596  0.124592  1
  Y  Y10  1  0.794755  0.412404  0.124592  1
  Y  Y11  1  0.794755  0.587596  0.624592  1
  Y  Y12  1  0.912404  0.705245  0.124592  1
  Y  Y13  1  0.912404  0.294755  0.624592  1
  Y  Y14  1  0.087596  0.705245  0.624592  1
  Y  Y15  1  0.087596  0.294755  0.124592  1
  Y  Y16  1  0.000000  0.000000  0.500000  1
  Y  Y17  1  0.000000  0.000000  0.000000  1
  Y  Y18  1  0.500000  0.500000  0.000000  1
  Y  Y19  1  0.500000  0.500000  0.500000  1
  Ir  Ir20  1  0.500000  0.000000  0.122556  1
  Ir  Ir21  1  0.500000  0.000000  0.622556  1
  Ir  Ir22  1  0.000000  0.500000  0.877444  1
  Ir  Ir23  1  0.000000  0.500000  0.377444  1
  Pt  Pt24  1  0.846201  0.153799  0.250000  1
  Pt  Pt25  1  0.846201  0.846201  0.750000  1
  Pt  Pt26  1  0.153799  0.153799  0.750000  1
  Pt  Pt27  1  0.153799  0.846201  0.250000  1
  Pt  Pt28  1  0.653799  0.346201  0.750000  1
  Pt  Pt29  1  0.653799  0.653799  0.250000  1
  Pt  Pt30  1  0.346201  0.346201  0.250000  1
  Pt  Pt31  1  0.346201  0.653799  0.750000  1
