# generated using pymatgen
data_Tb8ReOsBr8
_symmetry_space_group_name_H-M   'P 1'
_cell_length_a   9.11821573
_cell_length_b   9.11821452
_cell_length_c   6.56021656
_cell_angle_alpha   89.75365941
_cell_angle_beta   89.75366222
_cell_angle_gamma   89.27248851
_symmetry_Int_Tables_number   1
_chemical_formula_structural   Tb8ReOsBr8
_chemical_formula_sum   'Tb8 Re1 Os1 Br8'
_cell_volume   545.37459836
_cell_formula_units_Z   1
loop_
 _symmetry_equiv_pos_site_id
 _symmetry_equiv_pos_as_xyz
  1  'x, y, z'
loop_
 _atom_site_type_symbol
 _atom_site_label
 _atom_site_symmetry_multiplicity
 _atom_site_fract_x
 _atom_site_fract_y
 _atom_site_fract_z
 _atom_site_occupancy
  Tb  Tb0  1  0.752274  0.099278  0.989353  1
  Tb  Tb1  1  0.098845  0.753171  0.488313  1
  Tb  Tb2  1  0.096540  0.245877  0.995453  1
  Tb  Tb3  1  0.245784  0.096437  0.494455  1
  Tb  Tb4  1  0.903563  0.754216  0.005545  1
  Tb  Tb5  1  0.900722  0.247726  0.510647  1
  Tb  Tb6  1  0.246829  0.901155  0.011687  1
  Tb  Tb7  1  0.754123  0.903460  0.504547  1
  Re  Re8  1  0.995834  0.004166  0.250000  1
  Os  Os9  1  0.004279  0.995721  0.750000  1
  Br  Br10  1  0.585406  0.180893  0.582798  1
  Br  Br11  1  0.815205  0.589968  0.415894  1
  Br  Br12  1  0.410032  0.184795  0.084106  1
  Br  Br13  1  0.184679  0.409347  0.584089  1
  Br  Br14  1  0.590653  0.815321  0.915911  1
  Br  Br15  1  0.414938  0.818812  0.418904  1
  Br  Br16  1  0.181188  0.585062  0.081096  1
  Br  Br17  1  0.819107  0.414594  0.917202  1
