# generated using pymatgen
data_Ac2Dy2P7Ir8
_symmetry_space_group_name_H-M   'P 1'
_cell_length_a   3.99187600
_cell_length_b   12.96307597
_cell_length_c   13.31014726
_cell_angle_alpha   81.13800304
_cell_angle_beta   90.00000000
_cell_angle_gamma   90.00000000
_symmetry_Int_Tables_number   1
_chemical_formula_structural   Ac2Dy2P7Ir8
_chemical_formula_sum   'Ac4 Dy4 P14 Ir16'
_cell_volume   680.53784658
_cell_formula_units_Z   2
loop_
 _symmetry_equiv_pos_site_id
 _symmetry_equiv_pos_as_xyz
  1  'x, y, z'
loop_
 _atom_site_type_symbol
 _atom_site_label
 _atom_site_symmetry_multiplicity
 _atom_site_fract_x
 _atom_site_fract_y
 _atom_site_fract_z
 _atom_site_occupancy
  Ac  Ac0  1  0.250000  0.107827  0.786098  1
  Ac  Ac1  1  0.750000  0.892173  0.213902  1
  Ac  Ac2  1  0.250000  0.281538  0.104365  1
  Ac  Ac3  1  0.750000  0.718462  0.895635  1
  Dy  Dy4  1  0.250000  0.519905  0.295204  1
  Dy  Dy5  1  0.750000  0.480095  0.704796  1
  Dy  Dy6  1  0.250000  0.208981  0.440781  1
  Dy  Dy7  1  0.750000  0.791019  0.559219  1
  P  P8  1  0.250000  0.052962  0.098452  1
  P  P9  1  0.750000  0.947038  0.901548  1
  P  P10  1  0.250000  0.321251  0.682650  1
  P  P11  1  0.750000  0.678749  0.317350  1
  P  P12  1  0.250000  0.607463  0.564834  1
  P  P13  1  0.750000  0.392537  0.435166  1
  P  P14  1  0.250000  0.841994  0.713039  1
  P  P15  1  0.750000  0.158006  0.286961  1
  P  P16  1  0.750000  0.258679  0.914859  1
  P  P17  1  0.250000  0.741321  0.085141  1
  P  P18  1  0.750000  0.093335  0.585267  1
  P  P19  1  0.250000  0.906665  0.414733  1
  P  P20  1  0.750000  0.473710  0.130977  1
  P  P21  1  0.250000  0.526290  0.869023  1
  Ir  Ir22  1  0.250000  0.988431  0.574739  1
  Ir  Ir23  1  0.750000  0.011569  0.425261  1
  Ir  Ir24  1  0.250000  0.660384  0.724684  1
  Ir  Ir25  1  0.750000  0.339616  0.275316  1
  Ir  Ir26  1  0.250000  0.548200  0.051738  1
  Ir  Ir27  1  0.750000  0.451800  0.948262  1
  Ir  Ir28  1  0.250000  0.064952  0.275316  1
  Ir  Ir29  1  0.750000  0.935048  0.724684  1
  Ir  Ir30  1  0.250000  0.423986  0.521347  1
  Ir  Ir31  1  0.750000  0.576014  0.478653  1
  Ir  Ir32  1  0.250000  0.915785  0.998644  1
  Ir  Ir33  1  0.750000  0.084215  0.001356  1
  Ir  Ir34  1  0.250000  0.726523  0.401406  1
  Ir  Ir35  1  0.750000  0.273477  0.598594  1
  Ir  Ir36  1  0.250000  0.346043  0.853235  1
  Ir  Ir37  1  0.750000  0.653957  0.146765  1
