# generated using pymatgen
data_Th4In2Pt3Au
_symmetry_space_group_name_H-M   'P 1'
_cell_length_a   8.01366997
_cell_length_b   3.84269200
_cell_length_c   8.01367000
_cell_angle_alpha   90.00000000
_cell_angle_beta   89.62463516
_cell_angle_gamma   90.00000000
_symmetry_Int_Tables_number   1
_chemical_formula_structural   Th4In2Pt3Au
_chemical_formula_sum   'Th4 In2 Pt3 Au1'
_cell_volume   246.76818309
_cell_formula_units_Z   1
loop_
 _symmetry_equiv_pos_site_id
 _symmetry_equiv_pos_as_xyz
  1  'x, y, z'
loop_
 _atom_site_type_symbol
 _atom_site_label
 _atom_site_symmetry_multiplicity
 _atom_site_fract_x
 _atom_site_fract_y
 _atom_site_fract_z
 _atom_site_occupancy
  Th  Th0  1  0.329359  0.500000  0.182710  1
  Th  Th1  1  0.823958  0.500000  0.323958  1
  Th  Th2  1  0.163826  0.500000  0.663827  1
  Th  Th3  1  0.682711  0.500000  0.829359  1
  In  In4  1  0.002326  0.000000  0.001912  1
  In  In5  1  0.501912  0.000000  0.502326  1
  Pt  Pt6  1  0.628373  0.000000  0.128372  1
  Pt  Pt7  1  0.128937  0.000000  0.368433  1
  Pt  Pt8  1  0.868434  0.000000  0.628938  1
  Au  Au9  1  0.370172  0.000000  0.870173  1
