# generated using pymatgen
data_Sr3Zn3Te(AsO7)2
_symmetry_space_group_name_H-M   'P 1'
_cell_length_a   8.55425401
_cell_length_b   8.55453526
_cell_length_c   5.30486101
_cell_angle_alpha   90.00116310
_cell_angle_beta   90.00582797
_cell_angle_gamma   120.00076152
_symmetry_Int_Tables_number   1
_chemical_formula_structural   Sr3Zn3Te(AsO7)2
_chemical_formula_sum   'Sr3 Zn3 Te1 As2 O14'
_cell_volume   336.18618898
_cell_formula_units_Z   1
loop_
 _symmetry_equiv_pos_site_id
 _symmetry_equiv_pos_as_xyz
  1  'x, y, z'
loop_
 _atom_site_type_symbol
 _atom_site_label
 _atom_site_symmetry_multiplicity
 _atom_site_fract_x
 _atom_site_fract_y
 _atom_site_fract_z
 _atom_site_occupancy
  Sr  Sr0  1  0.579159  0.000008  0.000007  1
  Sr  Sr1  1  0.420838  0.420846  0.999999  1
  Sr  Sr2  1  0.999997  0.579154  0.000000  1
  Zn  Zn3  1  0.232622  0.000002  0.500010  1
  Zn  Zn4  1  0.999999  0.232611  0.499999  1
  Zn  Zn5  1  0.767378  0.767386  0.499983  1
  Te  Te6  1  0.000000  0.000001  0.999993  1
  As  As7  1  0.666667  0.333349  0.450133  1
  As  As8  1  0.333330  0.666681  0.549874  1
  O  O9  1  0.784707  0.913396  0.212898  1
  O  O10  1  0.128689  0.215301  0.212910  1
  O  O11  1  0.086608  0.871315  0.212906  1
  O  O12  1  0.333327  0.666664  0.227445  1
  O  O13  1  0.472958  0.159960  0.315653  1
  O  O14  1  0.686989  0.526981  0.315689  1
  O  O15  1  0.840013  0.313007  0.315675  1
  O  O16  1  0.160002  0.473008  0.684321  1
  O  O17  1  0.313008  0.839997  0.684323  1
  O  O18  1  0.527046  0.687005  0.684357  1
  O  O19  1  0.666675  0.333342  0.772565  1
  O  O20  1  0.913390  0.784704  0.787085  1
  O  O21  1  0.871307  0.086608  0.787082  1
  O  O22  1  0.215287  0.128685  0.787094  1
