# generated using pymatgen
data_Ce2ErSnRh3Pb2
_symmetry_space_group_name_H-M   'P 1'
_cell_length_a   7.63732469
_cell_length_b   7.70720964
_cell_length_c   3.94788700
_cell_angle_alpha   90.00000000
_cell_angle_beta   90.00000000
_cell_angle_gamma   120.17895619
_symmetry_Int_Tables_number   1
_chemical_formula_structural   Ce2ErSnRh3Pb2
_chemical_formula_sum   'Ce2 Er1 Sn1 Rh3 Pb2'
_cell_volume   200.88512932
_cell_formula_units_Z   1
loop_
 _symmetry_equiv_pos_site_id
 _symmetry_equiv_pos_as_xyz
  1  'x, y, z'
loop_
 _atom_site_type_symbol
 _atom_site_label
 _atom_site_symmetry_multiplicity
 _atom_site_fract_x
 _atom_site_fract_y
 _atom_site_fract_z
 _atom_site_occupancy
  Ce  Ce0  1  0.586779  0.000573  0.000000  1
  Ce  Ce1  1  0.006569  0.594951  0.000000  1
  Er  Er2  1  0.407486  0.396875  0.000000  1
  Sn  Sn3  1  0.259420  0.007051  0.500000  1
  Rh  Rh4  1  0.010050  0.997484  0.000000  1
  Rh  Rh5  1  0.663192  0.325050  0.500000  1
  Rh  Rh6  1  0.326374  0.682898  0.500000  1
  Pb  Pb7  1  0.007579  0.261788  0.500000  1
  Pb  Pb8  1  0.732552  0.733329  0.500000  1
