# generated using pymatgen
data_VPd(SeO3)4
_symmetry_space_group_name_H-M   'P 1'
_cell_length_a   8.14637400
_cell_length_b   8.10668469
_cell_length_c   7.91515920
_cell_angle_alpha   91.11700472
_cell_angle_beta   90.00000000
_cell_angle_gamma   90.00000000
_symmetry_Int_Tables_number   1
_chemical_formula_structural   VPd(SeO3)4
_chemical_formula_sum   'V2 Pd2 Se8 O24'
_cell_volume   522.61845798
_cell_formula_units_Z   2
loop_
 _symmetry_equiv_pos_site_id
 _symmetry_equiv_pos_as_xyz
  1  'x, y, z'
loop_
 _atom_site_type_symbol
 _atom_site_label
 _atom_site_symmetry_multiplicity
 _atom_site_fract_x
 _atom_site_fract_y
 _atom_site_fract_z
 _atom_site_occupancy
  V  V0  1  0.000000  0.500000  0.000000  1
  V  V1  1  0.500000  0.500000  0.500000  1
  Pd  Pd2  1  0.000000  0.000000  0.500000  1
  Pd  Pd3  1  0.500000  0.000000  0.000000  1
  Se  Se4  1  0.338707  0.678950  0.181262  1
  Se  Se5  1  0.838707  0.321050  0.318738  1
  Se  Se6  1  0.680810  0.832878  0.666249  1
  Se  Se7  1  0.180810  0.167122  0.833751  1
  Se  Se8  1  0.661293  0.321050  0.818738  1
  Se  Se9  1  0.161293  0.678950  0.681262  1
  Se  Se10  1  0.319190  0.167122  0.333751  1
  Se  Se11  1  0.819190  0.832878  0.166249  1
  O  O12  1  0.230106  0.568192  0.029990  1
  O  O13  1  0.730106  0.431808  0.470010  1
  O  O14  1  0.754038  0.990401  0.536250  1
  O  O15  1  0.254038  0.009599  0.963750  1
  O  O16  1  0.513572  0.943476  0.749118  1
  O  O17  1  0.458476  0.518249  0.257983  1
  O  O18  1  0.958476  0.481751  0.242017  1
  O  O19  1  0.013572  0.056524  0.750882  1
  O  O20  1  0.994447  0.243944  0.449099  1
  O  O21  1  0.571856  0.728704  0.507923  1
  O  O22  1  0.494447  0.756056  0.050901  1
  O  O23  1  0.071856  0.271296  0.992077  1
  O  O24  1  0.769894  0.431808  0.970010  1
  O  O25  1  0.269894  0.568192  0.529990  1
  O  O26  1  0.245962  0.009599  0.463750  1
  O  O27  1  0.745962  0.990401  0.036250  1
  O  O28  1  0.486428  0.056524  0.250882  1
  O  O29  1  0.541524  0.481751  0.742017  1
  O  O30  1  0.041524  0.518249  0.757983  1
  O  O31  1  0.986428  0.943476  0.249118  1
  O  O32  1  0.005553  0.756056  0.550901  1
  O  O33  1  0.428144  0.271296  0.492077  1
  O  O34  1  0.505553  0.243944  0.949099  1
  O  O35  1  0.928144  0.728704  0.007923  1
