# generated using pymatgen
data_Th14Re2RuPt3
_symmetry_space_group_name_H-M   'P 1'
_cell_length_a   10.15463500
_cell_length_b   10.09245119
_cell_length_c   6.32011365
_cell_angle_alpha   89.66838714
_cell_angle_beta   90.00000000
_cell_angle_gamma   120.20402496
_symmetry_Int_Tables_number   1
_chemical_formula_structural   Th14Re2RuPt3
_chemical_formula_sum   'Th14 Re2 Ru1 Pt3'
_cell_volume   559.77077114
_cell_formula_units_Z   1
loop_
 _symmetry_equiv_pos_site_id
 _symmetry_equiv_pos_as_xyz
  1  'x, y, z'
loop_
 _atom_site_type_symbol
 _atom_site_label
 _atom_site_symmetry_multiplicity
 _atom_site_fract_x
 _atom_site_fract_y
 _atom_site_fract_z
 _atom_site_occupancy
  Th  Th0  1  0.667040  0.334080  0.578289  1
  Th  Th1  1  0.332811  0.665623  0.036885  1
  Th  Th2  1  0.877118  0.754238  0.753829  1
  Th  Th3  1  0.249746  0.125249  0.753693  1
  Th  Th4  1  0.875503  0.125249  0.753693  1
  Th  Th5  1  0.129254  0.258508  0.243279  1
  Th  Th6  1  0.739857  0.870365  0.251380  1
  Th  Th7  1  0.130507  0.870365  0.251380  1
  Th  Th8  1  0.456585  0.913170  0.544878  1
  Th  Th9  1  0.087028  0.541867  0.543907  1
  Th  Th10  1  0.454837  0.541867  0.543907  1
  Th  Th11  1  0.537301  0.074601  0.034149  1
  Th  Th12  1  0.922397  0.464123  0.034794  1
  Th  Th13  1  0.541729  0.464123  0.034794  1
  Re  Re14  1  0.628930  0.813204  0.803465  1
  Re  Re15  1  0.184274  0.813204  0.803465  1
  Ru  Ru16  1  0.183615  0.367229  0.800733  1
  Pt  Pt17  1  0.810321  0.620642  0.307229  1
  Pt  Pt18  1  0.379751  0.191147  0.307175  1
  Pt  Pt19  1  0.811395  0.191147  0.307175  1
