# generated using pymatgen
data_La2As7Ru5Rh7
_symmetry_space_group_name_H-M   'P 1'
_cell_length_a   10.00890405
_cell_length_b   9.98685414
_cell_length_c   3.99351763
_cell_angle_alpha   90.04859345
_cell_angle_beta   89.93869139
_cell_angle_gamma   120.23214974
_symmetry_Int_Tables_number   1
_chemical_formula_structural   La2As7Ru5Rh7
_chemical_formula_sum   'La2 As7 Ru5 Rh7'
_cell_volume   344.88991170
_cell_formula_units_Z   1
loop_
 _symmetry_equiv_pos_site_id
 _symmetry_equiv_pos_as_xyz
  1  'x, y, z'
loop_
 _atom_site_type_symbol
 _atom_site_label
 _atom_site_symmetry_multiplicity
 _atom_site_fract_x
 _atom_site_fract_y
 _atom_site_fract_z
 _atom_site_occupancy
  La  La0  1  0.000343  0.000236  0.748287  1
  La  La1  1  0.332783  0.667671  0.253483  1
  As  As2  1  0.668045  0.331919  0.523767  1
  As  As3  1  0.065982  0.619900  0.753042  1
  As  As4  1  0.376683  0.444830  0.752528  1
  As  As5  1  0.553232  0.933215  0.753000  1
  As  As6  1  0.267570  0.046507  0.249220  1
  As  As7  1  0.953929  0.221134  0.249426  1
  As  As8  1  0.781414  0.735021  0.248604  1
  Ru  Ru9  1  0.811239  0.596326  0.746182  1
  Ru  Ru10  1  0.403811  0.215934  0.746325  1
  Ru  Ru11  1  0.785655  0.187847  0.747301  1
  Ru  Ru12  1  0.523317  0.072345  0.255332  1
  Ru  Ru13  1  0.927874  0.450871  0.254770  1
  Rh  Rh14  1  0.549635  0.477863  0.251268  1
  Rh  Rh15  1  0.108325  0.393368  0.753076  1
  Rh  Rh16  1  0.605293  0.714525  0.753346  1
  Rh  Rh17  1  0.284968  0.890414  0.753245  1
  Rh  Rh18  1  0.224059  0.273084  0.249216  1
  Rh  Rh19  1  0.727311  0.951078  0.249329  1
  Rh  Rh20  1  0.048533  0.775911  0.249190  1
