# generated using pymatgen
data_Sm2BeAl8Cu17
_symmetry_space_group_name_H-M   'P 1'
_cell_length_a   8.23810924
_cell_length_b   8.23810743
_cell_length_c   8.28078000
_cell_angle_alpha   120.38275741
_cell_angle_beta   120.38275810
_cell_angle_gamma   89.03807980
_symmetry_Int_Tables_number   1
_chemical_formula_structural   Sm2BeAl8Cu17
_chemical_formula_sum   'Sm2 Be1 Al8 Cu17'
_cell_volume   396.06808747
_cell_formula_units_Z   1
loop_
 _symmetry_equiv_pos_site_id
 _symmetry_equiv_pos_as_xyz
  1  'x, y, z'
loop_
 _atom_site_type_symbol
 _atom_site_label
 _atom_site_symmetry_multiplicity
 _atom_site_fract_x
 _atom_site_fract_y
 _atom_site_fract_z
 _atom_site_occupancy
  Sm  Sm0  1  0.750000  0.750000  0.000000  1
  Sm  Sm1  1  0.250000  0.250000  0.000000  1
  Be  Be2  1  0.000000  0.500000  0.500000  1
  Al  Al3  1  0.061255  0.561255  0.863000  1
  Al  Al4  1  0.698256  0.198256  0.137000  1
  Al  Al5  1  0.557285  0.695180  0.500000  1
  Al  Al6  1  0.195180  0.057285  0.500000  1
  Al  Al7  1  0.938745  0.438745  0.137000  1
  Al  Al8  1  0.301744  0.801744  0.863000  1
  Al  Al9  1  0.442715  0.304820  0.500000  1
  Al  Al10  1  0.804820  0.942715  0.500000  1
  Cu  Cu11  1  0.060125  0.213146  0.273271  1
  Cu  Cu12  1  0.939875  0.786854  0.726729  1
  Cu  Cu13  1  0.556772  0.302154  0.858925  1
  Cu  Cu14  1  0.443228  0.697846  0.141075  1
  Cu  Cu15  1  0.802154  0.056772  0.858925  1
  Cu  Cu16  1  0.197846  0.943228  0.141075  1
  Cu  Cu17  1  0.713146  0.560125  0.273271  1
  Cu  Cu18  1  0.286854  0.439875  0.726729  1
  Cu  Cu19  1  0.439326  0.939326  0.735403  1
  Cu  Cu20  1  0.203923  0.703923  0.264597  1
  Cu  Cu21  1  0.936682  0.213178  0.500000  1
  Cu  Cu22  1  0.713178  0.436682  0.500000  1
  Cu  Cu23  1  0.560674  0.060674  0.264597  1
  Cu  Cu24  1  0.796077  0.296077  0.735403  1
  Cu  Cu25  1  0.063318  0.786822  0.500000  1
  Cu  Cu26  1  0.286822  0.563318  0.500000  1
  Cu  Cu27  1  0.500000  0.000000  0.500000  1
