# generated using pymatgen
data_CsV2F6
_symmetry_space_group_name_H-M   'P 1'
_cell_length_a   7.58679467
_cell_length_b   7.58679358
_cell_length_c   7.58679461
_cell_angle_alpha   119.75280031
_cell_angle_beta   119.38265265
_cell_angle_gamma   90.75065980
_symmetry_Int_Tables_number   1
_chemical_formula_structural   CsV2F6
_chemical_formula_sum   'Cs2 V4 F12'
_cell_volume   310.77234756
_cell_formula_units_Z   2
loop_
 _symmetry_equiv_pos_site_id
 _symmetry_equiv_pos_as_xyz
  1  'x, y, z'
loop_
 _atom_site_type_symbol
 _atom_site_label
 _atom_site_symmetry_multiplicity
 _atom_site_fract_x
 _atom_site_fract_y
 _atom_site_fract_z
 _atom_site_occupancy
  Cs  Cs0  1  0.370461  0.120461  0.250000  1
  Cs  Cs1  1  0.629539  0.879539  0.750000  1
  V  V2  1  0.000000  0.500000  0.500000  1
  V  V3  1  0.500000  0.500000  0.000000  1
  V  V4  1  0.000000  0.500000  0.000000  1
  V  V5  1  0.000000  0.000000  0.500000  1
  F  F6  1  0.314058  0.564058  0.750000  1
  F  F7  1  0.921624  0.171624  0.750000  1
  F  F8  1  0.325992  0.190866  0.764943  1
  F  F9  1  0.925923  0.561048  0.735057  1
  F  F10  1  0.325992  0.561048  0.135124  1
  F  F11  1  0.925923  0.190866  0.364876  1
  F  F12  1  0.685942  0.435942  0.250000  1
  F  F13  1  0.078376  0.828376  0.250000  1
  F  F14  1  0.674008  0.809134  0.235057  1
  F  F15  1  0.074077  0.438952  0.264943  1
  F  F16  1  0.674008  0.438952  0.864876  1
  F  F17  1  0.074077  0.809134  0.635124  1
