# generated using pymatgen
data_TeMoF12
_symmetry_space_group_name_H-M   'P 1'
_cell_length_a   5.28515000
_cell_length_b   9.07078700
_cell_length_c   10.11789700
_cell_angle_alpha   90.00000000
_cell_angle_beta   90.00000000
_cell_angle_gamma   90.00000000
_symmetry_Int_Tables_number   1
_chemical_formula_structural   TeMoF12
_chemical_formula_sum   'Te2 Mo2 F24'
_cell_volume   485.05673671
_cell_formula_units_Z   2
loop_
 _symmetry_equiv_pos_site_id
 _symmetry_equiv_pos_as_xyz
  1  'x, y, z'
loop_
 _atom_site_type_symbol
 _atom_site_label
 _atom_site_symmetry_multiplicity
 _atom_site_fract_x
 _atom_site_fract_y
 _atom_site_fract_z
 _atom_site_occupancy
  Te  Te0  1  0.402962  0.250000  0.372256  1
  Te  Te1  1  0.902962  0.750000  0.127744  1
  Mo  Mo2  1  0.597229  0.750000  0.627643  1
  Mo  Mo3  1  0.097229  0.250000  0.872357  1
  F  F4  1  0.554781  0.395353  0.268750  1
  F  F5  1  0.054781  0.604647  0.231250  1
  F  F6  1  0.445030  0.895507  0.731362  1
  F  F7  1  0.945030  0.104493  0.768638  1
  F  F8  1  0.182510  0.750000  0.015019  1
  F  F9  1  0.682510  0.250000  0.484981  1
  F  F10  1  0.817211  0.250000  0.985036  1
  F  F11  1  0.317211  0.750000  0.514964  1
  F  F12  1  0.622550  0.750000  0.240096  1
  F  F13  1  0.122550  0.250000  0.259904  1
  F  F14  1  0.377747  0.250000  0.759795  1
  F  F15  1  0.877747  0.750000  0.740205  1
  F  F16  1  0.749991  0.895509  0.024457  1
  F  F17  1  0.249991  0.104491  0.475543  1
  F  F18  1  0.250093  0.395601  0.975573  1
  F  F19  1  0.750093  0.604399  0.524427  1
  F  F20  1  0.250093  0.104399  0.975573  1
  F  F21  1  0.750093  0.895601  0.524427  1
  F  F22  1  0.749991  0.604491  0.024457  1
  F  F23  1  0.249991  0.395509  0.475543  1
  F  F24  1  0.054781  0.895353  0.231250  1
  F  F25  1  0.554781  0.104647  0.268750  1
  F  F26  1  0.945030  0.395507  0.768638  1
  F  F27  1  0.445030  0.604493  0.731362  1
