# generated using pymatgen
data_TbCe2(DyRu)2
_symmetry_space_group_name_H-M   'P 1'
_cell_length_a   6.37960553
_cell_length_b   7.01393930
_cell_length_c   8.83287200
_cell_angle_alpha   95.38442664
_cell_angle_beta   111.16953289
_cell_angle_gamma   90.00000351
_symmetry_Int_Tables_number   1
_chemical_formula_structural   TbCe2(DyRu)2
_chemical_formula_sum   'Tb2 Ce4 Dy4 Ru4'
_cell_volume   366.69414599
_cell_formula_units_Z   2
loop_
 _symmetry_equiv_pos_site_id
 _symmetry_equiv_pos_as_xyz
  1  'x, y, z'
loop_
 _atom_site_type_symbol
 _atom_site_label
 _atom_site_symmetry_multiplicity
 _atom_site_fract_x
 _atom_site_fract_y
 _atom_site_fract_z
 _atom_site_occupancy
  Tb  Tb0  1  0.419182  0.750000  0.000000  1
  Tb  Tb1  1  0.580818  0.250000  0.000000  1
  Ce  Ce2  1  0.793669  0.595205  0.811100  1
  Ce  Ce3  1  0.982569  0.904795  0.188900  1
  Ce  Ce4  1  0.206331  0.404795  0.188900  1
  Ce  Ce5  1  0.017431  0.095205  0.811100  1
  Dy  Dy6  1  0.208479  0.684129  0.567096  1
  Dy  Dy7  1  0.641382  0.815871  0.432904  1
  Dy  Dy8  1  0.791521  0.315871  0.432904  1
  Dy  Dy9  1  0.358618  0.184129  0.567096  1
  Ru  Ru10  1  0.627945  0.906704  0.779571  1
  Ru  Ru11  1  0.848373  0.593296  0.220429  1
  Ru  Ru12  1  0.372055  0.093296  0.220429  1
  Ru  Ru13  1  0.151627  0.406704  0.779571  1
