# generated using pymatgen
data_Yb4YS5
_symmetry_space_group_name_H-M   'P 1'
_cell_length_a   16.44046274
_cell_length_b   16.44046301
_cell_length_c   16.44046370
_cell_angle_alpha   13.85898796
_cell_angle_beta   13.85898323
_cell_angle_gamma   13.85899014
_symmetry_Int_Tables_number   1
_chemical_formula_structural   Yb4YS5
_chemical_formula_sum   'Yb4 Y1 S5'
_cell_volume   221.87898623
_cell_formula_units_Z   1
loop_
 _symmetry_equiv_pos_site_id
 _symmetry_equiv_pos_as_xyz
  1  'x, y, z'
loop_
 _atom_site_type_symbol
 _atom_site_label
 _atom_site_symmetry_multiplicity
 _atom_site_fract_x
 _atom_site_fract_y
 _atom_site_fract_z
 _atom_site_occupancy
  Yb  Yb0  1  0.100237  0.100237  0.100237  1
  Yb  Yb1  1  0.700112  0.700112  0.700112  1
  Yb  Yb2  1  0.299888  0.299888  0.299888  1
  Yb  Yb3  1  0.899763  0.899763  0.899763  1
  Y  Y4  1  0.500000  0.500000  0.500000  1
  S  S5  1  0.599631  0.599631  0.599631  1
  S  S6  1  0.400369  0.400369  0.400369  1
  S  S7  1  0.000000  0.000000  0.000000  1
  S  S8  1  0.199516  0.199516  0.199516  1
  S  S9  1  0.800484  0.800484  0.800484  1
