# generated using pymatgen
data_Ce8Ta7Ti4Si16Mo
_symmetry_space_group_name_H-M   'P 1'
_cell_length_a   7.03972547
_cell_length_b   7.03798500
_cell_length_c   12.99877900
_cell_angle_alpha   89.91018103
_cell_angle_beta   90.02099842
_cell_angle_gamma   89.96457915
_symmetry_Int_Tables_number   1
_chemical_formula_structural   Ce8Ta7Ti4Si16Mo
_chemical_formula_sum   'Ce8 Ta7 Ti4 Si16 Mo1'
_cell_volume   644.02981630
_cell_formula_units_Z   1
loop_
 _symmetry_equiv_pos_site_id
 _symmetry_equiv_pos_as_xyz
  1  'x, y, z'
loop_
 _atom_site_type_symbol
 _atom_site_label
 _atom_site_symmetry_multiplicity
 _atom_site_fract_x
 _atom_site_fract_y
 _atom_site_fract_z
 _atom_site_occupancy
  Ce  Ce0  1  0.334593  0.005740  0.467834  1
  Ce  Ce1  1  0.495845  0.836928  0.717707  1
  Ce  Ce2  1  0.504738  0.163837  0.217166  1
  Ce  Ce3  1  0.834707  0.493743  0.282803  1
  Ce  Ce4  1  0.163354  0.504392  0.783044  1
  Ce  Ce5  1  0.664483  0.995005  0.967857  1
  Ce  Ce6  1  0.007037  0.333889  0.532861  1
  Ce  Ce7  1  0.994469  0.665697  0.031568  1
  Ta  Ta8  1  0.330080  0.331208  0.999300  1
  Ta  Ta9  1  0.170850  0.829057  0.249044  1
  Ta  Ta10  1  0.830807  0.170435  0.750644  1
  Ta  Ta11  1  0.670492  0.669104  0.500126  1
  Ta  Ta12  1  0.492513  0.657731  0.125634  1
  Ta  Ta13  1  0.504621  0.343922  0.627175  1
  Ta  Ta14  1  0.655614  0.494487  0.873732  1
  Ti  Ti15  1  0.343653  0.505058  0.374095  1
  Ti  Ti16  1  0.842712  0.993057  0.376072  1
  Ti  Ti17  1  0.004862  0.155955  0.123855  1
  Ti  Ti18  1  0.994273  0.842612  0.623750  1
  Si  Si19  1  0.201665  0.126267  0.687313  1
  Si  Si20  1  0.369903  0.707401  0.934618  1
  Si  Si21  1  0.628648  0.297284  0.436495  1
  Si  Si22  1  0.703588  0.370509  0.064340  1
  Si  Si23  1  0.298411  0.630322  0.563320  1
  Si  Si24  1  0.798209  0.872130  0.186709  1
  Si  Si25  1  0.128147  0.200085  0.312902  1
  Si  Si26  1  0.875098  0.800663  0.813713  1
  Si  Si27  1  0.289713  0.961094  0.063831  1
  Si  Si28  1  0.541828  0.791484  0.315544  1
  Si  Si29  1  0.455673  0.205984  0.815629  1
  Si  Si30  1  0.794398  0.543837  0.684371  1
  Si  Si31  1  0.204999  0.456536  0.185163  1
  Si  Si32  1  0.710203  0.041145  0.564535  1
  Si  Si33  1  0.959862  0.288895  0.936246  1
  Si  Si34  1  0.042147  0.707653  0.434594  1
  Mo  Mo35  1  0.157803  0.006854  0.876411  1
