# generated using pymatgen
data_ErTh(ScIr)2
_symmetry_space_group_name_H-M   'P 1'
_cell_length_a   4.38546900
_cell_length_b   7.12159900
_cell_length_c   8.75111300
_cell_angle_alpha   90.00000000
_cell_angle_beta   90.00000000
_cell_angle_gamma   90.00000000
_symmetry_Int_Tables_number   1
_chemical_formula_structural   ErTh(ScIr)2
_chemical_formula_sum   'Er2 Th2 Sc4 Ir4'
_cell_volume   273.31083761
_cell_formula_units_Z   2
loop_
 _symmetry_equiv_pos_site_id
 _symmetry_equiv_pos_as_xyz
  1  'x, y, z'
loop_
 _atom_site_type_symbol
 _atom_site_label
 _atom_site_symmetry_multiplicity
 _atom_site_fract_x
 _atom_site_fract_y
 _atom_site_fract_z
 _atom_site_occupancy
  Er  Er0  1  0.750000  0.983717  0.673737  1
  Er  Er1  1  0.750000  0.483717  0.826263  1
  Th  Th2  1  0.250000  0.013891  0.324317  1
  Th  Th3  1  0.250000  0.513891  0.175683  1
  Sc  Sc4  1  0.250000  0.140310  0.924150  1
  Sc  Sc5  1  0.250000  0.640310  0.575850  1
  Sc  Sc6  1  0.750000  0.864572  0.058340  1
  Sc  Sc7  1  0.750000  0.364572  0.441660  1
  Ir  Ir8  1  0.250000  0.251574  0.596590  1
  Ir  Ir9  1  0.250000  0.751574  0.903410  1
  Ir  Ir10  1  0.750000  0.745936  0.397782  1
  Ir  Ir11  1  0.750000  0.245936  0.102218  1
