# generated using pymatgen
data_Sc12Al7Ga(PtC)4
_symmetry_space_group_name_H-M   'P 1'
_cell_length_a   8.67489077
_cell_length_b   8.66450590
_cell_length_c   8.67489100
_cell_angle_alpha   59.96034720
_cell_angle_beta   60.00000292
_cell_angle_gamma   59.96034182
_symmetry_Int_Tables_number   1
_chemical_formula_structural   Sc12Al7Ga(PtC)4
_chemical_formula_sum   'Sc12 Al7 Ga1 Pt4 C4'
_cell_volume   460.78282391
_cell_formula_units_Z   1
loop_
 _symmetry_equiv_pos_site_id
 _symmetry_equiv_pos_as_xyz
  1  'x, y, z'
loop_
 _atom_site_type_symbol
 _atom_site_label
 _atom_site_symmetry_multiplicity
 _atom_site_fract_x
 _atom_site_fract_y
 _atom_site_fract_z
 _atom_site_occupancy
  Sc  Sc0  1  0.944200  0.943047  0.556376  1
  Sc  Sc1  1  0.694471  0.305049  0.306008  1
  Sc  Sc2  1  0.306254  0.692876  0.694614  1
  Sc  Sc3  1  0.694614  0.692876  0.306254  1
  Sc  Sc4  1  0.694471  0.305049  0.694471  1
  Sc  Sc5  1  0.306254  0.692876  0.306254  1
  Sc  Sc6  1  0.556376  0.943047  0.556376  1
  Sc  Sc7  1  0.556376  0.943047  0.944200  1
  Sc  Sc8  1  0.943951  0.554295  0.557802  1
  Sc  Sc9  1  0.943951  0.554295  0.943951  1
  Sc  Sc10  1  0.306008  0.305049  0.694471  1
  Sc  Sc11  1  0.557802  0.554295  0.943951  1
  Al  Al12  1  0.329644  0.330393  0.010319  1
  Al  Al13  1  0.010319  0.330393  0.329644  1
  Al  Al14  1  0.329644  0.330393  0.329644  1
  Al  Al15  1  0.237993  0.922071  0.919968  1
  Al  Al16  1  0.919968  0.922071  0.919968  1
  Al  Al17  1  0.919968  0.922071  0.237993  1
  Al  Al18  1  0.330017  0.009949  0.330017  1
  Ga  Ga19  1  0.916037  0.251889  0.916037  1
  Pt  Pt20  1  0.124477  0.626568  0.124477  1
  Pt  Pt21  1  0.127425  0.122313  0.622838  1
  Pt  Pt22  1  0.622838  0.122313  0.127425  1
  Pt  Pt23  1  0.127425  0.122313  0.127425  1
  C  C24  1  0.624780  0.125660  0.624780  1
  C  C25  1  0.624797  0.625265  0.125140  1
  C  C26  1  0.125140  0.625265  0.624797  1
  C  C27  1  0.624797  0.625265  0.624797  1
