# generated using pymatgen
data_Ho19Tm(Ir3Os)3
_symmetry_space_group_name_H-M   'P 1'
_cell_length_a   10.81353800
_cell_length_b   10.81336400
_cell_length_c   6.38624400
_cell_angle_alpha   90.00000000
_cell_angle_beta   90.00000000
_cell_angle_gamma   90.00047687
_symmetry_Int_Tables_number   1
_chemical_formula_structural   Ho19Tm(Ir3Os)3
_chemical_formula_sum   'Ho19 Tm1 Ir9 Os3'
_cell_volume   746.74812511
_cell_formula_units_Z   1
loop_
 _symmetry_equiv_pos_site_id
 _symmetry_equiv_pos_as_xyz
  1  'x, y, z'
loop_
 _atom_site_type_symbol
 _atom_site_label
 _atom_site_symmetry_multiplicity
 _atom_site_fract_x
 _atom_site_fract_y
 _atom_site_fract_z
 _atom_site_occupancy
  Ho  Ho0  1  0.293711  0.086136  0.376202  1
  Ho  Ho1  1  0.293720  0.914093  0.876294  1
  Ho  Ho2  1  0.706280  0.085907  0.876294  1
  Ho  Ho3  1  0.706289  0.913864  0.376202  1
  Ho  Ho4  1  0.585894  0.793636  0.876208  1
  Ho  Ho5  1  0.586065  0.206508  0.376220  1
  Ho  Ho6  1  0.413935  0.793492  0.376220  1
  Ho  Ho7  1  0.414106  0.206364  0.876208  1
  Ho  Ho8  1  0.208352  0.413433  0.625346  1
  Ho  Ho9  1  0.207767  0.586770  0.121465  1
  Ho  Ho10  1  0.792233  0.413230  0.121465  1
  Ho  Ho11  1  0.791648  0.586567  0.625346  1
  Ho  Ho12  1  0.913228  0.707676  0.121335  1
  Ho  Ho13  1  0.913373  0.291875  0.625332  1
  Ho  Ho14  1  0.086627  0.708125  0.625332  1
  Ho  Ho15  1  0.086772  0.292324  0.121335  1
  Ho  Ho16  1  0.000000  0.000000  0.499813  1
  Ho  Ho17  1  0.000000  0.000000  0.000111  1
  Ho  Ho18  1  0.500000  0.500000  0.000109  1
  Tm  Tm19  1  0.500000  0.500000  0.499835  1
  Ir  Ir20  1  0.848199  0.153138  0.250393  1
  Ir  Ir21  1  0.847980  0.847105  0.749761  1
  Ir  Ir22  1  0.152020  0.152895  0.749761  1
  Ir  Ir23  1  0.151801  0.846862  0.250393  1
  Ir  Ir24  1  0.652643  0.348229  0.749314  1
  Ir  Ir25  1  0.652885  0.651539  0.250828  1
  Ir  Ir26  1  0.347115  0.348461  0.250828  1
  Ir  Ir27  1  0.347357  0.651771  0.749314  1
  Ir  Ir28  1  0.000000  0.500000  0.378482  1
  Os  Os29  1  0.500000  0.000000  0.123818  1
  Os  Os30  1  0.500000  0.000000  0.623466  1
  Os  Os31  1  0.000000  0.500000  0.876970  1
