# generated using pymatgen
data_Mn3Nb6Al8Zn
_symmetry_space_group_name_H-M   'P 1'
_cell_length_a   8.76584264
_cell_length_b   8.86530516
_cell_length_c   8.25774200
_cell_angle_alpha   90.00000000
_cell_angle_beta   90.00000000
_cell_angle_gamma   120.84282849
_symmetry_Int_Tables_number   1
_chemical_formula_structural   Mn3Nb6Al8Zn
_chemical_formula_sum   'Mn6 Nb12 Al16 Zn2'
_cell_volume   550.96989824
_cell_formula_units_Z   2
loop_
 _symmetry_equiv_pos_site_id
 _symmetry_equiv_pos_as_xyz
  1  'x, y, z'
loop_
 _atom_site_type_symbol
 _atom_site_label
 _atom_site_symmetry_multiplicity
 _atom_site_fract_x
 _atom_site_fract_y
 _atom_site_fract_z
 _atom_site_occupancy
  Mn  Mn0  1  0.178894  0.504693  0.750000  1
  Mn  Mn1  1  0.821106  0.495307  0.250000  1
  Mn  Mn2  1  0.484971  0.652168  0.750000  1
  Mn  Mn3  1  0.505612  0.167028  0.750000  1
  Mn  Mn4  1  0.515029  0.347832  0.250000  1
  Mn  Mn5  1  0.494388  0.832972  0.250000  1
  Nb  Nb6  1  0.336629  0.000433  0.064265  1
  Nb  Nb7  1  0.663371  0.999567  0.935735  1
  Nb  Nb8  1  0.998920  0.333000  0.062993  1
  Nb  Nb9  1  0.663371  0.999567  0.564265  1
  Nb  Nb10  1  0.998920  0.333000  0.437007  1
  Nb  Nb11  1  0.001080  0.667000  0.937007  1
  Nb  Nb12  1  0.336629  0.000433  0.435735  1
  Nb  Nb13  1  0.001080  0.667000  0.562993  1
  Nb  Nb14  1  0.661790  0.664265  0.062790  1
  Nb  Nb15  1  0.338210  0.335735  0.937210  1
  Nb  Nb16  1  0.338210  0.335735  0.562790  1
  Nb  Nb17  1  0.661790  0.664265  0.437210  1
  Al  Al18  1  0.340894  0.842809  0.750000  1
  Al  Al19  1  0.655364  0.502309  0.750000  1
  Al  Al20  1  0.659106  0.157191  0.250000  1
  Al  Al21  1  0.344636  0.497691  0.250000  1
  Al  Al22  1  0.847041  0.343327  0.750000  1
  Al  Al23  1  0.152959  0.656673  0.250000  1
  Al  Al24  1  0.337695  0.669670  0.500328  1
  Al  Al25  1  0.662305  0.330330  0.499672  1
  Al  Al26  1  0.662305  0.330330  0.000328  1
  Al  Al27  1  0.337695  0.669670  0.999672  1
  Al  Al28  1  0.181386  0.007148  0.750000  1
  Al  Al29  1  0.818614  0.992852  0.250000  1
  Al  Al30  1  0.011112  0.183595  0.750000  1
  Al  Al31  1  0.988888  0.816405  0.250000  1
  Al  Al32  1  0.815390  0.828331  0.750000  1
  Al  Al33  1  0.184610  0.171669  0.250000  1
  Zn  Zn34  1  0.000000  0.000000  0.500000  1
  Zn  Zn35  1  0.000000  0.000000  0.000000  1
