# generated using pymatgen
data_Ta4V6AsRh
_symmetry_space_group_name_H-M   'P 1'
_cell_length_a   5.01793600
_cell_length_b   5.01793646
_cell_length_c   8.32156300
_cell_angle_alpha   90.00000000
_cell_angle_beta   90.00000000
_cell_angle_gamma   120.00001018
_symmetry_Int_Tables_number   1
_chemical_formula_structural   Ta4V6AsRh
_chemical_formula_sum   'Ta4 V6 As1 Rh1'
_cell_volume   181.46203122
_cell_formula_units_Z   1
loop_
 _symmetry_equiv_pos_site_id
 _symmetry_equiv_pos_as_xyz
  1  'x, y, z'
loop_
 _atom_site_type_symbol
 _atom_site_label
 _atom_site_symmetry_multiplicity
 _atom_site_fract_x
 _atom_site_fract_y
 _atom_site_fract_z
 _atom_site_occupancy
  Ta  Ta0  1  0.333333  0.666667  0.934985  1
  Ta  Ta1  1  0.666667  0.333333  0.065015  1
  Ta  Ta2  1  0.666667  0.333333  0.437156  1
  Ta  Ta3  1  0.333333  0.666667  0.562844  1
  V  V4  1  0.172576  0.827424  0.250456  1
  V  V5  1  0.172576  0.345153  0.250456  1
  V  V6  1  0.654847  0.827424  0.250456  1
  V  V7  1  0.827424  0.172576  0.749544  1
  V  V8  1  0.827424  0.654847  0.749544  1
  V  V9  1  0.345153  0.172576  0.749544  1
  As  As10  1  0.000000  0.000000  0.000000  1
  Rh  Rh11  1  0.000000  0.000000  0.500000  1
