# generated using pymatgen
data_Ho3Tm7Ir3Os
_symmetry_space_group_name_H-M   'P 1'
_cell_length_a   6.43420271
_cell_length_b   7.21295094
_cell_length_c   8.34368895
_cell_angle_alpha   96.54474223
_cell_angle_beta   112.39258161
_cell_angle_gamma   89.92183415
_symmetry_Int_Tables_number   1
_chemical_formula_structural   Ho3Tm7Ir3Os
_chemical_formula_sum   'Ho3 Tm7 Ir3 Os1'
_cell_volume   355.32222899
_cell_formula_units_Z   1
loop_
 _symmetry_equiv_pos_site_id
 _symmetry_equiv_pos_as_xyz
  1  'x, y, z'
loop_
 _atom_site_type_symbol
 _atom_site_label
 _atom_site_symmetry_multiplicity
 _atom_site_fract_x
 _atom_site_fract_y
 _atom_site_fract_z
 _atom_site_occupancy
  Ho  Ho0  1  0.970261  0.917808  0.183723  1
  Ho  Ho1  1  0.788651  0.581281  0.821113  1
  Ho  Ho2  1  0.030026  0.081575  0.818225  1
  Tm  Tm3  1  0.212162  0.418833  0.183744  1
  Tm  Tm4  1  0.655236  0.816815  0.439692  1
  Tm  Tm5  1  0.210358  0.681085  0.556772  1
  Tm  Tm6  1  0.346537  0.182051  0.558842  1
  Tm  Tm7  1  0.786648  0.319643  0.439733  1
  Tm  Tm8  1  0.426762  0.749322  0.000462  1
  Tm  Tm9  1  0.574947  0.251480  0.001065  1
  Ir  Ir10  1  0.605259  0.927332  0.779867  1
  Ir  Ir11  1  0.174862  0.425776  0.781242  1
  Ir  Ir12  1  0.392599  0.074130  0.219014  1
  Os  Os13  1  0.825690  0.572870  0.216508  1
