# generated using pymatgen
data_Tb7Dy9(LuSn4)4
_symmetry_space_group_name_H-M   'P 1'
_cell_length_a   8.00300406
_cell_length_b   8.15812702
_cell_length_c   15.44815709
_cell_angle_alpha   90.00219383
_cell_angle_beta   90.01211718
_cell_angle_gamma   89.99278886
_symmetry_Int_Tables_number   1
_chemical_formula_structural   Tb7Dy9(LuSn4)4
_chemical_formula_sum   'Tb7 Dy9 Lu4 Sn16'
_cell_volume   1008.60278633
_cell_formula_units_Z   1
loop_
 _symmetry_equiv_pos_site_id
 _symmetry_equiv_pos_as_xyz
  1  'x, y, z'
loop_
 _atom_site_type_symbol
 _atom_site_label
 _atom_site_symmetry_multiplicity
 _atom_site_fract_x
 _atom_site_fract_y
 _atom_site_fract_z
 _atom_site_occupancy
  Tb  Tb0  1  0.020207  0.179925  0.597407  1
  Tb  Tb1  1  0.479791  0.679905  0.402622  1
  Tb  Tb2  1  0.979770  0.820116  0.097380  1
  Tb  Tb3  1  0.479761  0.679868  0.097364  1
  Tb  Tb4  1  0.979782  0.820095  0.402621  1
  Tb  Tb5  1  0.520204  0.320117  0.597349  1
  Tb  Tb6  1  0.020212  0.179922  0.902620  1
  Dy  Dy7  1  0.367355  0.836468  0.878031  1
  Dy  Dy8  1  0.867324  0.663538  0.621985  1
  Dy  Dy9  1  0.632669  0.163567  0.378033  1
  Dy  Dy10  1  0.132642  0.336427  0.121964  1
  Dy  Dy11  1  0.632625  0.163582  0.121924  1
  Dy  Dy12  1  0.132683  0.336445  0.378028  1
  Dy  Dy13  1  0.367322  0.836455  0.621992  1
  Dy  Dy14  1  0.867321  0.663497  0.878031  1
  Dy  Dy15  1  0.520266  0.320128  0.902561  1
  Lu  Lu16  1  0.198316  0.502730  0.750056  1
  Lu  Lu17  1  0.698215  0.997273  0.750039  1
  Lu  Lu18  1  0.801732  0.497210  0.249999  1
  Lu  Lu19  1  0.301740  0.002769  0.249982  1
  Sn  Sn20  1  0.292887  0.035095  0.042739  1
  Sn  Sn21  1  0.792888  0.464918  0.457260  1
  Sn  Sn22  1  0.707121  0.964917  0.542737  1
  Sn  Sn23  1  0.207381  0.534888  0.957206  1
  Sn  Sn24  1  0.707037  0.965083  0.957237  1
  Sn  Sn25  1  0.207107  0.535105  0.542736  1
  Sn  Sn26  1  0.292893  0.035079  0.457257  1
  Sn  Sn27  1  0.792714  0.464811  0.042664  1
  Sn  Sn28  1  0.563881  0.618712  0.750010  1
  Sn  Sn29  1  0.063889  0.881181  0.750003  1
  Sn  Sn30  1  0.436091  0.381215  0.249998  1
  Sn  Sn31  1  0.936088  0.118800  0.250007  1
  Sn  Sn32  1  0.328961  0.147971  0.750109  1
  Sn  Sn33  1  0.828686  0.352170  0.750042  1
  Sn  Sn34  1  0.671221  0.852193  0.249999  1
  Sn  Sn35  1  0.171218  0.647826  0.250009  1
