# generated using pymatgen
data_InNi(BiO3)4
_symmetry_space_group_name_H-M   'P 1'
_cell_length_a   4.98556400
_cell_length_b   9.96859800
_cell_length_c   10.11777400
_cell_angle_alpha   90.00001150
_cell_angle_beta   90.00000000
_cell_angle_gamma   89.99885613
_symmetry_Int_Tables_number   1
_chemical_formula_structural   InNi(BiO3)4
_chemical_formula_sum   'In2 Ni2 Bi8 O24'
_cell_volume   502.84409311
_cell_formula_units_Z   2
loop_
 _symmetry_equiv_pos_site_id
 _symmetry_equiv_pos_as_xyz
  1  'x, y, z'
loop_
 _atom_site_type_symbol
 _atom_site_label
 _atom_site_symmetry_multiplicity
 _atom_site_fract_x
 _atom_site_fract_y
 _atom_site_fract_z
 _atom_site_occupancy
  In  In0  1  0.996296  0.500985  0.000000  1
  In  In1  1  0.496291  0.749024  0.500000  1
  Ni  Ni2  1  0.003540  0.000236  0.999999  1
  Ni  Ni3  1  0.503516  0.249741  0.500000  1
  Bi  Bi4  1  0.999447  0.006387  0.332364  1
  Bi  Bi5  1  0.000041  0.493283  0.334192  1
  Bi  Bi6  1  0.999447  0.006387  0.667636  1
  Bi  Bi7  1  0.000041  0.493283  0.665808  1
  Bi  Bi8  1  0.499451  0.243615  0.167634  1
  Bi  Bi9  1  0.500042  0.756717  0.165809  1
  Bi  Bi10  1  0.499451  0.243615  0.832366  1
  Bi  Bi11  1  0.500042  0.756716  0.834191  1
  O  O12  1  0.206522  0.400897  0.500000  1
  O  O13  1  0.185220  0.903227  0.500000  1
  O  O14  1  0.297790  0.150244  0.000000  1
  O  O15  1  0.311306  0.653461  0.000000  1
  O  O16  1  0.685219  0.346775  0.000000  1
  O  O17  1  0.706520  0.849103  0.000000  1
  O  O18  1  0.797786  0.099756  0.500000  1
  O  O19  1  0.811306  0.596543  0.500000  1
  O  O20  1  0.193540  0.399960  0.166218  1
  O  O21  1  0.189177  0.908167  0.164339  1
  O  O22  1  0.193540  0.399960  0.833782  1
  O  O23  1  0.189177  0.908167  0.835661  1
  O  O24  1  0.312610  0.154880  0.338946  1
  O  O25  1  0.304852  0.652798  0.330062  1
  O  O26  1  0.312610  0.154880  0.661054  1
  O  O27  1  0.304852  0.652798  0.669939  1
  O  O28  1  0.689173  0.341833  0.335660  1
  O  O29  1  0.693539  0.850042  0.333780  1
  O  O30  1  0.689173  0.341833  0.664340  1
  O  O31  1  0.693540  0.850042  0.666220  1
  O  O32  1  0.812614  0.095120  0.161051  1
  O  O33  1  0.804853  0.597204  0.169937  1
  O  O34  1  0.812614  0.095119  0.838949  1
  O  O35  1  0.804854  0.597205  0.830063  1
