# generated using pymatgen
data_Th6MnCo17P12
_symmetry_space_group_name_H-M   'P 1'
_cell_length_a   3.81876600
_cell_length_b   10.60139500
_cell_length_c   12.44057500
_cell_angle_alpha   90.00000000
_cell_angle_beta   90.00000000
_cell_angle_gamma   90.00000000
_symmetry_Int_Tables_number   1
_chemical_formula_structural   Th6MnCo17P12
_chemical_formula_sum   'Th6 Mn1 Co17 P12'
_cell_volume   503.64730837
_cell_formula_units_Z   1
loop_
 _symmetry_equiv_pos_site_id
 _symmetry_equiv_pos_as_xyz
  1  'x, y, z'
loop_
 _atom_site_type_symbol
 _atom_site_label
 _atom_site_symmetry_multiplicity
 _atom_site_fract_x
 _atom_site_fract_y
 _atom_site_fract_z
 _atom_site_occupancy
  Th  Th0  1  0.000000  0.500000  0.522026  1
  Th  Th1  1  0.500000  0.000000  0.479228  1
  Th  Th2  1  0.500000  0.816089  0.207919  1
  Th  Th3  1  0.500000  0.183911  0.207919  1
  Th  Th4  1  0.000000  0.684952  0.793357  1
  Th  Th5  1  0.000000  0.315048  0.793357  1
  Mn  Mn6  1  0.500000  0.500000  0.150416  1
  Co  Co7  1  0.000000  0.000000  0.841727  1
  Co  Co8  1  0.500000  0.500000  0.704105  1
  Co  Co9  1  0.000000  0.000000  0.296406  1
  Co  Co10  1  0.000000  0.500000  0.985141  1
  Co  Co11  1  0.500000  0.000000  0.016054  1
  Co  Co12  1  0.500000  0.332438  0.994949  1
  Co  Co13  1  0.500000  0.667562  0.994949  1
  Co  Co14  1  0.000000  0.165216  0.003908  1
  Co  Co15  1  0.000000  0.834784  0.003908  1
  Co  Co16  1  0.500000  0.300704  0.428891  1
  Co  Co17  1  0.500000  0.699296  0.428891  1
  Co  Co18  1  0.000000  0.199110  0.572083  1
  Co  Co19  1  0.000000  0.800890  0.572083  1
  Co  Co20  1  0.500000  0.881735  0.713768  1
  Co  Co21  1  0.500000  0.118265  0.713768  1
  Co  Co22  1  0.000000  0.620111  0.286745  1
  Co  Co23  1  0.000000  0.379889  0.286745  1
  P  P24  1  0.500000  0.500000  0.885909  1
  P  P25  1  0.000000  0.000000  0.114350  1
  P  P26  1  0.500000  0.500000  0.340473  1
  P  P27  1  0.000000  0.000000  0.661598  1
  P  P28  1  0.500000  0.305374  0.612736  1
  P  P29  1  0.500000  0.694626  0.612736  1
  P  P30  1  0.000000  0.194633  0.388441  1
  P  P31  1  0.000000  0.805367  0.388441  1
  P  P32  1  0.500000  0.850811  0.896933  1
  P  P33  1  0.500000  0.149189  0.896933  1
  P  P34  1  0.000000  0.652936  0.101554  1
  P  P35  1  0.000000  0.347064  0.101554  1
