# generated using pymatgen
data_LiHoB6Rh
_symmetry_space_group_name_H-M   'P 1'
_cell_length_a   3.51267800
_cell_length_b   8.80813300
_cell_length_c   11.19482800
_cell_angle_alpha   90.00000000
_cell_angle_beta   90.00000000
_cell_angle_gamma   90.00000000
_symmetry_Int_Tables_number   1
_chemical_formula_structural   LiHoB6Rh
_chemical_formula_sum   'Li4 Ho4 B24 Rh4'
_cell_volume   346.36948974
_cell_formula_units_Z   4
loop_
 _symmetry_equiv_pos_site_id
 _symmetry_equiv_pos_as_xyz
  1  'x, y, z'
loop_
 _atom_site_type_symbol
 _atom_site_label
 _atom_site_symmetry_multiplicity
 _atom_site_fract_x
 _atom_site_fract_y
 _atom_site_fract_z
 _atom_site_occupancy
  Li  Li0  1  0.500000  0.446087  0.124065  1
  Li  Li1  1  0.500000  0.553913  0.875935  1
  Li  Li2  1  0.500000  0.053913  0.624065  1
  Li  Li3  1  0.500000  0.946087  0.375935  1
  Ho  Ho4  1  0.500000  0.317294  0.414369  1
  Ho  Ho5  1  0.500000  0.682706  0.585631  1
  Ho  Ho6  1  0.500000  0.182706  0.914369  1
  Ho  Ho7  1  0.500000  0.817294  0.085631  1
  B  B8  1  0.000000  0.090939  0.475090  1
  B  B9  1  0.000000  0.909061  0.524910  1
  B  B10  1  0.000000  0.409061  0.975090  1
  B  B11  1  0.000000  0.590939  0.024910  1
  B  B12  1  0.000000  0.124904  0.318839  1
  B  B13  1  0.000000  0.875096  0.681161  1
  B  B14  1  0.000000  0.375096  0.818839  1
  B  B15  1  0.000000  0.624904  0.181161  1
  B  B16  1  0.000000  0.055845  0.067672  1
  B  B17  1  0.000000  0.944155  0.932328  1
  B  B18  1  0.000000  0.444155  0.567672  1
  B  B19  1  0.000000  0.555845  0.432328  1
  B  B20  1  0.000000  0.479980  0.285202  1
  B  B21  1  0.000000  0.520020  0.714798  1
  B  B22  1  0.000000  0.020020  0.785202  1
  B  B23  1  0.000000  0.979980  0.214798  1
  B  B24  1  0.000000  0.258478  0.081974  1
  B  B25  1  0.000000  0.741522  0.918026  1
  B  B26  1  0.000000  0.241522  0.581974  1
  B  B27  1  0.000000  0.758478  0.418026  1
  B  B28  1  0.000000  0.294114  0.235598  1
  B  B29  1  0.000000  0.705886  0.764402  1
  B  B30  1  0.000000  0.205886  0.735598  1
  B  B31  1  0.000000  0.794114  0.264402  1
  Rh  Rh32  1  0.500000  0.141082  0.182211  1
  Rh  Rh33  1  0.500000  0.858918  0.817789  1
  Rh  Rh34  1  0.500000  0.358918  0.682211  1
  Rh  Rh35  1  0.500000  0.641082  0.317789  1
