# generated using pymatgen
data_Pr6OsO12
_symmetry_space_group_name_H-M   'P 1'
_cell_length_a   6.77597895
_cell_length_b   6.77597898
_cell_length_c   6.77597880
_cell_angle_alpha   98.49340602
_cell_angle_beta   98.49340703
_cell_angle_gamma   98.49340820
_symmetry_Int_Tables_number   1
_chemical_formula_structural   Pr6OsO12
_chemical_formula_sum   'Pr6 Os1 O12'
_cell_volume   299.72080013
_cell_formula_units_Z   1
loop_
 _symmetry_equiv_pos_site_id
 _symmetry_equiv_pos_as_xyz
  1  'x, y, z'
loop_
 _atom_site_type_symbol
 _atom_site_label
 _atom_site_symmetry_multiplicity
 _atom_site_fract_x
 _atom_site_fract_y
 _atom_site_fract_z
 _atom_site_occupancy
  Pr  Pr0  1  0.144132  0.307465  0.609889  1
  Pr  Pr1  1  0.390111  0.855868  0.692535  1
  Pr  Pr2  1  0.692535  0.390111  0.855868  1
  Pr  Pr3  1  0.307465  0.609889  0.144132  1
  Pr  Pr4  1  0.609889  0.144132  0.307465  1
  Pr  Pr5  1  0.855868  0.692535  0.390111  1
  Os  Os6  1  0.000000  0.000000  0.000000  1
  O  O7  1  0.067715  0.286128  0.967856  1
  O  O8  1  0.032144  0.932285  0.713872  1
  O  O9  1  0.407201  0.559020  0.822578  1
  O  O10  1  0.177422  0.592799  0.440980  1
  O  O11  1  0.713872  0.032144  0.932285  1
  O  O12  1  0.440980  0.177422  0.592799  1
  O  O13  1  0.559020  0.822578  0.407201  1
  O  O14  1  0.286128  0.967856  0.067715  1
  O  O15  1  0.822578  0.407201  0.559020  1
  O  O16  1  0.592799  0.440980  0.177422  1
  O  O17  1  0.967856  0.067715  0.286128  1
  O  O18  1  0.932285  0.713872  0.032144  1
