# generated using pymatgen
data_CeSiW2C
_symmetry_space_group_name_H-M   'P 1'
_cell_length_a   6.04776286
_cell_length_b   6.04776383
_cell_length_c   7.81234100
_cell_angle_alpha   90.00000000
_cell_angle_beta   90.00000000
_cell_angle_gamma   144.36745717
_symmetry_Int_Tables_number   1
_chemical_formula_structural   CeSiW2C
_chemical_formula_sum   'Ce2 Si2 W4 C2'
_cell_volume   166.46764814
_cell_formula_units_Z   2
loop_
 _symmetry_equiv_pos_site_id
 _symmetry_equiv_pos_as_xyz
  1  'x, y, z'
loop_
 _atom_site_type_symbol
 _atom_site_label
 _atom_site_symmetry_multiplicity
 _atom_site_fract_x
 _atom_site_fract_y
 _atom_site_fract_z
 _atom_site_occupancy
  Ce  Ce0  1  0.533809  0.466191  0.250000  1
  Ce  Ce1  1  0.466191  0.533809  0.750000  1
  Si  Si2  1  0.248642  0.751358  0.250000  1
  Si  Si3  1  0.751358  0.248642  0.750000  1
  W  W4  1  0.829631  0.170369  0.061201  1
  W  W5  1  0.170369  0.829631  0.938799  1
  W  W6  1  0.170369  0.829631  0.561201  1
  W  W7  1  0.829631  0.170369  0.438799  1
  C  C8  1  0.000000  0.000000  0.000000  1
  C  C9  1  0.000000  0.000000  0.500000  1
