# generated using pymatgen
data_Tb6Tl9Hg
_symmetry_space_group_name_H-M   'P 1'
_cell_length_a   6.51110975
_cell_length_b   6.51111021
_cell_length_c   10.62825300
_cell_angle_alpha   90.00000000
_cell_angle_beta   90.00000000
_cell_angle_gamma   103.68785380
_symmetry_Int_Tables_number   1
_chemical_formula_structural   Tb6Tl9Hg
_chemical_formula_sum   'Tb6 Tl9 Hg1'
_cell_volume   437.78325108
_cell_formula_units_Z   1
loop_
 _symmetry_equiv_pos_site_id
 _symmetry_equiv_pos_as_xyz
  1  'x, y, z'
loop_
 _atom_site_type_symbol
 _atom_site_label
 _atom_site_symmetry_multiplicity
 _atom_site_fract_x
 _atom_site_fract_y
 _atom_site_fract_z
 _atom_site_occupancy
  Tb  Tb0  1  0.123379  0.123379  0.750000  1
  Tb  Tb1  1  0.884635  0.884635  0.250000  1
  Tb  Tb2  1  0.701335  0.294854  0.000523  1
  Tb  Tb3  1  0.701335  0.294854  0.499477  1
  Tb  Tb4  1  0.294854  0.701335  0.000523  1
  Tb  Tb5  1  0.294854  0.701335  0.499477  1
  Tl  Tl6  1  0.494793  0.494793  0.250000  1
  Tl  Tl7  1  0.804194  0.804194  0.538957  1
  Tl  Tl8  1  0.193433  0.193433  0.461513  1
  Tl  Tl9  1  0.804194  0.804194  0.961043  1
  Tl  Tl10  1  0.193433  0.193433  0.038487  1
  Tl  Tl11  1  0.014588  0.570975  0.750000  1
  Tl  Tl12  1  0.432996  0.987324  0.250000  1
  Tl  Tl13  1  0.987324  0.432996  0.250000  1
  Tl  Tl14  1  0.570975  0.014588  0.750000  1
  Hg  Hg15  1  0.503679  0.503679  0.750000  1
