# generated using pymatgen
data_TbDy(TcRu)2
_symmetry_space_group_name_H-M   'P 1'
_cell_length_a   5.19877350
_cell_length_b   5.19877264
_cell_length_c   9.13062503
_cell_angle_alpha   89.99153307
_cell_angle_beta   90.00846332
_cell_angle_gamma   117.07750901
_symmetry_Int_Tables_number   1
_chemical_formula_structural   TbDy(TcRu)2
_chemical_formula_sum   'Tb2 Dy2 Tc4 Ru4'
_cell_volume   219.72691380
_cell_formula_units_Z   2
loop_
 _symmetry_equiv_pos_site_id
 _symmetry_equiv_pos_as_xyz
  1  'x, y, z'
loop_
 _atom_site_type_symbol
 _atom_site_label
 _atom_site_symmetry_multiplicity
 _atom_site_fract_x
 _atom_site_fract_y
 _atom_site_fract_z
 _atom_site_occupancy
  Tb  Tb0  1  0.670695  0.329305  0.933107  1
  Tb  Tb1  1  0.332456  0.667544  0.063119  1
  Dy  Dy2  1  0.332286  0.667714  0.436873  1
  Dy  Dy3  1  0.670875  0.329125  0.566917  1
  Tc  Tc4  1  0.827114  0.172886  0.250532  1
  Tc  Tc5  1  0.829875  0.659954  0.250535  1
  Tc  Tc6  1  0.340046  0.170125  0.250535  1
  Tc  Tc7  1  0.162477  0.837523  0.749426  1
  Ru  Ru8  1  0.007198  0.992802  0.502481  1
  Ru  Ru9  1  0.007213  0.992787  0.997556  1
  Ru  Ru10  1  0.170191  0.350427  0.749459  1
  Ru  Ru11  1  0.649573  0.829809  0.749459  1
