# generated using pymatgen
data_Ba6Na14Sr8MgN6
_symmetry_space_group_name_H-M   'P 1'
_cell_length_a   12.27716631
_cell_length_b   12.27716579
_cell_length_c   12.27716600
_cell_angle_alpha   59.99999944
_cell_angle_beta   60.00000083
_cell_angle_gamma   60.00000227
_symmetry_Int_Tables_number   1
_chemical_formula_structural   Ba6Na14Sr8MgN6
_chemical_formula_sum   'Ba6 Na14 Sr8 Mg1 N6'
_cell_volume   1308.51708666
_cell_formula_units_Z   1
loop_
 _symmetry_equiv_pos_site_id
 _symmetry_equiv_pos_as_xyz
  1  'x, y, z'
loop_
 _atom_site_type_symbol
 _atom_site_label
 _atom_site_symmetry_multiplicity
 _atom_site_fract_x
 _atom_site_fract_y
 _atom_site_fract_z
 _atom_site_occupancy
  Ba  Ba0  1  0.285543  0.714457  0.285543  1
  Ba  Ba1  1  0.714457  0.714457  0.285543  1
  Ba  Ba2  1  0.285543  0.285543  0.714457  1
  Ba  Ba3  1  0.285543  0.714457  0.714457  1
  Ba  Ba4  1  0.714457  0.285543  0.285543  1
  Ba  Ba5  1  0.714457  0.285543  0.714457  1
  Na  Na6  1  0.672426  0.672426  0.672426  1
  Na  Na7  1  0.017277  0.327574  0.327574  1
  Na  Na8  1  0.327574  0.327574  0.017277  1
  Na  Na9  1  0.327574  0.017277  0.327574  1
  Na  Na10  1  0.672426  0.672426  0.982723  1
  Na  Na11  1  0.672426  0.982723  0.672426  1
  Na  Na12  1  0.982723  0.672426  0.672426  1
  Na  Na13  1  0.327574  0.327574  0.327574  1
  Na  Na14  1  0.500000  0.000000  0.000000  1
  Na  Na15  1  0.000000  0.500000  0.500000  1
  Na  Na16  1  0.000000  0.500000  0.000000  1
  Na  Na17  1  0.500000  0.000000  0.500000  1
  Na  Na18  1  0.500000  0.500000  0.000000  1
  Na  Na19  1  0.000000  0.000000  0.500000  1
  Sr  Sr20  1  0.898053  0.898053  0.898053  1
  Sr  Sr21  1  0.694159  0.101947  0.101947  1
  Sr  Sr22  1  0.101947  0.101947  0.694159  1
  Sr  Sr23  1  0.101947  0.694159  0.101947  1
  Sr  Sr24  1  0.898053  0.898053  0.305841  1
  Sr  Sr25  1  0.898053  0.305841  0.898053  1
  Sr  Sr26  1  0.305841  0.898053  0.898053  1
  Sr  Sr27  1  0.101947  0.101947  0.101947  1
  Mg  Mg28  1  0.000000  0.000000  0.000000  1
  N  N29  1  0.140137  0.859863  0.140137  1
  N  N30  1  0.859863  0.859863  0.140137  1
  N  N31  1  0.140137  0.140137  0.859863  1
  N  N32  1  0.140137  0.859863  0.859863  1
  N  N33  1  0.859863  0.140137  0.140137  1
  N  N34  1  0.859863  0.140137  0.859863  1
