# generated using pymatgen
data_Tb16Cd4FePd2Pt
_symmetry_space_group_name_H-M   'P 1'
_cell_length_a   9.71069249
_cell_length_b   9.70072615
_cell_length_c   9.70072597
_cell_angle_alpha   59.75747570
_cell_angle_beta   59.78611566
_cell_angle_gamma   59.78611498
_symmetry_Int_Tables_number   1
_chemical_formula_structural   Tb16Cd4FePd2Pt
_chemical_formula_sum   'Tb16 Cd4 Fe1 Pd2 Pt1'
_cell_volume   642.88739251
_cell_formula_units_Z   1
loop_
 _symmetry_equiv_pos_site_id
 _symmetry_equiv_pos_as_xyz
  1  'x, y, z'
loop_
 _atom_site_type_symbol
 _atom_site_label
 _atom_site_symmetry_multiplicity
 _atom_site_fract_x
 _atom_site_fract_y
 _atom_site_fract_z
 _atom_site_occupancy
  Tb  Tb0  1  0.353523  0.352179  0.352179  1
  Tb  Tb1  1  0.347276  0.346041  0.949998  1
  Tb  Tb2  1  0.347276  0.949998  0.346041  1
  Tb  Tb3  1  0.949475  0.346519  0.346519  1
  Tb  Tb4  1  0.819510  0.188622  0.188622  1
  Tb  Tb5  1  0.189200  0.809614  0.809614  1
  Tb  Tb6  1  0.188646  0.820895  0.188475  1
  Tb  Tb7  1  0.808759  0.189069  0.810553  1
  Tb  Tb8  1  0.188646  0.188475  0.820895  1
  Tb  Tb9  1  0.808759  0.810553  0.189069  1
  Tb  Tb10  1  0.935448  0.564944  0.564944  1
  Tb  Tb11  1  0.560597  0.936679  0.936679  1
  Tb  Tb12  1  0.564987  0.935669  0.563906  1
  Tb  Tb13  1  0.936361  0.560592  0.936202  1
  Tb  Tb14  1  0.564987  0.563906  0.935669  1
  Tb  Tb15  1  0.936361  0.936202  0.560592  1
  Cd  Cd16  1  0.579883  0.579859  0.579859  1
  Cd  Cd17  1  0.581331  0.581403  0.254760  1
  Cd  Cd18  1  0.581331  0.254760  0.581403  1
  Cd  Cd19  1  0.254748  0.581347  0.581347  1
  Fe  Fe20  1  0.143197  0.142861  0.142861  1
  Pd  Pd21  1  0.144164  0.144220  0.571327  1
  Pd  Pd22  1  0.144164  0.571327  0.144220  1
  Pt  Pt23  1  0.571373  0.144268  0.144268  1
