# generated using pymatgen
data_Nd2Er3Co11(P3Ru2)4
_symmetry_space_group_name_H-M   'P 1'
_cell_length_a   12.25285911
_cell_length_b   12.28585207
_cell_length_c   3.75733100
_cell_angle_alpha   90.00000000
_cell_angle_beta   90.00000000
_cell_angle_gamma   119.97061927
_symmetry_Int_Tables_number   1
_chemical_formula_structural   Nd2Er3Co11(P3Ru2)4
_chemical_formula_sum   'Nd2 Er3 Co11 P12 Ru8'
_cell_volume   489.98333554
_cell_formula_units_Z   1
loop_
 _symmetry_equiv_pos_site_id
 _symmetry_equiv_pos_as_xyz
  1  'x, y, z'
loop_
 _atom_site_type_symbol
 _atom_site_label
 _atom_site_symmetry_multiplicity
 _atom_site_fract_x
 _atom_site_fract_y
 _atom_site_fract_z
 _atom_site_occupancy
  Nd  Nd0  1  0.667405  0.333368  0.000000  1
  Nd  Nd1  1  0.329083  0.663249  0.000000  1
  Er  Er2  1  0.819622  0.819317  0.500000  1
  Er  Er3  1  0.179965  0.000502  0.500000  1
  Er  Er4  1  0.999979  0.180976  0.500000  1
  Co  Co5  1  0.127154  0.479161  0.500000  1
  Co  Co6  1  0.804835  0.171561  0.000000  1
  Co  Co7  1  0.830037  0.632036  0.000000  1
  Co  Co8  1  0.366147  0.196313  0.000000  1
  Co  Co9  1  0.171441  0.804225  0.000000  1
  Co  Co10  1  0.632491  0.828276  0.000000  1
  Co  Co11  1  0.193376  0.369779  0.000000  1
  Co  Co12  1  0.277648  0.279977  0.500000  1
  Co  Co13  1  0.720619  0.999801  0.500000  1
  Co  Co14  1  0.000810  0.720078  0.500000  1
  Co  Co15  1  0.000038  0.999463  0.000000  1
  P  P16  1  0.686543  0.159085  0.500000  1
  P  P17  1  0.843544  0.526750  0.500000  1
  P  P18  1  0.472582  0.316229  0.500000  1
  P  P19  1  0.157069  0.681265  0.500000  1
  P  P20  1  0.525864  0.841785  0.500000  1
  P  P21  1  0.309920  0.472713  0.500000  1
  P  P22  1  0.176015  0.177770  0.000000  1
  P  P23  1  0.822949  0.999666  0.000000  1
  P  P24  1  0.000222  0.822571  0.000000  1
  P  P25  1  0.637386  0.638087  0.000000  1
  P  P26  1  0.361181  0.999887  0.000000  1
  P  P27  1  0.004386  0.362895  0.000000  1
  Ru  Ru28  1  0.879343  0.353748  0.500000  1
  Ru  Ru29  1  0.648905  0.522124  0.500000  1
  Ru  Ru30  1  0.478654  0.127550  0.500000  1
  Ru  Ru31  1  0.350714  0.871915  0.500000  1
  Ru  Ru32  1  0.518361  0.647254  0.500000  1
  Ru  Ru33  1  0.444231  0.445275  0.000000  1
  Ru  Ru34  1  0.554717  0.000034  0.000000  1
  Ru  Ru35  1  0.006763  0.555314  0.000000  1
