# generated using pymatgen
data_DySn6(RuRh)2
_symmetry_space_group_name_H-M   'P 1'
_cell_length_a   6.95364970
_cell_length_b   6.94270488
_cell_length_c   6.95364943
_cell_angle_alpha   120.11391809
_cell_angle_beta   120.05593491
_cell_angle_gamma   89.89806443
_symmetry_Int_Tables_number   1
_chemical_formula_structural   DySn6(RuRh)2
_chemical_formula_sum   'Dy1 Sn6 Ru2 Rh2'
_cell_volume   236.97851908
_cell_formula_units_Z   1
loop_
 _symmetry_equiv_pos_site_id
 _symmetry_equiv_pos_as_xyz
  1  'x, y, z'
loop_
 _atom_site_type_symbol
 _atom_site_label
 _atom_site_symmetry_multiplicity
 _atom_site_fract_x
 _atom_site_fract_y
 _atom_site_fract_z
 _atom_site_occupancy
  Dy  Dy0  1  0.990706  0.000000  0.990706  1
  Sn  Sn1  1  0.876995  0.535876  0.003639  1
  Sn  Sn2  1  0.538750  0.879350  0.006618  1
  Sn  Sn3  1  0.127268  0.120650  0.659398  1
  Sn  Sn4  1  0.999695  0.500000  0.499695  1
  Sn  Sn5  1  0.467763  0.464124  0.341118  1
  Sn  Sn6  1  0.502357  0.000000  0.502357  1
  Ru  Ru7  1  0.602668  0.243952  0.999114  1
  Ru  Ru8  1  0.755162  0.756048  0.358717  1
  Rh  Rh9  1  0.242642  0.602864  0.998859  1
  Rh  Rh10  1  0.395995  0.397136  0.639778  1
