# generated using pymatgen
data_CsRb5GaBi3
_symmetry_space_group_name_H-M   'P 1'
_cell_length_a   6.41120300
_cell_length_b   11.20738766
_cell_length_c   13.29815160
_cell_angle_alpha   79.11191306
_cell_angle_beta   90.00000000
_cell_angle_gamma   90.00000000
_symmetry_Int_Tables_number   1
_chemical_formula_structural   CsRb5GaBi3
_chemical_formula_sum   'Cs2 Rb10 Ga2 Bi6'
_cell_volume   938.30884276
_cell_formula_units_Z   2
loop_
 _symmetry_equiv_pos_site_id
 _symmetry_equiv_pos_as_xyz
  1  'x, y, z'
loop_
 _atom_site_type_symbol
 _atom_site_label
 _atom_site_symmetry_multiplicity
 _atom_site_fract_x
 _atom_site_fract_y
 _atom_site_fract_z
 _atom_site_occupancy
  Cs  Cs0  1  0.750000  0.446161  0.086704  1
  Cs  Cs1  1  0.250000  0.553839  0.913296  1
  Rb  Rb2  1  0.750000  0.740401  0.232924  1
  Rb  Rb3  1  0.250000  0.259599  0.767076  1
  Rb  Rb4  1  0.250000  0.564177  0.540209  1
  Rb  Rb5  1  0.750000  0.435823  0.459791  1
  Rb  Rb6  1  0.250000  0.866898  0.022892  1
  Rb  Rb7  1  0.750000  0.133102  0.977108  1
  Rb  Rb8  1  0.250000  0.873733  0.677048  1
  Rb  Rb9  1  0.750000  0.126267  0.322952  1
  Rb  Rb10  1  0.250000  0.921182  0.373525  1
  Rb  Rb11  1  0.750000  0.078818  0.626475  1
  Ga  Ga12  1  0.750000  0.681298  0.716040  1
  Ga  Ga13  1  0.250000  0.318702  0.283960  1
  Bi  Bi14  1  0.250000  0.214655  0.488069  1
  Bi  Bi15  1  0.750000  0.785345  0.511931  1
  Bi  Bi16  1  0.250000  0.568884  0.232495  1
  Bi  Bi17  1  0.750000  0.431116  0.767505  1
  Bi  Bi18  1  0.750000  0.826808  0.869420  1
  Bi  Bi19  1  0.250000  0.173192  0.130580  1
