# generated using pymatgen
data_Li4Tb3Dy(Co4P3)4
_symmetry_space_group_name_H-M   'P 1'
_cell_length_a   3.70364600
_cell_length_b   10.28398401
_cell_length_c   11.93635901
_cell_angle_alpha   90.00467454
_cell_angle_beta   90.00000000
_cell_angle_gamma   90.00000000
_symmetry_Int_Tables_number   1
_chemical_formula_structural   Li4Tb3Dy(Co4P3)4
_chemical_formula_sum   'Li4 Tb3 Dy1 Co16 P12'
_cell_volume   454.63486027
_cell_formula_units_Z   1
loop_
 _symmetry_equiv_pos_site_id
 _symmetry_equiv_pos_as_xyz
  1  'x, y, z'
loop_
 _atom_site_type_symbol
 _atom_site_label
 _atom_site_symmetry_multiplicity
 _atom_site_fract_x
 _atom_site_fract_y
 _atom_site_fract_z
 _atom_site_occupancy
  Li  Li0  1  0.250000  0.701997  0.992855  1
  Li  Li1  1  0.250000  0.797847  0.492991  1
  Li  Li2  1  0.750000  0.298040  0.007086  1
  Li  Li3  1  0.750000  0.202109  0.507320  1
  Tb  Tb4  1  0.250000  0.921929  0.201798  1
  Tb  Tb5  1  0.750000  0.422034  0.297995  1
  Tb  Tb6  1  0.750000  0.078055  0.798153  1
  Dy  Dy7  1  0.250000  0.578056  0.701855  1
  Co  Co8  1  0.250000  0.406229  0.485587  1
  Co  Co9  1  0.250000  0.094056  0.985454  1
  Co  Co10  1  0.750000  0.594223  0.515084  1
  Co  Co11  1  0.750000  0.905968  0.014481  1
  Co  Co12  1  0.250000  0.222479  0.172544  1
  Co  Co13  1  0.250000  0.277668  0.672567  1
  Co  Co14  1  0.750000  0.777376  0.827350  1
  Co  Co15  1  0.750000  0.722274  0.327554  1
  Co  Co16  1  0.250000  0.877882  0.699949  1
  Co  Co17  1  0.250000  0.621789  0.199790  1
  Co  Co18  1  0.750000  0.121812  0.300113  1
  Co  Co19  1  0.750000  0.378500  0.799879  1
  Co  Co20  1  0.250000  0.465276  0.932459  1
  Co  Co21  1  0.250000  0.034848  0.432838  1
  Co  Co22  1  0.750000  0.534893  0.067004  1
  Co  Co23  1  0.750000  0.964823  0.567399  1
  P  P24  1  0.250000  0.425625  0.114627  1
  P  P25  1  0.250000  0.074266  0.614895  1
  P  P26  1  0.750000  0.574476  0.884813  1
  P  P27  1  0.750000  0.925562  0.385257  1
  P  P28  1  0.250000  0.270174  0.859209  1
  P  P29  1  0.250000  0.229912  0.359282  1
  P  P30  1  0.750000  0.729802  0.140736  1
  P  P31  1  0.750000  0.769492  0.640767  1
  P  P32  1  0.250000  0.602840  0.393737  1
  P  P33  1  0.250000  0.897195  0.893707  1
  P  P34  1  0.750000  0.397669  0.606546  1
  P  P35  1  0.750000  0.102822  0.106317  1
