# generated using pymatgen
data_YbPr7Lu12Si15Ag
_symmetry_space_group_name_H-M   'P 1'
_cell_length_a   7.45534799
_cell_length_b   7.71592683
_cell_length_c   14.70214196
_cell_angle_alpha   90.06395302
_cell_angle_beta   89.89055420
_cell_angle_gamma   90.23642303
_symmetry_Int_Tables_number   1
_chemical_formula_structural   YbPr7Lu12Si15Ag
_chemical_formula_sum   'Yb1 Pr7 Lu12 Si15 Ag1'
_cell_volume   845.73027119
_cell_formula_units_Z   1
loop_
 _symmetry_equiv_pos_site_id
 _symmetry_equiv_pos_as_xyz
  1  'x, y, z'
loop_
 _atom_site_type_symbol
 _atom_site_label
 _atom_site_symmetry_multiplicity
 _atom_site_fract_x
 _atom_site_fract_y
 _atom_site_fract_z
 _atom_site_occupancy
  Yb  Yb0  1  0.013579  0.176314  0.401901  1
  Pr  Pr1  1  0.518185  0.322117  0.398562  1
  Pr  Pr2  1  0.481512  0.675955  0.902705  1
  Pr  Pr3  1  0.486821  0.675486  0.600330  1
  Pr  Pr4  1  0.982311  0.828411  0.598706  1
  Pr  Pr5  1  0.983188  0.825745  0.902655  1
  Pr  Pr6  1  0.519428  0.325411  0.097580  1
  Pr  Pr7  1  0.018257  0.176305  0.095976  1
  Lu  Lu8  1  0.333627  0.172055  0.625991  1
  Lu  Lu9  1  0.672971  0.825732  0.374610  1
  Lu  Lu10  1  0.660021  0.992626  0.751869  1
  Lu  Lu11  1  0.173719  0.674773  0.374151  1
  Lu  Lu12  1  0.825570  0.321437  0.877722  1
  Lu  Lu13  1  0.818120  0.325365  0.622780  1
  Lu  Lu14  1  0.844431  0.492683  0.252347  1
  Lu  Lu15  1  0.341022  0.007899  0.249678  1
  Lu  Lu16  1  0.321366  0.174615  0.877130  1
  Lu  Lu17  1  0.174008  0.678460  0.123367  1
  Lu  Lu18  1  0.678307  0.824891  0.124075  1
  Lu  Lu19  1  0.158168  0.503183  0.750999  1
  Si  Si20  1  0.279704  0.877037  0.750858  1
  Si  Si21  1  0.470296  0.618423  0.247616  1
  Si  Si22  1  0.028563  0.122712  0.749576  1
  Si  Si23  1  0.531424  0.381818  0.752772  1
  Si  Si24  1  0.971360  0.883233  0.249506  1
  Si  Si25  1  0.720429  0.122409  0.248194  1
  Si  Si26  1  0.850817  0.535033  0.038869  1
  Si  Si27  1  0.352138  0.967145  0.040018  1
  Si  Si28  1  0.148348  0.467211  0.961174  1
  Si  Si29  1  0.647429  0.030727  0.539472  1
  Si  Si30  1  0.350985  0.963781  0.461742  1
  Si  Si31  1  0.839655  0.539390  0.458187  1
  Si  Si32  1  0.781958  0.620817  0.752192  1
  Si  Si33  1  0.222461  0.380420  0.247260  1
  Si  Si34  1  0.649143  0.032643  0.960967  1
  Ag  Ag35  1  0.150677  0.457740  0.538461  1
