# generated using pymatgen
data_Dy12Ni4HgRh
_symmetry_space_group_name_H-M   'P 1'
_cell_length_a   8.28155846
_cell_length_b   8.28531124
_cell_length_c   8.28155870
_cell_angle_alpha   111.27431214
_cell_angle_beta   109.71861003
_cell_angle_gamma   107.42549306
_symmetry_Int_Tables_number   1
_chemical_formula_structural   Dy12Ni4HgRh
_chemical_formula_sum   'Dy12 Ni4 Hg1 Rh1'
_cell_volume   437.03338284
_cell_formula_units_Z   1
loop_
 _symmetry_equiv_pos_site_id
 _symmetry_equiv_pos_as_xyz
  1  'x, y, z'
loop_
 _atom_site_type_symbol
 _atom_site_label
 _atom_site_symmetry_multiplicity
 _atom_site_fract_x
 _atom_site_fract_y
 _atom_site_fract_z
 _atom_site_occupancy
  Dy  Dy0  1  0.033904  0.723157  0.310751  1
  Dy  Dy1  1  0.966096  0.276843  0.689249  1
  Dy  Dy2  1  0.587594  0.276843  0.310746  1
  Dy  Dy3  1  0.412406  0.723157  0.689254  1
  Dy  Dy4  1  0.675707  0.869623  0.193915  1
  Dy  Dy5  1  0.324239  0.518072  0.193833  1
  Dy  Dy6  1  0.324294  0.130377  0.806085  1
  Dy  Dy7  1  0.675762  0.481928  0.806167  1
  Dy  Dy8  1  0.179829  0.213673  0.393531  1
  Dy  Dy9  1  0.820142  0.213673  0.033843  1
  Dy  Dy10  1  0.179858  0.786327  0.966157  1
  Dy  Dy11  1  0.820171  0.786327  0.606469  1
  Ni  Ni12  1  0.642544  0.500000  0.142544  1
  Ni  Ni13  1  0.357456  0.500000  0.857456  1
  Ni  Ni14  1  0.877885  0.877996  0.000109  1
  Ni  Ni15  1  0.122115  0.122004  0.999891  1
  Hg  Hg16  1  0.500000  0.000000  0.500000  1
  Rh  Rh17  1  0.000000  0.500000  0.500000  1
