# generated using pymatgen
data_Pr6Dy10Cd4Ir3Pt
_symmetry_space_group_name_H-M   'P 1'
_cell_length_a   9.79274336
_cell_length_b   9.79274360
_cell_length_c   9.79274343
_cell_angle_alpha   60.07833487
_cell_angle_beta   60.07833449
_cell_angle_gamma   60.07833505
_symmetry_Int_Tables_number   1
_chemical_formula_structural   Pr6Dy10Cd4Ir3Pt
_chemical_formula_sum   'Pr6 Dy10 Cd4 Ir3 Pt1'
_cell_volume   665.22474627
_cell_formula_units_Z   1
loop_
 _symmetry_equiv_pos_site_id
 _symmetry_equiv_pos_as_xyz
  1  'x, y, z'
loop_
 _atom_site_type_symbol
 _atom_site_label
 _atom_site_symmetry_multiplicity
 _atom_site_fract_x
 _atom_site_fract_y
 _atom_site_fract_z
 _atom_site_occupancy
  Pr  Pr0  1  0.941267  0.559292  0.559292  1
  Pr  Pr1  1  0.559483  0.941405  0.941405  1
  Pr  Pr2  1  0.559292  0.941267  0.559292  1
  Pr  Pr3  1  0.941405  0.559483  0.941405  1
  Pr  Pr4  1  0.559292  0.559292  0.941267  1
  Pr  Pr5  1  0.941405  0.941405  0.559483  1
  Dy  Dy6  1  0.346780  0.346780  0.346780  1
  Dy  Dy7  1  0.350393  0.350393  0.954402  1
  Dy  Dy8  1  0.350393  0.954402  0.350393  1
  Dy  Dy9  1  0.954402  0.350393  0.350393  1
  Dy  Dy10  1  0.808065  0.188295  0.188295  1
  Dy  Dy11  1  0.185034  0.812503  0.812503  1
  Dy  Dy12  1  0.188295  0.808065  0.188295  1
  Dy  Dy13  1  0.812503  0.185034  0.812503  1
  Dy  Dy14  1  0.188295  0.188295  0.808065  1
  Dy  Dy15  1  0.812503  0.812503  0.185034  1
  Cd  Cd16  1  0.579189  0.579189  0.579189  1
  Cd  Cd17  1  0.579487  0.579487  0.261778  1
  Cd  Cd18  1  0.579487  0.261778  0.579487  1
  Cd  Cd19  1  0.261778  0.579487  0.579487  1
  Ir  Ir20  1  0.141813  0.141813  0.575450  1
  Ir  Ir21  1  0.141813  0.575450  0.141813  1
  Ir  Ir22  1  0.575450  0.141813  0.141813  1
  Pt  Pt23  1  0.142174  0.142174  0.142174  1
