# generated using pymatgen
data_Nd5Sb4Te
_symmetry_space_group_name_H-M   'P 1'
_cell_length_a   11.95083055
_cell_length_b   11.95083057
_cell_length_c   11.95082976
_cell_angle_alpha   158.00241700
_cell_angle_beta   149.14578491
_cell_angle_gamma   38.21688615
_symmetry_Int_Tables_number   1
_chemical_formula_structural   Nd5Sb4Te
_chemical_formula_sum   'Nd5 Sb4 Te1'
_cell_volume   327.41132027
_cell_formula_units_Z   1
loop_
 _symmetry_equiv_pos_site_id
 _symmetry_equiv_pos_as_xyz
  1  'x, y, z'
loop_
 _atom_site_type_symbol
 _atom_site_label
 _atom_site_symmetry_multiplicity
 _atom_site_fract_x
 _atom_site_fract_y
 _atom_site_fract_z
 _atom_site_occupancy
  Nd  Nd0  1  0.895365  0.895365  0.000000  1
  Nd  Nd1  1  0.104635  0.104635  0.000000  1
  Nd  Nd2  1  0.300648  0.300648  0.000000  1
  Nd  Nd3  1  0.699352  0.699352  0.000000  1
  Nd  Nd4  1  0.500000  0.500000  0.000000  1
  Sb  Sb5  1  0.599130  0.099130  0.500000  1
  Sb  Sb6  1  0.400870  0.900870  0.500000  1
  Sb  Sb7  1  0.799579  0.299579  0.500000  1
  Sb  Sb8  1  0.200421  0.700421  0.500000  1
  Te  Te9  1  0.000000  0.500000  0.500000  1
