# generated using pymatgen
data_La2SiPd14
_symmetry_space_group_name_H-M   'P 1'
_cell_length_a   9.01773300
_cell_length_b   9.01773300
_cell_length_c   7.20087700
_cell_angle_alpha   90.00000000
_cell_angle_beta   90.00000000
_cell_angle_gamma   90.00000000
_symmetry_Int_Tables_number   1
_chemical_formula_structural   La2SiPd14
_chemical_formula_sum   'La4 Si2 Pd28'
_cell_volume   585.57177812
_cell_formula_units_Z   2
loop_
 _symmetry_equiv_pos_site_id
 _symmetry_equiv_pos_as_xyz
  1  'x, y, z'
loop_
 _atom_site_type_symbol
 _atom_site_label
 _atom_site_symmetry_multiplicity
 _atom_site_fract_x
 _atom_site_fract_y
 _atom_site_fract_z
 _atom_site_occupancy
  La  La0  1  0.500000  0.000000  0.938891  1
  La  La1  1  0.000000  0.500000  0.061109  1
  La  La2  1  0.000000  0.000000  0.500000  1
  La  La3  1  0.500000  0.500000  0.500000  1
  Si  Si4  1  0.500000  0.000000  0.449039  1
  Si  Si5  1  0.000000  0.500000  0.550961  1
  Pd  Pd6  1  0.335097  0.835097  0.614371  1
  Pd  Pd7  1  0.335097  0.164903  0.614371  1
  Pd  Pd8  1  0.664903  0.835097  0.614371  1
  Pd  Pd9  1  0.664903  0.164903  0.614371  1
  Pd  Pd10  1  0.164903  0.664903  0.385629  1
  Pd  Pd11  1  0.164903  0.335097  0.385629  1
  Pd  Pd12  1  0.835097  0.664903  0.385629  1
  Pd  Pd13  1  0.835097  0.335097  0.385629  1
  Pd  Pd14  1  0.500000  0.770948  0.258232  1
  Pd  Pd15  1  0.500000  0.229052  0.258232  1
  Pd  Pd16  1  0.270948  0.000000  0.258232  1
  Pd  Pd17  1  0.729052  0.000000  0.258232  1
  Pd  Pd18  1  0.000000  0.729052  0.741768  1
  Pd  Pd19  1  0.000000  0.270948  0.741768  1
  Pd  Pd20  1  0.229052  0.500000  0.741768  1
  Pd  Pd21  1  0.770948  0.500000  0.741768  1
  Pd  Pd22  1  0.500000  0.349050  0.855712  1
  Pd  Pd23  1  0.500000  0.650950  0.855712  1
  Pd  Pd24  1  0.849050  0.000000  0.855712  1
  Pd  Pd25  1  0.150950  0.000000  0.855712  1
  Pd  Pd26  1  0.000000  0.150950  0.144288  1
  Pd  Pd27  1  0.000000  0.849050  0.144288  1
  Pd  Pd28  1  0.650950  0.500000  0.144288  1
  Pd  Pd29  1  0.349050  0.500000  0.144288  1
  Pd  Pd30  1  0.250000  0.750000  0.000000  1
  Pd  Pd31  1  0.250000  0.250000  0.000000  1
  Pd  Pd32  1  0.750000  0.750000  0.000000  1
  Pd  Pd33  1  0.750000  0.250000  0.000000  1
