# generated using pymatgen
data_YbTh11(GeIr)12
_symmetry_space_group_name_H-M   'P 1'
_cell_length_a   4.33925600
_cell_length_b   7.47336352
_cell_length_c   22.47210900
_cell_angle_alpha   90.11295306
_cell_angle_beta   90.00000000
_cell_angle_gamma   90.00000000
_symmetry_Int_Tables_number   1
_chemical_formula_structural   YbTh11(GeIr)12
_chemical_formula_sum   'Yb1 Th11 Ge12 Ir12'
_cell_volume   728.74295504
_cell_formula_units_Z   1
loop_
 _symmetry_equiv_pos_site_id
 _symmetry_equiv_pos_as_xyz
  1  'x, y, z'
loop_
 _atom_site_type_symbol
 _atom_site_label
 _atom_site_symmetry_multiplicity
 _atom_site_fract_x
 _atom_site_fract_y
 _atom_site_fract_z
 _atom_site_occupancy
  Yb  Yb0  1  0.250000  0.704243  0.497509  1
  Th  Th1  1  0.250000  0.792804  0.337400  1
  Th  Th2  1  0.750000  0.200361  0.664002  1
  Th  Th3  1  0.750000  0.291147  0.169580  1
  Th  Th4  1  0.250000  0.701325  0.831262  1
  Th  Th5  1  0.250000  0.719926  0.170290  1
  Th  Th6  1  0.750000  0.287807  0.831499  1
  Th  Th7  1  0.750000  0.213066  0.336966  1
  Th  Th8  1  0.250000  0.793352  0.662692  1
  Th  Th9  1  0.250000  0.783813  0.997604  1
  Th  Th10  1  0.750000  0.204116  0.002614  1
  Th  Th11  1  0.750000  0.305958  0.503898  1
  Ge  Ge12  1  0.250000  0.094285  0.102082  1
  Ge  Ge13  1  0.750000  0.911535  0.896076  1
  Ge  Ge14  1  0.750000  0.593006  0.401487  1
  Ge  Ge15  1  0.250000  0.417129  0.600814  1
  Ge  Ge16  1  0.250000  0.093438  0.236332  1
  Ge  Ge17  1  0.750000  0.906056  0.764610  1
  Ge  Ge18  1  0.750000  0.592277  0.269630  1
  Ge  Ge19  1  0.250000  0.408599  0.729500  1
  Ge  Ge20  1  0.250000  0.084976  0.439166  1
  Ge  Ge21  1  0.750000  0.902435  0.558644  1
  Ge  Ge22  1  0.750000  0.585856  0.079662  1
  Ge  Ge23  1  0.250000  0.407805  0.935533  1
  Ir  Ir24  1  0.250000  0.424034  0.264323  1
  Ir  Ir25  1  0.750000  0.576544  0.734267  1
  Ir  Ir26  1  0.750000  0.924860  0.243171  1
  Ir  Ir27  1  0.250000  0.077399  0.759782  1
  Ir  Ir28  1  0.250000  0.411133  0.406742  1
  Ir  Ir29  1  0.750000  0.585892  0.595696  1
  Ir  Ir30  1  0.750000  0.920827  0.089692  1
  Ir  Ir31  1  0.250000  0.078504  0.904961  1
  Ir  Ir32  1  0.250000  0.419486  0.058251  1
  Ir  Ir33  1  0.750000  0.579294  0.923263  1
  Ir  Ir34  1  0.750000  0.921679  0.435736  1
  Ir  Ir35  1  0.250000  0.085034  0.565265  1
