# generated using pymatgen
data_BaInSn2Pt
_symmetry_space_group_name_H-M   'P 1'
_cell_length_a   6.69648801
_cell_length_b   6.69648792
_cell_length_c   6.69648877
_cell_angle_alpha   137.12123855
_cell_angle_beta   136.40616947
_cell_angle_gamma   62.80364596
_symmetry_Int_Tables_number   1
_chemical_formula_structural   BaInSn2Pt
_chemical_formula_sum   'Ba1 In1 Sn2 Pt1'
_cell_volume   139.14744261
_cell_formula_units_Z   1
loop_
 _symmetry_equiv_pos_site_id
 _symmetry_equiv_pos_as_xyz
  1  'x, y, z'
loop_
 _atom_site_type_symbol
 _atom_site_label
 _atom_site_symmetry_multiplicity
 _atom_site_fract_x
 _atom_site_fract_y
 _atom_site_fract_z
 _atom_site_occupancy
  Ba  Ba0  1  0.004603  0.004603  0.000000  1
  In  In1  1  0.250714  0.750714  0.500000  1
  Sn  Sn2  1  0.754119  0.254119  0.500000  1
  Sn  Sn3  1  0.418159  0.418159  0.000000  1
  Pt  Pt4  1  0.651506  0.651506  0.000000  1
