# generated using pymatgen
data_Nd7Th(ZnRh)8
_symmetry_space_group_name_H-M   'P 1'
_cell_length_a   3.99846900
_cell_length_b   7.36004844
_cell_length_c   16.61629832
_cell_angle_alpha   89.64134776
_cell_angle_beta   90.00000000
_cell_angle_gamma   90.00000000
_symmetry_Int_Tables_number   1
_chemical_formula_structural   Nd7Th(ZnRh)8
_chemical_formula_sum   'Nd7 Th1 Zn8 Rh8'
_cell_volume   488.99022553
_cell_formula_units_Z   1
loop_
 _symmetry_equiv_pos_site_id
 _symmetry_equiv_pos_as_xyz
  1  'x, y, z'
loop_
 _atom_site_type_symbol
 _atom_site_label
 _atom_site_symmetry_multiplicity
 _atom_site_fract_x
 _atom_site_fract_y
 _atom_site_fract_z
 _atom_site_occupancy
  Nd  Nd0  1  0.750000  0.948904  0.283474  1
  Nd  Nd1  1  0.750000  0.828264  0.059186  1
  Nd  Nd2  1  0.250000  0.048761  0.716087  1
  Nd  Nd3  1  0.250000  0.169301  0.939091  1
  Nd  Nd4  1  0.250000  0.548524  0.783888  1
  Nd  Nd5  1  0.750000  0.333654  0.441073  1
  Nd  Nd6  1  0.250000  0.671973  0.561165  1
  Th  Th7  1  0.750000  0.448735  0.216946  1
  Zn  Zn8  1  0.250000  0.003008  0.439985  1
  Zn  Zn9  1  0.750000  0.500353  0.939920  1
  Zn  Zn10  1  0.750000  0.002869  0.560295  1
  Zn  Zn11  1  0.250000  0.625938  0.351612  1
  Zn  Zn12  1  0.750000  0.377658  0.651486  1
  Zn  Zn13  1  0.750000  0.877928  0.848756  1
  Zn  Zn14  1  0.250000  0.497876  0.057214  1
  Zn  Zn15  1  0.250000  0.116766  0.151012  1
  Rh  Rh16  1  0.250000  0.247663  0.565224  1
  Rh  Rh17  1  0.750000  0.257063  0.068953  1
  Rh  Rh18  1  0.250000  0.252645  0.306883  1
  Rh  Rh19  1  0.750000  0.255215  0.814141  1
  Rh  Rh20  1  0.250000  0.747374  0.934274  1
  Rh  Rh21  1  0.750000  0.755945  0.686723  1
  Rh  Rh22  1  0.750000  0.760550  0.434924  1
  Rh  Rh23  1  0.250000  0.723037  0.187690  1
