# generated using pymatgen
data_Np3As5W
_symmetry_space_group_name_H-M   'P 1'
_cell_length_a   8.52665100
_cell_length_b   8.52665079
_cell_length_c   5.64199100
_cell_angle_alpha   90.00000000
_cell_angle_beta   90.00000000
_cell_angle_gamma   119.99998917
_symmetry_Int_Tables_number   1
_chemical_formula_structural   Np3As5W
_chemical_formula_sum   'Np6 As10 W2'
_cell_volume   355.23850395
_cell_formula_units_Z   2
loop_
 _symmetry_equiv_pos_site_id
 _symmetry_equiv_pos_as_xyz
  1  'x, y, z'
loop_
 _atom_site_type_symbol
 _atom_site_label
 _atom_site_symmetry_multiplicity
 _atom_site_fract_x
 _atom_site_fract_y
 _atom_site_fract_z
 _atom_site_occupancy
  Np  Np0  1  0.618818  0.000000  0.250000  1
  Np  Np1  1  0.381182  0.000000  0.750000  1
  Np  Np2  1  0.000000  0.618818  0.250000  1
  Np  Np3  1  0.000000  0.381182  0.750000  1
  Np  Np4  1  0.381182  0.381182  0.250000  1
  Np  Np5  1  0.618818  0.618818  0.750000  1
  As  As6  1  0.263718  0.000000  0.250000  1
  As  As7  1  0.736282  0.000000  0.750000  1
  As  As8  1  0.000000  0.263718  0.250000  1
  As  As9  1  0.000000  0.736282  0.750000  1
  As  As10  1  0.736282  0.736282  0.250000  1
  As  As11  1  0.263718  0.263718  0.750000  1
  As  As12  1  0.333333  0.666667  0.000000  1
  As  As13  1  0.666667  0.333333  0.000000  1
  As  As14  1  0.666667  0.333333  0.500000  1
  As  As15  1  0.333333  0.666667  0.500000  1
  W  W16  1  0.000000  0.000000  0.000000  1
  W  W17  1  0.000000  0.000000  0.500000  1
