# generated using pymatgen
data_TbPrY8(In2Pd)4
_symmetry_space_group_name_H-M   'P 1'
_cell_length_a   3.64513300
_cell_length_b   8.18041393
_cell_length_c   18.40980013
_cell_angle_alpha   90.17658632
_cell_angle_beta   90.00000000
_cell_angle_gamma   90.00000000
_symmetry_Int_Tables_number   1
_chemical_formula_structural   TbPrY8(In2Pd)4
_chemical_formula_sum   'Tb1 Pr1 Y8 In8 Pd4'
_cell_volume   548.95364035
_cell_formula_units_Z   1
loop_
 _symmetry_equiv_pos_site_id
 _symmetry_equiv_pos_as_xyz
  1  'x, y, z'
loop_
 _atom_site_type_symbol
 _atom_site_label
 _atom_site_symmetry_multiplicity
 _atom_site_fract_x
 _atom_site_fract_y
 _atom_site_fract_z
 _atom_site_occupancy
  Tb  Tb0  1  0.500000  0.241225  0.780315  1
  Pr  Pr1  1  0.500000  0.000023  0.999956  1
  Y  Y2  1  0.500000  0.759141  0.219364  1
  Y  Y3  1  0.500000  0.260399  0.282242  1
  Y  Y4  1  0.500000  0.739537  0.717778  1
  Y  Y5  1  0.500000  0.119033  0.582901  1
  Y  Y6  1  0.500000  0.881114  0.416938  1
  Y  Y7  1  0.500000  0.377697  0.083612  1
  Y  Y8  1  0.500000  0.622474  0.916612  1
  Y  Y9  1  0.500000  0.500065  0.499974  1
  In  In10  1  0.000000  0.081136  0.154038  1
  In  In11  1  0.000000  0.918544  0.846077  1
  In  In12  1  0.000000  0.420142  0.650365  1
  In  In13  1  0.000000  0.579959  0.349423  1
  In  In14  1  0.000000  0.206973  0.432444  1
  In  In15  1  0.000000  0.792960  0.567528  1
  In  In16  1  0.000000  0.299854  0.930781  1
  In  In17  1  0.000000  0.700273  0.069415  1
  Pd  Pd18  1  0.000000  0.024711  0.695234  1
  Pd  Pd19  1  0.000000  0.975526  0.304994  1
  Pd  Pd20  1  0.000000  0.474719  0.196727  1
  Pd  Pd21  1  0.000000  0.524494  0.803283  1
