# generated using pymatgen
data_Tm3Sc2AlSb2
_symmetry_space_group_name_H-M   'P 1'
_cell_length_a   8.61776200
_cell_length_b   8.65231963
_cell_length_c   6.10361400
_cell_angle_alpha   90.00000000
_cell_angle_beta   90.00000000
_cell_angle_gamma   119.86796625
_symmetry_Int_Tables_number   1
_chemical_formula_structural   Tm3Sc2AlSb2
_chemical_formula_sum   'Tm6 Sc4 Al2 Sb4'
_cell_volume   394.65809718
_cell_formula_units_Z   2
loop_
 _symmetry_equiv_pos_site_id
 _symmetry_equiv_pos_as_xyz
  1  'x, y, z'
loop_
 _atom_site_type_symbol
 _atom_site_label
 _atom_site_symmetry_multiplicity
 _atom_site_fract_x
 _atom_site_fract_y
 _atom_site_fract_z
 _atom_site_occupancy
  Tm  Tm0  1  0.244714  0.000000  0.250000  1
  Tm  Tm1  1  0.755286  0.000000  0.750000  1
  Tm  Tm2  1  0.988120  0.233549  0.250000  1
  Tm  Tm3  1  0.754571  0.766451  0.250000  1
  Tm  Tm4  1  0.245429  0.233549  0.750000  1
  Tm  Tm5  1  0.011880  0.766451  0.750000  1
  Sc  Sc6  1  0.339344  0.678689  0.000000  1
  Sc  Sc7  1  0.660656  0.321311  0.500000  1
  Sc  Sc8  1  0.660656  0.321311  0.000000  1
  Sc  Sc9  1  0.339344  0.678689  0.500000  1
  Al  Al10  1  0.595134  0.000000  0.250000  1
  Al  Al11  1  0.404866  0.000000  0.750000  1
  Sb  Sb12  1  0.995266  0.603812  0.250000  1
  Sb  Sb13  1  0.391454  0.396188  0.250000  1
  Sb  Sb14  1  0.608546  0.603812  0.750000  1
  Sb  Sb15  1  0.004734  0.396188  0.750000  1
