# generated using pymatgen
data_Ca6UReO12
_symmetry_space_group_name_H-M   'P 1'
_cell_length_a   6.67489022
_cell_length_b   6.67488962
_cell_length_c   6.67489081
_cell_angle_alpha   92.46006155
_cell_angle_beta   92.46006227
_cell_angle_gamma   92.46005646
_symmetry_Int_Tables_number   1
_chemical_formula_structural   Ca6UReO12
_chemical_formula_sum   'Ca6 U1 Re1 O12'
_cell_volume   296.54752995
_cell_formula_units_Z   1
loop_
 _symmetry_equiv_pos_site_id
 _symmetry_equiv_pos_as_xyz
  1  'x, y, z'
loop_
 _atom_site_type_symbol
 _atom_site_label
 _atom_site_symmetry_multiplicity
 _atom_site_fract_x
 _atom_site_fract_y
 _atom_site_fract_z
 _atom_site_occupancy
  Ca  Ca0  1  0.931152  0.437100  0.740373  1
  Ca  Ca1  1  0.740373  0.931152  0.437100  1
  Ca  Ca2  1  0.562900  0.259627  0.068848  1
  Ca  Ca3  1  0.437100  0.740373  0.931152  1
  Ca  Ca4  1  0.259627  0.068848  0.562900  1
  Ca  Ca5  1  0.068848  0.562900  0.259627  1
  U  U6  1  0.000000  0.000000  0.000000  1
  Re  Re7  1  0.500000  0.500000  0.500000  1
  O  O8  1  0.925986  0.298381  0.065635  1
  O  O9  1  0.934365  0.074014  0.701619  1
  O  O10  1  0.778222  0.578338  0.454605  1
  O  O11  1  0.701619  0.934365  0.074014  1
  O  O12  1  0.578338  0.454605  0.778222  1
  O  O13  1  0.545395  0.221778  0.421662  1
  O  O14  1  0.454605  0.778222  0.578338  1
  O  O15  1  0.421662  0.545395  0.221778  1
  O  O16  1  0.298381  0.065635  0.925986  1
  O  O17  1  0.221778  0.421662  0.545395  1
  O  O18  1  0.065635  0.925986  0.298381  1
  O  O19  1  0.074014  0.701619  0.934365  1
