# generated using pymatgen
data_Hf4MnFe(B2Ru5)2
_symmetry_space_group_name_H-M   'P 1'
_cell_length_a   9.30385400
_cell_length_b   9.30385400
_cell_length_c   3.07642500
_cell_angle_alpha   90.00000000
_cell_angle_beta   90.00000000
_cell_angle_gamma   90.00000000
_symmetry_Int_Tables_number   1
_chemical_formula_structural   Hf4MnFe(B2Ru5)2
_chemical_formula_sum   'Hf4 Mn1 Fe1 B4 Ru10'
_cell_volume   266.30057563
_cell_formula_units_Z   1
loop_
 _symmetry_equiv_pos_site_id
 _symmetry_equiv_pos_as_xyz
  1  'x, y, z'
loop_
 _atom_site_type_symbol
 _atom_site_label
 _atom_site_symmetry_multiplicity
 _atom_site_fract_x
 _atom_site_fract_y
 _atom_site_fract_z
 _atom_site_occupancy
  Hf  Hf0  1  0.676786  0.175643  0.000000  1
  Hf  Hf1  1  0.323214  0.824357  0.000000  1
  Hf  Hf2  1  0.175643  0.323214  0.000000  1
  Hf  Hf3  1  0.824357  0.676786  0.000000  1
  Mn  Mn4  1  0.000000  0.000000  0.000000  1
  Fe  Fe5  1  0.500000  0.500000  0.000000  1
  B  B6  1  0.124168  0.624223  0.000000  1
  B  B7  1  0.875832  0.375777  0.000000  1
  B  B8  1  0.624223  0.875832  0.000000  1
  B  B9  1  0.375777  0.124168  0.000000  1
  Ru  Ru10  1  0.213930  0.070956  0.500000  1
  Ru  Ru11  1  0.786070  0.929044  0.500000  1
  Ru  Ru12  1  0.070956  0.786070  0.500000  1
  Ru  Ru13  1  0.712843  0.429660  0.500000  1
  Ru  Ru14  1  0.929044  0.213930  0.500000  1
  Ru  Ru15  1  0.287157  0.570340  0.500000  1
  Ru  Ru16  1  0.570340  0.712843  0.500000  1
  Ru  Ru17  1  0.429660  0.287157  0.500000  1
  Ru  Ru18  1  0.500000  0.000000  0.500000  1
  Ru  Ru19  1  0.000000  0.500000  0.500000  1
