# generated using pymatgen
data_YHfPPt8
_symmetry_space_group_name_H-M   'P 1'
_cell_length_a   4.05718400
_cell_length_b   4.05718400
_cell_length_c   11.10281900
_cell_angle_alpha   90.00000000
_cell_angle_beta   90.00000000
_cell_angle_gamma   90.00000000
_symmetry_Int_Tables_number   1
_chemical_formula_structural   YHfPPt8
_chemical_formula_sum   'Y1 Hf1 P1 Pt8'
_cell_volume   182.76063914
_cell_formula_units_Z   1
loop_
 _symmetry_equiv_pos_site_id
 _symmetry_equiv_pos_as_xyz
  1  'x, y, z'
loop_
 _atom_site_type_symbol
 _atom_site_label
 _atom_site_symmetry_multiplicity
 _atom_site_fract_x
 _atom_site_fract_y
 _atom_site_fract_z
 _atom_site_occupancy
  Y  Y0  1  0.500000  0.500000  0.184897  1
  Hf  Hf1  1  0.500000  0.500000  0.815504  1
  P  P2  1  0.000000  0.000000  0.501154  1
  Pt  Pt3  1  0.500000  0.000000  0.990736  1
  Pt  Pt4  1  0.000000  0.500000  0.990736  1
  Pt  Pt5  1  0.500000  0.000000  0.634895  1
  Pt  Pt6  1  0.000000  0.500000  0.634895  1
  Pt  Pt7  1  0.500000  0.000000  0.375655  1
  Pt  Pt8  1  0.000000  0.500000  0.375655  1
  Pt  Pt9  1  0.000000  0.000000  0.814239  1
  Pt  Pt10  1  0.000000  0.000000  0.181635  1
