# generated using pymatgen
data_SrTb2Yb5(Si3Au)4
_symmetry_space_group_name_H-M   'P 1'
_cell_length_a   8.32410902
_cell_length_b   8.32410694
_cell_length_c   8.33506000
_cell_angle_alpha   90.00000000
_cell_angle_beta   90.00000000
_cell_angle_gamma   120.09058584
_symmetry_Int_Tables_number   1
_chemical_formula_structural   SrTb2Yb5(Si3Au)4
_chemical_formula_sum   'Sr1 Tb2 Yb5 Si12 Au4'
_cell_volume   499.70951985
_cell_formula_units_Z   1
loop_
 _symmetry_equiv_pos_site_id
 _symmetry_equiv_pos_as_xyz
  1  'x, y, z'
loop_
 _atom_site_type_symbol
 _atom_site_label
 _atom_site_symmetry_multiplicity
 _atom_site_fract_x
 _atom_site_fract_y
 _atom_site_fract_z
 _atom_site_occupancy
  Sr  Sr0  1  0.499078  0.500922  0.750000  1
  Tb  Tb1  1  0.999974  0.000026  0.250000  1
  Tb  Tb2  1  0.000129  0.999871  0.750000  1
  Yb  Yb3  1  0.500963  0.001726  0.250000  1
  Yb  Yb4  1  0.499051  0.998403  0.750000  1
  Yb  Yb5  1  0.998274  0.499037  0.250000  1
  Yb  Yb6  1  0.001597  0.500949  0.750000  1
  Yb  Yb7  1  0.500810  0.499190  0.250000  1
  Si  Si8  1  0.160530  0.322488  0.005475  1
  Si  Si9  1  0.839459  0.677564  0.003830  1
  Si  Si10  1  0.677512  0.839470  0.005475  1
  Si  Si11  1  0.839459  0.677564  0.496170  1
  Si  Si12  1  0.322436  0.160541  0.003830  1
  Si  Si13  1  0.160530  0.322488  0.494525  1
  Si  Si14  1  0.161502  0.838498  0.000855  1
  Si  Si15  1  0.322436  0.160541  0.496170  1
  Si  Si16  1  0.838588  0.161412  0.999001  1
  Si  Si17  1  0.677512  0.839470  0.494525  1
  Si  Si18  1  0.838588  0.161412  0.500999  1
  Si  Si19  1  0.161502  0.838498  0.499145  1
  Au  Au20  1  0.331731  0.668269  0.011779  1
  Au  Au21  1  0.668303  0.331697  0.007357  1
  Au  Au22  1  0.668303  0.331697  0.492643  1
  Au  Au23  1  0.331731  0.668269  0.488221  1
