# generated using pymatgen
data_LuZn3(BiO3)8
_symmetry_space_group_name_H-M   'P 1'
_cell_length_a   4.97506306
_cell_length_b   9.94476211
_cell_length_c   10.07263300
_cell_angle_alpha   90.00001152
_cell_angle_beta   90.00000000
_cell_angle_gamma   90.03609606
_symmetry_Int_Tables_number   1
_chemical_formula_structural   LuZn3(BiO3)8
_chemical_formula_sum   'Lu1 Zn3 Bi8 O24'
_cell_volume   498.35166444
_cell_formula_units_Z   1
loop_
 _symmetry_equiv_pos_site_id
 _symmetry_equiv_pos_as_xyz
  1  'x, y, z'
loop_
 _atom_site_type_symbol
 _atom_site_label
 _atom_site_symmetry_multiplicity
 _atom_site_fract_x
 _atom_site_fract_y
 _atom_site_fract_z
 _atom_site_occupancy
  Lu  Lu0  1  0.499973  0.249948  0.500000  1
  Zn  Zn1  1  0.003156  0.500343  0.000000  1
  Zn  Zn2  1  0.499998  0.750001  0.500000  1
  Zn  Zn3  1  0.996839  0.999666  0.999999  1
  Bi  Bi4  1  0.000908  0.994445  0.330498  1
  Bi  Bi5  1  0.999090  0.505559  0.330501  1
  Bi  Bi6  1  0.000908  0.994445  0.669502  1
  Bi  Bi7  1  0.999090  0.505559  0.669499  1
  Bi  Bi8  1  0.499996  0.250006  0.163005  1
  Bi  Bi9  1  0.499998  0.750000  0.165526  1
  Bi  Bi10  1  0.499996  0.250006  0.836995  1
  Bi  Bi11  1  0.499998  0.749999  0.834474  1
  O  O12  1  0.184392  0.404041  0.500000  1
  O  O13  1  0.202257  0.902250  0.500000  1
  O  O14  1  0.299923  0.150342  0.000000  1
  O  O15  1  0.302232  0.650625  0.000000  1
  O  O16  1  0.700080  0.349668  0.000000  1
  O  O17  1  0.697771  0.849375  0.000000  1
  O  O18  1  0.815631  0.095957  0.500000  1
  O  O19  1  0.797751  0.597754  0.500000  1
  O  O20  1  0.192809  0.404650  0.165675  1
  O  O21  1  0.190962  0.903366  0.162642  1
  O  O22  1  0.192809  0.404650  0.834325  1
  O  O23  1  0.190962  0.903366  0.837358  1
  O  O24  1  0.304691  0.151812  0.330118  1
  O  O25  1  0.310727  0.655485  0.335660  1
  O  O26  1  0.304691  0.151812  0.669882  1
  O  O27  1  0.310727  0.655485  0.664341  1
  O  O28  1  0.695317  0.348190  0.330117  1
  O  O29  1  0.689287  0.844511  0.335659  1
  O  O30  1  0.695317  0.348190  0.669883  1
  O  O31  1  0.689288  0.844511  0.664341  1
  O  O32  1  0.807180  0.095356  0.165674  1
  O  O33  1  0.809033  0.596635  0.162646  1
  O  O34  1  0.807180  0.095355  0.834326  1
  O  O35  1  0.809034  0.596636  0.837354  1
