# generated using pymatgen
data_Ho8Si12OsPt3
_symmetry_space_group_name_H-M   'P 1'
_cell_length_a   8.17816900
_cell_length_b   8.17816915
_cell_length_c   7.91120400
_cell_angle_alpha   90.00000000
_cell_angle_beta   90.00000000
_cell_angle_gamma   120.00000342
_symmetry_Int_Tables_number   1
_chemical_formula_structural   Ho8Si12OsPt3
_chemical_formula_sum   'Ho8 Si12 Os1 Pt3'
_cell_volume   458.23195351
_cell_formula_units_Z   1
loop_
 _symmetry_equiv_pos_site_id
 _symmetry_equiv_pos_as_xyz
  1  'x, y, z'
loop_
 _atom_site_type_symbol
 _atom_site_label
 _atom_site_symmetry_multiplicity
 _atom_site_fract_x
 _atom_site_fract_y
 _atom_site_fract_z
 _atom_site_occupancy
  Ho  Ho0  1  0.000000  0.000000  0.250792  1
  Ho  Ho1  1  0.000000  0.000000  0.751030  1
  Ho  Ho2  1  0.507815  0.492185  0.245539  1
  Ho  Ho3  1  0.507815  0.015630  0.245539  1
  Ho  Ho4  1  0.984370  0.492185  0.245539  1
  Ho  Ho5  1  0.488295  0.511705  0.753773  1
  Ho  Ho6  1  0.488295  0.976589  0.753773  1
  Ho  Ho7  1  0.023411  0.511705  0.753773  1
  Si  Si8  1  0.165170  0.834830  0.500646  1
  Si  Si9  1  0.165170  0.330340  0.500646  1
  Si  Si10  1  0.669660  0.834830  0.500646  1
  Si  Si11  1  0.834868  0.165132  0.500277  1
  Si  Si12  1  0.834868  0.669736  0.500277  1
  Si  Si13  1  0.330264  0.165132  0.500277  1
  Si  Si14  1  0.836159  0.163841  0.998367  1
  Si  Si15  1  0.836159  0.672318  0.998367  1
  Si  Si16  1  0.327682  0.163841  0.998367  1
  Si  Si17  1  0.167851  0.832149  0.001700  1
  Si  Si18  1  0.167851  0.335702  0.001700  1
  Si  Si19  1  0.664298  0.832149  0.001700  1
  Os  Os20  1  0.333333  0.666667  0.034714  1
  Pt  Pt21  1  0.333333  0.666667  0.461059  1
  Pt  Pt22  1  0.666667  0.333333  0.531609  1
  Pt  Pt23  1  0.666667  0.333333  0.969883  1
