# generated using pymatgen
data_Pr2Te3MoO12
_symmetry_space_group_name_H-M   'P 1'
_cell_length_a   5.39586100
_cell_length_b   11.42369300
_cell_length_c   18.25291500
_cell_angle_alpha   90.00000000
_cell_angle_beta   90.00000000
_cell_angle_gamma   90.00000000
_symmetry_Int_Tables_number   1
_chemical_formula_structural   Pr2Te3MoO12
_chemical_formula_sum   'Pr8 Te12 Mo4 O48'
_cell_volume   1125.12171903
_cell_formula_units_Z   4
loop_
 _symmetry_equiv_pos_site_id
 _symmetry_equiv_pos_as_xyz
  1  'x, y, z'
loop_
 _atom_site_type_symbol
 _atom_site_label
 _atom_site_symmetry_multiplicity
 _atom_site_fract_x
 _atom_site_fract_y
 _atom_site_fract_z
 _atom_site_occupancy
  Pr  Pr0  1  0.255580  0.922857  0.062654  1
  Pr  Pr1  1  0.755580  0.422857  0.437346  1
  Pr  Pr2  1  0.744420  0.422857  0.937346  1
  Pr  Pr3  1  0.744420  0.077143  0.937346  1
  Pr  Pr4  1  0.755580  0.077143  0.437346  1
  Pr  Pr5  1  0.244420  0.922857  0.562654  1
  Pr  Pr6  1  0.255580  0.577143  0.062654  1
  Pr  Pr7  1  0.244420  0.577143  0.562654  1
  Te  Te8  1  0.226190  0.589372  0.830076  1
  Te  Te9  1  0.713125  0.750000  0.452861  1
  Te  Te10  1  0.213125  0.250000  0.047139  1
  Te  Te11  1  0.726190  0.410628  0.669924  1
  Te  Te12  1  0.786875  0.750000  0.952861  1
  Te  Te13  1  0.273810  0.589372  0.330076  1
  Te  Te14  1  0.273810  0.910628  0.330076  1
  Te  Te15  1  0.773810  0.089372  0.169924  1
  Te  Te16  1  0.773810  0.410628  0.169924  1
  Te  Te17  1  0.226190  0.910628  0.830076  1
  Te  Te18  1  0.726190  0.089372  0.669924  1
  Te  Te19  1  0.286875  0.250000  0.547139  1
  Mo  Mo20  1  0.741189  0.750000  0.680837  1
  Mo  Mo21  1  0.258811  0.250000  0.319163  1
  Mo  Mo22  1  0.758811  0.750000  0.180837  1
  Mo  Mo23  1  0.241189  0.250000  0.819163  1
  O  O24  1  0.513203  0.250000  0.465554  1
  O  O25  1  0.952823  0.879467  0.171868  1
  O  O26  1  0.606979  0.617932  0.989761  1
  O  O27  1  0.356976  0.250000  0.729175  1
  O  O28  1  0.986797  0.250000  0.965554  1
  O  O29  1  0.968498  0.984179  0.339909  1
  O  O30  1  0.047177  0.120533  0.828132  1
  O  O31  1  0.393021  0.117932  0.010239  1
  O  O32  1  0.547177  0.879467  0.671868  1
  O  O33  1  0.413978  0.932162  0.426080  1
  O  O34  1  0.517521  0.250000  0.877534  1
  O  O35  1  0.606979  0.882068  0.989761  1
  O  O36  1  0.017521  0.750000  0.622466  1
  O  O37  1  0.586022  0.067838  0.573920  1
  O  O38  1  0.468498  0.484179  0.160091  1
  O  O39  1  0.146722  0.750000  0.355771  1
  O  O40  1  0.393021  0.382068  0.010239  1
  O  O41  1  0.413978  0.567838  0.426080  1
  O  O42  1  0.547177  0.620533  0.671868  1
  O  O43  1  0.047177  0.379467  0.828132  1
  O  O44  1  0.031502  0.484179  0.660090  1
  O  O45  1  0.643024  0.750000  0.270825  1
  O  O46  1  0.913978  0.432162  0.073920  1
  O  O47  1  0.893021  0.882068  0.489761  1
  O  O48  1  0.143024  0.250000  0.229175  1
  O  O49  1  0.031502  0.015821  0.660090  1
  O  O50  1  0.531502  0.515821  0.839910  1
  O  O51  1  0.086022  0.567838  0.926080  1
  O  O52  1  0.452823  0.379467  0.328132  1
  O  O53  1  0.106979  0.117932  0.510239  1
  O  O54  1  0.468498  0.015821  0.160091  1
  O  O55  1  0.106979  0.382068  0.510239  1
  O  O56  1  0.531502  0.984179  0.839910  1
  O  O57  1  0.856976  0.750000  0.770825  1
  O  O58  1  0.452823  0.120533  0.328132  1
  O  O59  1  0.952823  0.620533  0.171868  1
  O  O60  1  0.982479  0.250000  0.377534  1
  O  O61  1  0.913978  0.067838  0.073920  1
  O  O62  1  0.893021  0.617932  0.489761  1
  O  O63  1  0.853278  0.250000  0.644229  1
  O  O64  1  0.646722  0.250000  0.144229  1
  O  O65  1  0.482479  0.750000  0.122466  1
  O  O66  1  0.353278  0.750000  0.855771  1
  O  O67  1  0.013203  0.750000  0.034446  1
  O  O68  1  0.968498  0.515821  0.339909  1
  O  O69  1  0.086022  0.932162  0.926080  1
  O  O70  1  0.586022  0.432162  0.573920  1
  O  O71  1  0.486797  0.750000  0.534446  1
