# generated using pymatgen
data_Tm2Lu2Mo3Os5
_symmetry_space_group_name_H-M   'P 1'
_cell_length_a   5.55760800
_cell_length_b   5.37808970
_cell_length_c   8.62032302
_cell_angle_alpha   89.99299107
_cell_angle_beta   90.00055096
_cell_angle_gamma   121.11363425
_symmetry_Int_Tables_number   1
_chemical_formula_structural   Tm2Lu2Mo3Os5
_chemical_formula_sum   'Tm2 Lu2 Mo3 Os5'
_cell_volume   220.59028372
_cell_formula_units_Z   1
loop_
 _symmetry_equiv_pos_site_id
 _symmetry_equiv_pos_as_xyz
  1  'x, y, z'
loop_
 _atom_site_type_symbol
 _atom_site_label
 _atom_site_symmetry_multiplicity
 _atom_site_fract_x
 _atom_site_fract_y
 _atom_site_fract_z
 _atom_site_occupancy
  Tm  Tm0  1  0.333699  0.667397  0.067165  1
  Tm  Tm1  1  0.667286  0.334586  0.937815  1
  Lu  Lu2  1  0.667327  0.334673  0.561711  1
  Lu  Lu3  1  0.333630  0.667249  0.433203  1
  Mo  Mo4  1  0.997477  0.994920  0.493533  1
  Mo  Mo5  1  0.997396  0.994790  0.006514  1
  Mo  Mo6  1  0.173482  0.347029  0.749318  1
  Os  Os7  1  0.172766  0.832138  0.749355  1
  Os  Os8  1  0.659355  0.832156  0.749358  1
  Os  Os9  1  0.823488  0.646933  0.250690  1
  Os  Os10  1  0.830110  0.174042  0.250669  1
  Os  Os11  1  0.343985  0.174088  0.250670  1
