# generated using pymatgen
data_LiNdUIr3
_symmetry_space_group_name_H-M   'P 1'
_cell_length_a   5.24250610
_cell_length_b   5.24250544
_cell_length_c   5.24250500
_cell_angle_alpha   66.03346991
_cell_angle_beta   66.03348511
_cell_angle_gamma   66.03345876
_symmetry_Int_Tables_number   1
_chemical_formula_structural   LiNdUIr3
_chemical_formula_sum   'Li1 Nd1 U1 Ir3'
_cell_volume   115.18143465
_cell_formula_units_Z   1
loop_
 _symmetry_equiv_pos_site_id
 _symmetry_equiv_pos_as_xyz
  1  'x, y, z'
loop_
 _atom_site_type_symbol
 _atom_site_label
 _atom_site_symmetry_multiplicity
 _atom_site_fract_x
 _atom_site_fract_y
 _atom_site_fract_z
 _atom_site_occupancy
  Li  Li0  1  0.984770  0.984770  0.984770  1
  Nd  Nd1  1  0.235978  0.235978  0.235978  1
  U  U2  1  0.633623  0.633623  0.633623  1
  Ir  Ir3  1  0.631590  0.631590  0.132450  1
  Ir  Ir4  1  0.631590  0.132450  0.631590  1
  Ir  Ir5  1  0.132450  0.631590  0.631590  1
