# generated using pymatgen
data_Y2Al9Ni2Ir
_symmetry_space_group_name_H-M   'P 1'
_cell_length_a   7.44048062
_cell_length_b   7.44048104
_cell_length_c   9.31821900
_cell_angle_alpha   90.00000000
_cell_angle_beta   90.00000000
_cell_angle_gamma   119.12271650
_symmetry_Int_Tables_number   1
_chemical_formula_structural   Y2Al9Ni2Ir
_chemical_formula_sum   'Y4 Al18 Ni4 Ir2'
_cell_volume   450.64781387
_cell_formula_units_Z   2
loop_
 _symmetry_equiv_pos_site_id
 _symmetry_equiv_pos_as_xyz
  1  'x, y, z'
loop_
 _atom_site_type_symbol
 _atom_site_label
 _atom_site_symmetry_multiplicity
 _atom_site_fract_x
 _atom_site_fract_y
 _atom_site_fract_z
 _atom_site_occupancy
  Y  Y0  1  0.994310  0.673044  0.250000  1
  Y  Y1  1  0.005690  0.326956  0.750000  1
  Y  Y2  1  0.673043  0.994310  0.250000  1
  Y  Y3  1  0.326957  0.005690  0.750000  1
  Al  Al4  1  0.135068  0.135068  0.250000  1
  Al  Al5  1  0.864932  0.864932  0.750000  1
  Al  Al6  1  0.998158  0.338485  0.073661  1
  Al  Al7  1  0.001842  0.661515  0.926339  1
  Al  Al8  1  0.001842  0.661515  0.573661  1
  Al  Al9  1  0.338485  0.998158  0.426339  1
  Al  Al10  1  0.998158  0.338485  0.426339  1
  Al  Al11  1  0.661515  0.001842  0.573661  1
  Al  Al12  1  0.661515  0.001842  0.926339  1
  Al  Al13  1  0.338485  0.998158  0.073661  1
  Al  Al14  1  0.335962  0.335962  0.550085  1
  Al  Al15  1  0.664038  0.664038  0.449915  1
  Al  Al16  1  0.664038  0.664038  0.050085  1
  Al  Al17  1  0.335962  0.335962  0.949915  1
  Al  Al18  1  0.341268  0.555840  0.250000  1
  Al  Al19  1  0.658732  0.444160  0.750000  1
  Al  Al20  1  0.555840  0.341268  0.250000  1
  Al  Al21  1  0.444160  0.658732  0.750000  1
  Ni  Ni22  1  0.670770  0.329231  0.000000  1
  Ni  Ni23  1  0.329230  0.670769  0.000000  1
  Ni  Ni24  1  0.329230  0.670769  0.500000  1
  Ni  Ni25  1  0.670770  0.329231  0.500000  1
  Ir  Ir26  1  0.000000  0.000000  0.000000  1
  Ir  Ir27  1  0.000000  0.000000  0.500000  1
