# generated using pymatgen
data_HfZr6Mn(Co4P3)4
_symmetry_space_group_name_H-M   'P 1'
_cell_length_a   12.03832604
_cell_length_b   12.03706426
_cell_length_c   3.64878500
_cell_angle_alpha   90.00000000
_cell_angle_beta   90.00000000
_cell_angle_gamma   120.24557140
_symmetry_Int_Tables_number   1
_chemical_formula_structural   HfZr6Mn(Co4P3)4
_chemical_formula_sum   'Hf1 Zr6 Mn1 Co16 P12'
_cell_volume   456.75738631
_cell_formula_units_Z   1
loop_
 _symmetry_equiv_pos_site_id
 _symmetry_equiv_pos_as_xyz
  1  'x, y, z'
loop_
 _atom_site_type_symbol
 _atom_site_label
 _atom_site_symmetry_multiplicity
 _atom_site_fract_x
 _atom_site_fract_y
 _atom_site_fract_z
 _atom_site_occupancy
  Hf  Hf0  1  0.998944  0.556009  0.000000  1
  Zr  Zr1  1  0.817478  0.817109  0.500000  1
  Zr  Zr2  1  0.999860  0.177003  0.500000  1
  Zr  Zr3  1  0.555451  0.999028  0.000000  1
  Zr  Zr4  1  0.332946  0.665956  0.000000  1
  Zr  Zr5  1  0.666156  0.333175  0.000000  1
  Zr  Zr6  1  0.176278  0.999497  0.500000  1
  Mn  Mn7  1  0.446077  0.446056  0.000000  1
  Co  Co8  1  0.627061  0.817375  0.000000  1
  Co  Co9  1  0.375368  0.200823  0.000000  1
  Co  Co10  1  0.000012  0.721323  0.500000  1
  Co  Co11  1  0.284191  0.284333  0.500000  1
  Co  Co12  1  0.875228  0.356045  0.500000  1
  Co  Co13  1  0.722591  0.000157  0.500000  1
  Co  Co14  1  0.818275  0.626619  0.000000  1
  Co  Co15  1  0.178477  0.806990  0.000000  1
  Co  Co16  1  0.353886  0.874055  0.500000  1
  Co  Co17  1  0.128132  0.479924  0.500000  1
  Co  Co18  1  0.641145  0.515386  0.500000  1
  Co  Co19  1  0.001233  0.001292  0.000000  1
  Co  Co20  1  0.515326  0.640197  0.500000  1
  Co  Co21  1  0.479079  0.128625  0.500000  1
  Co  Co22  1  0.200643  0.375726  0.000000  1
  Co  Co23  1  0.808499  0.179780  0.000000  1
  P  P24  1  0.005354  0.349056  0.000000  1
  P  P25  1  0.825214  0.517652  0.500000  1
  P  P26  1  0.691853  0.174562  0.500000  1
  P  P27  1  0.178168  0.178396  0.000000  1
  P  P28  1  0.639775  0.639284  0.000000  1
  P  P29  1  0.824110  0.998035  0.000000  1
  P  P30  1  0.517762  0.823997  0.500000  1
  P  P31  1  0.173145  0.690297  0.500000  1
  P  P32  1  0.347329  0.004887  0.000000  1
  P  P33  1  0.481138  0.316281  0.500000  1
  P  P34  1  0.997859  0.823998  0.000000  1
  P  P35  1  0.315955  0.481071  0.500000  1
