# generated using pymatgen
data_Zr4P4Ir3Rh
_symmetry_space_group_name_H-M   'P 1'
_cell_length_a   3.84110700
_cell_length_b   6.56252586
_cell_length_c   7.43716899
_cell_angle_alpha   90.05891397
_cell_angle_beta   90.00000000
_cell_angle_gamma   90.00000000
_symmetry_Int_Tables_number   1
_chemical_formula_structural   Zr4P4Ir3Rh
_chemical_formula_sum   'Zr4 P4 Ir3 Rh1'
_cell_volume   187.47132692
_cell_formula_units_Z   1
loop_
 _symmetry_equiv_pos_site_id
 _symmetry_equiv_pos_as_xyz
  1  'x, y, z'
loop_
 _atom_site_type_symbol
 _atom_site_label
 _atom_site_symmetry_multiplicity
 _atom_site_fract_x
 _atom_site_fract_y
 _atom_site_fract_z
 _atom_site_occupancy
  Zr  Zr0  1  0.250000  0.026328  0.821396  1
  Zr  Zr1  1  0.250000  0.526559  0.677758  1
  Zr  Zr2  1  0.750000  0.973948  0.178366  1
  Zr  Zr3  1  0.750000  0.473141  0.322356  1
  P  P4  1  0.250000  0.760995  0.377168  1
  P  P5  1  0.250000  0.261863  0.122809  1
  P  P6  1  0.750000  0.238937  0.622898  1
  P  P7  1  0.750000  0.739070  0.877709  1
  Ir  Ir8  1  0.250000  0.144399  0.437631  1
  Ir  Ir9  1  0.250000  0.645026  0.062555  1
  Ir  Ir10  1  0.750000  0.854297  0.562123  1
  Rh  Rh11  1  0.750000  0.355437  0.937232  1
