# generated using pymatgen
data_Rb4Zn4Si3GeAs8
_symmetry_space_group_name_H-M   'P 1'
_cell_length_a   8.50197090
_cell_length_b   8.31804311
_cell_length_c   8.52945949
_cell_angle_alpha   71.08531497
_cell_angle_beta   75.51512904
_cell_angle_gamma   72.78997681
_symmetry_Int_Tables_number   1
_chemical_formula_structural   Rb4Zn4Si3GeAs8
_chemical_formula_sum   'Rb4 Zn4 Si3 Ge1 As8'
_cell_volume   537.08477029
_cell_formula_units_Z   1
loop_
 _symmetry_equiv_pos_site_id
 _symmetry_equiv_pos_as_xyz
  1  'x, y, z'
loop_
 _atom_site_type_symbol
 _atom_site_label
 _atom_site_symmetry_multiplicity
 _atom_site_fract_x
 _atom_site_fract_y
 _atom_site_fract_z
 _atom_site_occupancy
  Rb  Rb0  1  0.452326  0.767651  0.317887  1
  Rb  Rb1  1  0.547915  0.233017  0.681893  1
  Rb  Rb2  1  0.442777  0.799726  0.817653  1
  Rb  Rb3  1  0.556664  0.201584  0.183868  1
  Zn  Zn4  1  0.999289  0.892998  0.687191  1
  Zn  Zn5  1  0.003640  0.107283  0.310983  1
  Zn  Zn6  1  0.957312  0.811718  0.175378  1
  Zn  Zn7  1  0.036034  0.187486  0.829109  1
  Si  Si8  1  0.040001  0.404393  0.400075  1
  Si  Si9  1  0.145087  0.448189  0.976981  1
  Si  Si10  1  0.857127  0.551990  0.021838  1
  Ge  Ge11  1  0.963187  0.585897  0.590996  1
  As  As12  1  0.820487  0.888681  0.449768  1
  As  As13  1  0.177301  0.119904  0.548665  1
  As  As14  1  0.790488  0.404642  0.314121  1
  As  As15  1  0.213915  0.599454  0.688032  1
  As  As16  1  0.787797  0.866209  0.955460  1
  As  As17  1  0.213375  0.134073  0.042296  1
  As  As18  1  0.778082  0.438150  0.834583  1
  As  As19  1  0.217196  0.556956  0.173224  1
