# generated using pymatgen
data_Ce3YIn2(CuRh)2
_symmetry_space_group_name_H-M   'P 1'
_cell_length_a   7.69063027
_cell_length_b   7.69063021
_cell_length_c   3.74441400
_cell_angle_alpha   90.00000000
_cell_angle_beta   90.00000000
_cell_angle_gamma   88.32860916
_symmetry_Int_Tables_number   1
_chemical_formula_structural   Ce3YIn2(CuRh)2
_chemical_formula_sum   'Ce3 Y1 In2 Cu2 Rh2'
_cell_volume   221.37211410
_cell_formula_units_Z   1
loop_
 _symmetry_equiv_pos_site_id
 _symmetry_equiv_pos_as_xyz
  1  'x, y, z'
loop_
 _atom_site_type_symbol
 _atom_site_label
 _atom_site_symmetry_multiplicity
 _atom_site_fract_x
 _atom_site_fract_y
 _atom_site_fract_z
 _atom_site_occupancy
  Ce  Ce0  1  0.334233  0.834233  0.500000  1
  Ce  Ce1  1  0.180805  0.321405  0.500000  1
  Ce  Ce2  1  0.821405  0.680805  0.500000  1
  Y  Y3  1  0.671945  0.171945  0.500000  1
  In  In4  1  0.997196  0.002828  0.000000  1
  In  In5  1  0.502828  0.497196  0.000000  1
  Cu  Cu6  1  0.120231  0.620231  0.000000  1
  Cu  Cu7  1  0.882274  0.382274  0.000000  1
  Rh  Rh8  1  0.632399  0.856685  0.000000  1
  Rh  Rh9  1  0.356685  0.132399  0.000000  1
