# generated using pymatgen
data_Ho9Er(SnSb2)2
_symmetry_space_group_name_H-M   'P 1'
_cell_length_a   8.93410983
_cell_length_b   8.91683509
_cell_length_c   6.37332203
_cell_angle_alpha   89.98818359
_cell_angle_beta   90.00589399
_cell_angle_gamma   119.93605978
_symmetry_Int_Tables_number   1
_chemical_formula_structural   Ho9Er(SnSb2)2
_chemical_formula_sum   'Ho9 Er1 Sn2 Sb4'
_cell_volume   439.98509557
_cell_formula_units_Z   1
loop_
 _symmetry_equiv_pos_site_id
 _symmetry_equiv_pos_as_xyz
  1  'x, y, z'
loop_
 _atom_site_type_symbol
 _atom_site_label
 _atom_site_symmetry_multiplicity
 _atom_site_fract_x
 _atom_site_fract_y
 _atom_site_fract_z
 _atom_site_occupancy
  Ho  Ho0  1  0.665016  0.332508  0.500000  1
  Ho  Ho1  1  0.665073  0.332537  0.000000  1
  Ho  Ho2  1  0.333796  0.666898  0.500000  1
  Ho  Ho3  1  0.755427  0.999299  0.750012  1
  Ho  Ho4  1  0.755427  0.756127  0.249988  1
  Ho  Ho5  1  0.000884  0.243759  0.249975  1
  Ho  Ho6  1  0.000884  0.757125  0.750025  1
  Ho  Ho7  1  0.243802  0.242263  0.750064  1
  Ho  Ho8  1  0.243802  0.001539  0.249936  1
  Er  Er9  1  0.333760  0.666880  0.000000  1
  Sn  Sn10  1  0.391785  0.998853  0.750216  1
  Sn  Sn11  1  0.391785  0.392932  0.249784  1
  Sb  Sb12  1  0.999604  0.609423  0.249775  1
  Sb  Sb13  1  0.999604  0.390181  0.750225  1
  Sb  Sb14  1  0.609676  0.609695  0.750241  1
  Sb  Sb15  1  0.609676  0.999981  0.249759  1
