# generated using pymatgen
data_Pr3NdAl4PtRh3
_symmetry_space_group_name_H-M   'P 1'
_cell_length_a   4.37738700
_cell_length_b   7.09676254
_cell_length_c   8.09070900
_cell_angle_alpha   90.29853804
_cell_angle_beta   90.00000000
_cell_angle_gamma   90.00000000
_symmetry_Int_Tables_number   1
_chemical_formula_structural   Pr3NdAl4PtRh3
_chemical_formula_sum   'Pr3 Nd1 Al4 Pt1 Rh3'
_cell_volume   251.33669715
_cell_formula_units_Z   1
loop_
 _symmetry_equiv_pos_site_id
 _symmetry_equiv_pos_as_xyz
  1  'x, y, z'
loop_
 _atom_site_type_symbol
 _atom_site_label
 _atom_site_symmetry_multiplicity
 _atom_site_fract_x
 _atom_site_fract_y
 _atom_site_fract_z
 _atom_site_occupancy
  Pr  Pr0  1  0.250000  0.533725  0.184231  1
  Pr  Pr1  1  0.750000  0.460078  0.819232  1
  Pr  Pr2  1  0.250000  0.036800  0.319508  1
  Nd  Nd3  1  0.750000  0.965617  0.678079  1
  Al  Al4  1  0.250000  0.634182  0.562247  1
  Al  Al5  1  0.750000  0.365535  0.438533  1
  Al  Al6  1  0.750000  0.865912  0.063069  1
  Al  Al7  1  0.250000  0.136983  0.937568  1
  Pt  Pt8  1  0.250000  0.774421  0.881376  1
  Rh  Rh9  1  0.750000  0.227219  0.115467  1
  Rh  Rh10  1  0.750000  0.728524  0.384256  1
  Rh  Rh11  1  0.250000  0.271004  0.616434  1
