# generated using pymatgen
data_ErLu2Cd3Ga2Ag
_symmetry_space_group_name_H-M   'P 1'
_cell_length_a   7.28461933
_cell_length_b   7.27987645
_cell_length_c   4.30962900
_cell_angle_alpha   90.00000000
_cell_angle_beta   90.00000000
_cell_angle_gamma   119.97848647
_symmetry_Int_Tables_number   1
_chemical_formula_structural   ErLu2Cd3Ga2Ag
_chemical_formula_sum   'Er1 Lu2 Cd3 Ga2 Ag1'
_cell_volume   197.96822770
_cell_formula_units_Z   1
loop_
 _symmetry_equiv_pos_site_id
 _symmetry_equiv_pos_as_xyz
  1  'x, y, z'
loop_
 _atom_site_type_symbol
 _atom_site_label
 _atom_site_symmetry_multiplicity
 _atom_site_fract_x
 _atom_site_fract_y
 _atom_site_fract_z
 _atom_site_occupancy
  Er  Er0  1  0.000000  0.577025  0.500000  1
  Lu  Lu1  1  0.422646  0.422069  0.500000  1
  Lu  Lu2  1  0.577354  0.999423  0.500000  1
  Cd  Cd3  1  0.748770  0.748448  0.000000  1
  Cd  Cd4  1  0.251230  0.999678  0.000000  1
  Cd  Cd5  1  0.000000  0.251639  0.000000  1
  Ga  Ga6  1  0.665218  0.332294  0.000000  1
  Ga  Ga7  1  0.334782  0.667078  0.000000  1
  Ag  Ag8  1  0.000000  0.002344  0.500000  1
