# generated using pymatgen
data_Sm3InPt3Au2
_symmetry_space_group_name_H-M   'P 1'
_cell_length_a   7.67533465
_cell_length_b   7.59147838
_cell_length_c   3.93028400
_cell_angle_alpha   90.00000000
_cell_angle_beta   90.00000000
_cell_angle_gamma   119.63924297
_symmetry_Int_Tables_number   1
_chemical_formula_structural   Sm3InPt3Au2
_chemical_formula_sum   'Sm3 In1 Pt3 Au2'
_cell_volume   199.04237867
_cell_formula_units_Z   1
loop_
 _symmetry_equiv_pos_site_id
 _symmetry_equiv_pos_as_xyz
  1  'x, y, z'
loop_
 _atom_site_type_symbol
 _atom_site_label
 _atom_site_symmetry_multiplicity
 _atom_site_fract_x
 _atom_site_fract_y
 _atom_site_fract_z
 _atom_site_occupancy
  Sm  Sm0  1  0.410352  0.397688  0.500000  1
  Sm  Sm1  1  0.000000  0.620513  0.500000  1
  Sm  Sm2  1  0.589648  0.987336  0.500000  1
  In  In3  1  0.000000  0.258518  0.000000  1
  Pt  Pt4  1  0.677071  0.329542  0.000000  1
  Pt  Pt5  1  0.322929  0.652472  0.000000  1
  Pt  Pt6  1  0.000000  0.017379  0.500000  1
  Au  Au7  1  0.735262  0.735907  0.000000  1
  Au  Au8  1  0.264738  0.000645  0.000000  1
