# generated using pymatgen
data_Yb3ErCu2Sn5
_symmetry_space_group_name_H-M   'P 1'
_cell_length_a   4.43310000
_cell_length_b   8.80975900
_cell_length_c   14.07389400
_cell_angle_alpha   90.00000000
_cell_angle_beta   90.00000000
_cell_angle_gamma   90.00000000
_symmetry_Int_Tables_number   1
_chemical_formula_structural   Yb3ErCu2Sn5
_chemical_formula_sum   'Yb6 Er2 Cu4 Sn10'
_cell_volume   549.64949309
_cell_formula_units_Z   2
loop_
 _symmetry_equiv_pos_site_id
 _symmetry_equiv_pos_as_xyz
  1  'x, y, z'
loop_
 _atom_site_type_symbol
 _atom_site_label
 _atom_site_symmetry_multiplicity
 _atom_site_fract_x
 _atom_site_fract_y
 _atom_site_fract_z
 _atom_site_occupancy
  Yb  Yb0  1  0.500000  0.792797  0.742111  1
  Yb  Yb1  1  0.000000  0.207203  0.757889  1
  Yb  Yb2  1  0.000000  0.207203  0.242111  1
  Yb  Yb3  1  0.500000  0.135792  0.000000  1
  Yb  Yb4  1  0.000000  0.864208  0.500000  1
  Yb  Yb5  1  0.500000  0.792797  0.257889  1
  Er  Er6  1  0.500000  0.698805  0.000000  1
  Er  Er7  1  0.000000  0.301195  0.500000  1
  Cu  Cu8  1  0.500000  0.377839  0.643631  1
  Cu  Cu9  1  0.000000  0.622161  0.856369  1
  Cu  Cu10  1  0.000000  0.622161  0.143631  1
  Cu  Cu11  1  0.500000  0.377839  0.356369  1
  Sn  Sn12  1  0.500000  0.086088  0.396060  1
  Sn  Sn13  1  0.000000  0.555132  0.663573  1
  Sn  Sn14  1  0.000000  0.406784  0.000000  1
  Sn  Sn15  1  0.500000  0.444868  0.163573  1
  Sn  Sn16  1  0.500000  0.593216  0.500000  1
  Sn  Sn17  1  0.500000  0.444868  0.836427  1
  Sn  Sn18  1  0.000000  0.913912  0.896060  1
  Sn  Sn19  1  0.000000  0.555132  0.336427  1
  Sn  Sn20  1  0.500000  0.086088  0.603940  1
  Sn  Sn21  1  0.000000  0.913912  0.103940  1
