# generated using pymatgen
data_LaPrDy4RuBr10
_symmetry_space_group_name_H-M   'P 1'
_cell_length_a   7.47973306
_cell_length_b   9.43284681
_cell_length_c   9.38393100
_cell_angle_alpha   106.53273393
_cell_angle_beta   95.45585491
_cell_angle_gamma   105.13246434
_symmetry_Int_Tables_number   1
_chemical_formula_structural   LaPrDy4RuBr10
_chemical_formula_sum   'La1 Pr1 Dy4 Ru1 Br10'
_cell_volume   602.35537285
_cell_formula_units_Z   1
loop_
 _symmetry_equiv_pos_site_id
 _symmetry_equiv_pos_as_xyz
  1  'x, y, z'
loop_
 _atom_site_type_symbol
 _atom_site_label
 _atom_site_symmetry_multiplicity
 _atom_site_fract_x
 _atom_site_fract_y
 _atom_site_fract_z
 _atom_site_occupancy
  La  La0  1  0.121396  0.046042  0.760760  1
  Pr  Pr1  1  0.877273  0.953152  0.237771  1
  Dy  Dy2  1  0.969393  0.300464  0.091885  1
  Dy  Dy3  1  0.638516  0.866170  0.826272  1
  Dy  Dy4  1  0.361369  0.133272  0.172691  1
  Dy  Dy5  1  0.031438  0.700584  0.910132  1
  Ru  Ru6  1  0.005399  0.002542  0.990258  1
  Br  Br7  1  0.338877  0.439898  0.264150  1
  Br  Br8  1  0.662053  0.559738  0.738418  1
  Br  Br9  1  0.732669  0.913974  0.552667  1
  Br  Br10  1  0.081103  0.379780  0.833333  1
  Br  Br11  1  0.917114  0.624915  0.171065  1
  Br  Br12  1  0.453633  0.823965  0.086810  1
  Br  Br13  1  0.550948  0.177961  0.916668  1
  Br  Br14  1  0.773238  0.256368  0.334031  1
  Br  Br15  1  0.228085  0.737846  0.667786  1
  Br  Br16  1  0.257497  0.083328  0.445302  1
