# generated using pymatgen
data_Ho20Ir2Pt3Rh7
_symmetry_space_group_name_H-M   'P 1'
_cell_length_a   10.92261962
_cell_length_b   10.92261942
_cell_length_c   6.31781800
_cell_angle_alpha   89.97435270
_cell_angle_beta   89.97434782
_cell_angle_gamma   90.31378286
_symmetry_Int_Tables_number   1
_chemical_formula_structural   Ho20Ir2Pt3Rh7
_chemical_formula_sum   'Ho20 Ir2 Pt3 Rh7'
_cell_volume   753.72708535
_cell_formula_units_Z   1
loop_
 _symmetry_equiv_pos_site_id
 _symmetry_equiv_pos_as_xyz
  1  'x, y, z'
loop_
 _atom_site_type_symbol
 _atom_site_label
 _atom_site_symmetry_multiplicity
 _atom_site_fract_x
 _atom_site_fract_y
 _atom_site_fract_z
 _atom_site_occupancy
  Ho  Ho0  1  0.292832  0.087363  0.372343  1
  Ho  Ho1  1  0.292640  0.907704  0.876476  1
  Ho  Ho2  1  0.706268  0.090753  0.873787  1
  Ho  Ho3  1  0.705382  0.910384  0.373606  1
  Ho  Ho4  1  0.585383  0.790523  0.877587  1
  Ho  Ho5  1  0.587878  0.209751  0.379286  1
  Ho  Ho6  1  0.409544  0.790040  0.379672  1
  Ho  Ho7  1  0.413883  0.209692  0.877258  1
  Ho  Ho8  1  0.209477  0.414617  0.622413  1
  Ho  Ho9  1  0.209960  0.590456  0.120328  1
  Ho  Ho10  1  0.790249  0.412122  0.120714  1
  Ho  Ho11  1  0.790308  0.586117  0.622742  1
  Ho  Ho12  1  0.912637  0.707168  0.127657  1
  Ho  Ho13  1  0.909247  0.293732  0.626213  1
  Ho  Ho14  1  0.092296  0.707360  0.623524  1
  Ho  Ho15  1  0.089616  0.294618  0.126394  1
  Ho  Ho16  1  0.000652  0.998087  0.500091  1
  Ho  Ho17  1  0.001913  0.999348  0.999909  1
  Ho  Ho18  1  0.499797  0.499875  0.000749  1
  Ho  Ho19  1  0.500125  0.500203  0.499251  1
  Ir  Ir20  1  0.654400  0.345600  0.750000  1
  Ir  Ir21  1  0.346090  0.653910  0.750000  1
  Pt  Pt22  1  0.846625  0.153375  0.250000  1
  Pt  Pt23  1  0.844572  0.844739  0.750174  1
  Pt  Pt24  1  0.155261  0.155428  0.749826  1
  Rh  Rh25  1  0.152695  0.847305  0.250000  1
  Rh  Rh26  1  0.656042  0.655522  0.249394  1
  Rh  Rh27  1  0.344478  0.343958  0.250606  1
  Rh  Rh28  1  0.499901  0.999832  0.123442  1
  Rh  Rh29  1  0.499824  0.000141  0.623637  1
  Rh  Rh30  1  0.999859  0.500176  0.876363  1
  Rh  Rh31  1  0.000168  0.500099  0.376558  1
