# generated using pymatgen
data_Nd4Cd2AgRh3
_symmetry_space_group_name_H-M   'P 1'
_cell_length_a   7.80796843
_cell_length_b   7.80796843
_cell_length_c   3.91947300
_cell_angle_alpha   90.00000000
_cell_angle_beta   90.00000000
_cell_angle_gamma   89.22530917
_symmetry_Int_Tables_number   1
_chemical_formula_structural   Nd4Cd2AgRh3
_chemical_formula_sum   'Nd4 Cd2 Ag1 Rh3'
_cell_volume   238.92636455
_cell_formula_units_Z   1
loop_
 _symmetry_equiv_pos_site_id
 _symmetry_equiv_pos_as_xyz
  1  'x, y, z'
loop_
 _atom_site_type_symbol
 _atom_site_label
 _atom_site_symmetry_multiplicity
 _atom_site_fract_x
 _atom_site_fract_y
 _atom_site_fract_z
 _atom_site_occupancy
  Nd  Nd0  1  0.675712  0.175712  0.500000  1
  Nd  Nd1  1  0.351870  0.851870  0.500000  1
  Nd  Nd2  1  0.161084  0.308998  0.500000  1
  Nd  Nd3  1  0.808998  0.661084  0.500000  1
  Cd  Cd4  1  0.996843  0.991898  0.000000  1
  Cd  Cd5  1  0.491898  0.496843  0.000000  1
  Ag  Ag6  1  0.131579  0.631579  0.000000  1
  Rh  Rh7  1  0.872410  0.372410  0.000000  1
  Rh  Rh8  1  0.639015  0.870590  0.000000  1
  Rh  Rh9  1  0.370590  0.139015  0.000000  1
