# generated using pymatgen
data_Rb2Hg7F16
_symmetry_space_group_name_H-M   'P 1'
_cell_length_a   7.24313676
_cell_length_b   7.19468590
_cell_length_c   10.70961152
_cell_angle_alpha   89.95634233
_cell_angle_beta   109.71501598
_cell_angle_gamma   120.03320719
_symmetry_Int_Tables_number   1
_chemical_formula_structural   Rb2Hg7F16
_chemical_formula_sum   'Rb2 Hg7 F16'
_cell_volume   445.06704560
_cell_formula_units_Z   1
loop_
 _symmetry_equiv_pos_site_id
 _symmetry_equiv_pos_as_xyz
  1  'x, y, z'
loop_
 _atom_site_type_symbol
 _atom_site_label
 _atom_site_symmetry_multiplicity
 _atom_site_fract_x
 _atom_site_fract_y
 _atom_site_fract_z
 _atom_site_occupancy
  Rb  Rb0  1  0.329484  0.664621  0.995580  1
  Rb  Rb1  1  0.670516  0.335379  0.004420  1
  Hg  Hg2  1  0.764522  0.243267  0.651820  1
  Hg  Hg3  1  0.408630  0.522402  0.651960  1
  Hg  Hg4  1  0.875191  0.112486  0.347612  1
  Hg  Hg5  1  0.000000  0.000000  0.000000  1
  Hg  Hg6  1  0.124809  0.887514  0.652388  1
  Hg  Hg7  1  0.591370  0.477598  0.348040  1
  Hg  Hg8  1  0.235478  0.756733  0.348180  1
  F  F9  1  0.140692  0.574063  0.708998  1
  F  F10  1  0.565350  0.155529  0.418940  1
  F  F11  1  0.643593  0.677419  0.875478  1
  F  F12  1  0.908368  0.236730  0.873579  1
  F  F13  1  0.264100  0.412703  0.414827  1
  F  F14  1  0.997436  0.151507  0.583951  1
  F  F15  1  0.803127  0.032615  0.122602  1
  F  F16  1  0.466739  0.232858  0.707000  1
  F  F17  1  0.533261  0.767142  0.293000  1
  F  F18  1  0.196873  0.967385  0.877398  1
  F  F19  1  0.002564  0.848493  0.416049  1
  F  F20  1  0.735900  0.587297  0.585173  1
  F  F21  1  0.091632  0.763270  0.126421  1
  F  F22  1  0.356407  0.322581  0.124522  1
  F  F23  1  0.434650  0.844471  0.581060  1
  F  F24  1  0.859308  0.425937  0.291002  1
