# generated using pymatgen
data_Nd2ThIn3PtRh2
_symmetry_space_group_name_H-M   'P 1'
_cell_length_a   7.85722943
_cell_length_b   7.72893186
_cell_length_c   3.96992700
_cell_angle_alpha   90.00000000
_cell_angle_beta   90.00000000
_cell_angle_gamma   120.25051094
_symmetry_Int_Tables_number   1
_chemical_formula_structural   Nd2ThIn3PtRh2
_chemical_formula_sum   'Nd2 Th1 In3 Pt1 Rh2'
_cell_volume   208.25729627
_cell_formula_units_Z   1
loop_
 _symmetry_equiv_pos_site_id
 _symmetry_equiv_pos_as_xyz
  1  'x, y, z'
loop_
 _atom_site_type_symbol
 _atom_site_label
 _atom_site_symmetry_multiplicity
 _atom_site_fract_x
 _atom_site_fract_y
 _atom_site_fract_z
 _atom_site_occupancy
  Nd  Nd0  1  0.411319  0.408153  0.500000  1
  Nd  Nd1  1  0.999635  0.589690  0.500000  1
  Th  Th2  1  0.591498  0.009521  0.500000  1
  In  In3  1  0.241862  0.003242  0.000000  1
  In  In4  1  0.749211  0.738707  0.000000  1
  In  In5  1  0.007236  0.259036  0.000000  1
  Pt  Pt6  1  0.350326  0.686585  0.000000  1
  Rh  Rh7  1  0.985893  0.999033  0.500000  1
  Rh  Rh8  1  0.663019  0.306034  0.000000  1
