# generated using pymatgen
data_La5Nd11(ErSn4)4
_symmetry_space_group_name_H-M   'P 1'
_cell_length_a   8.30802922
_cell_length_b   8.44563898
_cell_length_c   16.05789100
_cell_angle_alpha   90.01288973
_cell_angle_beta   89.94952499
_cell_angle_gamma   89.83799412
_symmetry_Int_Tables_number   1
_chemical_formula_structural   La5Nd11(ErSn4)4
_chemical_formula_sum   'La5 Nd11 Er4 Sn16'
_cell_volume   1126.72289243
_cell_formula_units_Z   1
loop_
 _symmetry_equiv_pos_site_id
 _symmetry_equiv_pos_as_xyz
  1  'x, y, z'
loop_
 _atom_site_type_symbol
 _atom_site_label
 _atom_site_symmetry_multiplicity
 _atom_site_fract_x
 _atom_site_fract_y
 _atom_site_fract_z
 _atom_site_occupancy
  La  La0  1  0.983179  0.818647  0.097994  1
  La  La1  1  0.482683  0.679531  0.096980  1
  La  La2  1  0.983067  0.819236  0.402907  1
  La  La3  1  0.517074  0.319700  0.597079  1
  La  La4  1  0.015930  0.181229  0.902492  1
  Nd  Nd5  1  0.363930  0.837512  0.877971  1
  Nd  Nd6  1  0.864934  0.661279  0.620054  1
  Nd  Nd7  1  0.635515  0.161127  0.379296  1
  Nd  Nd8  1  0.136317  0.339148  0.120235  1
  Nd  Nd9  1  0.635769  0.161643  0.122117  1
  Nd  Nd10  1  0.134607  0.339043  0.380341  1
  Nd  Nd11  1  0.364829  0.838673  0.621429  1
  Nd  Nd12  1  0.863771  0.661353  0.879327  1
  Nd  Nd13  1  0.519066  0.319613  0.900425  1
  Nd  Nd14  1  0.019049  0.180637  0.599804  1
  Nd  Nd15  1  0.480602  0.680121  0.401494  1
  Er  Er16  1  0.197737  0.502525  0.749635  1
  Er  Er17  1  0.697212  0.997692  0.750019  1
  Er  Er18  1  0.802171  0.496922  0.250173  1
  Er  Er19  1  0.302869  0.003022  0.250928  1
  Sn  Sn20  1  0.297275  0.035740  0.044605  1
  Sn  Sn21  1  0.791982  0.466282  0.454014  1
  Sn  Sn22  1  0.706396  0.967141  0.546163  1
  Sn  Sn23  1  0.207347  0.533239  0.953219  1
  Sn  Sn24  1  0.701754  0.965376  0.954951  1
  Sn  Sn25  1  0.205969  0.536817  0.544666  1
  Sn  Sn26  1  0.294808  0.035910  0.456237  1
  Sn  Sn27  1  0.793576  0.461685  0.043748  1
  Sn  Sn28  1  0.562920  0.617818  0.749673  1
  Sn  Sn29  1  0.061307  0.881300  0.749403  1
  Sn  Sn30  1  0.437625  0.381318  0.251075  1
  Sn  Sn31  1  0.938779  0.119631  0.250010  1
  Sn  Sn32  1  0.323436  0.146540  0.750598  1
  Sn  Sn33  1  0.822483  0.354594  0.749211  1
  Sn  Sn34  1  0.674887  0.852958  0.251236  1
  Sn  Sn35  1  0.179143  0.645000  0.250486  1
