# generated using pymatgen
data_Ac5Tm(SnIr)6
_symmetry_space_group_name_H-M   'P 1'
_cell_length_a   7.64889925
_cell_length_b   7.64739719
_cell_length_c   8.62850900
_cell_angle_alpha   90.00000000
_cell_angle_beta   90.00000000
_cell_angle_gamma   120.00955123
_symmetry_Int_Tables_number   1
_chemical_formula_structural   Ac5Tm(SnIr)6
_chemical_formula_sum   'Ac5 Tm1 Sn6 Ir6'
_cell_volume   437.05608315
_cell_formula_units_Z   1
loop_
 _symmetry_equiv_pos_site_id
 _symmetry_equiv_pos_as_xyz
  1  'x, y, z'
loop_
 _atom_site_type_symbol
 _atom_site_label
 _atom_site_symmetry_multiplicity
 _atom_site_fract_x
 _atom_site_fract_y
 _atom_site_fract_z
 _atom_site_occupancy
  Ac  Ac0  1  0.414156  0.000209  0.250000  1
  Ac  Ac1  1  0.581596  0.581609  0.250000  1
  Ac  Ac2  1  0.998958  0.413475  0.250000  1
  Ac  Ac3  1  0.000586  0.417747  0.750000  1
  Ac  Ac4  1  0.417383  0.999242  0.750000  1
  Tm  Tm5  1  0.598274  0.596981  0.750000  1
  Sn  Sn6  1  0.249315  0.249388  0.510364  1
  Sn  Sn7  1  0.249315  0.249388  0.989636  1
  Sn  Sn8  1  0.753910  0.994856  0.997939  1
  Sn  Sn9  1  0.995756  0.754310  0.501692  1
  Sn  Sn10  1  0.753910  0.994856  0.502061  1
  Sn  Sn11  1  0.995756  0.754310  0.998308  1
  Ir  Ir12  1  0.662586  0.341290  0.509387  1
  Ir  Ir13  1  0.662586  0.341290  0.990613  1
  Ir  Ir14  1  0.340467  0.662977  0.992474  1
  Ir  Ir15  1  0.340467  0.662977  0.507526  1
  Ir  Ir16  1  0.986710  0.986708  0.750000  1
  Ir  Ir17  1  0.998266  0.998384  0.250000  1
