# generated using pymatgen
data_TmLuAlNiRu
_symmetry_space_group_name_H-M   'P 1'
_cell_length_a   5.38357827
_cell_length_b   5.38516458
_cell_length_c   5.38516474
_cell_angle_alpha   135.44187020
_cell_angle_beta   117.79875236
_cell_angle_gamma   79.69887725
_symmetry_Int_Tables_number   1
_chemical_formula_structural   TmLuAlNiRu
_chemical_formula_sum   'Tm1 Lu1 Al1 Ni1 Ru1'
_cell_volume   93.88986115
_cell_formula_units_Z   1
loop_
 _symmetry_equiv_pos_site_id
 _symmetry_equiv_pos_as_xyz
  1  'x, y, z'
loop_
 _atom_site_type_symbol
 _atom_site_label
 _atom_site_symmetry_multiplicity
 _atom_site_fract_x
 _atom_site_fract_y
 _atom_site_fract_z
 _atom_site_occupancy
  Tm  Tm0  1  0.292727  0.797831  0.494896  1
  Lu  Lu1  1  0.697076  0.202180  0.494896  1
  Al  Al2  1  0.997855  0.999982  0.997872  1
  Ni  Ni3  1  0.740207  0.499988  0.240219  1
  Ru  Ru4  1  0.272137  0.500018  0.772119  1
