# generated using pymatgen
data_Y2Ho2MoOsC4
_symmetry_space_group_name_H-M   'P 1'
_cell_length_a   5.09793700
_cell_length_b   6.60181908
_cell_length_c   9.89258173
_cell_angle_alpha   89.18688782
_cell_angle_beta   90.00000000
_cell_angle_gamma   90.00000000
_symmetry_Int_Tables_number   1
_chemical_formula_structural   Y2Ho2MoOsC4
_chemical_formula_sum   'Y4 Ho4 Mo2 Os2 C8'
_cell_volume   332.90781850
_cell_formula_units_Z   2
loop_
 _symmetry_equiv_pos_site_id
 _symmetry_equiv_pos_as_xyz
  1  'x, y, z'
loop_
 _atom_site_type_symbol
 _atom_site_label
 _atom_site_symmetry_multiplicity
 _atom_site_fract_x
 _atom_site_fract_y
 _atom_site_fract_z
 _atom_site_occupancy
  Y  Y0  1  0.250000  0.537246  0.217935  1
  Y  Y1  1  0.750000  0.462754  0.782065  1
  Y  Y2  1  0.750000  0.969342  0.716144  1
  Y  Y3  1  0.250000  0.030658  0.283856  1
  Ho  Ho4  1  0.250000  0.678405  0.557563  1
  Ho  Ho5  1  0.750000  0.321595  0.442437  1
  Ho  Ho6  1  0.750000  0.824141  0.057960  1
  Ho  Ho7  1  0.250000  0.175859  0.942040  1
  Mo  Mo8  1  0.250000  0.718452  0.866717  1
  Mo  Mo9  1  0.750000  0.281548  0.133283  1
  Os  Os10  1  0.750000  0.778131  0.366334  1
  Os  Os11  1  0.250000  0.221869  0.633666  1
  C  C12  1  0.250000  0.450719  0.757250  1
  C  C13  1  0.750000  0.549281  0.242750  1
  C  C14  1  0.750000  0.044330  0.260762  1
  C  C15  1  0.250000  0.955670  0.739238  1
  C  C16  1  0.250000  0.824905  0.051153  1
  C  C17  1  0.750000  0.175095  0.948847  1
  C  C18  1  0.750000  0.676043  0.548464  1
  C  C19  1  0.250000  0.323957  0.451536  1
