# generated using pymatgen
data_Rb8Si43Au3
_symmetry_space_group_name_H-M   'P 1'
_cell_length_a   10.45568119
_cell_length_b   10.45568139
_cell_length_c   10.45568100
_cell_angle_alpha   90.01099810
_cell_angle_beta   90.01099810
_cell_angle_gamma   90.01100695
_symmetry_Int_Tables_number   1
_chemical_formula_structural   Rb8Si43Au3
_chemical_formula_sum   'Rb8 Si43 Au3'
_cell_volume   1143.02827517
_cell_formula_units_Z   1
loop_
 _symmetry_equiv_pos_site_id
 _symmetry_equiv_pos_as_xyz
  1  'x, y, z'
loop_
 _atom_site_type_symbol
 _atom_site_label
 _atom_site_symmetry_multiplicity
 _atom_site_fract_x
 _atom_site_fract_y
 _atom_site_fract_z
 _atom_site_occupancy
  Rb  Rb0  1  0.248847  0.248847  0.248847  1
  Rb  Rb1  1  0.751153  0.751153  0.751153  1
  Rb  Rb2  1  0.500000  0.743241  0.256759  1
  Rb  Rb3  1  0.743241  0.256759  0.500000  1
  Rb  Rb4  1  0.256759  0.500000  0.743241  1
  Rb  Rb5  1  0.000000  0.743519  0.256481  1
  Rb  Rb6  1  0.743519  0.256481  0.000000  1
  Rb  Rb7  1  0.256481  0.000000  0.743519  1
  Si  Si8  1  0.432474  0.432474  0.432474  1
  Si  Si9  1  0.064850  0.064850  0.064850  1
  Si  Si10  1  0.064169  0.432934  0.065503  1
  Si  Si11  1  0.431036  0.064524  0.434211  1
  Si  Si12  1  0.432934  0.065503  0.064169  1
  Si  Si13  1  0.064524  0.434211  0.431036  1
  Si  Si14  1  0.065503  0.064169  0.432934  1
  Si  Si15  1  0.434211  0.431036  0.064524  1
  Si  Si16  1  0.565789  0.935476  0.568964  1
  Si  Si17  1  0.934497  0.567066  0.935831  1
  Si  Si18  1  0.935150  0.935150  0.935150  1
  Si  Si19  1  0.567526  0.567526  0.567526  1
  Si  Si20  1  0.935476  0.568964  0.565789  1
  Si  Si21  1  0.567066  0.935831  0.934497  1
  Si  Si22  1  0.568964  0.565789  0.935476  1
  Si  Si23  1  0.935831  0.934497  0.567066  1
  Si  Si24  1  0.250712  0.555767  0.367212  1
  Si  Si25  1  0.555767  0.367212  0.250712  1
  Si  Si26  1  0.367212  0.250712  0.555767  1
  Si  Si27  1  0.249634  0.945180  0.131900  1
  Si  Si28  1  0.945180  0.131900  0.249634  1
  Si  Si29  1  0.131900  0.249634  0.945180  1
  Si  Si30  1  0.250636  0.552583  0.129885  1
  Si  Si31  1  0.941761  0.366781  0.248843  1
  Si  Si32  1  0.248843  0.941761  0.366781  1
  Si  Si33  1  0.552583  0.129885  0.250636  1
  Si  Si34  1  0.366781  0.248843  0.941761  1
  Si  Si35  1  0.129885  0.250636  0.552583  1
  Si  Si36  1  0.633219  0.058239  0.751157  1
  Si  Si37  1  0.749364  0.870115  0.447417  1
  Si  Si38  1  0.444233  0.749288  0.632788  1
  Si  Si39  1  0.870115  0.447417  0.749364  1
  Si  Si40  1  0.751157  0.633219  0.058239  1
  Si  Si41  1  0.054820  0.750366  0.868100  1
  Si  Si42  1  0.868100  0.054820  0.750366  1
  Si  Si43  1  0.750366  0.868100  0.054820  1
  Si  Si44  1  0.632788  0.444233  0.749288  1
  Si  Si45  1  0.749288  0.632788  0.444233  1
  Si  Si46  1  0.058239  0.751157  0.633219  1
  Si  Si47  1  0.447417  0.749364  0.870115  1
  Si  Si48  1  0.000000  0.249934  0.750066  1
  Si  Si49  1  0.249934  0.750066  0.000000  1
  Si  Si50  1  0.750066  0.000000  0.249934  1
  Au  Au51  1  0.500000  0.250603  0.749397  1
  Au  Au52  1  0.250603  0.749397  0.500000  1
  Au  Au53  1  0.749397  0.500000  0.250603  1
