# generated using pymatgen
data_Tm3Mg2ZnGe2Au
_symmetry_space_group_name_H-M   'P 1'
_cell_length_a   7.03557100
_cell_length_b   7.07472251
_cell_length_c   4.31416300
_cell_angle_alpha   90.00000000
_cell_angle_beta   90.00000000
_cell_angle_gamma   119.81711902
_symmetry_Int_Tables_number   1
_chemical_formula_structural   Tm3Mg2ZnGe2Au
_chemical_formula_sum   'Tm3 Mg2 Zn1 Ge2 Au1'
_cell_volume   186.30878190
_cell_formula_units_Z   1
loop_
 _symmetry_equiv_pos_site_id
 _symmetry_equiv_pos_as_xyz
  1  'x, y, z'
loop_
 _atom_site_type_symbol
 _atom_site_label
 _atom_site_symmetry_multiplicity
 _atom_site_fract_x
 _atom_site_fract_y
 _atom_site_fract_z
 _atom_site_occupancy
  Tm  Tm0  1  0.573666  0.000000  0.000000  1
  Tm  Tm1  1  0.002676  0.585215  0.000000  1
  Tm  Tm2  1  0.417461  0.414785  0.000000  1
  Mg  Mg3  1  0.003004  0.241262  0.500000  1
  Mg  Mg4  1  0.761742  0.758738  0.500000  1
  Zn  Zn5  1  0.248018  0.000000  0.500000  1
  Ge  Ge6  1  0.331644  0.670403  0.500000  1
  Ge  Ge7  1  0.661242  0.329597  0.500000  1
  Au  Au8  1  0.000547  0.000000  0.000000  1
