# generated using pymatgen
data_BaAs5Pd9
_symmetry_space_group_name_H-M   'P 1'
_cell_length_a   7.23852700
_cell_length_b   7.24218192
_cell_length_c   12.62231700
_cell_angle_alpha   90.00000000
_cell_angle_beta   90.00000000
_cell_angle_gamma   119.98270940
_symmetry_Int_Tables_number   1
_chemical_formula_structural   BaAs5Pd9
_chemical_formula_sum   'Ba2 As10 Pd18'
_cell_volume   573.14562883
_cell_formula_units_Z   2
loop_
 _symmetry_equiv_pos_site_id
 _symmetry_equiv_pos_as_xyz
  1  'x, y, z'
loop_
 _atom_site_type_symbol
 _atom_site_label
 _atom_site_symmetry_multiplicity
 _atom_site_fract_x
 _atom_site_fract_y
 _atom_site_fract_z
 _atom_site_occupancy
  Ba  Ba0  1  0.000000  0.000000  0.000000  1
  Ba  Ba1  1  0.000000  0.000000  0.500000  1
  As  As2  1  0.333414  0.666798  0.058022  1
  As  As3  1  0.357336  0.178592  0.250000  1
  As  As4  1  0.821256  0.178613  0.250000  1
  As  As5  1  0.821225  0.642434  0.250000  1
  As  As6  1  0.333414  0.666798  0.441978  1
  As  As7  1  0.666586  0.333203  0.558022  1
  As  As8  1  0.178775  0.357567  0.750000  1
  As  As9  1  0.178743  0.821386  0.750000  1
  As  As10  1  0.642663  0.821407  0.750000  1
  As  As11  1  0.666586  0.333203  0.941978  1
  Pd  Pd12  1  0.533777  0.067568  0.105752  1
  Pd  Pd13  1  0.533626  0.466319  0.105701  1
  Pd  Pd14  1  0.932696  0.466327  0.105699  1
  Pd  Pd15  1  0.202124  0.404249  0.250000  1
  Pd  Pd16  1  0.201925  0.797910  0.250000  1
  Pd  Pd17  1  0.595981  0.797909  0.250000  1
  Pd  Pd18  1  0.533626  0.466319  0.394298  1
  Pd  Pd19  1  0.932696  0.466327  0.394300  1
  Pd  Pd20  1  0.533777  0.067568  0.394248  1
  Pd  Pd21  1  0.466223  0.932433  0.605752  1
  Pd  Pd22  1  0.067303  0.533672  0.605699  1
  Pd  Pd23  1  0.466374  0.533680  0.605701  1
  Pd  Pd24  1  0.404019  0.202090  0.750000  1
  Pd  Pd25  1  0.798074  0.202089  0.750000  1
  Pd  Pd26  1  0.797876  0.595752  0.750000  1
  Pd  Pd27  1  0.067303  0.533672  0.894300  1
  Pd  Pd28  1  0.466374  0.533680  0.894298  1
  Pd  Pd29  1  0.466223  0.932433  0.894248  1
