# generated using pymatgen
data_Sc8Ta11Ge16W
_symmetry_space_group_name_H-M   'P 1'
_cell_length_a   6.83838308
_cell_length_b   7.00228608
_cell_length_c   13.28242100
_cell_angle_alpha   90.00000000
_cell_angle_beta   90.00000000
_cell_angle_gamma   90.01697286
_symmetry_Int_Tables_number   1
_chemical_formula_structural   Sc8Ta11Ge16W
_chemical_formula_sum   'Sc8 Ta11 Ge16 W1'
_cell_volume   636.01959783
_cell_formula_units_Z   1
loop_
 _symmetry_equiv_pos_site_id
 _symmetry_equiv_pos_as_xyz
  1  'x, y, z'
loop_
 _atom_site_type_symbol
 _atom_site_label
 _atom_site_symmetry_multiplicity
 _atom_site_fract_x
 _atom_site_fract_y
 _atom_site_fract_z
 _atom_site_occupancy
  Sc  Sc0  1  0.487693  0.676943  0.592500  1
  Sc  Sc1  1  0.988002  0.823512  0.907312  1
  Sc  Sc2  1  0.511192  0.323353  0.093036  1
  Sc  Sc3  1  0.010835  0.176410  0.406877  1
  Sc  Sc4  1  0.511192  0.323353  0.406964  1
  Sc  Sc5  1  0.010835  0.176410  0.093123  1
  Sc  Sc6  1  0.487693  0.676943  0.907500  1
  Sc  Sc7  1  0.988002  0.823512  0.592688  1
  Ta  Ta8  1  0.656602  0.167564  0.626273  1
  Ta  Ta9  1  0.154617  0.333185  0.873226  1
  Ta  Ta10  1  0.344424  0.831634  0.125602  1
  Ta  Ta11  1  0.844232  0.668362  0.374692  1
  Ta  Ta12  1  0.344424  0.831634  0.374398  1
  Ta  Ta13  1  0.844232  0.668362  0.125308  1
  Ta  Ta14  1  0.656602  0.167564  0.873727  1
  Ta  Ta15  1  0.154617  0.333185  0.626774  1
  Ta  Ta16  1  0.333076  0.012854  0.750000  1
  Ta  Ta17  1  0.166383  0.512340  0.250000  1
  Ta  Ta18  1  0.666688  0.988449  0.250000  1
  Ge  Ge19  1  0.685547  0.966379  0.459147  1
  Ge  Ge20  1  0.185442  0.534040  0.040381  1
  Ge  Ge21  1  0.315083  0.034949  0.959054  1
  Ge  Ge22  1  0.814596  0.465128  0.541424  1
  Ge  Ge23  1  0.315083  0.034949  0.540946  1
  Ge  Ge24  1  0.814596  0.465128  0.958576  1
  Ge  Ge25  1  0.685547  0.966379  0.040853  1
  Ge  Ge26  1  0.185442  0.534040  0.459619  1
  Ge  Ge27  1  0.459537  0.390412  0.750000  1
  Ge  Ge28  1  0.956364  0.109536  0.750000  1
  Ge  Ge29  1  0.544073  0.611646  0.250000  1
  Ge  Ge30  1  0.043523  0.888966  0.250000  1
  Ge  Ge31  1  0.690132  0.844197  0.750000  1
  Ge  Ge32  1  0.188818  0.651773  0.750000  1
  Ge  Ge33  1  0.309635  0.151641  0.250000  1
  Ge  Ge34  1  0.809521  0.348893  0.250000  1
  W  W35  1  0.835719  0.486377  0.750000  1
