# generated using pymatgen
data_Tb3GdCr6O24
_symmetry_space_group_name_H-M   'P 1'
_cell_length_a   5.10646418
_cell_length_b   6.86571516
_cell_length_c   14.28428502
_cell_angle_alpha   84.51764235
_cell_angle_beta   80.10646568
_cell_angle_gamma   68.54638284
_symmetry_Int_Tables_number   1
_chemical_formula_structural   Tb3GdCr6O24
_chemical_formula_sum   'Tb3 Gd1 Cr6 O24'
_cell_volume   458.87822926
_cell_formula_units_Z   1
loop_
 _symmetry_equiv_pos_site_id
 _symmetry_equiv_pos_as_xyz
  1  'x, y, z'
loop_
 _atom_site_type_symbol
 _atom_site_label
 _atom_site_symmetry_multiplicity
 _atom_site_fract_x
 _atom_site_fract_y
 _atom_site_fract_z
 _atom_site_occupancy
  Tb  Tb0  1  0.379409  0.793628  0.453957  1
  Tb  Tb1  1  0.634052  0.871790  0.874361  1
  Tb  Tb2  1  0.620555  0.206245  0.546337  1
  Gd  Gd3  1  0.365137  0.128464  0.125711  1
  Cr  Cr4  1  0.901746  0.278193  0.952476  1
  Cr  Cr5  1  0.853401  0.974370  0.298408  1
  Cr  Cr6  1  0.870565  0.623955  0.621104  1
  Cr  Cr7  1  0.146621  0.025249  0.702095  1
  Cr  Cr8  1  0.098884  0.722168  0.046245  1
  Cr  Cr9  1  0.128718  0.376434  0.379475  1
  O  O10  1  0.832267  0.195067  0.679181  1
  O  O11  1  0.752752  0.862375  0.029523  1
  O  O12  1  0.823039  0.564153  0.369746  1
  O  O13  1  0.871881  0.515717  0.908006  1
  O  O14  1  0.911174  0.177871  0.242673  1
  O  O15  1  0.946790  0.827062  0.557757  1
  O  O16  1  0.319893  0.105356  0.769143  1
  O  O17  1  0.207616  0.843916  0.116943  1
  O  O18  1  0.329870  0.454381  0.441876  1
  O  O19  1  0.693927  0.692772  0.726814  1
  O  O20  1  0.706341  0.287264  0.058423  1
  O  O21  1  0.640283  0.019828  0.408459  1
  O  O22  1  0.297314  0.713933  0.940886  1
  O  O23  1  0.306020  0.308179  0.273902  1
  O  O24  1  0.359340  0.979982  0.591905  1
  O  O25  1  0.085870  0.822920  0.758038  1
  O  O26  1  0.126945  0.485579  0.091329  1
  O  O27  1  0.053028  0.172762  0.442434  1
  O  O28  1  0.248402  0.136319  0.968276  1
  O  O29  1  0.168406  0.805138  0.320997  1
  O  O30  1  0.176455  0.436102  0.630511  1
  O  O31  1  0.790721  0.154907  0.883060  1
  O  O32  1  0.682455  0.892190  0.231469  1
  O  O33  1  0.670123  0.545732  0.558480  1
