# generated using pymatgen
data_DyPb5Cl13
_symmetry_space_group_name_H-M   'P 1'
_cell_length_a   26.23346735
_cell_length_b   26.79325329
_cell_length_c   8.86239754
_cell_angle_alpha   81.26951099
_cell_angle_beta   81.21214073
_cell_angle_gamma   11.00801418
_symmetry_Int_Tables_number   1
_chemical_formula_structural   DyPb5Cl13
_chemical_formula_sum   'Dy2 Pb10 Cl26'
_cell_volume   1175.42505224
_cell_formula_units_Z   2
loop_
 _symmetry_equiv_pos_site_id
 _symmetry_equiv_pos_as_xyz
  1  'x, y, z'
loop_
 _atom_site_type_symbol
 _atom_site_label
 _atom_site_symmetry_multiplicity
 _atom_site_fract_x
 _atom_site_fract_y
 _atom_site_fract_z
 _atom_site_occupancy
  Dy  Dy0  1  0.746441  0.990647  0.136004  1
  Dy  Dy1  1  0.253559  0.009353  0.863996  1
  Pb  Pb2  1  0.826856  0.736107  0.363284  1
  Pb  Pb3  1  0.173144  0.263893  0.636716  1
  Pb  Pb4  1  0.258116  0.143242  0.204456  1
  Pb  Pb5  1  0.741884  0.856758  0.795544  1
  Pb  Pb6  1  0.980747  0.106639  0.950596  1
  Pb  Pb7  1  0.019253  0.893361  0.049404  1
  Pb  Pb8  1  0.889846  0.028410  0.537962  1
  Pb  Pb9  1  0.110154  0.971590  0.462038  1
  Pb  Pb10  1  0.026104  0.209598  0.385403  1
  Pb  Pb11  1  0.973896  0.790402  0.614597  1
  Cl  Cl12  1  0.912096  0.779731  0.903316  1
  Cl  Cl13  1  0.087904  0.220269  0.096684  1
  Cl  Cl14  1  0.143922  0.176907  0.598278  1
  Cl  Cl15  1  0.856078  0.823093  0.401722  1
  Cl  Cl16  1  0.322968  0.235030  0.380189  1
  Cl  Cl17  1  0.677032  0.764970  0.619811  1
  Cl  Cl18  1  0.762954  0.775972  0.082435  1
  Cl  Cl19  1  0.237046  0.224028  0.917565  1
  Cl  Cl20  1  0.760392  0.642047  0.221491  1
  Cl  Cl21  1  0.239608  0.357953  0.778509  1
  Cl  Cl22  1  0.382187  0.277633  0.114430  1
  Cl  Cl23  1  0.617813  0.722367  0.885570  1
  Cl  Cl24  1  0.522582  0.393070  0.043221  1
  Cl  Cl25  1  0.477418  0.606930  0.956779  1
  Cl  Cl26  1  0.612494  0.471469  0.454791  1
  Cl  Cl27  1  0.387506  0.528531  0.545209  1
  Cl  Cl28  1  0.999129  0.005194  0.719733  1
  Cl  Cl29  1  0.000871  0.994806  0.280267  1
  Cl  Cl30  1  0.907204  0.911267  0.905402  1
  Cl  Cl31  1  0.092796  0.088733  0.094598  1
  Cl  Cl32  1  0.080937  0.082129  0.682586  1
  Cl  Cl33  1  0.919063  0.917871  0.317414  1
  Cl  Cl34  1  0.650347  0.569641  0.808996  1
  Cl  Cl35  1  0.349653  0.430359  0.191004  1
  Cl  Cl36  1  0.473920  0.290300  0.615897  1
  Cl  Cl37  1  0.526080  0.709700  0.384103  1
