# generated using pymatgen
data_Ho2FeCoC2
_symmetry_space_group_name_H-M   'P 1'
_cell_length_a   3.67939100
_cell_length_b   3.60704300
_cell_length_c   6.85260100
_cell_angle_alpha   90.00000000
_cell_angle_beta   90.00000000
_cell_angle_gamma   90.00000000
_symmetry_Int_Tables_number   1
_chemical_formula_structural   Ho2FeCoC2
_chemical_formula_sum   'Ho2 Fe1 Co1 C2'
_cell_volume   90.94581237
_cell_formula_units_Z   1
loop_
 _symmetry_equiv_pos_site_id
 _symmetry_equiv_pos_as_xyz
  1  'x, y, z'
loop_
 _atom_site_type_symbol
 _atom_site_label
 _atom_site_symmetry_multiplicity
 _atom_site_fract_x
 _atom_site_fract_y
 _atom_site_fract_z
 _atom_site_occupancy
  Ho  Ho0  1  0.000000  0.000000  0.251280  1
  Ho  Ho1  1  0.000000  0.000000  0.748720  1
  Fe  Fe2  1  0.500000  0.500000  0.000000  1
  Co  Co3  1  0.500000  0.500000  0.500000  1
  C  C4  1  0.000000  0.500000  0.000000  1
  C  C5  1  0.500000  0.000000  0.500000  1
