# generated using pymatgen
data_LuBr37
_symmetry_space_group_name_H-M   'P 1'
_cell_length_a   14.20848141
_cell_length_b   15.29732181
_cell_length_c   14.42416200
_cell_angle_alpha   103.00376457
_cell_angle_beta   48.80056783
_cell_angle_gamma   81.50743146
_symmetry_Int_Tables_number   1
_chemical_formula_structural   LuBr37
_chemical_formula_sum   'Lu1 Br37'
_cell_volume   2102.91272627
_cell_formula_units_Z   1
loop_
 _symmetry_equiv_pos_site_id
 _symmetry_equiv_pos_as_xyz
  1  'x, y, z'
loop_
 _atom_site_type_symbol
 _atom_site_label
 _atom_site_symmetry_multiplicity
 _atom_site_fract_x
 _atom_site_fract_y
 _atom_site_fract_z
 _atom_site_occupancy
  Lu  Lu0  1  0.500000  0.000000  0.000000  1
  Br  Br1  1  0.803855  0.304279  0.132934  1
  Br  Br2  1  0.196145  0.695721  0.867066  1
  Br  Br3  1  0.754270  0.081774  0.359506  1
  Br  Br4  1  0.245730  0.918226  0.640494  1
  Br  Br5  1  0.106888  0.351758  0.177776  1
  Br  Br6  1  0.893112  0.648242  0.822224  1
  Br  Br7  1  0.875087  0.546863  0.248218  1
  Br  Br8  1  0.124913  0.453137  0.751782  1
  Br  Br9  1  0.691847  0.275763  0.519761  1
  Br  Br10  1  0.308153  0.724237  0.480239  1
  Br  Br11  1  0.075793  0.151271  0.433650  1
  Br  Br12  1  0.924207  0.848729  0.566350  1
  Br  Br13  1  0.990457  0.003874  0.275757  1
  Br  Br14  1  0.009543  0.996126  0.724243  1
  Br  Br15  1  0.970466  0.341077  0.581895  1
  Br  Br16  1  0.029534  0.658923  0.418105  1
  Br  Br17  1  0.592134  0.429254  0.233066  1
  Br  Br18  1  0.407866  0.570746  0.766934  1
  Br  Br19  1  0.170766  0.479551  0.269460  1
  Br  Br20  1  0.829234  0.520449  0.730540  1
  Br  Br21  1  0.000000  0.500000  0.000000  1
  Br  Br22  1  0.590901  0.945496  0.112479  1
  Br  Br23  1  0.409099  0.054504  0.887521  1
  Br  Br24  1  0.331909  0.054563  0.285067  1
  Br  Br25  1  0.668091  0.945437  0.714933  1
  Br  Br26  1  0.542558  0.128111  0.406694  1
  Br  Br27  1  0.457442  0.871889  0.593306  1
  Br  Br28  1  0.084863  0.215386  0.077861  1
  Br  Br29  1  0.915137  0.784614  0.922139  1
  Br  Br30  1  0.665254  0.702616  0.404651  1
  Br  Br31  1  0.334746  0.297384  0.595349  1
  Br  Br32  1  0.903141  0.150866  0.926017  1
  Br  Br33  1  0.096859  0.849134  0.073983  1
  Br  Br34  1  0.562703  0.151897  0.009104  1
  Br  Br35  1  0.437297  0.848103  0.990896  1
  Br  Br36  1  0.644286  0.434363  0.652035  1
  Br  Br37  1  0.355714  0.565637  0.347965  1
