# generated using pymatgen
data_Ce2PS
_symmetry_space_group_name_H-M   'P 1'
_cell_length_a   7.05403826
_cell_length_b   7.05403817
_cell_length_c   7.05403917
_cell_angle_alpha   131.81489301
_cell_angle_beta   131.81489046
_cell_angle_gamma   70.52154672
_symmetry_Int_Tables_number   1
_chemical_formula_structural   Ce2PS
_chemical_formula_sum   'Ce4 P2 S2'
_cell_volume   191.03740002
_cell_formula_units_Z   2
loop_
 _symmetry_equiv_pos_site_id
 _symmetry_equiv_pos_as_xyz
  1  'x, y, z'
loop_
 _atom_site_type_symbol
 _atom_site_label
 _atom_site_symmetry_multiplicity
 _atom_site_fract_x
 _atom_site_fract_y
 _atom_site_fract_z
 _atom_site_occupancy
  Ce  Ce0  1  0.499559  0.999559  0.500000  1
  Ce  Ce1  1  0.000441  0.500441  0.500000  1
  Ce  Ce2  1  0.749559  0.749559  0.000000  1
  Ce  Ce3  1  0.250441  0.250441  0.000000  1
  P  P4  1  0.250000  0.750000  0.500000  1
  P  P5  1  0.500000  0.500000  0.000000  1
  S  S6  1  0.000000  0.000000  0.000000  1
  S  S7  1  0.750000  0.250000  0.500000  1
