# generated using pymatgen
data_Sc4Ga20(ReRu)3
_symmetry_space_group_name_H-M   'P 1'
_cell_length_a   9.04115250
_cell_length_b   9.04115250
_cell_length_c   6.00198500
_cell_angle_alpha   90.00000000
_cell_angle_beta   90.00000000
_cell_angle_gamma   89.86254565
_symmetry_Int_Tables_number   1
_chemical_formula_structural   Sc4Ga20(ReRu)3
_chemical_formula_sum   'Sc4 Ga20 Re3 Ru3'
_cell_volume   490.61547855
_cell_formula_units_Z   1
loop_
 _symmetry_equiv_pos_site_id
 _symmetry_equiv_pos_as_xyz
  1  'x, y, z'
loop_
 _atom_site_type_symbol
 _atom_site_label
 _atom_site_symmetry_multiplicity
 _atom_site_fract_x
 _atom_site_fract_y
 _atom_site_fract_z
 _atom_site_occupancy
  Sc  Sc0  1  0.182056  0.681284  0.000000  1
  Sc  Sc1  1  0.818716  0.317944  0.000000  1
  Sc  Sc2  1  0.681649  0.818351  0.000000  1
  Sc  Sc3  1  0.317425  0.182575  0.000000  1
  Ga  Ga4  1  0.062529  0.208161  0.716252  1
  Ga  Ga5  1  0.938874  0.792574  0.716618  1
  Ga  Ga6  1  0.561321  0.292280  0.716923  1
  Ga  Ga7  1  0.438531  0.707963  0.717039  1
  Ga  Ga8  1  0.792037  0.061469  0.717039  1
  Ga  Ga9  1  0.207720  0.938679  0.716923  1
  Ga  Ga10  1  0.707426  0.561126  0.716618  1
  Ga  Ga11  1  0.291839  0.437471  0.716252  1
  Ga  Ga12  1  0.938874  0.792574  0.283382  1
  Ga  Ga13  1  0.062529  0.208161  0.283748  1
  Ga  Ga14  1  0.438531  0.707963  0.282961  1
  Ga  Ga15  1  0.561321  0.292280  0.283077  1
  Ga  Ga16  1  0.207720  0.938679  0.283077  1
  Ga  Ga17  1  0.792037  0.061469  0.282961  1
  Ga  Ga18  1  0.291839  0.437471  0.283748  1
  Ga  Ga19  1  0.707426  0.561126  0.283382  1
  Ga  Ga20  1  0.000679  0.499321  0.731607  1
  Ga  Ga21  1  0.498911  0.001089  0.730747  1
  Ga  Ga22  1  0.000679  0.499321  0.268393  1
  Ga  Ga23  1  0.498911  0.001089  0.269253  1
  Re  Re24  1  0.178698  0.678598  0.500000  1
  Re  Re25  1  0.821402  0.321302  0.500000  1
  Re  Re26  1  0.677635  0.822365  0.500000  1
  Ru  Ru27  1  0.322780  0.177220  0.500000  1
  Ru  Ru28  1  0.000560  0.000654  0.000000  1
  Ru  Ru29  1  0.499346  0.499440  0.000000  1
