# generated using pymatgen
data_Dy3Y3Co17TcP12
_symmetry_space_group_name_H-M   'P 1'
_cell_length_a   3.69910300
_cell_length_b   10.52425410
_cell_length_c   12.21012611
_cell_angle_alpha   90.01549978
_cell_angle_beta   90.00000000
_cell_angle_gamma   90.00000000
_symmetry_Int_Tables_number   1
_chemical_formula_structural   Dy3Y3Co17TcP12
_chemical_formula_sum   'Dy3 Y3 Co17 Tc1 P12'
_cell_volume   475.34385396
_cell_formula_units_Z   1
loop_
 _symmetry_equiv_pos_site_id
 _symmetry_equiv_pos_as_xyz
  1  'x, y, z'
loop_
 _atom_site_type_symbol
 _atom_site_label
 _atom_site_symmetry_multiplicity
 _atom_site_fract_x
 _atom_site_fract_y
 _atom_site_fract_z
 _atom_site_occupancy
  Dy  Dy0  1  0.500000  0.817435  0.206681  1
  Dy  Dy1  1  0.500000  0.182584  0.206556  1
  Dy  Dy2  1  0.000000  0.683093  0.794853  1
  Y  Y3  1  0.000000  0.499947  0.523936  1
  Y  Y4  1  0.500000  0.000080  0.478116  1
  Y  Y5  1  0.000000  0.316900  0.794971  1
  Co  Co6  1  0.000000  0.999963  0.840246  1
  Co  Co7  1  0.500000  0.500195  0.703111  1
  Co  Co8  1  0.000000  0.000013  0.296131  1
  Co  Co9  1  0.000000  0.499975  0.987494  1
  Co  Co10  1  0.500000  0.000049  0.014751  1
  Co  Co11  1  0.500000  0.331902  0.991281  1
  Co  Co12  1  0.500000  0.668043  0.991201  1
  Co  Co13  1  0.000000  0.166533  0.005892  1
  Co  Co14  1  0.000000  0.833500  0.005847  1
  Co  Co15  1  0.500000  0.296605  0.430666  1
  Co  Co16  1  0.500000  0.703359  0.430645  1
  Co  Co17  1  0.000000  0.203306  0.568851  1
  Co  Co18  1  0.000000  0.796679  0.568965  1
  Co  Co19  1  0.500000  0.879130  0.709276  1
  Co  Co20  1  0.500000  0.120760  0.709187  1
  Co  Co21  1  0.000000  0.620630  0.291626  1
  Co  Co22  1  0.000000  0.379361  0.291639  1
  Tc  Tc23  1  0.500000  0.499960  0.156503  1
  P  P24  1  0.500000  0.500155  0.881587  1
  P  P25  1  0.000000  0.000037  0.117205  1
  P  P26  1  0.500000  0.500019  0.348609  1
  P  P27  1  0.000000  0.999931  0.656402  1
  P  P28  1  0.500000  0.310597  0.616377  1
  P  P29  1  0.500000  0.689450  0.616541  1
  P  P30  1  0.000000  0.188868  0.384067  1
  P  P31  1  0.000000  0.811137  0.384056  1
  P  P32  1  0.500000  0.849556  0.892149  1
  P  P33  1  0.500000  0.150268  0.892287  1
  P  P34  1  0.000000  0.655452  0.106158  1
  P  P35  1  0.000000  0.344527  0.106133  1
