# generated using pymatgen
data_Li2CoN
_symmetry_space_group_name_H-M   'P 1'
_cell_length_a   3.29239509
_cell_length_b   4.65433738
_cell_length_c   4.64873889
_cell_angle_alpha   62.00629439
_cell_angle_beta   110.74607033
_cell_angle_gamma   69.22970614
_symmetry_Int_Tables_number   1
_chemical_formula_structural   Li2CoN
_chemical_formula_sum   'Li2 Co1 N1'
_cell_volume   45.64341114
_cell_formula_units_Z   1
loop_
 _symmetry_equiv_pos_site_id
 _symmetry_equiv_pos_as_xyz
  1  'x, y, z'
loop_
 _atom_site_type_symbol
 _atom_site_label
 _atom_site_symmetry_multiplicity
 _atom_site_fract_x
 _atom_site_fract_y
 _atom_site_fract_z
 _atom_site_occupancy
  Li  Li0  1  0.234949  0.035413  0.926830  1
  Li  Li1  1  0.236129  0.728827  0.619981  1
  Co  Co2  1  0.234872  0.383084  0.272760  1
  N  N3  1  0.734843  0.883109  0.772713  1
