# generated using pymatgen
data_Pr4MgSi2Sn
_symmetry_space_group_name_H-M   'P 1'
_cell_length_a   7.52266900
_cell_length_b   9.51888274
_cell_length_c   7.52266900
_cell_angle_alpha   113.27499196
_cell_angle_beta   90.00000000
_cell_angle_gamma   113.27499196
_symmetry_Int_Tables_number   1
_chemical_formula_structural   Pr4MgSi2Sn
_chemical_formula_sum   'Pr8 Mg2 Si4 Sn2'
_cell_volume   446.72081292
_cell_formula_units_Z   2
loop_
 _symmetry_equiv_pos_site_id
 _symmetry_equiv_pos_as_xyz
  1  'x, y, z'
loop_
 _atom_site_type_symbol
 _atom_site_label
 _atom_site_symmetry_multiplicity
 _atom_site_fract_x
 _atom_site_fract_y
 _atom_site_fract_z
 _atom_site_occupancy
  Pr  Pr0  1  0.546515  0.733950  0.687437  1
  Pr  Pr1  1  0.187437  0.733950  0.046515  1
  Pr  Pr2  1  0.687437  0.733950  0.187437  1
  Pr  Pr3  1  0.046515  0.733950  0.546515  1
  Pr  Pr4  1  0.453485  0.266050  0.312563  1
  Pr  Pr5  1  0.812563  0.266050  0.953485  1
  Pr  Pr6  1  0.312563  0.266050  0.812563  1
  Pr  Pr7  1  0.953485  0.266050  0.453485  1
  Mg  Mg8  1  0.000000  0.000000  0.000000  1
  Mg  Mg9  1  0.500000  0.000000  0.500000  1
  Si  Si10  1  0.885220  0.000000  0.614780  1
  Si  Si11  1  0.114780  0.000000  0.385220  1
  Si  Si12  1  0.614780  0.000000  0.114780  1
  Si  Si13  1  0.385220  0.000000  0.885220  1
  Sn  Sn14  1  0.750000  0.500000  0.750000  1
  Sn  Sn15  1  0.250000  0.500000  0.250000  1
