# generated using pymatgen
data_LiSm2Si4(PPd10)2
_symmetry_space_group_name_H-M   'P 1'
_cell_length_a   8.68585203
_cell_length_b   8.68586034
_cell_length_c   8.69233000
_cell_angle_alpha   59.97526683
_cell_angle_beta   59.97538930
_cell_angle_gamma   60.04940925
_symmetry_Int_Tables_number   1
_chemical_formula_structural   LiSm2Si4(PPd10)2
_chemical_formula_sum   'Li1 Sm2 Si4 P2 Pd20'
_cell_volume   463.70972799
_cell_formula_units_Z   1
loop_
 _symmetry_equiv_pos_site_id
 _symmetry_equiv_pos_as_xyz
  1  'x, y, z'
loop_
 _atom_site_type_symbol
 _atom_site_label
 _atom_site_symmetry_multiplicity
 _atom_site_fract_x
 _atom_site_fract_y
 _atom_site_fract_z
 _atom_site_occupancy
  Li  Li0  1  0.000000  0.000000  0.000000  1
  Sm  Sm1  1  0.250000  0.250001  0.249999  1
  Sm  Sm2  1  0.750000  0.749999  0.750001  1
  Si  Si3  1  0.736800  0.263200  0.263198  1
  Si  Si4  1  0.263200  0.736800  0.736802  1
  Si  Si5  1  0.263200  0.736800  0.263198  1
  Si  Si6  1  0.736800  0.263200  0.736802  1
  P  P7  1  0.262815  0.262815  0.737185  1
  P  P8  1  0.737185  0.737185  0.262815  1
  Pd  Pd9  1  0.384661  0.384662  0.386475  1
  Pd  Pd10  1  0.615339  0.615338  0.613525  1
  Pd  Pd11  1  0.384662  0.384661  0.844202  1
  Pd  Pd12  1  0.386475  0.844202  0.384661  1
  Pd  Pd13  1  0.615338  0.615339  0.155798  1
  Pd  Pd14  1  0.613525  0.155798  0.615339  1
  Pd  Pd15  1  0.844202  0.386475  0.384661  1
  Pd  Pd16  1  0.155798  0.613525  0.615339  1
  Pd  Pd17  1  0.344424  0.001836  0.998164  1
  Pd  Pd18  1  0.655576  0.998164  0.001836  1
  Pd  Pd19  1  0.001836  0.344424  0.655576  1
  Pd  Pd20  1  0.998164  0.655576  0.344424  1
  Pd  Pd21  1  0.001836  0.344425  0.998164  1
  Pd  Pd22  1  0.655575  0.998164  0.344425  1
  Pd  Pd23  1  0.998164  0.655575  0.001836  1
  Pd  Pd24  1  0.344425  0.001836  0.655575  1
  Pd  Pd25  1  0.000000  0.000000  0.345772  1
  Pd  Pd26  1  0.000000  0.000000  0.654228  1
  Pd  Pd27  1  0.654230  0.345770  0.000000  1
  Pd  Pd28  1  0.345770  0.654230  0.000000  1
