# generated using pymatgen
data_NaTm4(PtPb2)2
_symmetry_space_group_name_H-M   'P 1'
_cell_length_a   3.65249600
_cell_length_b   8.28498700
_cell_length_c   18.47260200
_cell_angle_alpha   90.00000000
_cell_angle_beta   90.00000000
_cell_angle_gamma   90.00000000
_symmetry_Int_Tables_number   1
_chemical_formula_structural   NaTm4(PtPb2)2
_chemical_formula_sum   'Na2 Tm8 Pt4 Pb8'
_cell_volume   558.99722709
_cell_formula_units_Z   2
loop_
 _symmetry_equiv_pos_site_id
 _symmetry_equiv_pos_as_xyz
  1  'x, y, z'
loop_
 _atom_site_type_symbol
 _atom_site_label
 _atom_site_symmetry_multiplicity
 _atom_site_fract_x
 _atom_site_fract_y
 _atom_site_fract_z
 _atom_site_occupancy
  Na  Na0  1  0.000000  0.000000  0.000000  1
  Na  Na1  1  0.000000  0.500000  0.500000  1
  Tm  Tm2  1  0.000000  0.115544  0.411795  1
  Tm  Tm3  1  0.000000  0.884456  0.588205  1
  Tm  Tm4  1  0.000000  0.384456  0.911795  1
  Tm  Tm5  1  0.000000  0.615544  0.088205  1
  Tm  Tm6  1  0.000000  0.240896  0.218298  1
  Tm  Tm7  1  0.000000  0.759104  0.781702  1
  Tm  Tm8  1  0.000000  0.259104  0.718298  1
  Tm  Tm9  1  0.000000  0.740896  0.281702  1
  Pt  Pt10  1  0.500000  0.029516  0.302027  1
  Pt  Pt11  1  0.500000  0.970484  0.697973  1
  Pt  Pt12  1  0.500000  0.470484  0.802027  1
  Pt  Pt13  1  0.500000  0.529516  0.197973  1
  Pb  Pb14  1  0.500000  0.418184  0.351734  1
  Pb  Pb15  1  0.500000  0.581816  0.648266  1
  Pb  Pb16  1  0.500000  0.081816  0.851734  1
  Pb  Pb17  1  0.500000  0.918184  0.148266  1
  Pb  Pb18  1  0.500000  0.291474  0.062233  1
  Pb  Pb19  1  0.500000  0.708526  0.937767  1
  Pb  Pb20  1  0.500000  0.208526  0.562233  1
  Pb  Pb21  1  0.500000  0.791474  0.437767  1
