# generated using pymatgen
data_Tm5GaSnSb
_symmetry_space_group_name_H-M   'P 1'
_cell_length_a   8.69368900
_cell_length_b   8.72250729
_cell_length_c   6.40989500
_cell_angle_alpha   90.00000000
_cell_angle_beta   90.00000000
_cell_angle_gamma   119.89076415
_symmetry_Int_Tables_number   1
_chemical_formula_structural   Tm5GaSnSb
_chemical_formula_sum   'Tm10 Ga2 Sn2 Sb2'
_cell_volume   421.40916697
_cell_formula_units_Z   2
loop_
 _symmetry_equiv_pos_site_id
 _symmetry_equiv_pos_as_xyz
  1  'x, y, z'
loop_
 _atom_site_type_symbol
 _atom_site_label
 _atom_site_symmetry_multiplicity
 _atom_site_fract_x
 _atom_site_fract_y
 _atom_site_fract_z
 _atom_site_occupancy
  Tm  Tm0  1  0.342463  0.685811  0.001620  1
  Tm  Tm1  1  0.656653  0.314189  0.498380  1
  Tm  Tm2  1  0.656653  0.314189  0.001620  1
  Tm  Tm3  1  0.342463  0.685811  0.498380  1
  Tm  Tm4  1  0.241821  0.000000  0.250000  1
  Tm  Tm5  1  0.757500  0.000000  0.750000  1
  Tm  Tm6  1  0.987636  0.231029  0.250000  1
  Tm  Tm7  1  0.756609  0.768971  0.250000  1
  Tm  Tm8  1  0.243982  0.229924  0.750000  1
  Tm  Tm9  1  0.014058  0.770076  0.750000  1
  Ga  Ga10  1  0.603225  0.000000  0.250000  1
  Ga  Ga11  1  0.397997  0.000000  0.750000  1
  Sn  Sn12  1  0.993326  0.603946  0.250000  1
  Sn  Sn13  1  0.389379  0.396054  0.250000  1
  Sb  Sb14  1  0.610520  0.604805  0.750000  1
  Sb  Sb15  1  0.005715  0.395195  0.750000  1
