# generated using pymatgen
data_Li2Tm3Si2AgPb
_symmetry_space_group_name_H-M   'P 1'
_cell_length_a   7.09838900
_cell_length_b   7.03956368
_cell_length_c   4.29770700
_cell_angle_alpha   90.00000000
_cell_angle_beta   90.00000000
_cell_angle_gamma   120.27680948
_symmetry_Int_Tables_number   1
_chemical_formula_structural   Li2Tm3Si2AgPb
_chemical_formula_sum   'Li2 Tm3 Si2 Ag1 Pb1'
_cell_volume   185.46194844
_cell_formula_units_Z   1
loop_
 _symmetry_equiv_pos_site_id
 _symmetry_equiv_pos_as_xyz
  1  'x, y, z'
loop_
 _atom_site_type_symbol
 _atom_site_label
 _atom_site_symmetry_multiplicity
 _atom_site_fract_x
 _atom_site_fract_y
 _atom_site_fract_z
 _atom_site_occupancy
  Li  Li0  1  0.755262  0.752253  0.500000  1
  Li  Li1  1  0.003009  0.247747  0.500000  1
  Tm  Tm2  1  0.001623  0.558531  0.000000  1
  Tm  Tm3  1  0.551570  0.000000  0.000000  1
  Tm  Tm4  1  0.443092  0.441469  0.000000  1
  Si  Si5  1  0.332355  0.661479  0.500000  1
  Si  Si6  1  0.670877  0.338521  0.500000  1
  Ag  Ag7  1  0.257275  0.000000  0.500000  1
  Pb  Pb8  1  0.984936  0.000000  0.000000  1
