# generated using pymatgen
data_Y2Re2C3
_symmetry_space_group_name_H-M   'P 1'
_cell_length_a   6.09535010
_cell_length_b   6.09534979
_cell_length_c   5.69014468
_cell_angle_alpha   67.10083701
_cell_angle_beta   67.10083666
_cell_angle_gamma   31.59202663
_symmetry_Int_Tables_number   1
_chemical_formula_structural   Y2Re2C3
_chemical_formula_sum   'Y2 Re2 C3'
_cell_volume   101.29048675
_cell_formula_units_Z   1
loop_
 _symmetry_equiv_pos_site_id
 _symmetry_equiv_pos_as_xyz
  1  'x, y, z'
loop_
 _atom_site_type_symbol
 _atom_site_label
 _atom_site_symmetry_multiplicity
 _atom_site_fract_x
 _atom_site_fract_y
 _atom_site_fract_z
 _atom_site_occupancy
  Y  Y0  1  0.608470  0.608470  0.182161  1
  Y  Y1  1  0.391530  0.391530  0.817839  1
  Re  Re2  1  0.842834  0.842834  0.320338  1
  Re  Re3  1  0.157166  0.157166  0.679662  1
  C  C4  1  0.752549  0.752549  0.730027  1
  C  C5  1  0.247451  0.247451  0.269973  1
  C  C6  1  0.000000  0.000000  0.000000  1
