# generated using pymatgen
data_Sn2Pb4W2O13
_symmetry_space_group_name_H-M   'P 1'
_cell_length_a   7.58957362
_cell_length_b   7.59216598
_cell_length_c   7.59097201
_cell_angle_alpha   120.04043373
_cell_angle_beta   119.99606336
_cell_angle_gamma   89.97514919
_symmetry_Int_Tables_number   1
_chemical_formula_structural   Sn2Pb4W2O13
_chemical_formula_sum   'Sn2 Pb4 W2 O13'
_cell_volume   309.18607893
_cell_formula_units_Z   1
loop_
 _symmetry_equiv_pos_site_id
 _symmetry_equiv_pos_as_xyz
  1  'x, y, z'
loop_
 _atom_site_type_symbol
 _atom_site_label
 _atom_site_symmetry_multiplicity
 _atom_site_fract_x
 _atom_site_fract_y
 _atom_site_fract_z
 _atom_site_occupancy
  Sn  Sn0  1  0.250151  0.500475  0.250356  1
  Sn  Sn1  1  0.250163  0.999812  0.749720  1
  Pb  Pb2  1  0.750231  0.001095  0.250928  1
  Pb  Pb3  1  0.750303  0.499377  0.749054  1
  Pb  Pb4  1  0.749967  0.000796  0.749418  1
  Pb  Pb5  1  0.251077  0.000425  0.250573  1
  W  W6  1  0.250034  0.500607  0.749391  1
  W  W7  1  0.751212  0.500622  0.250621  1
  O  O8  1  0.170223  0.170374  0.000080  1
  O  O9  1  0.569257  0.569239  0.000022  1
  O  O10  1  0.172290  0.571359  0.989162  1
  O  O11  1  0.582096  0.182980  0.010645  1
  O  O12  1  0.171968  0.182116  0.600430  1
  O  O13  1  0.581656  0.571446  0.399310  1
  O  O14  1  0.327206  0.827088  0.499924  1
  O  O15  1  0.932951  0.432989  0.500014  1
  O  O16  1  0.325203  0.430786  0.510820  1
  O  O17  1  0.920113  0.814536  0.489347  1
  O  O18  1  0.325620  0.815420  0.894963  1
  O  O19  1  0.920534  0.430763  0.105325  1
  O  O20  1  0.872745  0.872695  0.999897  1
