# generated using pymatgen
data_Nb3Co2TcN
_symmetry_space_group_name_H-M   'P 1'
_cell_length_a   8.12203556
_cell_length_b   8.12203635
_cell_length_c   8.12203600
_cell_angle_alpha   60.00000144
_cell_angle_beta   59.99999821
_cell_angle_gamma   59.99999969
_symmetry_Int_Tables_number   1
_chemical_formula_structural   Nb3Co2TcN
_chemical_formula_sum   'Nb12 Co8 Tc4 N4'
_cell_volume   378.86084701
_cell_formula_units_Z   4
loop_
 _symmetry_equiv_pos_site_id
 _symmetry_equiv_pos_as_xyz
  1  'x, y, z'
loop_
 _atom_site_type_symbol
 _atom_site_label
 _atom_site_symmetry_multiplicity
 _atom_site_fract_x
 _atom_site_fract_y
 _atom_site_fract_z
 _atom_site_occupancy
  Nb  Nb0  1  0.807230  0.807230  0.192770  1
  Nb  Nb1  1  0.192770  0.192770  0.807230  1
  Nb  Nb2  1  0.807230  0.192770  0.807230  1
  Nb  Nb3  1  0.192770  0.807230  0.192770  1
  Nb  Nb4  1  0.192770  0.807230  0.807230  1
  Nb  Nb5  1  0.807230  0.192770  0.192770  1
  Nb  Nb6  1  0.442770  0.442770  0.057230  1
  Nb  Nb7  1  0.057230  0.057230  0.442770  1
  Nb  Nb8  1  0.442770  0.057230  0.442770  1
  Nb  Nb9  1  0.057230  0.442770  0.057230  1
  Nb  Nb10  1  0.057230  0.442770  0.442770  1
  Nb  Nb11  1  0.442770  0.057230  0.057230  1
  Co  Co12  1  0.731917  0.422695  0.422695  1
  Co  Co13  1  0.422695  0.731917  0.422695  1
  Co  Co14  1  0.422695  0.422695  0.731917  1
  Co  Co15  1  0.422695  0.422695  0.422695  1
  Co  Co16  1  0.518083  0.827305  0.827305  1
  Co  Co17  1  0.827305  0.518083  0.827305  1
  Co  Co18  1  0.827305  0.827305  0.518083  1
  Co  Co19  1  0.827305  0.827305  0.827305  1
  Tc  Tc20  1  0.125000  0.625000  0.625000  1
  Tc  Tc21  1  0.625000  0.125000  0.625000  1
  Tc  Tc22  1  0.625000  0.625000  0.125000  1
  Tc  Tc23  1  0.625000  0.625000  0.625000  1
  N  N24  1  0.625000  0.125000  0.125000  1
  N  N25  1  0.125000  0.625000  0.125000  1
  N  N26  1  0.125000  0.125000  0.625000  1
  N  N27  1  0.125000  0.125000  0.125000  1
