# generated using pymatgen
data_YEr3Cu3Pd
_symmetry_space_group_name_H-M   'P 1'
_cell_length_a   4.48545700
_cell_length_b   5.40578449
_cell_length_c   7.06014405
_cell_angle_alpha   90.19149965
_cell_angle_beta   90.00000000
_cell_angle_gamma   90.00000000
_symmetry_Int_Tables_number   1
_chemical_formula_structural   YEr3Cu3Pd
_chemical_formula_sum   'Y1 Er3 Cu3 Pd1'
_cell_volume   171.18927847
_cell_formula_units_Z   1
loop_
 _symmetry_equiv_pos_site_id
 _symmetry_equiv_pos_as_xyz
  1  'x, y, z'
loop_
 _atom_site_type_symbol
 _atom_site_label
 _atom_site_symmetry_multiplicity
 _atom_site_fract_x
 _atom_site_fract_y
 _atom_site_fract_z
 _atom_site_occupancy
  Y  Y0  1  0.250000  0.138484  0.182584  1
  Er  Er1  1  0.250000  0.359143  0.683134  1
  Er  Er2  1  0.750000  0.641039  0.318582  1
  Er  Er3  1  0.750000  0.861670  0.815881  1
  Cu  Cu4  1  0.250000  0.627612  0.029316  1
  Cu  Cu5  1  0.750000  0.140947  0.465944  1
  Cu  Cu6  1  0.750000  0.375010  0.965438  1
  Pd  Pd7  1  0.250000  0.856093  0.539122  1
