# generated using pymatgen
data_Ho16Ga6IrOs
_symmetry_space_group_name_H-M   'P 1'
_cell_length_a   9.98767900
_cell_length_b   9.98767811
_cell_length_c   7.02105500
_cell_angle_alpha   90.00000000
_cell_angle_beta   90.00000000
_cell_angle_gamma   119.99999964
_symmetry_Int_Tables_number   1
_chemical_formula_structural   Ho16Ga6IrOs
_chemical_formula_sum   'Ho16 Ga6 Ir1 Os1'
_cell_volume   606.54373525
_cell_formula_units_Z   1
loop_
 _symmetry_equiv_pos_site_id
 _symmetry_equiv_pos_as_xyz
  1  'x, y, z'
loop_
 _atom_site_type_symbol
 _atom_site_label
 _atom_site_symmetry_multiplicity
 _atom_site_fract_x
 _atom_site_fract_y
 _atom_site_fract_z
 _atom_site_occupancy
  Ho  Ho0  1  0.171088  0.828912  0.510244  1
  Ho  Ho1  1  0.657823  0.828912  0.510244  1
  Ho  Ho2  1  0.171088  0.342177  0.510244  1
  Ho  Ho3  1  0.828578  0.171422  0.009858  1
  Ho  Ho4  1  0.342844  0.171422  0.009858  1
  Ho  Ho5  1  0.828578  0.657156  0.009858  1
  Ho  Ho6  1  0.333333  0.666667  0.839322  1
  Ho  Ho7  1  0.666667  0.333333  0.339743  1
  Ho  Ho8  1  0.465803  0.534197  0.204983  1
  Ho  Ho9  1  0.068395  0.534197  0.204983  1
  Ho  Ho10  1  0.465803  0.931605  0.204983  1
  Ho  Ho11  1  0.534762  0.465238  0.705855  1
  Ho  Ho12  1  0.930475  0.465238  0.705855  1
  Ho  Ho13  1  0.534762  0.069525  0.705855  1
  Ho  Ho14  1  0.000000  0.000000  0.234284  1
  Ho  Ho15  1  0.000000  0.000000  0.734112  1
  Ga  Ga16  1  0.163912  0.836088  0.957149  1
  Ga  Ga17  1  0.672175  0.836088  0.957149  1
  Ga  Ga18  1  0.163912  0.327825  0.957149  1
  Ga  Ga19  1  0.836289  0.163711  0.457260  1
  Ga  Ga20  1  0.327422  0.163711  0.457260  1
  Ga  Ga21  1  0.836289  0.672578  0.457260  1
  Ir  Ir22  1  0.333333  0.666667  0.445228  1
  Os  Os23  1  0.666667  0.333333  0.945310  1
