# generated using pymatgen
data_Tb6Al13Si11Os8
_symmetry_space_group_name_H-M   'P 1'
_cell_length_a   8.75656200
_cell_length_b   8.75656274
_cell_length_c   9.23919800
_cell_angle_alpha   90.00000000
_cell_angle_beta   90.00000000
_cell_angle_gamma   119.99999719
_symmetry_Int_Tables_number   1
_chemical_formula_structural   Tb6Al13Si11Os8
_chemical_formula_sum   'Tb6 Al13 Si11 Os8'
_cell_volume   613.52492239
_cell_formula_units_Z   1
loop_
 _symmetry_equiv_pos_site_id
 _symmetry_equiv_pos_as_xyz
  1  'x, y, z'
loop_
 _atom_site_type_symbol
 _atom_site_label
 _atom_site_symmetry_multiplicity
 _atom_site_fract_x
 _atom_site_fract_y
 _atom_site_fract_z
 _atom_site_occupancy
  Tb  Tb0  1  0.191614  0.383228  0.249130  1
  Tb  Tb1  1  0.808111  0.616223  0.750330  1
  Tb  Tb2  1  0.616772  0.808386  0.249130  1
  Tb  Tb3  1  0.383777  0.191889  0.750330  1
  Tb  Tb4  1  0.191614  0.808386  0.249130  1
  Tb  Tb5  1  0.808111  0.191889  0.750330  1
  Al  Al6  1  0.333333  0.666667  0.472324  1
  Al  Al7  1  0.164722  0.329443  0.579905  1
  Al  Al8  1  0.834504  0.669008  0.418194  1
  Al  Al9  1  0.670557  0.835278  0.579905  1
  Al  Al10  1  0.834556  0.669114  0.081763  1
  Al  Al11  1  0.330992  0.165496  0.418194  1
  Al  Al12  1  0.166025  0.332049  0.917864  1
  Al  Al13  1  0.164722  0.835278  0.579905  1
  Al  Al14  1  0.330886  0.165444  0.081763  1
  Al  Al15  1  0.834504  0.165496  0.418194  1
  Al  Al16  1  0.667951  0.833975  0.917864  1
  Al  Al17  1  0.834556  0.165444  0.081763  1
  Al  Al18  1  0.166025  0.833975  0.917864  1
  Si  Si19  1  0.333333  0.666667  0.046070  1
  Si  Si20  1  0.666667  0.333333  0.956800  1
  Si  Si21  1  0.666667  0.333333  0.541899  1
  Si  Si22  1  0.561263  0.122525  0.249718  1
  Si  Si23  1  0.439004  0.878008  0.747832  1
  Si  Si24  1  0.877475  0.438737  0.249718  1
  Si  Si25  1  0.121992  0.560996  0.747832  1
  Si  Si26  1  0.561263  0.438737  0.249718  1
  Si  Si27  1  0.439004  0.560996  0.747832  1
  Si  Si28  1  0.000000  0.000000  0.249630  1
  Si  Si29  1  0.000000  0.000000  0.749755  1
  Os  Os30  1  0.500447  0.000894  0.998423  1
  Os  Os31  1  0.999106  0.499553  0.998423  1
  Os  Os32  1  0.503755  0.007509  0.501615  1
  Os  Os33  1  0.500447  0.499553  0.998423  1
  Os  Os34  1  0.992491  0.496245  0.501615  1
  Os  Os35  1  0.503755  0.496245  0.501615  1
  Os  Os36  1  0.000000  0.000000  0.999249  1
  Os  Os37  1  0.000000  0.000000  0.499948  1
