# generated using pymatgen
data_Pr3Tc4BiF28
_symmetry_space_group_name_H-M   'P 1'
_cell_length_a   5.73600167
_cell_length_b   9.24510656
_cell_length_c   12.39996451
_cell_angle_alpha   61.94555316
_cell_angle_beta   90.09752605
_cell_angle_gamma   89.97133964
_symmetry_Int_Tables_number   1
_chemical_formula_structural   Pr3Tc4BiF28
_chemical_formula_sum   'Pr3 Tc4 Bi1 F28'
_cell_volume   580.30427555
_cell_formula_units_Z   1
loop_
 _symmetry_equiv_pos_site_id
 _symmetry_equiv_pos_as_xyz
  1  'x, y, z'
loop_
 _atom_site_type_symbol
 _atom_site_label
 _atom_site_symmetry_multiplicity
 _atom_site_fract_x
 _atom_site_fract_y
 _atom_site_fract_z
 _atom_site_occupancy
  Pr  Pr0  1  0.259518  0.190713  0.736022  1
  Pr  Pr1  1  0.241020  0.189403  0.235168  1
  Pr  Pr2  1  0.741282  0.810905  0.264389  1
  Tc  Tc3  1  0.756845  0.273739  0.957497  1
  Tc  Tc4  1  0.257561  0.727771  0.543149  1
  Tc  Tc5  1  0.242408  0.727046  0.040669  1
  Tc  Tc6  1  0.744663  0.272230  0.458884  1
  Bi  Bi7  1  0.764077  0.816669  0.762221  1
  F  F8  1  0.437547  0.708767  0.918758  1
  F  F9  1  0.941229  0.290286  0.581598  1
  F  F10  1  0.560206  0.290915  0.080183  1
  F  F11  1  0.060319  0.709539  0.420171  1
  F  F12  1  0.459609  0.279880  0.544811  1
  F  F13  1  0.953199  0.721385  0.954920  1
  F  F14  1  0.542157  0.718279  0.457347  1
  F  F15  1  0.042914  0.281662  0.042546  1
  F  F16  1  0.767588  0.512082  0.861683  1
  F  F17  1  0.268113  0.486573  0.638560  1
  F  F18  1  0.229243  0.486927  0.136803  1
  F  F19  1  0.733098  0.511900  0.363451  1
  F  F20  1  0.760002  0.032968  0.051714  1
  F  F21  1  0.260783  0.967486  0.448802  1
  F  F22  1  0.241975  0.967277  0.946887  1
  F  F23  1  0.741688  0.030940  0.552641  1
  F  F24  1  0.977963  0.731372  0.633171  1
  F  F25  1  0.478766  0.268342  0.866251  1
  F  F26  1  0.022097  0.268982  0.368040  1
  F  F27  1  0.518932  0.728879  0.133576  1
  F  F28  1  0.049189  0.743189  0.166166  1
  F  F29  1  0.551625  0.256426  0.333765  1
  F  F30  1  0.948412  0.256044  0.832027  1
  F  F31  1  0.448154  0.744964  0.668573  1
  F  F32  1  0.407054  0.967439  0.229461  1
  F  F33  1  0.906797  0.033154  0.270365  1
  F  F34  1  0.598264  0.028223  0.770465  1
  F  F35  1  0.085702  0.967642  0.729266  1
