# generated using pymatgen
data_Dy6ScCo17P12
_symmetry_space_group_name_H-M   'P 1'
_cell_length_a   3.72404000
_cell_length_b   10.62747600
_cell_length_c   12.31036800
_cell_angle_alpha   90.00000000
_cell_angle_beta   90.00000000
_cell_angle_gamma   90.00000000
_symmetry_Int_Tables_number   1
_chemical_formula_structural   Dy6ScCo17P12
_chemical_formula_sum   'Dy6 Sc1 Co17 P12'
_cell_volume   487.20922824
_cell_formula_units_Z   1
loop_
 _symmetry_equiv_pos_site_id
 _symmetry_equiv_pos_as_xyz
  1  'x, y, z'
loop_
 _atom_site_type_symbol
 _atom_site_label
 _atom_site_symmetry_multiplicity
 _atom_site_fract_x
 _atom_site_fract_y
 _atom_site_fract_z
 _atom_site_occupancy
  Dy  Dy0  1  0.000000  0.500000  0.527653  1
  Dy  Dy1  1  0.500000  0.000000  0.477785  1
  Dy  Dy2  1  0.500000  0.821557  0.207511  1
  Dy  Dy3  1  0.500000  0.178443  0.207511  1
  Dy  Dy4  1  0.000000  0.682570  0.795609  1
  Dy  Dy5  1  0.000000  0.317430  0.795609  1
  Sc  Sc6  1  0.500000  0.500000  0.152634  1
  Co  Co7  1  0.000000  0.000000  0.837222  1
  Co  Co8  1  0.500000  0.500000  0.703406  1
  Co  Co9  1  0.000000  0.000000  0.295892  1
  Co  Co10  1  0.000000  0.500000  0.984401  1
  Co  Co11  1  0.500000  0.000000  0.012937  1
  Co  Co12  1  0.500000  0.326766  0.989731  1
  Co  Co13  1  0.500000  0.673234  0.989731  1
  Co  Co14  1  0.000000  0.161990  0.001581  1
  Co  Co15  1  0.000000  0.838010  0.001581  1
  Co  Co16  1  0.500000  0.294680  0.434181  1
  Co  Co17  1  0.500000  0.705320  0.434181  1
  Co  Co18  1  0.000000  0.201944  0.570532  1
  Co  Co19  1  0.000000  0.798056  0.570532  1
  Co  Co20  1  0.500000  0.880521  0.707941  1
  Co  Co21  1  0.500000  0.119479  0.707941  1
  Co  Co22  1  0.000000  0.622451  0.296816  1
  Co  Co23  1  0.000000  0.377549  0.296816  1
  P  P24  1  0.500000  0.500000  0.883215  1
  P  P25  1  0.000000  0.000000  0.115766  1
  P  P26  1  0.500000  0.500000  0.357819  1
  P  P27  1  0.000000  0.000000  0.655357  1
  P  P28  1  0.500000  0.308648  0.617701  1
  P  P29  1  0.500000  0.691352  0.617701  1
  P  P30  1  0.000000  0.189241  0.386335  1
  P  P31  1  0.000000  0.810759  0.386335  1
  P  P32  1  0.500000  0.851892  0.889181  1
  P  P33  1  0.500000  0.148108  0.889181  1
  P  P34  1  0.000000  0.663392  0.100837  1
  P  P35  1  0.000000  0.336608  0.100837  1
