# generated using pymatgen
data_Tb4TaB4Ru10W
_symmetry_space_group_name_H-M   'P 1'
_cell_length_a   9.66581700
_cell_length_b   9.66581700
_cell_length_c   3.13641600
_cell_angle_alpha   90.00000000
_cell_angle_beta   90.00000000
_cell_angle_gamma   90.00000000
_symmetry_Int_Tables_number   1
_chemical_formula_structural   Tb4TaB4Ru10W
_chemical_formula_sum   'Tb4 Ta1 B4 Ru10 W1'
_cell_volume   293.02913137
_cell_formula_units_Z   1
loop_
 _symmetry_equiv_pos_site_id
 _symmetry_equiv_pos_as_xyz
  1  'x, y, z'
loop_
 _atom_site_type_symbol
 _atom_site_label
 _atom_site_symmetry_multiplicity
 _atom_site_fract_x
 _atom_site_fract_y
 _atom_site_fract_z
 _atom_site_occupancy
  Tb  Tb0  1  0.824651  0.675043  0.000000  1
  Tb  Tb1  1  0.175349  0.324957  0.000000  1
  Tb  Tb2  1  0.324957  0.824651  0.000000  1
  Tb  Tb3  1  0.675043  0.175349  0.000000  1
  Ta  Ta4  1  0.000000  0.000000  0.000000  1
  B  B5  1  0.620777  0.880335  0.000000  1
  B  B6  1  0.379223  0.119665  0.000000  1
  B  B7  1  0.119665  0.620777  0.000000  1
  B  B8  1  0.880335  0.379223  0.000000  1
  Ru  Ru9  1  0.569019  0.715607  0.500000  1
  Ru  Ru10  1  0.430981  0.284393  0.500000  1
  Ru  Ru11  1  0.071242  0.780995  0.500000  1
  Ru  Ru12  1  0.928758  0.219005  0.500000  1
  Ru  Ru13  1  0.284393  0.569019  0.500000  1
  Ru  Ru14  1  0.715607  0.430981  0.500000  1
  Ru  Ru15  1  0.219005  0.071242  0.500000  1
  Ru  Ru16  1  0.780995  0.928758  0.500000  1
  Ru  Ru17  1  0.500000  0.000000  0.500000  1
  Ru  Ru18  1  0.000000  0.500000  0.500000  1
  W  W19  1  0.500000  0.500000  0.000000  1
