# generated using pymatgen
data_K3BiF8
_symmetry_space_group_name_H-M   'P 1'
_cell_length_a   8.54858700
_cell_length_b   8.54858581
_cell_length_c   6.50561100
_cell_angle_alpha   90.00000000
_cell_angle_beta   90.00000000
_cell_angle_gamma   119.99999300
_symmetry_Int_Tables_number   1
_chemical_formula_structural   K3BiF8
_chemical_formula_sum   'K6 Bi2 F16'
_cell_volume   411.72512018
_cell_formula_units_Z   2
loop_
 _symmetry_equiv_pos_site_id
 _symmetry_equiv_pos_as_xyz
  1  'x, y, z'
loop_
 _atom_site_type_symbol
 _atom_site_label
 _atom_site_symmetry_multiplicity
 _atom_site_fract_x
 _atom_site_fract_y
 _atom_site_fract_z
 _atom_site_occupancy
  K  K0  1  0.152267  0.304533  0.243179  1
  K  K1  1  0.847733  0.695467  0.743180  1
  K  K2  1  0.695467  0.847733  0.243179  1
  K  K3  1  0.152267  0.847733  0.243179  1
  K  K4  1  0.847733  0.152267  0.743180  1
  K  K5  1  0.304533  0.152267  0.743180  1
  Bi  Bi6  1  0.333333  0.666667  0.736753  1
  Bi  Bi7  1  0.666667  0.333333  0.236753  1
  F  F8  1  0.000000  0.000000  0.004423  1
  F  F9  1  0.000000  0.000000  0.504423  1
  F  F10  1  0.441879  0.558121  0.528224  1
  F  F11  1  0.558121  0.441879  0.028224  1
  F  F12  1  0.441879  0.883757  0.528224  1
  F  F13  1  0.116243  0.558121  0.528224  1
  F  F14  1  0.883757  0.441879  0.028224  1
  F  F15  1  0.558121  0.116243  0.028224  1
  F  F16  1  0.333333  0.666667  0.062147  1
  F  F17  1  0.666667  0.333333  0.562147  1
  F  F18  1  0.195930  0.804070  0.822540  1
  F  F19  1  0.804070  0.195930  0.322540  1
  F  F20  1  0.195930  0.391861  0.822540  1
  F  F21  1  0.608139  0.804070  0.822540  1
  F  F22  1  0.391861  0.195930  0.322540  1
  F  F23  1  0.804070  0.608139  0.322540  1
