# generated using pymatgen
data_Tm3Ni6B2Ru
_symmetry_space_group_name_H-M   'P 1'
_cell_length_a   4.99153800
_cell_length_b   5.13484924
_cell_length_c   14.31642200
_cell_angle_alpha   90.00000000
_cell_angle_beta   90.00000000
_cell_angle_gamma   119.08098878
_symmetry_Int_Tables_number   1
_chemical_formula_structural   Tm3Ni6B2Ru
_chemical_formula_sum   'Tm6 Ni12 B4 Ru2'
_cell_volume   320.68229275
_cell_formula_units_Z   2
loop_
 _symmetry_equiv_pos_site_id
 _symmetry_equiv_pos_as_xyz
  1  'x, y, z'
loop_
 _atom_site_type_symbol
 _atom_site_label
 _atom_site_symmetry_multiplicity
 _atom_site_fract_x
 _atom_site_fract_y
 _atom_site_fract_z
 _atom_site_occupancy
  Tm  Tm0  1  0.332484  0.664970  0.533834  1
  Tm  Tm1  1  0.667516  0.335030  0.033834  1
  Tm  Tm2  1  0.662336  0.324670  0.466699  1
  Tm  Tm3  1  0.337664  0.675330  0.966699  1
  Tm  Tm4  1  0.332041  0.664082  0.750532  1
  Tm  Tm5  1  0.667959  0.335918  0.250532  1
  Ni  Ni6  1  0.995893  0.991785  0.998026  1
  Ni  Ni7  1  0.004107  0.008215  0.498026  1
  Ni  Ni8  1  0.667817  0.833949  0.148134  1
  Ni  Ni9  1  0.166132  0.833949  0.148134  1
  Ni  Ni10  1  0.833868  0.166051  0.648134  1
  Ni  Ni11  1  0.332183  0.166051  0.648134  1
  Ni  Ni12  1  0.832807  0.665613  0.850571  1
  Ni  Ni13  1  0.832052  0.163009  0.852375  1
  Ni  Ni14  1  0.330957  0.163009  0.852375  1
  Ni  Ni15  1  0.669043  0.836991  0.352375  1
  Ni  Ni16  1  0.167948  0.836991  0.352375  1
  Ni  Ni17  1  0.167193  0.334387  0.350571  1
  B  B18  1  0.336859  0.673720  0.251370  1
  B  B19  1  0.663141  0.326280  0.751370  1
  B  B20  1  0.000383  0.000766  0.251261  1
  B  B21  1  0.999617  0.999234  0.751261  1
  Ru  Ru22  1  0.165393  0.330785  0.146690  1
  Ru  Ru23  1  0.834607  0.669215  0.646690  1
