# generated using pymatgen
data_Tb4Re(SiB4)2
_symmetry_space_group_name_H-M   'P 1'
_cell_length_a   7.11808900
_cell_length_b   7.11808900
_cell_length_c   7.62219200
_cell_angle_alpha   90.00000000
_cell_angle_beta   90.00000000
_cell_angle_gamma   90.00000000
_symmetry_Int_Tables_number   1
_chemical_formula_structural   Tb4Re(SiB4)2
_chemical_formula_sum   'Tb8 Re2 Si4 B16'
_cell_volume   386.19505799
_cell_formula_units_Z   2
loop_
 _symmetry_equiv_pos_site_id
 _symmetry_equiv_pos_as_xyz
  1  'x, y, z'
loop_
 _atom_site_type_symbol
 _atom_site_label
 _atom_site_symmetry_multiplicity
 _atom_site_fract_x
 _atom_site_fract_y
 _atom_site_fract_z
 _atom_site_occupancy
  Tb  Tb0  1  0.679337  0.179337  0.238772  1
  Tb  Tb1  1  0.320663  0.820663  0.761228  1
  Tb  Tb2  1  0.320663  0.820663  0.238772  1
  Tb  Tb3  1  0.820663  0.679337  0.238772  1
  Tb  Tb4  1  0.820663  0.679337  0.761228  1
  Tb  Tb5  1  0.679337  0.179337  0.761228  1
  Tb  Tb6  1  0.179337  0.320663  0.761228  1
  Tb  Tb7  1  0.179337  0.320663  0.238772  1
  Re  Re8  1  0.000000  0.000000  0.500000  1
  Re  Re9  1  0.500000  0.500000  0.500000  1
  Si  Si10  1  0.123665  0.623665  0.500000  1
  Si  Si11  1  0.876335  0.376335  0.500000  1
  Si  Si12  1  0.376335  0.123665  0.500000  1
  Si  Si13  1  0.623665  0.876335  0.500000  1
  B  B14  1  0.171562  0.039494  0.000000  1
  B  B15  1  0.828438  0.960506  0.000000  1
  B  B16  1  0.960506  0.171562  0.000000  1
  B  B17  1  0.328438  0.539494  0.000000  1
  B  B18  1  0.039494  0.828438  0.000000  1
  B  B19  1  0.671562  0.460506  0.000000  1
  B  B20  1  0.539494  0.671562  0.000000  1
  B  B21  1  0.460506  0.328438  0.000000  1
  B  B22  1  0.090264  0.590264  0.000000  1
  B  B23  1  0.909736  0.409736  0.000000  1
  B  B24  1  0.409736  0.090264  0.000000  1
  B  B25  1  0.590264  0.909736  0.000000  1
  B  B26  1  0.000000  0.000000  0.175740  1
  B  B27  1  0.000000  0.000000  0.824260  1
  B  B28  1  0.500000  0.500000  0.824260  1
  B  B29  1  0.500000  0.500000  0.175740  1
