# generated using pymatgen
data_Li3Dy4ZnPt4
_symmetry_space_group_name_H-M   'P 1'
_cell_length_a   4.01713700
_cell_length_b   7.01472909
_cell_length_c   8.37832979
_cell_angle_alpha   89.82466680
_cell_angle_beta   90.00000000
_cell_angle_gamma   90.00000000
_symmetry_Int_Tables_number   1
_chemical_formula_structural   Li3Dy4ZnPt4
_chemical_formula_sum   'Li3 Dy4 Zn1 Pt4'
_cell_volume   236.09292035
_cell_formula_units_Z   1
loop_
 _symmetry_equiv_pos_site_id
 _symmetry_equiv_pos_as_xyz
  1  'x, y, z'
loop_
 _atom_site_type_symbol
 _atom_site_label
 _atom_site_symmetry_multiplicity
 _atom_site_fract_x
 _atom_site_fract_y
 _atom_site_fract_z
 _atom_site_occupancy
  Li  Li0  1  0.250000  0.630735  0.560901  1
  Li  Li1  1  0.250000  0.127930  0.941801  1
  Li  Li2  1  0.750000  0.370362  0.439868  1
  Dy  Dy3  1  0.250000  0.041532  0.314939  1
  Dy  Dy4  1  0.250000  0.548275  0.180690  1
  Dy  Dy5  1  0.750000  0.953325  0.685638  1
  Dy  Dy6  1  0.750000  0.456985  0.815786  1
  Zn  Zn7  1  0.750000  0.871673  0.061802  1
  Pt  Pt8  1  0.250000  0.244918  0.621527  1
  Pt  Pt9  1  0.250000  0.750116  0.879006  1
  Pt  Pt10  1  0.750000  0.752274  0.377186  1
  Pt  Pt11  1  0.750000  0.251879  0.120853  1
