# generated using pymatgen
data_Ce2Zn2Co3Cu5
_symmetry_space_group_name_H-M   'P 1'
_cell_length_a   4.19405700
_cell_length_b   4.93478000
_cell_length_c   8.62507900
_cell_angle_alpha   90.00020911
_cell_angle_beta   90.00000000
_cell_angle_gamma   90.00000000
_symmetry_Int_Tables_number   1
_chemical_formula_structural   Ce2Zn2Co3Cu5
_chemical_formula_sum   'Ce2 Zn2 Co3 Cu5'
_cell_volume   178.51109174
_cell_formula_units_Z   1
loop_
 _symmetry_equiv_pos_site_id
 _symmetry_equiv_pos_as_xyz
  1  'x, y, z'
loop_
 _atom_site_type_symbol
 _atom_site_label
 _atom_site_symmetry_multiplicity
 _atom_site_fract_x
 _atom_site_fract_y
 _atom_site_fract_z
 _atom_site_occupancy
  Ce  Ce0  1  0.000000  0.999982  0.027366  1
  Ce  Ce1  1  0.000000  0.499983  0.477458  1
  Zn  Zn2  1  0.000000  0.499984  0.827934  1
  Zn  Zn3  1  0.500000  0.999979  0.501252  1
  Co  Co4  1  0.000000  0.999986  0.337284  1
  Co  Co5  1  0.000000  0.499980  0.155509  1
  Co  Co6  1  0.000000  0.999981  0.672254  1
  Cu  Cu7  1  0.500000  0.499985  0.999875  1
  Cu  Cu8  1  0.500000  0.251603  0.249242  1
  Cu  Cu9  1  0.500000  0.753029  0.751295  1
  Cu  Cu10  1  0.500000  0.748368  0.249241  1
  Cu  Cu11  1  0.500000  0.246939  0.751290  1
