# generated using pymatgen
data_Zr6Zn19AsAu4
_symmetry_space_group_name_H-M   'P 1'
_cell_length_a   8.89870280
_cell_length_b   8.86187779
_cell_length_c   8.86192800
_cell_angle_alpha   60.28789041
_cell_angle_beta   59.72856788
_cell_angle_gamma   59.72976055
_symmetry_Int_Tables_number   1
_chemical_formula_structural   Zr6Zn19AsAu4
_chemical_formula_sum   'Zr6 Zn19 As1 Au4'
_cell_volume   493.17808689
_cell_formula_units_Z   1
loop_
 _symmetry_equiv_pos_site_id
 _symmetry_equiv_pos_as_xyz
  1  'x, y, z'
loop_
 _atom_site_type_symbol
 _atom_site_label
 _atom_site_symmetry_multiplicity
 _atom_site_fract_x
 _atom_site_fract_y
 _atom_site_fract_z
 _atom_site_occupancy
  Zr  Zr0  1  0.715034  0.287382  0.287369  1
  Zr  Zr1  1  0.284070  0.714038  0.714024  1
  Zr  Zr2  1  0.289925  0.709692  0.290289  1
  Zr  Zr3  1  0.713471  0.288064  0.708288  1
  Zr  Zr4  1  0.289912  0.290288  0.709698  1
  Zr  Zr5  1  0.713467  0.708288  0.288060  1
  Zn  Zn6  1  0.878508  0.873244  0.372770  1
  Zn  Zn7  1  0.878504  0.372773  0.873249  1
  Zn  Zn8  1  0.623934  0.123181  0.123193  1
  Zn  Zn9  1  0.369376  0.877028  0.877038  1
  Zn  Zn10  1  0.496926  0.999354  0.999363  1
  Zn  Zn11  1  0.997429  0.502006  0.502002  1
  Zn  Zn12  1  0.000631  0.498331  0.997090  1
  Zn  Zn13  1  0.508419  0.997561  0.494047  1
  Zn  Zn14  1  0.000635  0.997087  0.498333  1
  Zn  Zn15  1  0.508414  0.494052  0.997565  1
  Zn  Zn16  1  0.338206  0.335064  0.335066  1
  Zn  Zn17  1  0.661438  0.664063  0.664055  1
  Zn  Zn18  1  0.336754  0.336619  0.991718  1
  Zn  Zn19  1  0.336761  0.991712  0.336617  1
  Zn  Zn20  1  0.663938  0.662659  0.007070  1
  Zn  Zn21  1  0.663940  0.007066  0.662658  1
  Zn  Zn22  1  0.997020  0.333850  0.333848  1
  Zn  Zn23  1  0.007885  0.664033  0.664030  1
  Zn  Zn24  1  0.985632  0.007625  0.007628  1
  As  As25  1  0.499861  0.501346  0.501327  1
  Au  Au26  1  0.121031  0.118129  0.118144  1
  Au  Au27  1  0.873112  0.882585  0.882584  1
  Au  Au28  1  0.122885  0.121956  0.640923  1
  Au  Au29  1  0.122883  0.640924  0.121956  1
