# generated using pymatgen
data_Er3Tm5(AgRh)2
_symmetry_space_group_name_H-M   'P 1'
_cell_length_a   9.42145946
_cell_length_b   9.41868306
_cell_length_c   9.36671934
_cell_angle_alpha   60.20242068
_cell_angle_beta   60.17653994
_cell_angle_gamma   60.31622443
_symmetry_Int_Tables_number   1
_chemical_formula_structural   Er3Tm5(AgRh)2
_chemical_formula_sum   'Er6 Tm10 Ag4 Rh4'
_cell_volume   590.81543811
_cell_formula_units_Z   2
loop_
 _symmetry_equiv_pos_site_id
 _symmetry_equiv_pos_as_xyz
  1  'x, y, z'
loop_
 _atom_site_type_symbol
 _atom_site_label
 _atom_site_symmetry_multiplicity
 _atom_site_fract_x
 _atom_site_fract_y
 _atom_site_fract_z
 _atom_site_occupancy
  Er  Er0  1  0.065124  0.065118  0.434877  1
  Er  Er1  1  0.434986  0.065178  0.435288  1
  Er  Er2  1  0.065176  0.434994  0.064540  1
  Er  Er3  1  0.060010  0.646645  0.646536  1
  Er  Er4  1  0.435523  0.435539  0.064470  1
  Er  Er5  1  0.646640  0.060011  0.646814  1
  Tm  Tm6  1  0.187554  0.813480  0.186724  1
  Tm  Tm7  1  0.187353  0.187350  0.812649  1
  Tm  Tm8  1  0.813169  0.813172  0.186833  1
  Tm  Tm9  1  0.435368  0.064886  0.064213  1
  Tm  Tm10  1  0.813598  0.187381  0.186589  1
  Tm  Tm11  1  0.064881  0.435371  0.435533  1
  Tm  Tm12  1  0.813476  0.187564  0.812243  1
  Tm  Tm13  1  0.187373  0.813608  0.812432  1
  Tm  Tm14  1  0.646231  0.646469  0.061048  1
  Tm  Tm15  1  0.646471  0.646227  0.646254  1
  Ag  Ag16  1  0.417092  0.417390  0.417806  1
  Ag  Ag17  1  0.746846  0.417530  0.418129  1
  Ag  Ag18  1  0.417536  0.746850  0.417476  1
  Ag  Ag19  1  0.417392  0.417091  0.747709  1
  Rh  Rh20  1  0.856110  0.855504  0.430691  1
  Rh  Rh21  1  0.855485  0.856115  0.857693  1
  Rh  Rh22  1  0.431844  0.854740  0.856998  1
  Rh  Rh23  1  0.854761  0.431784  0.856454  1
