# generated using pymatgen
data_SrDy(TaSe2)8
_symmetry_space_group_name_H-M   'P 1'
_cell_length_a   7.00558100
_cell_length_b   7.00558079
_cell_length_c   14.81858400
_cell_angle_alpha   90.00000000
_cell_angle_beta   90.00000000
_cell_angle_gamma   120.00001518
_symmetry_Int_Tables_number   1
_chemical_formula_structural   SrDy(TaSe2)8
_chemical_formula_sum   'Sr1 Dy1 Ta8 Se16'
_cell_volume   629.83323820
_cell_formula_units_Z   1
loop_
 _symmetry_equiv_pos_site_id
 _symmetry_equiv_pos_as_xyz
  1  'x, y, z'
loop_
 _atom_site_type_symbol
 _atom_site_label
 _atom_site_symmetry_multiplicity
 _atom_site_fract_x
 _atom_site_fract_y
 _atom_site_fract_z
 _atom_site_occupancy
  Sr  Sr0  1  0.000000  0.000000  0.000000  1
  Dy  Dy1  1  0.000000  0.000000  0.500000  1
  Ta  Ta2  1  0.509178  0.490822  0.738862  1
  Ta  Ta3  1  0.018355  0.509178  0.261138  1
  Ta  Ta4  1  0.490822  0.981645  0.261138  1
  Ta  Ta5  1  0.509178  0.018355  0.738862  1
  Ta  Ta6  1  0.981645  0.490822  0.738862  1
  Ta  Ta7  1  0.490822  0.509178  0.261138  1
  Ta  Ta8  1  0.000000  0.000000  0.738530  1
  Ta  Ta9  1  0.000000  0.000000  0.261470  1
  Se  Se10  1  0.829204  0.170796  0.371616  1
  Se  Se11  1  0.829204  0.658410  0.371616  1
  Se  Se12  1  0.341590  0.170796  0.371616  1
  Se  Se13  1  0.660419  0.830208  0.848707  1
  Se  Se14  1  0.170796  0.341590  0.628384  1
  Se  Se15  1  0.169792  0.830208  0.848707  1
  Se  Se16  1  0.169792  0.339581  0.848707  1
  Se  Se17  1  0.830208  0.169792  0.151293  1
  Se  Se18  1  0.339581  0.169792  0.151293  1
  Se  Se19  1  0.658410  0.829204  0.628384  1
  Se  Se20  1  0.333333  0.666667  0.143139  1
  Se  Se21  1  0.666667  0.333333  0.620692  1
  Se  Se22  1  0.666667  0.333333  0.856861  1
  Se  Se23  1  0.333333  0.666667  0.379308  1
  Se  Se24  1  0.830208  0.660419  0.151293  1
  Se  Se25  1  0.170796  0.829204  0.628384  1
