# generated using pymatgen
data_Y5Tm15Cd6OsRu
_symmetry_space_group_name_H-M   'P 1'
_cell_length_a   9.50543874
_cell_length_b   9.50543881
_cell_length_c   9.74780400
_cell_angle_alpha   90.00000000
_cell_angle_beta   90.00000000
_cell_angle_gamma   119.83592691
_symmetry_Int_Tables_number   1
_chemical_formula_structural   Y5Tm15Cd6OsRu
_chemical_formula_sum   'Y5 Tm15 Cd6 Os1 Ru1'
_cell_volume   764.00712570
_cell_formula_units_Z   1
loop_
 _symmetry_equiv_pos_site_id
 _symmetry_equiv_pos_as_xyz
  1  'x, y, z'
loop_
 _atom_site_type_symbol
 _atom_site_label
 _atom_site_symmetry_multiplicity
 _atom_site_fract_x
 _atom_site_fract_y
 _atom_site_fract_z
 _atom_site_occupancy
  Y  Y0  1  0.538991  0.461009  0.250000  1
  Y  Y1  1  0.539020  0.077278  0.250000  1
  Y  Y2  1  0.922722  0.460980  0.250000  1
  Y  Y3  1  0.459710  0.919058  0.750000  1
  Y  Y4  1  0.080942  0.540290  0.750000  1
  Tm  Tm5  1  0.999890  0.000110  0.499727  1
  Tm  Tm6  1  0.999890  0.000110  0.000273  1
  Tm  Tm7  1  0.209851  0.790149  0.440931  1
  Tm  Tm8  1  0.210574  0.419925  0.441245  1
  Tm  Tm9  1  0.580075  0.789426  0.441245  1
  Tm  Tm10  1  0.789939  0.210061  0.560020  1
  Tm  Tm11  1  0.789261  0.580229  0.560414  1
  Tm  Tm12  1  0.419771  0.210739  0.560414  1
  Tm  Tm13  1  0.789939  0.210061  0.939980  1
  Tm  Tm14  1  0.789261  0.580229  0.939586  1
  Tm  Tm15  1  0.419771  0.210739  0.939586  1
  Tm  Tm16  1  0.209851  0.790149  0.059069  1
  Tm  Tm17  1  0.210574  0.419925  0.058755  1
  Tm  Tm18  1  0.580075  0.789426  0.058755  1
  Tm  Tm19  1  0.460293  0.539707  0.750000  1
  Cd  Cd20  1  0.886302  0.113698  0.250000  1
  Cd  Cd21  1  0.885454  0.772383  0.250000  1
  Cd  Cd22  1  0.227617  0.114546  0.250000  1
  Cd  Cd23  1  0.113700  0.886300  0.750000  1
  Cd  Cd24  1  0.115817  0.228811  0.750000  1
  Cd  Cd25  1  0.771189  0.884183  0.750000  1
  Os  Os26  1  0.333094  0.666906  0.250000  1
  Ru  Ru27  1  0.666428  0.333572  0.750000  1
