# generated using pymatgen
data_LaSmLu2(NiP)4
_symmetry_space_group_name_H-M   'P 1'
_cell_length_a   3.90971000
_cell_length_b   3.90970898
_cell_length_c   15.64263200
_cell_angle_alpha   90.00000000
_cell_angle_beta   90.00000000
_cell_angle_gamma   120.00000866
_symmetry_Int_Tables_number   1
_chemical_formula_structural   LaSmLu2(NiP)4
_chemical_formula_sum   'La1 Sm1 Lu2 Ni4 P4'
_cell_volume   207.07582430
_cell_formula_units_Z   1
loop_
 _symmetry_equiv_pos_site_id
 _symmetry_equiv_pos_as_xyz
  1  'x, y, z'
loop_
 _atom_site_type_symbol
 _atom_site_label
 _atom_site_symmetry_multiplicity
 _atom_site_fract_x
 _atom_site_fract_y
 _atom_site_fract_z
 _atom_site_occupancy
  La  La0  1  0.000000  0.000000  0.500000  1
  Sm  Sm1  1  0.000000  0.000000  0.000000  1
  Lu  Lu2  1  0.000000  0.000000  0.246421  1
  Lu  Lu3  1  0.000000  0.000000  0.753579  1
  Ni  Ni4  1  0.333333  0.666667  0.357941  1
  Ni  Ni5  1  0.666667  0.333333  0.642059  1
  Ni  Ni6  1  0.666667  0.333333  0.865222  1
  Ni  Ni7  1  0.333333  0.666667  0.134778  1
  P  P8  1  0.333333  0.666667  0.875586  1
  P  P9  1  0.666667  0.333333  0.124414  1
  P  P10  1  0.666667  0.333333  0.367367  1
  P  P11  1  0.333333  0.666667  0.632633  1
