# generated using pymatgen
data_Lu8Ta5Nb4Si16Mo3
_symmetry_space_group_name_H-M   'P 1'
_cell_length_a   6.73376803
_cell_length_b   6.98342740
_cell_length_c   13.22795306
_cell_angle_alpha   89.99764033
_cell_angle_beta   90.01028065
_cell_angle_gamma   89.95198379
_symmetry_Int_Tables_number   1
_chemical_formula_structural   Lu8Ta5Nb4Si16Mo3
_chemical_formula_sum   'Lu8 Ta5 Nb4 Si16 Mo3'
_cell_volume   622.04135508
_cell_formula_units_Z   1
loop_
 _symmetry_equiv_pos_site_id
 _symmetry_equiv_pos_as_xyz
  1  'x, y, z'
loop_
 _atom_site_type_symbol
 _atom_site_label
 _atom_site_symmetry_multiplicity
 _atom_site_fract_x
 _atom_site_fract_y
 _atom_site_fract_z
 _atom_site_occupancy
  Lu  Lu0  1  0.500922  0.327637  0.094464  1
  Lu  Lu1  1  0.000727  0.172545  0.405371  1
  Lu  Lu2  1  0.498724  0.672650  0.594913  1
  Lu  Lu3  1  0.998569  0.827513  0.905569  1
  Lu  Lu4  1  0.498590  0.672685  0.905092  1
  Lu  Lu5  1  0.998384  0.827592  0.594455  1
  Lu  Lu6  1  0.501121  0.327614  0.405556  1
  Lu  Lu7  1  0.000859  0.172507  0.094600  1
  Ta  Ta8  1  0.834408  0.329291  0.625463  1
  Ta  Ta9  1  0.334157  0.171039  0.874757  1
  Ta  Ta10  1  0.165923  0.670149  0.126096  1
  Ta  Ta11  1  0.666358  0.829949  0.373263  1
  Ta  Ta12  1  0.660755  0.007205  0.749925  1
  Nb  Nb13  1  0.166099  0.670161  0.374136  1
  Nb  Nb14  1  0.666620  0.830018  0.126511  1
  Nb  Nb15  1  0.834147  0.329197  0.874820  1
  Nb  Nb16  1  0.334249  0.170883  0.624979  1
  Si  Si17  1  0.666314  0.036215  0.540976  1
  Si  Si18  1  0.166049  0.463013  0.958145  1
  Si  Si19  1  0.334265  0.962907  0.042535  1
  Si  Si20  1  0.834111  0.537072  0.457841  1
  Si  Si21  1  0.334891  0.962871  0.457044  1
  Si  Si22  1  0.834772  0.536962  0.042604  1
  Si  Si23  1  0.665532  0.036046  0.958609  1
  Si  Si24  1  0.165250  0.463034  0.542291  1
  Si  Si25  1  0.532938  0.383179  0.749720  1
  Si  Si26  1  0.037836  0.119213  0.750200  1
  Si  Si27  1  0.465658  0.618274  0.249716  1
  Si  Si28  1  0.966612  0.882147  0.250302  1
  Si  Si29  1  0.797210  0.632638  0.749957  1
  Si  Si30  1  0.293475  0.863601  0.750073  1
  Si  Si31  1  0.202680  0.364718  0.249952  1
  Si  Si32  1  0.702618  0.135576  0.250027  1
  Mo  Mo33  1  0.161076  0.493730  0.750036  1
  Mo  Mo34  1  0.339506  0.994505  0.249960  1
  Mo  Mo35  1  0.838598  0.505665  0.250042  1
