# generated using pymatgen
data_TmLuCo7(P2Ru)3
_symmetry_space_group_name_H-M   'P 1'
_cell_length_a   3.70782000
_cell_length_b   10.40993896
_cell_length_c   11.80922307
_cell_angle_alpha   89.95100360
_cell_angle_beta   90.00000000
_cell_angle_gamma   90.00000000
_symmetry_Int_Tables_number   1
_chemical_formula_structural   TmLuCo7(P2Ru)3
_chemical_formula_sum   'Tm2 Lu2 Co14 P12 Ru6'
_cell_volume   455.81434957
_cell_formula_units_Z   2
loop_
 _symmetry_equiv_pos_site_id
 _symmetry_equiv_pos_as_xyz
  1  'x, y, z'
loop_
 _atom_site_type_symbol
 _atom_site_label
 _atom_site_symmetry_multiplicity
 _atom_site_fract_x
 _atom_site_fract_y
 _atom_site_fract_z
 _atom_site_occupancy
  Tm  Tm0  1  0.250000  0.913471  0.205622  1
  Tm  Tm1  1  0.750000  0.085080  0.791848  1
  Lu  Lu2  1  0.250000  0.586344  0.705511  1
  Lu  Lu3  1  0.750000  0.415119  0.291972  1
  Co  Co4  1  0.750000  0.597019  0.514582  1
  Co  Co5  1  0.750000  0.902663  0.013709  1
  Co  Co6  1  0.250000  0.226295  0.179847  1
  Co  Co7  1  0.250000  0.274559  0.679719  1
  Co  Co8  1  0.750000  0.776063  0.821670  1
  Co  Co9  1  0.750000  0.723178  0.322016  1
  Co  Co10  1  0.250000  0.883892  0.700704  1
  Co  Co11  1  0.250000  0.615394  0.200814  1
  Co  Co12  1  0.750000  0.113946  0.298246  1
  Co  Co13  1  0.750000  0.387040  0.797917  1
  Co  Co14  1  0.250000  0.465089  0.930601  1
  Co  Co15  1  0.250000  0.035366  0.430734  1
  Co  Co16  1  0.750000  0.537879  0.068353  1
  Co  Co17  1  0.750000  0.961581  0.568310  1
  P  P18  1  0.250000  0.422938  0.113134  1
  P  P19  1  0.250000  0.077128  0.612700  1
  P  P20  1  0.750000  0.578967  0.885980  1
  P  P21  1  0.750000  0.921058  0.386420  1
  P  P22  1  0.250000  0.271738  0.866385  1
  P  P23  1  0.250000  0.228972  0.366146  1
  P  P24  1  0.750000  0.731094  0.132861  1
  P  P25  1  0.750000  0.768201  0.633160  1
  P  P26  1  0.250000  0.599799  0.386102  1
  P  P27  1  0.250000  0.899957  0.886386  1
  P  P28  1  0.750000  0.403798  0.613188  1
  P  P29  1  0.750000  0.096739  0.113103  1
  Ru  Ru30  1  0.250000  0.713983  0.989434  1
  Ru  Ru31  1  0.250000  0.785441  0.489363  1
  Ru  Ru32  1  0.750000  0.290453  0.013446  1
  Ru  Ru33  1  0.750000  0.209919  0.513745  1
  Ru  Ru34  1  0.250000  0.409118  0.487881  1
  Ru  Ru35  1  0.250000  0.090716  0.988384  1
