# generated using pymatgen
data_Ta3Ti10NbP8
_symmetry_space_group_name_H-M   'P 1'
_cell_length_a   7.58854272
_cell_length_b   7.58854245
_cell_length_c   13.66682513
_cell_angle_alpha   75.80196162
_cell_angle_beta   75.80196121
_cell_angle_gamma   25.95825631
_symmetry_Int_Tables_number   1
_chemical_formula_structural   Ta3Ti10NbP8
_chemical_formula_sum   'Ta3 Ti10 Nb1 P8'
_cell_volume   333.39912235
_cell_formula_units_Z   1
loop_
 _symmetry_equiv_pos_site_id
 _symmetry_equiv_pos_as_xyz
  1  'x, y, z'
loop_
 _atom_site_type_symbol
 _atom_site_label
 _atom_site_symmetry_multiplicity
 _atom_site_fract_x
 _atom_site_fract_y
 _atom_site_fract_z
 _atom_site_occupancy
  Ta  Ta0  1  0.999986  0.999986  0.999963  1
  Ta  Ta1  1  0.500014  0.500014  0.500164  1
  Ta  Ta2  1  0.572291  0.572291  0.826556  1
  Ti  Ti3  1  0.197831  0.197831  0.689963  1
  Ti  Ti4  1  0.802612  0.802612  0.309677  1
  Ti  Ti5  1  0.207149  0.207149  0.206044  1
  Ti  Ti6  1  0.792290  0.792290  0.794200  1
  Ti  Ti7  1  0.339386  0.339386  0.968566  1
  Ti  Ti8  1  0.660633  0.660633  0.031262  1
  Ti  Ti9  1  0.003509  0.003509  0.337204  1
  Ti  Ti10  1  0.997026  0.997026  0.663129  1
  Ti  Ti11  1  0.177457  0.177457  0.459157  1
  Ti  Ti12  1  0.822834  0.822834  0.540944  1
  Nb  Nb13  1  0.427246  0.427246  0.173585  1
  P  P14  1  0.180372  0.180372  0.890059  1
  P  P15  1  0.818633  0.818633  0.109416  1
  P  P16  1  0.372620  0.372620  0.394895  1
  P  P17  1  0.627322  0.627322  0.605308  1
  P  P18  1  0.368802  0.368802  0.660250  1
  P  P19  1  0.631533  0.631533  0.340078  1
  P  P20  1  0.064523  0.064523  0.153292  1
  P  P21  1  0.935931  0.935931  0.846290  1
