# generated using pymatgen
data_Hf8In4Co2Cu5Ni
_symmetry_space_group_name_H-M   'P 1'
_cell_length_a   7.20013588
_cell_length_b   7.20013487
_cell_length_c   6.71573191
_cell_angle_alpha   89.97043551
_cell_angle_beta   89.97043572
_cell_angle_gamma   90.48969643
_symmetry_Int_Tables_number   1
_chemical_formula_structural   Hf8In4Co2Cu5Ni
_chemical_formula_sum   'Hf8 In4 Co2 Cu5 Ni1'
_cell_volume   348.14382473
_cell_formula_units_Z   1
loop_
 _symmetry_equiv_pos_site_id
 _symmetry_equiv_pos_as_xyz
  1  'x, y, z'
loop_
 _atom_site_type_symbol
 _atom_site_label
 _atom_site_symmetry_multiplicity
 _atom_site_fract_x
 _atom_site_fract_y
 _atom_site_fract_z
 _atom_site_occupancy
  Hf  Hf0  1  0.149980  0.149980  0.003978  1
  Hf  Hf1  1  0.830494  0.830494  0.998241  1
  Hf  Hf2  1  0.654003  0.355826  0.495990  1
  Hf  Hf3  1  0.355826  0.654003  0.495990  1
  Hf  Hf4  1  0.680057  0.337466  0.004378  1
  Hf  Hf5  1  0.337466  0.680057  0.004378  1
  Hf  Hf6  1  0.805231  0.805231  0.500803  1
  Hf  Hf7  1  0.189991  0.189991  0.494187  1
  In  In8  1  0.501090  0.005328  0.247324  1
  In  In9  1  0.499157  0.002807  0.751598  1
  In  In10  1  0.005328  0.501090  0.247324  1
  In  In11  1  0.002807  0.499157  0.751598  1
  Co  Co12  1  0.622810  0.622810  0.770569  1
  Co  Co13  1  0.627063  0.627063  0.227642  1
  Cu  Cu14  1  0.875505  0.123250  0.712334  1
  Cu  Cu15  1  0.874549  0.121825  0.287576  1
  Cu  Cu16  1  0.372090  0.372090  0.790021  1
  Cu  Cu17  1  0.121825  0.874549  0.287576  1
  Cu  Cu18  1  0.123250  0.875505  0.712334  1
  Ni  Ni19  1  0.371479  0.371479  0.216157  1
