# generated using pymatgen
data_Tb3Lu3Th2(CdIr)2
_symmetry_space_group_name_H-M   'P 1'
_cell_length_a   9.68514062
_cell_length_b   9.68514133
_cell_length_c   9.68514200
_cell_angle_alpha   60.00000453
_cell_angle_beta   60.00000213
_cell_angle_gamma   59.99999988
_symmetry_Int_Tables_number   1
_chemical_formula_structural   Tb3Lu3Th2(CdIr)2
_chemical_formula_sum   'Tb6 Lu6 Th4 Cd4 Ir4'
_cell_volume   642.39612039
_cell_formula_units_Z   2
loop_
 _symmetry_equiv_pos_site_id
 _symmetry_equiv_pos_as_xyz
  1  'x, y, z'
loop_
 _atom_site_type_symbol
 _atom_site_label
 _atom_site_symmetry_multiplicity
 _atom_site_fract_x
 _atom_site_fract_y
 _atom_site_fract_z
 _atom_site_occupancy
  Tb  Tb0  1  0.186968  0.813032  0.813032  1
  Tb  Tb1  1  0.813032  0.186968  0.186968  1
  Tb  Tb2  1  0.813032  0.186968  0.813032  1
  Tb  Tb3  1  0.186968  0.813032  0.186968  1
  Tb  Tb4  1  0.813032  0.813032  0.186968  1
  Tb  Tb5  1  0.186968  0.186968  0.813032  1
  Lu  Lu6  1  0.065036  0.434964  0.434964  1
  Lu  Lu7  1  0.434964  0.065036  0.065036  1
  Lu  Lu8  1  0.434964  0.065036  0.434964  1
  Lu  Lu9  1  0.065036  0.434964  0.065036  1
  Lu  Lu10  1  0.434964  0.434964  0.065036  1
  Lu  Lu11  1  0.065036  0.065036  0.434964  1
  Th  Th12  1  0.600344  0.600344  0.600344  1
  Th  Th13  1  0.600344  0.600344  0.198968  1
  Th  Th14  1  0.600344  0.198968  0.600344  1
  Th  Th15  1  0.198968  0.600344  0.600344  1
  Cd  Cd16  1  0.832264  0.832264  0.832264  1
  Cd  Cd17  1  0.832264  0.832264  0.503207  1
  Cd  Cd18  1  0.832264  0.503207  0.832264  1
  Cd  Cd19  1  0.503207  0.832264  0.832264  1
  Ir  Ir20  1  0.392289  0.392289  0.392289  1
  Ir  Ir21  1  0.392289  0.392289  0.823133  1
  Ir  Ir22  1  0.392289  0.823133  0.392289  1
  Ir  Ir23  1  0.823133  0.392289  0.392289  1
