# generated using pymatgen
data_Zr3AlAs
_symmetry_space_group_name_H-M   'P 1'
_cell_length_a   7.31366300
_cell_length_b   7.31576900
_cell_length_c   3.71315200
_cell_angle_alpha   90.00000000
_cell_angle_beta   90.00000000
_cell_angle_gamma   90.00000000
_symmetry_Int_Tables_number   1
_chemical_formula_structural   Zr3AlAs
_chemical_formula_sum   'Zr6 Al2 As2'
_cell_volume   198.67245416
_cell_formula_units_Z   2
loop_
 _symmetry_equiv_pos_site_id
 _symmetry_equiv_pos_as_xyz
  1  'x, y, z'
loop_
 _atom_site_type_symbol
 _atom_site_label
 _atom_site_symmetry_multiplicity
 _atom_site_fract_x
 _atom_site_fract_y
 _atom_site_fract_z
 _atom_site_occupancy
  Zr  Zr0  1  0.001264  0.003283  0.000000  1
  Zr  Zr1  1  0.501264  0.496717  0.000000  1
  Zr  Zr2  1  0.671004  0.177324  0.500000  1
  Zr  Zr3  1  0.171004  0.322676  0.500000  1
  Zr  Zr4  1  0.825149  0.666351  0.500000  1
  Zr  Zr5  1  0.325149  0.833649  0.500000  1
  Al  Al6  1  0.627285  0.872017  0.000000  1
  Al  Al7  1  0.127285  0.627983  0.000000  1
  As  As8  1  0.875298  0.375204  0.000000  1
  As  As9  1  0.375298  0.124796  0.000000  1
