# generated using pymatgen
data_Dy5Zr3(P3Ir4)4
_symmetry_space_group_name_H-M   'P 1'
_cell_length_a   12.88258100
_cell_length_b   12.88258176
_cell_length_c   3.98962900
_cell_angle_alpha   90.00000000
_cell_angle_beta   90.00000000
_cell_angle_gamma   120.00000062
_symmetry_Int_Tables_number   1
_chemical_formula_structural   Dy5Zr3(P3Ir4)4
_chemical_formula_sum   'Dy5 Zr3 P12 Ir16'
_cell_volume   573.41484249
_cell_formula_units_Z   1
loop_
 _symmetry_equiv_pos_site_id
 _symmetry_equiv_pos_as_xyz
  1  'x, y, z'
loop_
 _atom_site_type_symbol
 _atom_site_label
 _atom_site_symmetry_multiplicity
 _atom_site_fract_x
 _atom_site_fract_y
 _atom_site_fract_z
 _atom_site_occupancy
  Dy  Dy0  1  0.333333  0.666667  0.500000  1
  Dy  Dy1  1  0.666667  0.333333  0.500000  1
  Dy  Dy2  1  0.000000  0.815133  0.000000  1
  Dy  Dy3  1  0.184867  0.184867  0.000000  1
  Dy  Dy4  1  0.815133  0.000000  0.000000  1
  Zr  Zr5  1  0.000000  0.449286  0.500000  1
  Zr  Zr6  1  0.550714  0.550714  0.500000  1
  Zr  Zr7  1  0.449286  0.000000  0.500000  1
  P  P8  1  0.000000  0.649454  0.500000  1
  P  P9  1  0.350546  0.350546  0.500000  1
  P  P10  1  0.649454  0.000000  0.500000  1
  P  P11  1  0.517126  0.686537  0.000000  1
  P  P12  1  0.313463  0.830589  0.000000  1
  P  P13  1  0.169411  0.482874  0.000000  1
  P  P14  1  0.482874  0.169411  0.000000  1
  P  P15  1  0.686537  0.517126  0.000000  1
  P  P16  1  0.830589  0.313463  0.000000  1
  P  P17  1  0.000000  0.176062  0.500000  1
  P  P18  1  0.823938  0.823938  0.500000  1
  P  P19  1  0.176062  0.000000  0.500000  1
  Ir  Ir20  1  0.507645  0.863981  0.000000  1
  Ir  Ir21  1  0.136019  0.643665  0.000000  1
  Ir  Ir22  1  0.356335  0.492355  0.000000  1
  Ir  Ir23  1  0.492355  0.356335  0.000000  1
  Ir  Ir24  1  0.863981  0.507645  0.000000  1
  Ir  Ir25  1  0.643665  0.136019  0.000000  1
  Ir  Ir26  1  0.000000  0.278879  0.000000  1
  Ir  Ir27  1  0.721121  0.721121  0.000000  1
  Ir  Ir28  1  0.278879  0.000000  0.000000  1
  Ir  Ir29  1  0.628902  0.807038  0.500000  1
  Ir  Ir30  1  0.192962  0.821864  0.500000  1
  Ir  Ir31  1  0.178136  0.371098  0.500000  1
  Ir  Ir32  1  0.371098  0.178136  0.500000  1
  Ir  Ir33  1  0.807038  0.628902  0.500000  1
  Ir  Ir34  1  0.821864  0.192962  0.500000  1
  Ir  Ir35  1  0.000000  0.000000  0.500000  1
