# generated using pymatgen
data_BaSr(CuSn2)2
_symmetry_space_group_name_H-M   'P 1'
_cell_length_a   9.95957496
_cell_length_b   9.95957575
_cell_length_c   4.70789200
_cell_angle_alpha   90.00000000
_cell_angle_beta   90.00000000
_cell_angle_gamma   152.27628010
_symmetry_Int_Tables_number   1
_chemical_formula_structural   BaSr(CuSn2)2
_chemical_formula_sum   'Ba1 Sr1 Cu2 Sn4'
_cell_volume   217.24801824
_cell_formula_units_Z   1
loop_
 _symmetry_equiv_pos_site_id
 _symmetry_equiv_pos_as_xyz
  1  'x, y, z'
loop_
 _atom_site_type_symbol
 _atom_site_label
 _atom_site_symmetry_multiplicity
 _atom_site_fract_x
 _atom_site_fract_y
 _atom_site_fract_z
 _atom_site_occupancy
  Ba  Ba0  1  0.609523  0.390477  0.750000  1
  Sr  Sr1  1  0.391078  0.608922  0.250000  1
  Cu  Cu2  1  0.820859  0.179141  0.750000  1
  Cu  Cu3  1  0.178709  0.821291  0.250000  1
  Sn  Sn4  1  0.754115  0.245885  0.250000  1
  Sn  Sn5  1  0.041195  0.958805  0.250000  1
  Sn  Sn6  1  0.249980  0.750020  0.750000  1
  Sn  Sn7  1  0.954541  0.045459  0.750000  1
