# generated using pymatgen
data_Dy4Hf3ReF28
_symmetry_space_group_name_H-M   'P 1'
_cell_length_a   5.67667895
_cell_length_b   9.01422119
_cell_length_c   12.13365526
_cell_angle_alpha   62.42222983
_cell_angle_beta   89.95214772
_cell_angle_gamma   89.95677158
_symmetry_Int_Tables_number   1
_chemical_formula_structural   Dy4Hf3ReF28
_chemical_formula_sum   'Dy4 Hf3 Re1 F28'
_cell_volume   550.34566988
_cell_formula_units_Z   1
loop_
 _symmetry_equiv_pos_site_id
 _symmetry_equiv_pos_as_xyz
  1  'x, y, z'
loop_
 _atom_site_type_symbol
 _atom_site_label
 _atom_site_symmetry_multiplicity
 _atom_site_fract_x
 _atom_site_fract_y
 _atom_site_fract_z
 _atom_site_occupancy
  Dy  Dy0  1  0.757733  0.815337  0.765116  1
  Dy  Dy1  1  0.256663  0.185513  0.732630  1
  Dy  Dy2  1  0.241676  0.185115  0.237097  1
  Dy  Dy3  1  0.743348  0.814168  0.266530  1
  Hf  Hf4  1  0.755904  0.273424  0.956434  1
  Hf  Hf5  1  0.256571  0.725708  0.544095  1
  Hf  Hf6  1  0.244373  0.725883  0.044534  1
  Re  Re7  1  0.741372  0.273278  0.455679  1
  F  F8  1  0.460583  0.709661  0.920120  1
  F  F9  1  0.940997  0.292519  0.582195  1
  F  F10  1  0.537375  0.289333  0.080071  1
  F  F11  1  0.040907  0.710701  0.419513  1
  F  F12  1  0.446836  0.277631  0.543852  1
  F  F13  1  0.951240  0.723548  0.950912  1
  F  F14  1  0.550073  0.719422  0.452482  1
  F  F15  1  0.047622  0.276372  0.050694  1
  F  F16  1  0.773835  0.523272  0.860479  1
  F  F17  1  0.270198  0.475439  0.639189  1
  F  F18  1  0.224764  0.476043  0.141350  1
  F  F19  1  0.729349  0.520575  0.358187  1
  F  F20  1  0.758674  0.023857  0.057983  1
  F  F21  1  0.260783  0.975322  0.444115  1
  F  F22  1  0.242433  0.975103  0.941293  1
  F  F23  1  0.742610  0.026234  0.551811  1
  F  F24  1  0.982571  0.731260  0.646572  1
  F  F25  1  0.485076  0.267531  0.852363  1
  F  F26  1  0.025081  0.271001  0.360871  1
  F  F27  1  0.517862  0.731946  0.146640  1
  F  F28  1  0.038976  0.747830  0.172153  1
  F  F29  1  0.546892  0.255869  0.325344  1
  F  F30  1  0.965778  0.253095  0.829323  1
  F  F31  1  0.463890  0.745017  0.672338  1
  F  F32  1  0.422630  0.971666  0.234978  1
  F  F33  1  0.921733  0.028844  0.268658  1
  F  F34  1  0.576595  0.029656  0.763949  1
  F  F35  1  0.076997  0.972827  0.730454  1
