# generated using pymatgen
data_Ho2Er8Sn5Bi
_symmetry_space_group_name_H-M   'P 1'
_cell_length_a   8.91236277
_cell_length_b   8.90938744
_cell_length_c   6.48334300
_cell_angle_alpha   90.00000000
_cell_angle_beta   90.00000000
_cell_angle_gamma   119.73568295
_symmetry_Int_Tables_number   1
_chemical_formula_structural   Ho2Er8Sn5Bi
_chemical_formula_sum   'Ho2 Er8 Sn5 Bi1'
_cell_volume   447.01376322
_cell_formula_units_Z   1
loop_
 _symmetry_equiv_pos_site_id
 _symmetry_equiv_pos_as_xyz
  1  'x, y, z'
loop_
 _atom_site_type_symbol
 _atom_site_label
 _atom_site_symmetry_multiplicity
 _atom_site_fract_x
 _atom_site_fract_y
 _atom_site_fract_z
 _atom_site_occupancy
  Ho  Ho0  1  0.993850  0.758295  0.750000  1
  Ho  Ho1  1  0.765273  0.999922  0.750000  1
  Er  Er2  1  0.000558  0.238561  0.250000  1
  Er  Er3  1  0.761538  0.760971  0.250000  1
  Er  Er4  1  0.236171  0.242810  0.750000  1
  Er  Er5  1  0.237228  0.000111  0.250000  1
  Er  Er6  1  0.332261  0.662354  0.498208  1
  Er  Er7  1  0.671229  0.337519  0.001905  1
  Er  Er8  1  0.671229  0.337519  0.498095  1
  Er  Er9  1  0.332261  0.662354  0.001792  1
  Sn  Sn10  1  0.394215  0.392020  0.250000  1
  Sn  Sn11  1  0.002535  0.606738  0.250000  1
  Sn  Sn12  1  0.999228  0.396110  0.750000  1
  Sn  Sn13  1  0.604141  0.604766  0.750000  1
  Sn  Sn14  1  0.605341  0.000096  0.250000  1
  Bi  Bi15  1  0.392938  0.999853  0.750000  1
