# generated using pymatgen
data_Dy11Lu(Si3Ir)4
_symmetry_space_group_name_H-M   'P 1'
_cell_length_a   4.23541400
_cell_length_b   10.63224311
_cell_length_c   12.28878174
_cell_angle_alpha   89.89493527
_cell_angle_beta   90.00000000
_cell_angle_gamma   90.00000000
_symmetry_Int_Tables_number   1
_chemical_formula_structural   Dy11Lu(Si3Ir)4
_chemical_formula_sum   'Dy11 Lu1 Si12 Ir4'
_cell_volume   553.38689096
_cell_formula_units_Z   1
loop_
 _symmetry_equiv_pos_site_id
 _symmetry_equiv_pos_as_xyz
  1  'x, y, z'
loop_
 _atom_site_type_symbol
 _atom_site_label
 _atom_site_symmetry_multiplicity
 _atom_site_fract_x
 _atom_site_fract_y
 _atom_site_fract_z
 _atom_site_occupancy
  Dy  Dy0  1  0.250000  0.881087  0.019605  1
  Dy  Dy1  1  0.250000  0.619121  0.520148  1
  Dy  Dy2  1  0.750000  0.119716  0.978361  1
  Dy  Dy3  1  0.750000  0.378468  0.480902  1
  Dy  Dy4  1  0.250000  0.919509  0.603558  1
  Dy  Dy5  1  0.250000  0.581453  0.103426  1
  Dy  Dy6  1  0.750000  0.081037  0.398023  1
  Dy  Dy7  1  0.750000  0.418044  0.895777  1
  Dy  Dy8  1  0.250000  0.658762  0.800941  1
  Dy  Dy9  1  0.250000  0.842111  0.301144  1
  Dy  Dy10  1  0.750000  0.340268  0.198999  1
  Lu  Lu11  1  0.750000  0.159693  0.700627  1
  Si  Si12  1  0.250000  0.011654  0.819699  1
  Si  Si13  1  0.250000  0.489326  0.321216  1
  Si  Si14  1  0.750000  0.991127  0.179221  1
  Si  Si15  1  0.750000  0.510365  0.678654  1
  Si  Si16  1  0.250000  0.245559  0.839376  1
  Si  Si17  1  0.250000  0.252941  0.341865  1
  Si  Si18  1  0.750000  0.754397  0.159338  1
  Si  Si19  1  0.750000  0.746015  0.658889  1
  Si  Si20  1  0.250000  0.199304  0.547280  1
  Si  Si21  1  0.250000  0.298408  0.042746  1
  Si  Si22  1  0.750000  0.798162  0.456731  1
  Si  Si23  1  0.750000  0.702137  0.956038  1
  Ir  Ir24  1  0.250000  0.388315  0.680935  1
  Ir  Ir25  1  0.250000  0.110912  0.181124  1
  Ir  Ir26  1  0.750000  0.610531  0.318921  1
  Ir  Ir27  1  0.750000  0.891578  0.816455  1
