# generated using pymatgen
data_CsMn8O16
_symmetry_space_group_name_H-M   'P 1'
_cell_length_a   5.90399784
_cell_length_b   7.17334124
_cell_length_c   7.16555600
_cell_angle_alpha   87.81534572
_cell_angle_beta   77.98286695
_cell_angle_gamma   77.67282664
_symmetry_Int_Tables_number   1
_chemical_formula_structural   CsMn8O16
_chemical_formula_sum   'Cs1 Mn8 O16'
_cell_volume   289.97107362
_cell_formula_units_Z   1
loop_
 _symmetry_equiv_pos_site_id
 _symmetry_equiv_pos_as_xyz
  1  'x, y, z'
loop_
 _atom_site_type_symbol
 _atom_site_label
 _atom_site_symmetry_multiplicity
 _atom_site_fract_x
 _atom_site_fract_y
 _atom_site_fract_z
 _atom_site_occupancy
  Cs  Cs0  1  0.010891  0.000920  0.998067  1
  Mn  Mn1  1  0.580195  0.513576  0.183075  1
  Mn  Mn2  1  0.080503  0.510328  0.183723  1
  Mn  Mn3  1  0.171492  0.816693  0.513069  1
  Mn  Mn4  1  0.671398  0.817412  0.514580  1
  Mn  Mn5  1  0.338934  0.181424  0.479453  1
  Mn  Mn6  1  0.835646  0.182126  0.487150  1
  Mn  Mn7  1  0.428939  0.487282  0.816576  1
  Mn  Mn8  1  0.926361  0.491277  0.815583  1
  O  O9  1  0.827843  0.641662  0.059127  1
  O  O10  1  0.329601  0.639728  0.055713  1
  O  O11  1  0.984378  0.701743  0.381232  1
  O  O12  1  0.483500  0.703428  0.380618  1
  O  O13  1  0.854162  0.951040  0.640653  1
  O  O14  1  0.357160  0.952591  0.635925  1
  O  O15  1  0.341141  0.371546  0.286069  1
  O  O16  1  0.839351  0.370576  0.287893  1
  O  O17  1  0.168820  0.630405  0.712677  1
  O  O18  1  0.666417  0.629151  0.711700  1
  O  O19  1  0.147951  0.043729  0.359899  1
  O  O20  1  0.660174  0.042390  0.358430  1
  O  O21  1  0.022649  0.297620  0.620482  1
  O  O22  1  0.524484  0.297747  0.620521  1
  O  O23  1  0.177682  0.362491  0.949106  1
  O  O24  1  0.677429  0.363111  0.948672  1
