# generated using pymatgen
data_Ti13Be4Al5Co8
_symmetry_space_group_name_H-M   'P 1'
_cell_length_a   8.32567502
_cell_length_b   8.32567503
_cell_length_c   8.32567626
_cell_angle_alpha   59.84026189
_cell_angle_beta   59.84026115
_cell_angle_gamma   59.84026762
_symmetry_Int_Tables_number   1
_chemical_formula_structural   Ti13Be4Al5Co8
_chemical_formula_sum   'Ti13 Be4 Al5 Co8'
_cell_volume   406.59885060
_cell_formula_units_Z   1
loop_
 _symmetry_equiv_pos_site_id
 _symmetry_equiv_pos_as_xyz
  1  'x, y, z'
loop_
 _atom_site_type_symbol
 _atom_site_label
 _atom_site_symmetry_multiplicity
 _atom_site_fract_x
 _atom_site_fract_y
 _atom_site_fract_z
 _atom_site_occupancy
  Ti  Ti0  1  0.209070  0.209070  0.795218  1
  Ti  Ti1  1  0.795218  0.209070  0.209070  1
  Ti  Ti2  1  0.209070  0.795218  0.209070  1
  Ti  Ti3  1  0.802879  0.802879  0.179162  1
  Ti  Ti4  1  0.179162  0.802879  0.802879  1
  Ti  Ti5  1  0.802879  0.179162  0.802879  1
  Ti  Ti6  1  0.372102  0.372102  0.372102  1
  Ti  Ti7  1  0.373415  0.885780  0.373415  1
  Ti  Ti8  1  0.885780  0.373415  0.373415  1
  Ti  Ti9  1  0.373415  0.373415  0.885780  1
  Ti  Ti10  1  0.841999  0.468920  0.841999  1
  Ti  Ti11  1  0.468920  0.841999  0.841999  1
  Ti  Ti12  1  0.841999  0.841999  0.468920  1
  Be  Be13  1  0.155034  0.155034  0.155034  1
  Be  Be14  1  0.158875  0.531435  0.158875  1
  Be  Be15  1  0.531435  0.158875  0.158875  1
  Be  Be16  1  0.158875  0.158875  0.531435  1
  Al  Al17  1  0.615993  0.615993  0.615993  1
  Al  Al18  1  0.616829  0.149957  0.616829  1
  Al  Al19  1  0.149957  0.616829  0.616829  1
  Al  Al20  1  0.616829  0.616829  0.149957  1
  Al  Al21  1  0.826774  0.826774  0.826774  1
  Co  Co22  1  0.009149  0.009149  0.493525  1
  Co  Co23  1  0.493525  0.009149  0.009149  1
  Co  Co24  1  0.009149  0.493525  0.009149  1
  Co  Co25  1  0.494668  0.494668  0.006939  1
  Co  Co26  1  0.006939  0.494668  0.494668  1
  Co  Co27  1  0.494668  0.006939  0.494668  1
  Co  Co28  1  0.499771  0.499771  0.499771  1
  Co  Co29  1  0.005619  0.005619  0.005619  1
