# generated using pymatgen
data_NdYEr4Ta2O14
_symmetry_space_group_name_H-M   'P 1'
_cell_length_a   6.45153054
_cell_length_b   6.45153206
_cell_length_c   7.52106055
_cell_angle_alpha   89.86774580
_cell_angle_beta   90.13225343
_cell_angle_gamma   109.17357500
_symmetry_Int_Tables_number   1
_chemical_formula_structural   NdYEr4Ta2O14
_chemical_formula_sum   'Nd1 Y1 Er4 Ta2 O14'
_cell_volume   295.67715559
_cell_formula_units_Z   1
loop_
 _symmetry_equiv_pos_site_id
 _symmetry_equiv_pos_as_xyz
  1  'x, y, z'
loop_
 _atom_site_type_symbol
 _atom_site_label
 _atom_site_symmetry_multiplicity
 _atom_site_fract_x
 _atom_site_fract_y
 _atom_site_fract_z
 _atom_site_occupancy
  Nd  Nd0  1  0.500000  0.500000  0.500000  1
  Y  Y1  1  0.500000  0.500000  0.000000  1
  Er  Er2  1  0.533805  0.001247  0.752793  1
  Er  Er3  1  0.001247  0.533805  0.247207  1
  Er  Er4  1  0.466195  0.998753  0.247207  1
  Er  Er5  1  0.998753  0.466195  0.752793  1
  Ta  Ta6  1  0.000000  0.000000  0.500000  1
  Ta  Ta7  1  0.000000  0.000000  0.000000  1
  O  O8  1  0.677786  0.930392  0.465949  1
  O  O9  1  0.930392  0.677786  0.534051  1
  O  O10  1  0.678566  0.929858  0.033181  1
  O  O11  1  0.929858  0.678566  0.966819  1
  O  O12  1  0.322214  0.069608  0.534051  1
  O  O13  1  0.069608  0.322214  0.465949  1
  O  O14  1  0.321434  0.070142  0.966819  1
  O  O15  1  0.070142  0.321434  0.033181  1
  O  O16  1  0.932452  0.067548  0.749855  1
  O  O17  1  0.067548  0.932452  0.250145  1
  O  O18  1  0.365634  0.634366  0.758164  1
  O  O19  1  0.634366  0.365634  0.241836  1
  O  O20  1  0.641747  0.358253  0.757537  1
  O  O21  1  0.358253  0.641747  0.242463  1
