# generated using pymatgen
data_AlV17(Si6Tc)2
_symmetry_space_group_name_H-M   'P 1'
_cell_length_a   7.06243363
_cell_length_b   7.06264639
_cell_length_c   13.28718100
_cell_angle_alpha   90.00000000
_cell_angle_beta   90.00000000
_cell_angle_gamma   140.51497247
_symmetry_Int_Tables_number   1
_chemical_formula_structural   AlV17(Si6Tc)2
_chemical_formula_sum   'Al1 V17 Si12 Tc2'
_cell_volume   421.43199922
_cell_formula_units_Z   1
loop_
 _symmetry_equiv_pos_site_id
 _symmetry_equiv_pos_as_xyz
  1  'x, y, z'
loop_
 _atom_site_type_symbol
 _atom_site_label
 _atom_site_symmetry_multiplicity
 _atom_site_fract_x
 _atom_site_fract_y
 _atom_site_fract_z
 _atom_site_occupancy
  Al  Al0  1  0.501201  0.501158  0.000000  1
  V  V1  1  0.072386  0.421847  0.399470  1
  V  V2  1  0.570042  0.924425  0.898520  1
  V  V3  1  0.421891  0.072360  0.600495  1
  V  V4  1  0.924370  0.570140  0.101549  1
  V  V5  1  0.852636  0.651886  0.675194  1
  V  V6  1  0.355303  0.151832  0.177051  1
  V  V7  1  0.651878  0.852778  0.324803  1
  V  V8  1  0.151927  0.355147  0.823015  1
  V  V9  1  0.651878  0.852778  0.675197  1
  V  V10  1  0.151927  0.355147  0.176985  1
  V  V11  1  0.852636  0.651886  0.324806  1
  V  V12  1  0.355303  0.151832  0.822949  1
  V  V13  1  0.421891  0.072360  0.399505  1
  V  V14  1  0.924370  0.570140  0.898451  1
  V  V15  1  0.072386  0.421847  0.600530  1
  V  V16  1  0.570042  0.924425  0.101480  1
  V  V17  1  0.998483  0.998423  0.500000  1
  Si  Si18  1  0.250039  0.750452  0.749323  1
  Si  Si19  1  0.749997  0.249714  0.250686  1
  Si  Si20  1  0.749997  0.249714  0.749314  1
  Si  Si21  1  0.250039  0.750452  0.250677  1
  Si  Si22  1  0.246252  0.246077  0.667219  1
  Si  Si23  1  0.755532  0.755615  0.167046  1
  Si  Si24  1  0.246252  0.246077  0.332781  1
  Si  Si25  1  0.755532  0.755615  0.832954  1
  Si  Si26  1  0.584223  0.919484  0.500000  1
  Si  Si27  1  0.079551  0.412240  0.000000  1
  Si  Si28  1  0.919473  0.584263  0.500000  1
  Si  Si29  1  0.412292  0.079643  0.000000  1
  Tc  Tc30  1  0.499098  0.499077  0.500000  1
  Tc  Tc31  1  0.001171  0.001167  0.000000  1
