# generated using pymatgen
data_La2Pr14Cd4IrPt3
_symmetry_space_group_name_H-M   'P 1'
_cell_length_a   10.12298752
_cell_length_b   10.08959218
_cell_length_c   10.09901300
_cell_angle_alpha   59.96878603
_cell_angle_beta   60.07840716
_cell_angle_gamma   60.03119340
_symmetry_Int_Tables_number   1
_chemical_formula_structural   La2Pr14Cd4IrPt3
_chemical_formula_sum   'La2 Pr14 Cd4 Ir1 Pt3'
_cell_volume   729.79789859
_cell_formula_units_Z   1
loop_
 _symmetry_equiv_pos_site_id
 _symmetry_equiv_pos_as_xyz
  1  'x, y, z'
loop_
 _atom_site_type_symbol
 _atom_site_label
 _atom_site_symmetry_multiplicity
 _atom_site_fract_x
 _atom_site_fract_y
 _atom_site_fract_z
 _atom_site_occupancy
  La  La0  1  0.351913  0.346567  0.347113  1
  La  La1  1  0.351935  0.346568  0.954395  1
  Pr  Pr2  1  0.352582  0.948095  0.349659  1
  Pr  Pr3  1  0.942894  0.352333  0.352387  1
  Pr  Pr4  1  0.807448  0.189777  0.190426  1
  Pr  Pr5  1  0.191614  0.809702  0.807644  1
  Pr  Pr6  1  0.191614  0.809701  0.191043  1
  Pr  Pr7  1  0.807443  0.189774  0.812352  1
  Pr  Pr8  1  0.191801  0.190465  0.808870  1
  Pr  Pr9  1  0.805956  0.813633  0.190206  1
  Pr  Pr10  1  0.939314  0.562057  0.563732  1
  Pr  Pr11  1  0.564204  0.937703  0.935513  1
  Pr  Pr12  1  0.564205  0.937700  0.562580  1
  Pr  Pr13  1  0.939315  0.562059  0.934895  1
  Pr  Pr14  1  0.565116  0.561890  0.936499  1
  Pr  Pr15  1  0.937723  0.936285  0.562998  1
  Cd  Cd16  1  0.580540  0.581206  0.579684  1
  Cd  Cd17  1  0.580541  0.581205  0.258570  1
  Cd  Cd18  1  0.581172  0.257969  0.580426  1
  Cd  Cd19  1  0.258916  0.581038  0.580023  1
  Ir  Ir20  1  0.569695  0.144933  0.142685  1
  Pt  Pt21  1  0.141485  0.144191  0.144379  1
  Pt  Pt22  1  0.141479  0.144193  0.569949  1
  Pt  Pt23  1  0.141094  0.570956  0.143971  1
