# generated using pymatgen
data_Sc4Al15Si3OsRh5
_symmetry_space_group_name_H-M   'P 1'
_cell_length_a   7.43190112
_cell_length_b   7.41159820
_cell_length_c   9.20087497
_cell_angle_alpha   89.96648112
_cell_angle_beta   89.81202903
_cell_angle_gamma   119.57568438
_symmetry_Int_Tables_number   1
_chemical_formula_structural   Sc4Al15Si3OsRh5
_chemical_formula_sum   'Sc4 Al15 Si3 Os1 Rh5'
_cell_volume   440.76681688
_cell_formula_units_Z   1
loop_
 _symmetry_equiv_pos_site_id
 _symmetry_equiv_pos_as_xyz
  1  'x, y, z'
loop_
 _atom_site_type_symbol
 _atom_site_label
 _atom_site_symmetry_multiplicity
 _atom_site_fract_x
 _atom_site_fract_y
 _atom_site_fract_z
 _atom_site_occupancy
  Sc  Sc0  1  0.993407  0.669758  0.746488  1
  Sc  Sc1  1  0.005447  0.321379  0.254682  1
  Sc  Sc2  1  0.685408  0.003003  0.745667  1
  Sc  Sc3  1  0.320938  0.005594  0.250661  1
  Al  Al4  1  0.000952  0.668352  0.418615  1
  Al  Al5  1  0.001669  0.663648  0.080747  1
  Al  Al6  1  0.336866  0.997121  0.920911  1
  Al  Al7  1  0.000177  0.336694  0.925182  1
  Al  Al8  1  0.662830  0.001995  0.080531  1
  Al  Al9  1  0.659109  0.998031  0.418801  1
  Al  Al10  1  0.333463  0.996789  0.577407  1
  Al  Al11  1  0.334114  0.332943  0.062001  1
  Al  Al12  1  0.668233  0.668686  0.938343  1
  Al  Al13  1  0.667855  0.669251  0.561493  1
  Al  Al14  1  0.336405  0.332961  0.439465  1
  Al  Al15  1  0.334463  0.553547  0.749968  1
  Al  Al16  1  0.663554  0.442731  0.250354  1
  Al  Al17  1  0.551021  0.336446  0.750192  1
  Al  Al18  1  0.443303  0.661458  0.249620  1
  Si  Si19  1  0.129406  0.125590  0.750951  1
  Si  Si20  1  0.873755  0.875738  0.251489  1
  Si  Si21  1  0.999150  0.335600  0.573561  1
  Os  Os22  1  0.998141  0.008614  0.502137  1
  Rh  Rh23  1  0.680456  0.329056  0.502498  1
  Rh  Rh24  1  0.319070  0.663991  0.500091  1
  Rh  Rh25  1  0.327637  0.672129  0.999456  1
  Rh  Rh26  1  0.673522  0.328361  0.998362  1
  Rh  Rh27  1  0.999653  0.000532  0.000326  1
