# generated using pymatgen
data_U8Nb11Si16Mo
_symmetry_space_group_name_H-M   'P 1'
_cell_length_a   7.03442606
_cell_length_b   7.03300204
_cell_length_c   12.97609510
_cell_angle_alpha   89.99239491
_cell_angle_beta   89.98764535
_cell_angle_gamma   90.00884601
_symmetry_Int_Tables_number   1
_chemical_formula_structural   U8Nb11Si16Mo
_chemical_formula_sum   'U8 Nb11 Si16 Mo1'
_cell_volume   641.96804831
_cell_formula_units_Z   1
loop_
 _symmetry_equiv_pos_site_id
 _symmetry_equiv_pos_as_xyz
  1  'x, y, z'
loop_
 _atom_site_type_symbol
 _atom_site_label
 _atom_site_symmetry_multiplicity
 _atom_site_fract_x
 _atom_site_fract_y
 _atom_site_fract_z
 _atom_site_occupancy
  U  U0  1  0.994908  0.330890  0.220979  1
  U  U1  1  0.007920  0.671203  0.717752  1
  U  U2  1  0.167418  0.495882  0.468892  1
  U  U3  1  0.504745  0.831395  0.032579  1
  U  U4  1  0.830657  0.505626  0.968879  1
  U  U5  1  0.494797  0.167560  0.529575  1
  U  U6  1  0.329900  0.992494  0.780544  1
  U  U7  1  0.669048  0.005435  0.280893  1
  Nb  Nb8  1  0.168462  0.168055  0.000526  1
  Nb  Nb9  1  0.831423  0.832302  0.499322  1
  Nb  Nb10  1  0.330392  0.668093  0.250536  1
  Nb  Nb11  1  0.668599  0.331351  0.749646  1
  Nb  Nb12  1  0.843841  0.000830  0.873893  1
  Nb  Nb13  1  0.497951  0.656989  0.623579  1
  Nb  Nb14  1  0.344421  0.499184  0.875993  1
  Nb  Nb15  1  0.497993  0.341995  0.124797  1
  Nb  Nb16  1  0.657150  0.499829  0.376002  1
  Nb  Nb17  1  0.999934  0.156139  0.625722  1
  Nb  Nb18  1  0.999980  0.844900  0.125816  1
  Si  Si19  1  0.295656  0.039113  0.187094  1
  Si  Si20  1  0.702455  0.960030  0.684017  1
  Si  Si21  1  0.458078  0.797401  0.433687  1
  Si  Si22  1  0.201993  0.539596  0.065854  1
  Si  Si23  1  0.539857  0.201936  0.934824  1
  Si  Si24  1  0.796052  0.460205  0.565242  1
  Si  Si25  1  0.040526  0.298038  0.815073  1
  Si  Si26  1  0.962498  0.708319  0.315685  1
  Si  Si27  1  0.370496  0.290734  0.317213  1
  Si  Si28  1  0.629222  0.707080  0.815535  1
  Si  Si29  1  0.205190  0.872009  0.562763  1
  Si  Si30  1  0.128788  0.792567  0.934578  1
  Si  Si31  1  0.793201  0.129981  0.065839  1
  Si  Si32  1  0.875824  0.203966  0.433974  1
  Si  Si33  1  0.293516  0.370006  0.683749  1
  Si  Si34  1  0.707184  0.627467  0.184535  1
  Mo  Mo35  1  0.159928  0.001402  0.374412  1
