# generated using pymatgen
data_Yb4Pr13Sm3Sn16
_symmetry_space_group_name_H-M   'P 1'
_cell_length_a   8.12404107
_cell_length_b   8.47188652
_cell_length_c   16.17079302
_cell_angle_alpha   90.03913872
_cell_angle_beta   90.01102621
_cell_angle_gamma   89.99042085
_symmetry_Int_Tables_number   1
_chemical_formula_structural   Yb4Pr13Sm3Sn16
_chemical_formula_sum   'Yb4 Pr13 Sm3 Sn16'
_cell_volume   1112.96996100
_cell_formula_units_Z   1
loop_
 _symmetry_equiv_pos_site_id
 _symmetry_equiv_pos_as_xyz
  1  'x, y, z'
loop_
 _atom_site_type_symbol
 _atom_site_label
 _atom_site_symmetry_multiplicity
 _atom_site_fract_x
 _atom_site_fract_y
 _atom_site_fract_z
 _atom_site_occupancy
  Yb  Yb0  1  0.823785  0.502481  0.749908  1
  Yb  Yb1  1  0.323909  0.997526  0.750248  1
  Yb  Yb2  1  0.176066  0.497052  0.249568  1
  Yb  Yb3  1  0.675913  0.002721  0.249983  1
  Pr  Pr4  1  0.846705  0.671790  0.376294  1
  Pr  Pr5  1  0.347128  0.827876  0.375581  1
  Pr  Pr6  1  0.847108  0.672321  0.123934  1
  Pr  Pr7  1  0.652677  0.172308  0.875676  1
  Pr  Pr8  1  0.152299  0.327816  0.624452  1
  Pr  Pr9  1  0.500497  0.681850  0.596312  1
  Pr  Pr10  1  0.000503  0.817771  0.903751  1
  Pr  Pr11  1  0.499287  0.317588  0.095954  1
  Pr  Pr12  1  0.999449  0.182656  0.403764  1
  Pr  Pr13  1  0.499712  0.318063  0.404155  1
  Pr  Pr14  1  0.000235  0.182045  0.095692  1
  Pr  Pr15  1  0.499951  0.682195  0.904072  1
  Pr  Pr16  1  0.000339  0.817753  0.596419  1
  Sm  Sm17  1  0.653668  0.171535  0.624621  1
  Sm  Sm18  1  0.154016  0.328473  0.876136  1
  Sm  Sm19  1  0.346421  0.828490  0.123735  1
  Sn  Sn20  1  0.683827  0.964322  0.464118  1
  Sn  Sn21  1  0.185654  0.537904  0.036541  1
  Sn  Sn22  1  0.314051  0.037939  0.963411  1
  Sn  Sn23  1  0.813336  0.460338  0.538137  1
  Sn  Sn24  1  0.319086  0.038035  0.537906  1
  Sn  Sn25  1  0.818859  0.461973  0.962034  1
  Sn  Sn26  1  0.681187  0.962040  0.037712  1
  Sn  Sn27  1  0.184696  0.537420  0.462805  1
  Sn  Sn28  1  0.454493  0.393972  0.750447  1
  Sn  Sn29  1  0.954768  0.105737  0.749630  1
  Sn  Sn30  1  0.543887  0.605102  0.249171  1
  Sn  Sn31  1  0.046599  0.896075  0.248823  1
  Sn  Sn32  1  0.695673  0.859838  0.749569  1
  Sn  Sn33  1  0.195630  0.640072  0.750449  1
  Sn  Sn34  1  0.304838  0.140452  0.249231  1
  Sn  Sn35  1  0.803750  0.358472  0.249758  1
