# generated using pymatgen
data_TbHoReB8Mo
_symmetry_space_group_name_H-M   'P 1'
_cell_length_a   3.61894100
_cell_length_b   6.00245348
_cell_length_c   11.61063799
_cell_angle_alpha   89.98353992
_cell_angle_beta   90.00000000
_cell_angle_gamma   90.00000000
_symmetry_Int_Tables_number   1
_chemical_formula_structural   TbHoReB8Mo
_chemical_formula_sum   'Tb2 Ho2 Re2 B16 Mo2'
_cell_volume   252.21236351
_cell_formula_units_Z   2
loop_
 _symmetry_equiv_pos_site_id
 _symmetry_equiv_pos_as_xyz
  1  'x, y, z'
loop_
 _atom_site_type_symbol
 _atom_site_label
 _atom_site_symmetry_multiplicity
 _atom_site_fract_x
 _atom_site_fract_y
 _atom_site_fract_z
 _atom_site_occupancy
  Tb  Tb0  1  0.000000  0.627530  0.149487  1
  Tb  Tb1  1  0.000000  0.372470  0.850513  1
  Ho  Ho2  1  0.000000  0.126776  0.349445  1
  Ho  Ho3  1  0.000000  0.873224  0.650555  1
  Re  Re4  1  0.000000  0.134073  0.087037  1
  Re  Re5  1  0.000000  0.865927  0.912963  1
  B  B6  1  0.500000  0.977792  0.191662  1
  B  B7  1  0.500000  0.022208  0.808338  1
  B  B8  1  0.500000  0.475933  0.305995  1
  B  B9  1  0.500000  0.524067  0.694005  1
  B  B10  1  0.500000  0.789612  0.313746  1
  B  B11  1  0.500000  0.210388  0.686254  1
  B  B12  1  0.500000  0.285296  0.184512  1
  B  B13  1  0.500000  0.714704  0.815488  1
  B  B14  1  0.500000  0.867256  0.467778  1
  B  B15  1  0.500000  0.132744  0.532222  1
  B  B16  1  0.500000  0.362848  0.031024  1
  B  B17  1  0.500000  0.637152  0.968976  1
  B  B18  1  0.500000  0.887076  0.047189  1
  B  B19  1  0.500000  0.112924  0.952811  1
  B  B20  1  0.500000  0.384962  0.452334  1
  B  B21  1  0.500000  0.615038  0.547666  1
  Mo  Mo22  1  0.000000  0.629314  0.415440  1
  Mo  Mo23  1  0.000000  0.370686  0.584560  1
