# generated using pymatgen
data_Ac8Ho2In5Pb
_symmetry_space_group_name_H-M   'P 1'
_cell_length_a   6.51686319
_cell_length_b   9.86347464
_cell_length_c   9.89627749
_cell_angle_alpha   83.94216307
_cell_angle_beta   70.81122509
_cell_angle_gamma   70.53927197
_symmetry_Int_Tables_number   1
_chemical_formula_structural   Ac8Ho2In5Pb
_chemical_formula_sum   'Ac8 Ho2 In5 Pb1'
_cell_volume   566.45141141
_cell_formula_units_Z   1
loop_
 _symmetry_equiv_pos_site_id
 _symmetry_equiv_pos_as_xyz
  1  'x, y, z'
loop_
 _atom_site_type_symbol
 _atom_site_label
 _atom_site_symmetry_multiplicity
 _atom_site_fract_x
 _atom_site_fract_y
 _atom_site_fract_z
 _atom_site_occupancy
  Ac  Ac0  1  0.719014  0.867264  0.692979  1
  Ac  Ac1  1  0.280459  0.132641  0.308377  1
  Ac  Ac2  1  0.782798  0.305640  0.131049  1
  Ac  Ac3  1  0.221040  0.692549  0.864120  1
  Ac  Ac4  1  0.585918  0.695711  0.131720  1
  Ac  Ac5  1  0.414074  0.306249  0.865056  1
  Ac  Ac6  1  0.085585  0.132865  0.693689  1
  Ac  Ac7  1  0.912953  0.868351  0.306370  1
  Ho  Ho8  1  0.749750  0.500064  0.501841  1
  Ho  Ho9  1  0.247766  0.499599  0.504023  1
  In  In10  1  0.845991  0.499745  0.808127  1
  In  In11  1  0.348191  0.804114  0.499052  1
  In  In12  1  0.653324  0.195158  0.499896  1
  In  In13  1  0.250029  0.999791  0.000263  1
  In  In14  1  0.749883  0.000250  0.000147  1
  Pb  Pb15  1  0.153226  0.500010  0.193292  1
