# generated using pymatgen
data_Ta6Ti4Ge6B
_symmetry_space_group_name_H-M   'P 1'
_cell_length_a   7.66693700
_cell_length_b   7.66693707
_cell_length_c   5.20680800
_cell_angle_alpha   90.00000000
_cell_angle_beta   90.00000000
_cell_angle_gamma   120.00000403
_symmetry_Int_Tables_number   1
_chemical_formula_structural   Ta6Ti4Ge6B
_chemical_formula_sum   'Ta6 Ti4 Ge6 B1'
_cell_volume   265.06108452
_cell_formula_units_Z   1
loop_
 _symmetry_equiv_pos_site_id
 _symmetry_equiv_pos_as_xyz
  1  'x, y, z'
loop_
 _atom_site_type_symbol
 _atom_site_label
 _atom_site_symmetry_multiplicity
 _atom_site_fract_x
 _atom_site_fract_y
 _atom_site_fract_z
 _atom_site_occupancy
  Ta  Ta0  1  0.000000  0.760192  0.243952  1
  Ta  Ta1  1  0.239808  0.239808  0.243952  1
  Ta  Ta2  1  0.760192  0.000000  0.243952  1
  Ta  Ta3  1  0.000000  0.239808  0.756048  1
  Ta  Ta4  1  0.760192  0.760192  0.756048  1
  Ta  Ta5  1  0.239808  0.000000  0.756048  1
  Ti  Ti6  1  0.333333  0.666667  0.500000  1
  Ti  Ti7  1  0.666667  0.333333  0.500000  1
  Ti  Ti8  1  0.666667  0.333333  0.000000  1
  Ti  Ti9  1  0.333333  0.666667  0.000000  1
  Ge  Ge10  1  0.000000  0.401600  0.248831  1
  Ge  Ge11  1  0.598400  0.598400  0.248831  1
  Ge  Ge12  1  0.401600  0.000000  0.248831  1
  Ge  Ge13  1  0.000000  0.598400  0.751169  1
  Ge  Ge14  1  0.401600  0.401600  0.751169  1
  Ge  Ge15  1  0.598400  0.000000  0.751169  1
  B  B16  1  0.000000  0.000000  0.500000  1
