# generated using pymatgen
data_Tb4Ho2Al24Os5Pd3
_symmetry_space_group_name_H-M   'P 1'
_cell_length_a   8.83511481
_cell_length_b   8.85284378
_cell_length_c   9.56592004
_cell_angle_alpha   90.15363917
_cell_angle_beta   89.71065168
_cell_angle_gamma   119.50865210
_symmetry_Int_Tables_number   1
_chemical_formula_structural   Tb4Ho2Al24Os5Pd3
_chemical_formula_sum   'Tb4 Ho2 Al24 Os5 Pd3'
_cell_volume   651.14222710
_cell_formula_units_Z   1
loop_
 _symmetry_equiv_pos_site_id
 _symmetry_equiv_pos_as_xyz
  1  'x, y, z'
loop_
 _atom_site_type_symbol
 _atom_site_label
 _atom_site_symmetry_multiplicity
 _atom_site_fract_x
 _atom_site_fract_y
 _atom_site_fract_z
 _atom_site_occupancy
  Tb  Tb0  1  0.187353  0.381579  0.250654  1
  Tb  Tb1  1  0.812647  0.618421  0.749346  1
  Tb  Tb2  1  0.615183  0.814435  0.252632  1
  Tb  Tb3  1  0.384817  0.185565  0.747368  1
  Ho  Ho4  1  0.196547  0.807942  0.251511  1
  Ho  Ho5  1  0.803453  0.192058  0.748489  1
  Al  Al6  1  0.335262  0.671093  0.027673  1
  Al  Al7  1  0.664738  0.328907  0.972327  1
  Al  Al8  1  0.669294  0.331641  0.526573  1
  Al  Al9  1  0.330706  0.668359  0.473427  1
  Al  Al10  1  0.156992  0.325307  0.575403  1
  Al  Al11  1  0.843008  0.674693  0.424597  1
  Al  Al12  1  0.673825  0.841834  0.576446  1
  Al  Al13  1  0.837228  0.676467  0.079040  1
  Al  Al14  1  0.326175  0.158166  0.423554  1
  Al  Al15  1  0.162772  0.323533  0.920960  1
  Al  Al16  1  0.163762  0.834931  0.575518  1
  Al  Al17  1  0.325241  0.157806  0.076903  1
  Al  Al18  1  0.836238  0.165069  0.424482  1
  Al  Al19  1  0.674759  0.842194  0.923097  1
  Al  Al20  1  0.831408  0.158799  0.078059  1
  Al  Al21  1  0.168592  0.841201  0.921941  1
  Al  Al22  1  0.561307  0.124985  0.249891  1
  Al  Al23  1  0.438693  0.875015  0.750109  1
  Al  Al24  1  0.874636  0.437583  0.252539  1
  Al  Al25  1  0.125364  0.562417  0.747461  1
  Al  Al26  1  0.562250  0.436909  0.249878  1
  Al  Al27  1  0.437750  0.563091  0.750122  1
  Al  Al28  1  0.999833  0.001221  0.250289  1
  Al  Al29  1  0.000167  0.998779  0.749711  1
  Os  Os30  1  0.500000  0.000000  0.000000  1
  Os  Os31  1  0.500000  0.000000  0.500000  1
  Os  Os32  1  0.000000  0.500000  0.500000  1
  Os  Os33  1  0.000000  0.000000  0.000000  1
  Os  Os34  1  0.000000  0.000000  0.500000  1
  Pd  Pd35  1  0.000000  0.500000  0.000000  1
  Pd  Pd36  1  0.500000  0.500000  0.000000  1
  Pd  Pd37  1  0.500000  0.500000  0.500000  1
