# generated using pymatgen
data_Zr6Zn21Co2P
_symmetry_space_group_name_H-M   'P 1'
_cell_length_a   8.76103450
_cell_length_b   8.73358569
_cell_length_c   8.73358591
_cell_angle_alpha   59.60122059
_cell_angle_beta   59.89598198
_cell_angle_gamma   59.89598176
_symmetry_Int_Tables_number   1
_chemical_formula_structural   Zr6Zn21Co2P
_chemical_formula_sum   'Zr6 Zn21 Co2 P1'
_cell_volume   470.34777076
_cell_formula_units_Z   1
loop_
 _symmetry_equiv_pos_site_id
 _symmetry_equiv_pos_as_xyz
  1  'x, y, z'
loop_
 _atom_site_type_symbol
 _atom_site_label
 _atom_site_symmetry_multiplicity
 _atom_site_fract_x
 _atom_site_fract_y
 _atom_site_fract_z
 _atom_site_occupancy
  Zr  Zr0  1  0.707889  0.292111  0.292111  1
  Zr  Zr1  1  0.292111  0.707889  0.707889  1
  Zr  Zr2  1  0.290644  0.701311  0.298689  1
  Zr  Zr3  1  0.709356  0.298689  0.701311  1
  Zr  Zr4  1  0.290644  0.298689  0.701311  1
  Zr  Zr5  1  0.709356  0.701311  0.298689  1
  Zn  Zn6  1  0.116766  0.116583  0.116583  1
  Zn  Zn7  1  0.883234  0.883417  0.883417  1
  Zn  Zn8  1  0.113237  0.129230  0.644297  1
  Zn  Zn9  1  0.113237  0.644297  0.129230  1
  Zn  Zn10  1  0.886763  0.870770  0.355703  1
  Zn  Zn11  1  0.886763  0.355703  0.870770  1
  Zn  Zn12  1  0.650069  0.116583  0.116583  1
  Zn  Zn13  1  0.349931  0.883417  0.883417  1
  Zn  Zn14  1  0.500000  0.000000  0.000000  1
  Zn  Zn15  1  0.000000  0.500000  0.000000  1
  Zn  Zn16  1  0.500000  0.000000  0.500000  1
  Zn  Zn17  1  0.000000  0.000000  0.500000  1
  Zn  Zn18  1  0.500000  0.500000  0.000000  1
  Zn  Zn19  1  0.324451  0.337030  0.337030  1
  Zn  Zn20  1  0.675549  0.662970  0.662970  1
  Zn  Zn21  1  0.333779  0.333161  0.999283  1
  Zn  Zn22  1  0.333779  0.999283  0.333161  1
  Zn  Zn23  1  0.666221  0.666839  0.000717  1
  Zn  Zn24  1  0.666221  0.000717  0.666839  1
  Zn  Zn25  1  0.001489  0.337030  0.337030  1
  Zn  Zn26  1  0.998511  0.662970  0.662970  1
  Co  Co27  1  0.000000  0.500000  0.500000  1
  Co  Co28  1  0.000000  0.000000  0.000000  1
  P  P29  1  0.500000  0.500000  0.500000  1
