# generated using pymatgen
data_Zr12ZnGa3(Ir2N)4
_symmetry_space_group_name_H-M   'P 1'
_cell_length_a   8.57814248
_cell_length_b   8.58183554
_cell_length_c   8.57815500
_cell_angle_alpha   60.01421444
_cell_angle_beta   59.99997587
_cell_angle_gamma   60.01425420
_symmetry_Int_Tables_number   1
_chemical_formula_structural   Zr12ZnGa3(Ir2N)4
_chemical_formula_sum   'Zr12 Zn1 Ga3 Ir8 N4'
_cell_volume   446.62770659
_cell_formula_units_Z   1
loop_
 _symmetry_equiv_pos_site_id
 _symmetry_equiv_pos_as_xyz
  1  'x, y, z'
loop_
 _atom_site_type_symbol
 _atom_site_label
 _atom_site_symmetry_multiplicity
 _atom_site_fract_x
 _atom_site_fract_y
 _atom_site_fract_z
 _atom_site_occupancy
  Zr  Zr0  1  0.807392  0.191932  0.193284  1
  Zr  Zr1  1  0.192675  0.807221  0.192676  1
  Zr  Zr2  1  0.807428  0.807220  0.192677  1
  Zr  Zr3  1  0.192676  0.807220  0.807428  1
  Zr  Zr4  1  0.807392  0.191932  0.807394  1
  Zr  Zr5  1  0.193283  0.191932  0.807393  1
  Zr  Zr6  1  0.442608  0.058068  0.056716  1
  Zr  Zr7  1  0.057325  0.442779  0.057324  1
  Zr  Zr8  1  0.442572  0.442780  0.057323  1
  Zr  Zr9  1  0.057324  0.442780  0.442572  1
  Zr  Zr10  1  0.442608  0.058068  0.442606  1
  Zr  Zr11  1  0.056717  0.058068  0.442607  1
  Zn  Zn12  1  0.625000  0.125000  0.625000  1
  Ga  Ga13  1  0.625000  0.625000  0.125000  1
  Ga  Ga14  1  0.625000  0.625000  0.625000  1
  Ga  Ga15  1  0.125000  0.625000  0.625000  1
  Ir  Ir16  1  0.414453  0.415800  0.755293  1
  Ir  Ir17  1  0.414453  0.415800  0.414453  1
  Ir  Ir18  1  0.755294  0.415800  0.414453  1
  Ir  Ir19  1  0.414574  0.756278  0.414574  1
  Ir  Ir20  1  0.835547  0.834200  0.494707  1
  Ir  Ir21  1  0.835547  0.834200  0.835547  1
  Ir  Ir22  1  0.494706  0.834200  0.835547  1
  Ir  Ir23  1  0.835426  0.493722  0.835426  1
  N  N24  1  0.125000  0.125000  0.625000  1
  N  N25  1  0.125000  0.125000  0.125000  1
  N  N26  1  0.625000  0.125000  0.125000  1
  N  N27  1  0.125000  0.625000  0.125000  1
