# generated using pymatgen
data_Zr5Pa5(Si5Ir2)4
_symmetry_space_group_name_H-M   'P 1'
_cell_length_a   12.51832600
_cell_length_b   12.51832600
_cell_length_c   4.17521200
_cell_angle_alpha   90.00000000
_cell_angle_beta   90.00000000
_cell_angle_gamma   90.00000000
_symmetry_Int_Tables_number   1
_chemical_formula_structural   Zr5Pa5(Si5Ir2)4
_chemical_formula_sum   'Zr5 Pa5 Si20 Ir8'
_cell_volume   654.29115059
_cell_formula_units_Z   1
loop_
 _symmetry_equiv_pos_site_id
 _symmetry_equiv_pos_as_xyz
  1  'x, y, z'
loop_
 _atom_site_type_symbol
 _atom_site_label
 _atom_site_symmetry_multiplicity
 _atom_site_fract_x
 _atom_site_fract_y
 _atom_site_fract_z
 _atom_site_occupancy
  Zr  Zr0  1  0.500000  0.500000  0.000000  1
  Zr  Zr1  1  0.674484  0.177427  0.500000  1
  Zr  Zr2  1  0.325516  0.822573  0.500000  1
  Zr  Zr3  1  0.177427  0.325516  0.500000  1
  Zr  Zr4  1  0.822573  0.674484  0.500000  1
  Pa  Pa5  1  0.000000  0.000000  0.000000  1
  Pa  Pa6  1  0.884485  0.387332  0.500000  1
  Pa  Pa7  1  0.115515  0.612668  0.500000  1
  Pa  Pa8  1  0.387332  0.115515  0.500000  1
  Pa  Pa9  1  0.612668  0.884485  0.500000  1
  Si  Si10  1  0.565784  0.066268  0.000000  1
  Si  Si11  1  0.434216  0.933732  0.000000  1
  Si  Si12  1  0.066268  0.434216  0.000000  1
  Si  Si13  1  0.933732  0.565784  0.000000  1
  Si  Si14  1  0.664585  0.698328  0.000000  1
  Si  Si15  1  0.335415  0.301672  0.000000  1
  Si  Si16  1  0.166916  0.798537  0.000000  1
  Si  Si17  1  0.833084  0.201463  0.000000  1
  Si  Si18  1  0.301672  0.664585  0.000000  1
  Si  Si19  1  0.698328  0.335415  0.000000  1
  Si  Si20  1  0.201463  0.166916  0.000000  1
  Si  Si21  1  0.798537  0.833084  0.000000  1
  Si  Si22  1  0.651347  0.507262  0.500000  1
  Si  Si23  1  0.348653  0.492738  0.500000  1
  Si  Si24  1  0.157459  0.993977  0.500000  1
  Si  Si25  1  0.842541  0.006023  0.500000  1
  Si  Si26  1  0.492738  0.651347  0.500000  1
  Si  Si27  1  0.507262  0.348653  0.500000  1
  Si  Si28  1  0.006023  0.157459  0.500000  1
  Si  Si29  1  0.993977  0.842541  0.500000  1
  Ir  Ir30  1  0.743332  0.520224  0.000000  1
  Ir  Ir31  1  0.256668  0.479776  0.000000  1
  Ir  Ir32  1  0.244078  0.979283  0.000000  1
  Ir  Ir33  1  0.755922  0.020717  0.000000  1
  Ir  Ir34  1  0.479776  0.743332  0.000000  1
  Ir  Ir35  1  0.520224  0.256668  0.000000  1
  Ir  Ir36  1  0.020717  0.244078  0.000000  1
  Ir  Ir37  1  0.979283  0.755922  0.000000  1
