# generated using pymatgen
data_TmLu(ThH5)6
_symmetry_space_group_name_H-M   'P 1'
_cell_length_a   7.79885617
_cell_length_b   7.79274214
_cell_length_c   7.74953371
_cell_angle_alpha   109.45325917
_cell_angle_beta   109.48696203
_cell_angle_gamma   109.73322988
_symmetry_Int_Tables_number   1
_chemical_formula_structural   TmLu(ThH5)6
_chemical_formula_sum   'Tm1 Lu1 Th6 H30'
_cell_volume   361.38682575
_cell_formula_units_Z   1
loop_
 _symmetry_equiv_pos_site_id
 _symmetry_equiv_pos_as_xyz
  1  'x, y, z'
loop_
 _atom_site_type_symbol
 _atom_site_label
 _atom_site_symmetry_multiplicity
 _atom_site_fract_x
 _atom_site_fract_y
 _atom_site_fract_z
 _atom_site_occupancy
  Tm  Tm0  1  0.498269  0.999454  0.084601  1
  Lu  Lu1  1  0.913070  0.914261  0.914839  1
  Th  Th2  1  0.992912  0.078727  0.493829  1
  Th  Th3  1  0.085319  0.505614  0.001271  1
  Th  Th4  1  0.998946  0.585028  0.506415  1
  Th  Th5  1  0.584184  0.504630  0.998640  1
  Th  Th6  1  0.505374  0.998312  0.588644  1
  Th  Th7  1  0.416427  0.409763  0.411312  1
  H  H8  1  0.648934  0.963851  0.367250  1
  H  H9  1  0.218053  0.316223  0.846552  1
  H  H10  1  0.186741  0.403905  0.534730  1
  H  H11  1  0.093729  0.276004  0.122813  1
  H  H12  1  0.280080  0.119397  0.090901  1
  H  H13  1  0.121943  0.090637  0.272110  1
  H  H14  1  0.470789  0.153536  0.876566  1
  H  H15  1  0.719416  0.350971  0.813297  1
  H  H16  1  0.626946  0.377853  0.249951  1
  H  H17  1  0.250495  0.624105  0.376556  1
  H  H18  1  0.749465  0.873757  0.124625  1
  H  H19  1  0.124248  0.748935  0.875328  1
  H  H20  1  0.373959  0.247565  0.623404  1
  H  H21  1  0.877152  0.127687  0.750155  1
  H  H22  1  0.781931  0.597260  0.633351  1
  H  H23  1  0.318974  0.850854  0.220792  1
  H  H24  1  0.374692  0.661162  0.967628  1
  H  H25  1  0.962986  0.368091  0.650468  1
  H  H26  1  0.536894  0.184185  0.403851  1
  H  H27  1  0.406119  0.537646  0.186677  1
  H  H28  1  0.838002  0.215776  0.309735  1
  H  H29  1  0.907179  0.694440  0.031880  1
  H  H30  1  0.812523  0.717658  0.349548  1
  H  H31  1  0.152071  0.869160  0.465303  1
  H  H32  1  0.690669  0.028206  0.908804  1
  H  H33  1  0.349561  0.818004  0.726880  1
  H  H34  1  0.871459  0.469695  0.153509  1
  H  H35  1  0.633742  0.780690  0.596902  1
  H  H36  1  0.598931  0.630770  0.779590  1
  H  H37  1  0.027814  0.906188  0.691295  1
