# generated using pymatgen
data_TbGd3V2O10
_symmetry_space_group_name_H-M   'P 1'
_cell_length_a   3.77731600
_cell_length_b   10.50156200
_cell_length_c   11.35417300
_cell_angle_alpha   90.00000000
_cell_angle_beta   90.00000000
_cell_angle_gamma   90.00000000
_symmetry_Int_Tables_number   1
_chemical_formula_structural   TbGd3V2O10
_chemical_formula_sum   'Tb2 Gd6 V4 O20'
_cell_volume   450.39413459
_cell_formula_units_Z   2
loop_
 _symmetry_equiv_pos_site_id
 _symmetry_equiv_pos_as_xyz
  1  'x, y, z'
loop_
 _atom_site_type_symbol
 _atom_site_label
 _atom_site_symmetry_multiplicity
 _atom_site_fract_x
 _atom_site_fract_y
 _atom_site_fract_z
 _atom_site_occupancy
  Tb  Tb0  1  0.250000  0.618671  0.226898  1
  Tb  Tb1  1  0.250000  0.118671  0.273102  1
  Gd  Gd2  1  0.250000  0.137576  0.945087  1
  Gd  Gd3  1  0.250000  0.637576  0.554913  1
  Gd  Gd4  1  0.750000  0.862705  0.056894  1
  Gd  Gd5  1  0.750000  0.362705  0.443106  1
  Gd  Gd6  1  0.750000  0.382495  0.773689  1
  Gd  Gd7  1  0.750000  0.882495  0.726311  1
  V  V8  1  0.250000  0.171363  0.617433  1
  V  V9  1  0.250000  0.671363  0.882567  1
  V  V10  1  0.750000  0.828973  0.380673  1
  V  V11  1  0.750000  0.328973  0.119327  1
  O  O12  1  0.250000  0.224943  0.456750  1
  O  O13  1  0.250000  0.724943  0.043250  1
  O  O14  1  0.750000  0.774923  0.541147  1
  O  O15  1  0.750000  0.274923  0.958853  1
  O  O16  1  0.250000  0.495022  0.393836  1
  O  O17  1  0.250000  0.995022  0.106164  1
  O  O18  1  0.750000  0.505539  0.604282  1
  O  O19  1  0.750000  0.005539  0.895718  1
  O  O20  1  0.250000  0.268450  0.117283  1
  O  O21  1  0.250000  0.768450  0.382717  1
  O  O22  1  0.750000  0.731713  0.884900  1
  O  O23  1  0.750000  0.231713  0.615100  1
  O  O24  1  0.250000  0.010345  0.653415  1
  O  O25  1  0.250000  0.510345  0.846585  1
  O  O26  1  0.750000  0.989765  0.343282  1
  O  O27  1  0.750000  0.489765  0.156718  1
  O  O28  1  0.250000  0.258638  0.766999  1
  O  O29  1  0.250000  0.758638  0.733001  1
  O  O30  1  0.750000  0.738880  0.233021  1
  O  O31  1  0.750000  0.238880  0.266979  1
