# generated using pymatgen
data_Th(TaS2)4
_symmetry_space_group_name_H-M   'P 1'
_cell_length_a   6.68273900
_cell_length_b   6.68272389
_cell_length_c   14.21838000
_cell_angle_alpha   90.00000000
_cell_angle_beta   90.00000000
_cell_angle_gamma   120.00007977
_symmetry_Int_Tables_number   1
_chemical_formula_structural   Th(TaS2)4
_chemical_formula_sum   'Th2 Ta8 S16'
_cell_volume   549.90594752
_cell_formula_units_Z   2
loop_
 _symmetry_equiv_pos_site_id
 _symmetry_equiv_pos_as_xyz
  1  'x, y, z'
loop_
 _atom_site_type_symbol
 _atom_site_label
 _atom_site_symmetry_multiplicity
 _atom_site_fract_x
 _atom_site_fract_y
 _atom_site_fract_z
 _atom_site_occupancy
  Th  Th0  1  0.000000  0.000000  0.000000  1
  Th  Th1  1  0.000000  0.000000  0.500000  1
  Ta  Ta2  1  0.999997  0.999993  0.250000  1
  Ta  Ta3  1  0.010646  0.505318  0.250000  1
  Ta  Ta4  1  0.494672  0.505318  0.250000  1
  Ta  Ta5  1  0.494670  0.989340  0.250000  1
  Ta  Ta6  1  0.000003  0.000007  0.750000  1
  Ta  Ta7  1  0.505330  0.010661  0.750000  1
  Ta  Ta8  1  0.505327  0.494682  0.750000  1
  Ta  Ta9  1  0.989355  0.494682  0.750000  1
  S  S10  1  0.333328  0.666657  0.135997  1
  S  S11  1  0.338073  0.169030  0.139704  1
  S  S12  1  0.830956  0.169030  0.139704  1
  S  S13  1  0.830961  0.661921  0.139703  1
  S  S14  1  0.338073  0.169030  0.360296  1
  S  S15  1  0.830956  0.169030  0.360296  1
  S  S16  1  0.830961  0.661921  0.360297  1
  S  S17  1  0.333328  0.666657  0.364002  1
  S  S18  1  0.666672  0.333342  0.635997  1
  S  S19  1  0.169040  0.338080  0.639703  1
  S  S20  1  0.169043  0.830971  0.639704  1
  S  S21  1  0.661928  0.830971  0.639704  1
  S  S22  1  0.169040  0.338080  0.860297  1
  S  S23  1  0.169043  0.830971  0.860296  1
  S  S24  1  0.661928  0.830971  0.860296  1
  S  S25  1  0.666672  0.333342  0.864002  1
