# generated using pymatgen
data_Li2CrNi2As3Pd
_symmetry_space_group_name_H-M   'P 1'
_cell_length_a   3.75388200
_cell_length_b   6.56705784
_cell_length_c   6.12141999
_cell_angle_alpha   122.43889304
_cell_angle_beta   90.00000000
_cell_angle_gamma   90.00000000
_symmetry_Int_Tables_number   1
_chemical_formula_structural   Li2CrNi2As3Pd
_chemical_formula_sum   'Li2 Cr1 Ni2 As3 Pd1'
_cell_volume   127.35838986
_cell_formula_units_Z   1
loop_
 _symmetry_equiv_pos_site_id
 _symmetry_equiv_pos_as_xyz
  1  'x, y, z'
loop_
 _atom_site_type_symbol
 _atom_site_label
 _atom_site_symmetry_multiplicity
 _atom_site_fract_x
 _atom_site_fract_y
 _atom_site_fract_z
 _atom_site_occupancy
  Li  Li0  1  0.000000  0.425140  0.409600  1
  Li  Li1  1  0.000000  0.015541  0.590400  1
  Cr  Cr2  1  0.000000  0.592348  0.000000  1
  Ni  Ni3  1  0.500000  0.741036  0.745419  1
  Ni  Ni4  1  0.500000  0.995616  0.254581  1
  As  As5  1  0.500000  0.679554  0.328295  1
  As  As6  1  0.500000  0.351258  0.671705  1
  As  As7  1  0.000000  0.964398  0.000000  1
  Pd  Pd8  1  0.500000  0.235109  0.000000  1
