# generated using pymatgen
data_Tb8Ta9Ti2Si16Pd
_symmetry_space_group_name_H-M   'P 1'
_cell_length_a   7.07635703
_cell_length_b   7.07464475
_cell_length_c   12.95939819
_cell_angle_alpha   90.21834852
_cell_angle_beta   89.80681435
_cell_angle_gamma   89.66017231
_symmetry_Int_Tables_number   1
_chemical_formula_structural   Tb8Ta9Ti2Si16Pd
_chemical_formula_sum   'Tb8 Ta9 Ti2 Si16 Pd1'
_cell_volume   648.76276076
_cell_formula_units_Z   1
loop_
 _symmetry_equiv_pos_site_id
 _symmetry_equiv_pos_as_xyz
  1  'x, y, z'
loop_
 _atom_site_type_symbol
 _atom_site_label
 _atom_site_symmetry_multiplicity
 _atom_site_fract_x
 _atom_site_fract_y
 _atom_site_fract_z
 _atom_site_occupancy
  Tb  Tb0  1  0.341930  0.002686  0.467517  1
  Tb  Tb1  1  0.496054  0.842284  0.718557  1
  Tb  Tb2  1  0.501599  0.158120  0.215979  1
  Tb  Tb3  1  0.842008  0.495814  0.281778  1
  Tb  Tb4  1  0.158986  0.501577  0.784349  1
  Tb  Tb5  1  0.655186  0.001525  0.968218  1
  Tb  Tb6  1  0.003224  0.340541  0.532230  1
  Tb  Tb7  1  0.000029  0.658332  0.031534  1
  Ta  Ta8  1  0.172889  0.825706  0.249211  1
  Ta  Ta9  1  0.826293  0.174536  0.751239  1
  Ta  Ta10  1  0.670411  0.670150  0.499609  1
  Ta  Ta11  1  0.149041  0.007599  0.876083  1
  Ta  Ta12  1  0.497193  0.652658  0.122453  1
  Ta  Ta13  1  0.504347  0.348345  0.624082  1
  Ta  Ta14  1  0.653870  0.495875  0.877423  1
  Ta  Ta15  1  0.348630  0.505942  0.375820  1
  Ta  Ta16  1  0.848717  0.991049  0.374078  1
  Ti  Ti17  1  0.008070  0.149250  0.123550  1
  Ti  Ti18  1  0.990486  0.847793  0.626142  1
  Si  Si19  1  0.201525  0.132429  0.683314  1
  Si  Si20  1  0.371204  0.713961  0.930719  1
  Si  Si21  1  0.633967  0.293007  0.431647  1
  Si  Si22  1  0.714825  0.369671  0.069574  1
  Si  Si23  1  0.293777  0.635038  0.568732  1
  Si  Si24  1  0.797403  0.868324  0.182116  1
  Si  Si25  1  0.134713  0.201298  0.315829  1
  Si  Si26  1  0.866562  0.798213  0.817176  1
  Si  Si27  1  0.287253  0.945104  0.064021  1
  Si  Si28  1  0.545668  0.791941  0.312611  1
  Si  Si29  1  0.451217  0.210231  0.813320  1
  Si  Si30  1  0.792781  0.547000  0.686185  1
  Si  Si31  1  0.208743  0.451821  0.185900  1
  Si  Si32  1  0.708234  0.045245  0.565008  1
  Si  Si33  1  0.946612  0.289302  0.937372  1
  Si  Si34  1  0.046127  0.706303  0.436551  1
  Pd  Pd35  1  0.330425  0.331332  0.000071  1
