# generated using pymatgen
data_Ba4P8PdPt23
_symmetry_space_group_name_H-M   'P 1'
_cell_length_a   8.66257680
_cell_length_b   8.65044741
_cell_length_c   8.64547089
_cell_angle_alpha   90.04790218
_cell_angle_beta   90.09757923
_cell_angle_gamma   89.85785401
_symmetry_Int_Tables_number   1
_chemical_formula_structural   Ba4P8PdPt23
_chemical_formula_sum   'Ba4 P8 Pd1 Pt23'
_cell_volume   647.84663024
_cell_formula_units_Z   1
loop_
 _symmetry_equiv_pos_site_id
 _symmetry_equiv_pos_as_xyz
  1  'x, y, z'
loop_
 _atom_site_type_symbol
 _atom_site_label
 _atom_site_symmetry_multiplicity
 _atom_site_fract_x
 _atom_site_fract_y
 _atom_site_fract_z
 _atom_site_occupancy
  Ba  Ba0  1  0.500134  0.501281  0.000702  1
  Ba  Ba1  1  0.499956  0.999599  0.498955  1
  Ba  Ba2  1  0.999425  0.499877  0.500558  1
  Ba  Ba3  1  0.000936  0.000282  0.999572  1
  P  P4  1  0.805388  0.306398  0.195476  1
  P  P5  1  0.191359  0.803357  0.306584  1
  P  P6  1  0.694700  0.694103  0.694015  1
  P  P7  1  0.305025  0.193544  0.806072  1
  P  P8  1  0.195697  0.694127  0.806766  1
  P  P9  1  0.804998  0.194680  0.694362  1
  P  P10  1  0.305294  0.305203  0.306248  1
  P  P11  1  0.697451  0.806510  0.193609  1
  Pd  Pd12  1  0.419591  0.844349  0.154862  1
  Pt  Pt13  1  0.577411  0.342421  0.344976  1
  Pt  Pt14  1  0.078130  0.158175  0.653888  1
  Pt  Pt15  1  0.922087  0.657052  0.845191  1
  Pt  Pt16  1  0.154348  0.421005  0.842345  1
  Pt  Pt17  1  0.342030  0.578999  0.343465  1
  Pt  Pt18  1  0.655287  0.078358  0.156430  1
  Pt  Pt19  1  0.844648  0.921028  0.656771  1
  Pt  Pt20  1  0.842644  0.153795  0.420603  1
  Pt  Pt21  1  0.343827  0.343862  0.579516  1
  Pt  Pt22  1  0.157193  0.653676  0.079109  1
  Pt  Pt23  1  0.657613  0.844460  0.922138  1
  Pt  Pt24  1  0.578576  0.157552  0.844739  1
  Pt  Pt25  1  0.421045  0.657854  0.654778  1
  Pt  Pt26  1  0.921964  0.842043  0.345275  1
  Pt  Pt27  1  0.079078  0.342353  0.155477  1
  Pt  Pt28  1  0.846725  0.578270  0.157618  1
  Pt  Pt29  1  0.655210  0.422508  0.656921  1
  Pt  Pt30  1  0.347442  0.922068  0.841087  1
  Pt  Pt31  1  0.156658  0.076985  0.342275  1
  Pt  Pt32  1  0.156287  0.845125  0.579762  1
  Pt  Pt33  1  0.655283  0.656961  0.419794  1
  Pt  Pt34  1  0.842343  0.344738  0.922396  1
  Pt  Pt35  1  0.344217  0.157405  0.077666  1
