# generated using pymatgen
data_TbPa(BiTe)2
_symmetry_space_group_name_H-M   'P 1'
_cell_length_a   4.44057200
_cell_length_b   4.44057200
_cell_length_c   9.20319600
_cell_angle_alpha   90.00000000
_cell_angle_beta   90.00000000
_cell_angle_gamma   90.00000000
_symmetry_Int_Tables_number   1
_chemical_formula_structural   TbPa(BiTe)2
_chemical_formula_sum   'Tb1 Pa1 Bi2 Te2'
_cell_volume   181.47487402
_cell_formula_units_Z   1
loop_
 _symmetry_equiv_pos_site_id
 _symmetry_equiv_pos_as_xyz
  1  'x, y, z'
loop_
 _atom_site_type_symbol
 _atom_site_label
 _atom_site_symmetry_multiplicity
 _atom_site_fract_x
 _atom_site_fract_y
 _atom_site_fract_z
 _atom_site_occupancy
  Tb  Tb0  1  0.000000  0.500000  0.722566  1
  Pa  Pa1  1  0.500000  0.000000  0.278877  1
  Bi  Bi2  1  0.000000  0.000000  0.001389  1
  Bi  Bi3  1  0.500000  0.500000  0.001389  1
  Te  Te4  1  0.000000  0.500000  0.368220  1
  Te  Te5  1  0.500000  0.000000  0.627559  1
