# generated using pymatgen
data_NaTaS6
_symmetry_space_group_name_H-M   'P 1'
_cell_length_a   7.59137105
_cell_length_b   7.59136993
_cell_length_c   7.18761510
_cell_angle_alpha   86.27173509
_cell_angle_beta   86.27173340
_cell_angle_gamma   119.49632938
_symmetry_Int_Tables_number   1
_chemical_formula_structural   NaTaS6
_chemical_formula_sum   'Na2 Ta2 S12'
_cell_volume   357.51139147
_cell_formula_units_Z   2
loop_
 _symmetry_equiv_pos_site_id
 _symmetry_equiv_pos_as_xyz
  1  'x, y, z'
loop_
 _atom_site_type_symbol
 _atom_site_label
 _atom_site_symmetry_multiplicity
 _atom_site_fract_x
 _atom_site_fract_y
 _atom_site_fract_z
 _atom_site_occupancy
  Na  Na0  1  0.667827  0.330204  0.998271  1
  Na  Na1  1  0.330204  0.667827  0.498271  1
  Ta  Ta2  1  0.990856  0.018507  0.741450  1
  Ta  Ta3  1  0.018507  0.990856  0.241450  1
  S  S4  1  0.967606  0.236017  0.474919  1
  S  S5  1  0.236017  0.967606  0.974919  1
  S  S6  1  0.298811  0.354766  0.795689  1
  S  S7  1  0.354766  0.298811  0.295689  1
  S  S8  1  0.044134  0.260113  0.986718  1
  S  S9  1  0.260113  0.044134  0.486718  1
  S  S10  1  0.708049  0.089105  0.667210  1
  S  S11  1  0.089105  0.708049  0.167210  1
  S  S12  1  0.946346  0.671847  0.710240  1
  S  S13  1  0.671847  0.946346  0.210240  1
  S  S14  1  0.780904  0.732386  0.522885  1
  S  S15  1  0.732386  0.780904  0.022885  1
