# generated using pymatgen
data_Tm5In4AgPt
_symmetry_space_group_name_H-M   'P 1'
_cell_length_a   3.60027200
_cell_length_b   8.13712224
_cell_length_c   18.23845965
_cell_angle_alpha   89.91656572
_cell_angle_beta   90.00000000
_cell_angle_gamma   90.00000000
_symmetry_Int_Tables_number   1
_chemical_formula_structural   Tm5In4AgPt
_chemical_formula_sum   'Tm10 In8 Ag2 Pt2'
_cell_volume   534.31067253
_cell_formula_units_Z   2
loop_
 _symmetry_equiv_pos_site_id
 _symmetry_equiv_pos_as_xyz
  1  'x, y, z'
loop_
 _atom_site_type_symbol
 _atom_site_label
 _atom_site_symmetry_multiplicity
 _atom_site_fract_x
 _atom_site_fract_y
 _atom_site_fract_z
 _atom_site_occupancy
  Tm  Tm0  1  0.000000  0.120868  0.421217  1
  Tm  Tm1  1  0.000000  0.879132  0.578783  1
  Tm  Tm2  1  0.000000  0.382977  0.916455  1
  Tm  Tm3  1  0.000000  0.617023  0.083545  1
  Tm  Tm4  1  0.000000  0.255431  0.216135  1
  Tm  Tm5  1  0.000000  0.744569  0.783865  1
  Tm  Tm6  1  0.000000  0.276669  0.720506  1
  Tm  Tm7  1  0.000000  0.723331  0.279494  1
  Tm  Tm8  1  0.000000  0.000000  0.000000  1
  Tm  Tm9  1  0.000000  0.500000  0.500000  1
  In  In10  1  0.500000  0.415858  0.353247  1
  In  In11  1  0.500000  0.584142  0.646753  1
  In  In12  1  0.500000  0.076527  0.851790  1
  In  In13  1  0.500000  0.923473  0.148210  1
  In  In14  1  0.500000  0.292234  0.064235  1
  In  In15  1  0.500000  0.707766  0.935765  1
  In  In16  1  0.500000  0.210040  0.568548  1
  In  In17  1  0.500000  0.789960  0.431452  1
  Ag  Ag18  1  0.500000  0.025065  0.302075  1
  Ag  Ag19  1  0.500000  0.974935  0.697925  1
  Pt  Pt20  1  0.500000  0.473754  0.804466  1
  Pt  Pt21  1  0.500000  0.526246  0.195534  1
