# generated using pymatgen
data_Ho10(IrRh)3
_symmetry_space_group_name_H-M   'P 1'
_cell_length_a   10.83749135
_cell_length_b   10.83839400
_cell_length_c   6.35683821
_cell_angle_alpha   90.00000000
_cell_angle_beta   89.97075718
_cell_angle_gamma   90.00000000
_symmetry_Int_Tables_number   1
_chemical_formula_structural   Ho10(IrRh)3
_chemical_formula_sum   'Ho20 Ir6 Rh6'
_cell_volume   746.68048335
_cell_formula_units_Z   2
loop_
 _symmetry_equiv_pos_site_id
 _symmetry_equiv_pos_as_xyz
  1  'x, y, z'
loop_
 _atom_site_type_symbol
 _atom_site_label
 _atom_site_symmetry_multiplicity
 _atom_site_fract_x
 _atom_site_fract_y
 _atom_site_fract_z
 _atom_site_occupancy
  Ho  Ho0  1  0.290193  0.088736  0.378804  1
  Ho  Ho1  1  0.290193  0.911264  0.878804  1
  Ho  Ho2  1  0.708549  0.089805  0.878379  1
  Ho  Ho3  1  0.708549  0.910195  0.378379  1
  Ho  Ho4  1  0.587509  0.790098  0.879012  1
  Ho  Ho5  1  0.587509  0.209902  0.379012  1
  Ho  Ho6  1  0.410846  0.790501  0.378882  1
  Ho  Ho7  1  0.410846  0.209499  0.878882  1
  Ho  Ho8  1  0.209722  0.411012  0.620900  1
  Ho  Ho9  1  0.209722  0.588988  0.120900  1
  Ho  Ho10  1  0.790182  0.412514  0.121255  1
  Ho  Ho11  1  0.790182  0.587486  0.621255  1
  Ho  Ho12  1  0.911683  0.709236  0.121742  1
  Ho  Ho13  1  0.911683  0.290764  0.621742  1
  Ho  Ho14  1  0.090201  0.709104  0.621071  1
  Ho  Ho15  1  0.090201  0.290896  0.121071  1
  Ho  Ho16  1  0.000182  0.999808  0.500104  1
  Ho  Ho17  1  0.000182  0.000192  0.000104  1
  Ho  Ho18  1  0.500149  0.499671  0.000017  1
  Ho  Ho19  1  0.500149  0.500329  0.500017  1
  Ir  Ir20  1  0.153262  0.154119  0.749916  1
  Ir  Ir21  1  0.153262  0.845881  0.249916  1
  Ir  Ir22  1  0.654930  0.345462  0.749772  1
  Ir  Ir23  1  0.654930  0.654538  0.249772  1
  Ir  Ir24  1  0.346184  0.345810  0.250307  1
  Ir  Ir25  1  0.346184  0.654190  0.750307  1
  Rh  Rh26  1  0.845878  0.153427  0.249864  1
  Rh  Rh27  1  0.845878  0.846573  0.749864  1
  Rh  Rh28  1  0.501093  0.000036  0.122616  1
  Rh  Rh29  1  0.501093  0.999964  0.622616  1
  Rh  Rh30  1  0.999437  0.500140  0.877360  1
  Rh  Rh31  1  0.999437  0.499860  0.377360  1
