# generated using pymatgen
data_Th2FeGeI2
_symmetry_space_group_name_H-M   'P 1'
_cell_length_a   4.24264900
_cell_length_b   4.24266527
_cell_length_c   11.95893100
_cell_angle_alpha   89.99965252
_cell_angle_beta   90.00024132
_cell_angle_gamma   120.00002436
_symmetry_Int_Tables_number   1
_chemical_formula_structural   Th2FeGeI2
_chemical_formula_sum   'Th2 Fe1 Ge1 I2'
_cell_volume   186.42268446
_cell_formula_units_Z   1
loop_
 _symmetry_equiv_pos_site_id
 _symmetry_equiv_pos_as_xyz
  1  'x, y, z'
loop_
 _atom_site_type_symbol
 _atom_site_label
 _atom_site_symmetry_multiplicity
 _atom_site_fract_x
 _atom_site_fract_y
 _atom_site_fract_z
 _atom_site_occupancy
  Th  Th0  1  0.999998  0.999996  0.146156  1
  Th  Th1  1  0.000000  0.999999  0.849850  1
  Fe  Fe2  1  0.333335  0.666671  0.007934  1
  Ge  Ge3  1  0.666667  0.333334  0.993638  1
  I  I4  1  0.333333  0.666666  0.662314  1
  I  I5  1  0.666667  0.333333  0.340107  1
