# generated using pymatgen
data_AgTe2Br
_symmetry_space_group_name_H-M   'P 1'
_cell_length_a   5.26422376
_cell_length_b   8.81116461
_cell_length_c   13.44721941
_cell_angle_alpha   63.58678157
_cell_angle_beta   89.94356029
_cell_angle_gamma   89.94603443
_symmetry_Int_Tables_number   1
_chemical_formula_structural   AgTe2Br
_chemical_formula_sum   'Ag4 Te8 Br4'
_cell_volume   558.62245961
_cell_formula_units_Z   4
loop_
 _symmetry_equiv_pos_site_id
 _symmetry_equiv_pos_as_xyz
  1  'x, y, z'
loop_
 _atom_site_type_symbol
 _atom_site_label
 _atom_site_symmetry_multiplicity
 _atom_site_fract_x
 _atom_site_fract_y
 _atom_site_fract_z
 _atom_site_occupancy
  Ag  Ag0  1  0.604060  0.816649  0.247853  1
  Ag  Ag1  1  0.895247  0.815432  0.747533  1
  Ag  Ag2  1  0.395655  0.183270  0.752097  1
  Ag  Ag3  1  0.103802  0.185105  0.252585  1
  Te  Te4  1  0.472261  0.287314  0.359069  1
  Te  Te5  1  0.971393  0.713508  0.141381  1
  Te  Te6  1  0.528339  0.713075  0.640627  1
  Te  Te7  1  0.028248  0.286645  0.858640  1
  Te  Te8  1  0.222452  0.573322  0.348917  1
  Te  Te9  1  0.721555  0.427689  0.151540  1
  Te  Te10  1  0.777267  0.426523  0.651174  1
  Te  Te11  1  0.278357  0.572646  0.848100  1
  Br  Br12  1  0.824935  0.906866  0.396442  1
  Br  Br13  1  0.323259  0.092951  0.104162  1
  Br  Br14  1  0.176852  0.091706  0.603888  1
  Br  Br15  1  0.676316  0.907297  0.895993  1
