# generated using pymatgen
data_Li3Dy3(IrO6)2
_symmetry_space_group_name_H-M   'P 1'
_cell_length_a   10.55133030
_cell_length_b   10.55132932
_cell_length_c   10.55132900
_cell_angle_alpha   109.47122193
_cell_angle_beta   109.47121429
_cell_angle_gamma   109.47121608
_symmetry_Int_Tables_number   1
_chemical_formula_structural   Li3Dy3(IrO6)2
_chemical_formula_sum   'Li12 Dy12 Ir8 O48'
_cell_volume   904.27333045
_cell_formula_units_Z   4
loop_
 _symmetry_equiv_pos_site_id
 _symmetry_equiv_pos_as_xyz
  1  'x, y, z'
loop_
 _atom_site_type_symbol
 _atom_site_label
 _atom_site_symmetry_multiplicity
 _atom_site_fract_x
 _atom_site_fract_y
 _atom_site_fract_z
 _atom_site_occupancy
  Li  Li0  1  0.875001  0.250001  0.125000  1
  Li  Li1  1  0.750000  0.875000  0.125000  1
  Li  Li2  1  0.624999  0.375000  0.250000  1
  Li  Li3  1  0.125000  0.875001  0.250001  1
  Li  Li4  1  0.625000  0.750000  0.375000  1
  Li  Li5  1  0.250000  0.625000  0.375000  1
  Li  Li6  1  0.750000  0.374999  0.625000  1
  Li  Li7  1  0.375000  0.250000  0.625000  1
  Li  Li8  1  0.375000  0.625001  0.750000  1
  Li  Li9  1  0.875000  0.125000  0.750000  1
  Li  Li10  1  0.125000  0.750000  0.874999  1
  Li  Li11  1  0.250001  0.125000  0.875001  1
  Dy  Dy12  1  0.250000  0.374999  0.125000  1
  Dy  Dy13  1  0.375000  0.750000  0.125001  1
  Dy  Dy14  1  0.874999  0.625000  0.249999  1
  Dy  Dy15  1  0.375000  0.125000  0.250000  1
  Dy  Dy16  1  0.124999  0.250000  0.375000  1
  Dy  Dy17  1  0.750001  0.125000  0.375000  1
  Dy  Dy18  1  0.249999  0.874999  0.624998  1
  Dy  Dy19  1  0.874999  0.750001  0.625000  1
  Dy  Dy20  1  0.625000  0.875000  0.750000  1
  Dy  Dy21  1  0.125000  0.374999  0.750001  1
  Dy  Dy22  1  0.625000  0.250000  0.874999  1
  Dy  Dy23  1  0.750000  0.625000  0.874999  1
  Ir  Ir24  1  0.000000  0.000000  0.000000  1
  Ir  Ir25  1  0.500000  0.000000  0.000000  1
  Ir  Ir26  1  0.500000  0.500000  0.000000  1
  Ir  Ir27  1  0.000000  0.500001  0.000000  1
  Ir  Ir28  1  0.499999  0.500000  0.499999  1
  Ir  Ir29  1  0.000000  0.500001  0.500000  1
  Ir  Ir30  1  0.500001  0.000000  0.500000  1
  Ir  Ir31  1  0.000000  0.000000  0.500000  1
  O  O32  1  0.204131  0.119538  0.029402  1
  O  O33  1  0.325272  0.909867  0.029402  1
  O  O34  1  0.880462  0.409867  0.084593  1
  O  O35  1  0.704133  0.674730  0.084594  1
  O  O36  1  0.970597  0.674728  0.090133  1
  O  O37  1  0.619537  0.415407  0.090133  1
  O  O38  1  0.029402  0.204133  0.119537  1
  O  O39  1  0.590133  0.915406  0.119537  1
  O  O40  1  0.204130  0.584594  0.174728  1
  O  O41  1  0.470598  0.590135  0.174729  1
  O  O42  1  0.584594  0.174728  0.204130  1
  O  O43  1  0.119537  0.029403  0.204131  1
  O  O44  1  0.325272  0.915406  0.295869  1
  O  O45  1  0.470598  0.380464  0.295869  1
  O  O46  1  0.915406  0.295869  0.325271  1
  O  O47  1  0.909866  0.029402  0.325271  1
  O  O48  1  0.584594  0.909868  0.380463  1
  O  O49  1  0.295868  0.470598  0.380463  1
  O  O50  1  0.825271  0.529402  0.409865  1
  O  O51  1  0.084594  0.880463  0.409866  1
  O  O52  1  0.825272  0.795870  0.415406  1
  O  O53  1  0.090134  0.619538  0.415406  1
  O  O54  1  0.380464  0.295869  0.470597  1
  O  O55  1  0.590133  0.174729  0.470597  1
  O  O56  1  0.619537  0.704131  0.529402  1
  O  O57  1  0.409865  0.825271  0.529402  1
  O  O58  1  0.174728  0.204131  0.584594  1
  O  O59  1  0.909867  0.380463  0.584594  1
  O  O60  1  0.915406  0.119537  0.590133  1
  O  O61  1  0.174729  0.470598  0.590134  1
  O  O62  1  0.704131  0.529402  0.619536  1
  O  O63  1  0.415407  0.090134  0.619537  1
  O  O64  1  0.090134  0.970598  0.674729  1
  O  O65  1  0.084595  0.704132  0.674730  1
  O  O66  1  0.529402  0.619537  0.704131  1
  O  O67  1  0.674730  0.084595  0.704132  1
  O  O68  1  0.415407  0.825272  0.795868  1
  O  O69  1  0.880464  0.970599  0.795870  1
  O  O70  1  0.529403  0.409866  0.825271  1
  O  O71  1  0.795870  0.415407  0.825272  1
  O  O72  1  0.409866  0.084594  0.880463  1
  O  O73  1  0.970599  0.795870  0.880464  1
  O  O74  1  0.029403  0.325271  0.909866  1
  O  O75  1  0.380463  0.584595  0.909867  1
  O  O76  1  0.119537  0.590134  0.915406  1
  O  O77  1  0.295869  0.325271  0.915406  1
  O  O78  1  0.674729  0.090134  0.970597  1
  O  O79  1  0.795869  0.880464  0.970598  1
