# generated using pymatgen
data_TmHf2Sc(NiAs)4
_symmetry_space_group_name_H-M   'P 1'
_cell_length_a   3.96906800
_cell_length_b   3.96906688
_cell_length_c   14.48672000
_cell_angle_alpha   90.00000000
_cell_angle_beta   90.00000000
_cell_angle_gamma   119.99999268
_symmetry_Int_Tables_number   1
_chemical_formula_structural   TmHf2Sc(NiAs)4
_chemical_formula_sum   'Tm1 Hf2 Sc1 Ni4 As4'
_cell_volume   197.64129290
_cell_formula_units_Z   1
loop_
 _symmetry_equiv_pos_site_id
 _symmetry_equiv_pos_as_xyz
  1  'x, y, z'
loop_
 _atom_site_type_symbol
 _atom_site_label
 _atom_site_symmetry_multiplicity
 _atom_site_fract_x
 _atom_site_fract_y
 _atom_site_fract_z
 _atom_site_occupancy
  Tm  Tm0  1  0.000000  0.000000  0.500000  1
  Hf  Hf1  1  0.000000  0.000000  0.246305  1
  Hf  Hf2  1  0.000000  0.000000  0.753695  1
  Sc  Sc3  1  0.000000  0.000000  0.000000  1
  Ni  Ni4  1  0.333333  0.666667  0.150847  1
  Ni  Ni5  1  0.666667  0.333333  0.849153  1
  Ni  Ni6  1  0.666667  0.333333  0.658609  1
  Ni  Ni7  1  0.333333  0.666667  0.341391  1
  As  As8  1  0.333333  0.666667  0.622169  1
  As  As9  1  0.666667  0.333333  0.377831  1
  As  As10  1  0.666667  0.333333  0.113418  1
  As  As11  1  0.333333  0.666667  0.886582  1
