# generated using pymatgen
data_Ho2Al9ZnRu2
_symmetry_space_group_name_H-M   'P 1'
_cell_length_a   7.61427909
_cell_length_b   7.61428000
_cell_length_c   9.48154600
_cell_angle_alpha   90.00000000
_cell_angle_beta   90.00000000
_cell_angle_gamma   119.43696958
_symmetry_Int_Tables_number   1
_chemical_formula_structural   Ho2Al9ZnRu2
_chemical_formula_sum   'Ho4 Al18 Zn2 Ru4'
_cell_volume   478.74419909
_cell_formula_units_Z   2
loop_
 _symmetry_equiv_pos_site_id
 _symmetry_equiv_pos_as_xyz
  1  'x, y, z'
loop_
 _atom_site_type_symbol
 _atom_site_label
 _atom_site_symmetry_multiplicity
 _atom_site_fract_x
 _atom_site_fract_y
 _atom_site_fract_z
 _atom_site_occupancy
  Ho  Ho0  1  0.996518  0.679358  0.250000  1
  Ho  Ho1  1  0.003482  0.320642  0.750000  1
  Ho  Ho2  1  0.679358  0.996518  0.250000  1
  Ho  Ho3  1  0.320642  0.003482  0.750000  1
  Al  Al4  1  0.141215  0.141215  0.250000  1
  Al  Al5  1  0.858785  0.858785  0.750000  1
  Al  Al6  1  0.001154  0.347822  0.076750  1
  Al  Al7  1  0.998846  0.652178  0.923250  1
  Al  Al8  1  0.998846  0.652178  0.576750  1
  Al  Al9  1  0.347822  0.001154  0.423250  1
  Al  Al10  1  0.001154  0.347822  0.423250  1
  Al  Al11  1  0.652178  0.998846  0.576750  1
  Al  Al12  1  0.652178  0.998846  0.923250  1
  Al  Al13  1  0.347822  0.001154  0.076750  1
  Al  Al14  1  0.343602  0.343602  0.554195  1
  Al  Al15  1  0.656398  0.656398  0.445805  1
  Al  Al16  1  0.656398  0.656398  0.054195  1
  Al  Al17  1  0.343602  0.343602  0.945805  1
  Al  Al18  1  0.336751  0.554949  0.250000  1
  Al  Al19  1  0.663249  0.445051  0.750000  1
  Al  Al20  1  0.554949  0.336751  0.250000  1
  Al  Al21  1  0.445051  0.663249  0.750000  1
  Zn  Zn22  1  0.000000  0.000000  0.000000  1
  Zn  Zn23  1  0.000000  0.000000  0.500000  1
  Ru  Ru24  1  0.671978  0.328022  0.000000  1
  Ru  Ru25  1  0.328022  0.671978  0.000000  1
  Ru  Ru26  1  0.328022  0.671978  0.500000  1
  Ru  Ru27  1  0.671978  0.328022  0.500000  1
