# generated using pymatgen
data_SmLuBi2(Rh2O7)2
_symmetry_space_group_name_H-M   'P 1'
_cell_length_a   7.29715781
_cell_length_b   7.29715693
_cell_length_c   7.23768865
_cell_angle_alpha   60.08780178
_cell_angle_beta   60.08780797
_cell_angle_gamma   60.41896601
_symmetry_Int_Tables_number   1
_chemical_formula_structural   SmLuBi2(Rh2O7)2
_chemical_formula_sum   'Sm1 Lu1 Bi2 Rh4 O14'
_cell_volume   273.73313987
_cell_formula_units_Z   1
loop_
 _symmetry_equiv_pos_site_id
 _symmetry_equiv_pos_as_xyz
  1  'x, y, z'
loop_
 _atom_site_type_symbol
 _atom_site_label
 _atom_site_symmetry_multiplicity
 _atom_site_fract_x
 _atom_site_fract_y
 _atom_site_fract_z
 _atom_site_occupancy
  Sm  Sm0  1  0.125000  0.125000  0.125000  1
  Lu  Lu1  1  0.125000  0.125000  0.625000  1
  Bi  Bi2  1  0.125000  0.625000  0.125000  1
  Bi  Bi3  1  0.625000  0.125000  0.125000  1
  Rh  Rh4  1  0.625000  0.625000  0.625000  1
  Rh  Rh5  1  0.625000  0.625000  0.125000  1
  Rh  Rh6  1  0.125000  0.625000  0.625000  1
  Rh  Rh7  1  0.625000  0.125000  0.625000  1
  O  O8  1  0.246373  0.246373  0.263118  1
  O  O9  1  0.288496  0.712728  0.288557  1
  O  O10  1  0.962219  0.962219  0.545986  1
  O  O11  1  0.531305  0.960959  0.545205  1
  O  O12  1  0.707953  0.707953  0.292424  1
  O  O13  1  0.960959  0.531305  0.545205  1
  O  O14  1  0.718695  0.289041  0.704795  1
  O  O15  1  0.287781  0.287781  0.704014  1
  O  O16  1  0.712728  0.288496  0.288557  1
  O  O17  1  0.289041  0.718695  0.704795  1
  O  O18  1  0.961504  0.537272  0.961443  1
  O  O19  1  0.542047  0.542047  0.957576  1
  O  O20  1  0.003627  0.003627  0.986882  1
  O  O21  1  0.537272  0.961504  0.961443  1
