# generated using pymatgen
data_Hf3Ti3CuSb2
_symmetry_space_group_name_H-M   'P 1'
_cell_length_a   7.32846500
_cell_length_b   7.32846487
_cell_length_c   3.75418400
_cell_angle_alpha   90.00000000
_cell_angle_beta   90.00000000
_cell_angle_gamma   119.99999607
_symmetry_Int_Tables_number   1
_chemical_formula_structural   Hf3Ti3CuSb2
_chemical_formula_sum   'Hf3 Ti3 Cu1 Sb2'
_cell_volume   174.61125418
_cell_formula_units_Z   1
loop_
 _symmetry_equiv_pos_site_id
 _symmetry_equiv_pos_as_xyz
  1  'x, y, z'
loop_
 _atom_site_type_symbol
 _atom_site_label
 _atom_site_symmetry_multiplicity
 _atom_site_fract_x
 _atom_site_fract_y
 _atom_site_fract_z
 _atom_site_occupancy
  Hf  Hf0  1  0.608311  0.000000  0.000000  1
  Hf  Hf1  1  0.391689  0.391689  0.000000  1
  Hf  Hf2  1  0.000000  0.608311  0.000000  1
  Ti  Ti3  1  0.234197  0.000000  0.500000  1
  Ti  Ti4  1  0.000000  0.234197  0.500000  1
  Ti  Ti5  1  0.765803  0.765804  0.500000  1
  Cu  Cu6  1  0.000000  0.000000  0.000000  1
  Sb  Sb7  1  0.666666  0.333333  0.500000  1
  Sb  Sb8  1  0.333333  0.666666  0.500000  1
