# generated using pymatgen
data_Li8Nd8PdAu7
_symmetry_space_group_name_H-M   'P 1'
_cell_length_a   4.17413400
_cell_length_b   7.52797347
_cell_length_c   17.01559600
_cell_angle_alpha   90.52702695
_cell_angle_beta   90.00000000
_cell_angle_gamma   90.00000000
_symmetry_Int_Tables_number   1
_chemical_formula_structural   Li8Nd8PdAu7
_chemical_formula_sum   'Li8 Nd8 Pd1 Au7'
_cell_volume   534.65454028
_cell_formula_units_Z   1
loop_
 _symmetry_equiv_pos_site_id
 _symmetry_equiv_pos_as_xyz
  1  'x, y, z'
loop_
 _atom_site_type_symbol
 _atom_site_label
 _atom_site_symmetry_multiplicity
 _atom_site_fract_x
 _atom_site_fract_y
 _atom_site_fract_z
 _atom_site_occupancy
  Li  Li0  1  0.750000  0.006557  0.559201  1
  Li  Li1  1  0.250000  0.632163  0.351949  1
  Li  Li2  1  0.750000  0.370696  0.649142  1
  Li  Li3  1  0.250000  0.493773  0.060416  1
  Li  Li4  1  0.750000  0.505954  0.939734  1
  Li  Li5  1  0.250000  0.993000  0.440473  1
  Li  Li6  1  0.250000  0.129732  0.150135  1
  Li  Li7  1  0.750000  0.869348  0.850737  1
  Nd  Nd8  1  0.250000  0.162036  0.937773  1
  Nd  Nd9  1  0.250000  0.668197  0.556893  1
  Nd  Nd10  1  0.750000  0.343109  0.438161  1
  Nd  Nd11  1  0.750000  0.949857  0.288279  1
  Nd  Nd12  1  0.750000  0.837155  0.061795  1
  Nd  Nd13  1  0.750000  0.457579  0.217085  1
  Nd  Nd14  1  0.250000  0.041786  0.715999  1
  Nd  Nd15  1  0.250000  0.545501  0.783830  1
  Pd  Pd16  1  0.750000  0.746007  0.436575  1
  Au  Au17  1  0.250000  0.246251  0.313150  1
  Au  Au18  1  0.750000  0.252577  0.811750  1
  Au  Au19  1  0.750000  0.748716  0.685800  1
  Au  Au20  1  0.250000  0.245958  0.563332  1
  Au  Au21  1  0.250000  0.751577  0.188257  1
  Au  Au22  1  0.750000  0.256799  0.062842  1
  Au  Au23  1  0.250000  0.745672  0.936691  1
