# generated using pymatgen
data_Er10Al3GaRu6
_symmetry_space_group_name_H-M   'P 1'
_cell_length_a   8.28160854
_cell_length_b   8.28160768
_cell_length_c   8.28160900
_cell_angle_alpha   109.52747429
_cell_angle_beta   109.52747048
_cell_angle_gamma   109.52746160
_symmetry_Int_Tables_number   1
_chemical_formula_structural   Er10Al3GaRu6
_chemical_formula_sum   'Er10 Al3 Ga1 Ru6'
_cell_volume   436.32936588
_cell_formula_units_Z   1
loop_
 _symmetry_equiv_pos_site_id
 _symmetry_equiv_pos_as_xyz
  1  'x, y, z'
loop_
 _atom_site_type_symbol
 _atom_site_label
 _atom_site_symmetry_multiplicity
 _atom_site_fract_x
 _atom_site_fract_y
 _atom_site_fract_z
 _atom_site_occupancy
  Er  Er0  1  0.784603  0.784603  0.784603  1
  Er  Er1  1  0.318845  0.568359  0.749522  1
  Er  Er2  1  0.749522  0.318845  0.568359  1
  Er  Er3  1  0.568359  0.749522  0.318845  1
  Er  Er4  1  0.714299  0.499678  0.000284  1
  Er  Er5  1  0.000284  0.714299  0.499678  1
  Er  Er6  1  0.499678  0.000284  0.714299  1
  Er  Er7  1  0.250281  0.181529  0.931608  1
  Er  Er8  1  0.931608  0.250281  0.181529  1
  Er  Er9  1  0.181529  0.931608  0.250281  1
  Al  Al10  1  0.089370  0.500184  0.999929  1
  Al  Al11  1  0.999929  0.089370  0.500184  1
  Al  Al12  1  0.500184  0.999929  0.089370  1
  Ga  Ga13  1  0.411465  0.411465  0.411465  1
  Ru  Ru14  1  0.876133  0.126066  0.749989  1
  Ru  Ru15  1  0.749989  0.876133  0.126066  1
  Ru  Ru16  1  0.126066  0.749989  0.876133  1
  Ru  Ru17  1  0.249638  0.624805  0.373411  1
  Ru  Ru18  1  0.373411  0.249638  0.624805  1
  Ru  Ru19  1  0.624805  0.373411  0.249638  1
