# generated using pymatgen
data_Sr21Ga8Pb7
_symmetry_space_group_name_H-M   'P 1'
_cell_length_a   12.20220877
_cell_length_b   12.20220871
_cell_length_c   12.20220900
_cell_angle_alpha   60.00000194
_cell_angle_beta   60.00000209
_cell_angle_gamma   60.00000281
_symmetry_Int_Tables_number   1
_chemical_formula_structural   Sr21Ga8Pb7
_chemical_formula_sum   'Sr21 Ga8 Pb7'
_cell_volume   1284.69603657
_cell_formula_units_Z   1
loop_
 _symmetry_equiv_pos_site_id
 _symmetry_equiv_pos_as_xyz
  1  'x, y, z'
loop_
 _atom_site_type_symbol
 _atom_site_label
 _atom_site_symmetry_multiplicity
 _atom_site_fract_x
 _atom_site_fract_y
 _atom_site_fract_z
 _atom_site_occupancy
  Sr  Sr0  1  0.103633  0.632122  0.632122  1
  Sr  Sr1  1  0.000000  0.677193  0.000000  1
  Sr  Sr2  1  0.322807  0.677193  0.000000  1
  Sr  Sr3  1  0.632122  0.632122  0.632122  1
  Sr  Sr4  1  0.367878  0.367878  0.367878  1
  Sr  Sr5  1  0.000000  0.000000  0.322807  1
  Sr  Sr6  1  0.896367  0.367878  0.367878  1
  Sr  Sr7  1  0.677193  0.322807  0.000000  1
  Sr  Sr8  1  0.322807  0.000000  0.677193  1
  Sr  Sr9  1  0.677193  0.000000  0.000000  1
  Sr  Sr10  1  0.000000  0.677193  0.322807  1
  Sr  Sr11  1  0.367878  0.367878  0.896367  1
  Sr  Sr12  1  0.367878  0.896367  0.367878  1
  Sr  Sr13  1  0.322807  0.000000  0.000000  1
  Sr  Sr14  1  0.000000  0.322807  0.000000  1
  Sr  Sr15  1  0.500000  0.500000  0.500000  1
  Sr  Sr16  1  0.632122  0.103633  0.632122  1
  Sr  Sr17  1  0.000000  0.322807  0.677193  1
  Sr  Sr18  1  0.677193  0.000000  0.322807  1
  Sr  Sr19  1  0.632122  0.632122  0.103633  1
  Sr  Sr20  1  0.000000  0.000000  0.677193  1
  Ga  Ga21  1  0.806700  0.579900  0.806700  1
  Ga  Ga22  1  0.806700  0.806700  0.806700  1
  Ga  Ga23  1  0.193300  0.193300  0.420100  1
  Ga  Ga24  1  0.806700  0.806700  0.579900  1
  Ga  Ga25  1  0.193300  0.193300  0.193300  1
  Ga  Ga26  1  0.420100  0.193300  0.193300  1
  Ga  Ga27  1  0.579900  0.806700  0.806700  1
  Ga  Ga28  1  0.193300  0.420100  0.193300  1
  Pb  Pb29  1  0.712754  0.712754  0.287246  1
  Pb  Pb30  1  0.712754  0.287246  0.712754  1
  Pb  Pb31  1  0.287246  0.712754  0.287246  1
  Pb  Pb32  1  0.287246  0.712754  0.712754  1
  Pb  Pb33  1  0.287246  0.287246  0.712754  1
  Pb  Pb34  1  0.712754  0.287246  0.287246  1
  Pb  Pb35  1  0.000000  0.000000  0.000000  1
