# generated using pymatgen
data_Sb7TePd5Se2
_symmetry_space_group_name_H-M   'P 1'
_cell_length_a   20.05623180
_cell_length_b   20.05623142
_cell_length_c   6.41788292
_cell_angle_alpha   71.44281647
_cell_angle_beta   71.44281688
_cell_angle_gamma   8.31663013
_symmetry_Int_Tables_number   1
_chemical_formula_structural   Sb7TePd5Se2
_chemical_formula_sum   'Sb7 Te1 Pd5 Se2'
_cell_volume   353.89222491
_cell_formula_units_Z   1
loop_
 _symmetry_equiv_pos_site_id
 _symmetry_equiv_pos_as_xyz
  1  'x, y, z'
loop_
 _atom_site_type_symbol
 _atom_site_label
 _atom_site_symmetry_multiplicity
 _atom_site_fract_x
 _atom_site_fract_y
 _atom_site_fract_z
 _atom_site_occupancy
  Sb  Sb0  1  0.676358  0.676358  0.714907  1
  Sb  Sb1  1  0.277769  0.277769  0.734022  1
  Sb  Sb2  1  0.875792  0.875792  0.749230  1
  Sb  Sb3  1  0.534791  0.534791  0.270106  1
  Sb  Sb4  1  0.133729  0.133729  0.252769  1
  Sb  Sb5  1  0.733301  0.733301  0.267813  1
  Sb  Sb6  1  0.335480  0.335480  0.281957  1
  Te  Te7  1  0.935906  0.935906  0.291483  1
  Pd  Pd8  1  0.005908  0.005908  0.987393  1
  Pd  Pd9  1  0.603748  0.603748  0.972583  1
  Pd  Pd10  1  0.205581  0.205581  0.987421  1
  Pd  Pd11  1  0.804906  0.804906  0.017297  1
  Pd  Pd12  1  0.407089  0.407089  0.015502  1
  Se  Se13  1  0.076949  0.076949  0.720104  1
  Se  Se14  1  0.478415  0.478415  0.737414  1
