# generated using pymatgen
data_Er5Tm3(ReB6)4
_symmetry_space_group_name_H-M   'P 1'
_cell_length_a   3.65218000
_cell_length_b   9.11690700
_cell_length_c   11.48624500
_cell_angle_alpha   90.00257529
_cell_angle_beta   90.00000000
_cell_angle_gamma   90.00000000
_symmetry_Int_Tables_number   1
_chemical_formula_structural   Er5Tm3(ReB6)4
_chemical_formula_sum   'Er5 Tm3 Re4 B24'
_cell_volume   382.45273746
_cell_formula_units_Z   1
loop_
 _symmetry_equiv_pos_site_id
 _symmetry_equiv_pos_as_xyz
  1  'x, y, z'
loop_
 _atom_site_type_symbol
 _atom_site_label
 _atom_site_symmetry_multiplicity
 _atom_site_fract_x
 _atom_site_fract_y
 _atom_site_fract_z
 _atom_site_occupancy
  Er  Er0  1  0.000000  0.323540  0.413815  1
  Er  Er1  1  0.000000  0.676433  0.586261  1
  Er  Er2  1  0.000000  0.823480  0.086117  1
  Er  Er3  1  0.000000  0.176527  0.913773  1
  Er  Er4  1  0.000000  0.943535  0.370388  1
  Tm  Tm5  1  0.000000  0.056537  0.629919  1
  Tm  Tm6  1  0.000000  0.443543  0.129644  1
  Tm  Tm7  1  0.000000  0.556468  0.870281  1
  Re  Re8  1  0.000000  0.638784  0.320521  1
  Re  Re9  1  0.000000  0.360842  0.679522  1
  Re  Re10  1  0.000000  0.139467  0.179189  1
  Re  Re11  1  0.000000  0.860761  0.820603  1
  B  B12  1  0.500000  0.553242  0.433189  1
  B  B13  1  0.500000  0.446594  0.566868  1
  B  B14  1  0.500000  0.053411  0.066742  1
  B  B15  1  0.500000  0.946620  0.933139  1
  B  B16  1  0.500000  0.749713  0.419107  1
  B  B17  1  0.500000  0.249940  0.580962  1
  B  B18  1  0.500000  0.250166  0.080873  1
  B  B19  1  0.500000  0.749884  0.919072  1
  B  B20  1  0.500000  0.792773  0.265350  1
  B  B21  1  0.500000  0.206965  0.734556  1
  B  B22  1  0.500000  0.293188  0.234482  1
  B  B23  1  0.500000  0.706937  0.765472  1
  B  B24  1  0.500000  0.630804  0.185009  1
  B  B25  1  0.500000  0.369110  0.814925  1
  B  B26  1  0.500000  0.131222  0.314753  1
  B  B27  1  0.500000  0.869079  0.685141  1
  B  B28  1  0.500000  0.982128  0.211945  1
  B  B29  1  0.500000  0.018036  0.787836  1
  B  B30  1  0.500000  0.481889  0.287782  1
  B  B31  1  0.500000  0.518050  0.712187  1
  B  B32  1  0.500000  0.599517  0.027789  1
  B  B33  1  0.500000  0.400496  0.972168  1
  B  B34  1  0.500000  0.099975  0.472424  1
  B  B35  1  0.500000  0.900344  0.528196  1
