# generated using pymatgen
data_Zr2GaSiMo2
_symmetry_space_group_name_H-M   'P 1'
_cell_length_a   3.54603200
_cell_length_b   7.07340800
_cell_length_c   8.38587100
_cell_angle_alpha   90.00000000
_cell_angle_beta   90.00000000
_cell_angle_gamma   90.00000000
_symmetry_Int_Tables_number   1
_chemical_formula_structural   Zr2GaSiMo2
_chemical_formula_sum   'Zr4 Ga2 Si2 Mo4'
_cell_volume   210.33887030
_cell_formula_units_Z   2
loop_
 _symmetry_equiv_pos_site_id
 _symmetry_equiv_pos_as_xyz
  1  'x, y, z'
loop_
 _atom_site_type_symbol
 _atom_site_label
 _atom_site_symmetry_multiplicity
 _atom_site_fract_x
 _atom_site_fract_y
 _atom_site_fract_z
 _atom_site_occupancy
  Zr  Zr0  1  0.250000  0.044943  0.329808  1
  Zr  Zr1  1  0.250000  0.544943  0.170192  1
  Zr  Zr2  1  0.750000  0.949256  0.662496  1
  Zr  Zr3  1  0.750000  0.449256  0.837504  1
  Ga  Ga4  1  0.250000  0.252690  0.637304  1
  Ga  Ga5  1  0.250000  0.752690  0.862696  1
  Si  Si6  1  0.750000  0.746596  0.361433  1
  Si  Si7  1  0.750000  0.246596  0.138567  1
  Mo  Mo8  1  0.250000  0.129658  0.945537  1
  Mo  Mo9  1  0.250000  0.629658  0.554463  1
  Mo  Mo10  1  0.750000  0.876857  0.066320  1
  Mo  Mo11  1  0.750000  0.376857  0.433680  1
