# generated using pymatgen
data_Rb8Dy4Er2BBr20
_symmetry_space_group_name_H-M   'P 1'
_cell_length_a   12.25636862
_cell_length_b   12.25636749
_cell_length_c   12.27609300
_cell_angle_alpha   59.94674418
_cell_angle_beta   59.94674724
_cell_angle_gamma   60.10650772
_symmetry_Int_Tables_number   1
_chemical_formula_structural   Rb8Dy4Er2BBr20
_chemical_formula_sum   'Rb8 Dy4 Er2 B1 Br20'
_cell_volume   1303.96671050
_cell_formula_units_Z   1
loop_
 _symmetry_equiv_pos_site_id
 _symmetry_equiv_pos_as_xyz
  1  'x, y, z'
loop_
 _atom_site_type_symbol
 _atom_site_label
 _atom_site_symmetry_multiplicity
 _atom_site_fract_x
 _atom_site_fract_y
 _atom_site_fract_z
 _atom_site_occupancy
  Rb  Rb0  1  0.359697  0.359697  0.359257  1
  Rb  Rb1  1  0.640303  0.640303  0.640743  1
  Rb  Rb2  1  0.359697  0.359697  0.921348  1
  Rb  Rb3  1  0.359257  0.921348  0.359697  1
  Rb  Rb4  1  0.640303  0.640303  0.078652  1
  Rb  Rb5  1  0.640743  0.078652  0.640303  1
  Rb  Rb6  1  0.921348  0.359257  0.359697  1
  Rb  Rb7  1  0.078652  0.640743  0.640303  1
  Dy  Dy8  1  0.848957  0.151043  0.151043  1
  Dy  Dy9  1  0.151043  0.848957  0.848957  1
  Dy  Dy10  1  0.151043  0.848957  0.151043  1
  Dy  Dy11  1  0.848957  0.151043  0.848957  1
  Er  Er12  1  0.149834  0.149834  0.850166  1
  Er  Er13  1  0.850166  0.850166  0.149834  1
  B  B14  1  0.000000  0.000000  0.000000  1
  Br  Br15  1  0.328040  0.002248  0.997752  1
  Br  Br16  1  0.671960  0.997752  0.002248  1
  Br  Br17  1  0.002248  0.328040  0.671960  1
  Br  Br18  1  0.997752  0.671960  0.328040  1
  Br  Br19  1  0.002248  0.328040  0.997752  1
  Br  Br20  1  0.671960  0.997752  0.328040  1
  Br  Br21  1  0.997752  0.671960  0.002248  1
  Br  Br22  1  0.328040  0.002248  0.671960  1
  Br  Br23  1  0.000000  0.000000  0.330310  1
  Br  Br24  1  0.000000  0.000000  0.669690  1
  Br  Br25  1  0.669690  0.330310  0.000000  1
  Br  Br26  1  0.330310  0.669690  0.000000  1
  Br  Br27  1  0.680287  0.319713  0.319713  1
  Br  Br28  1  0.319713  0.680287  0.680287  1
  Br  Br29  1  0.319713  0.680287  0.319713  1
  Br  Br30  1  0.680287  0.319713  0.680287  1
  Br  Br31  1  0.316388  0.316388  0.683612  1
  Br  Br32  1  0.683612  0.683612  0.316388  1
  Br  Br33  1  0.250000  0.250000  0.250000  1
  Br  Br34  1  0.750000  0.750000  0.750000  1
