# generated using pymatgen
data_CaTb2U5(ReB6)4
_symmetry_space_group_name_H-M   'P 1'
_cell_length_a   3.64499700
_cell_length_b   9.31150631
_cell_length_c   11.41901205
_cell_angle_alpha   89.98016356
_cell_angle_beta   90.00000000
_cell_angle_gamma   90.00000000
_symmetry_Int_Tables_number   1
_chemical_formula_structural   CaTb2U5(ReB6)4
_chemical_formula_sum   'Ca1 Tb2 U5 Re4 B24'
_cell_volume   387.56595657
_cell_formula_units_Z   1
loop_
 _symmetry_equiv_pos_site_id
 _symmetry_equiv_pos_as_xyz
  1  'x, y, z'
loop_
 _atom_site_type_symbol
 _atom_site_label
 _atom_site_symmetry_multiplicity
 _atom_site_fract_x
 _atom_site_fract_y
 _atom_site_fract_z
 _atom_site_occupancy
  Ca  Ca0  1  0.000000  0.337572  0.408110  1
  Tb  Tb1  1  0.000000  0.662662  0.590978  1
  Tb  Tb2  1  0.000000  0.835548  0.092929  1
  U  U3  1  0.000000  0.163394  0.907455  1
  U  U4  1  0.000000  0.956847  0.396553  1
  U  U5  1  0.000000  0.043774  0.602679  1
  U  U6  1  0.000000  0.457653  0.104655  1
  U  U7  1  0.000000  0.542962  0.897157  1
  Re  Re8  1  0.000000  0.647876  0.318214  1
  Re  Re9  1  0.000000  0.351501  0.685780  1
  Re  Re10  1  0.000000  0.145605  0.176720  1
  Re  Re11  1  0.000000  0.857155  0.819481  1
  B  B12  1  0.500000  0.552263  0.430943  1
  B  B13  1  0.500000  0.446773  0.570367  1
  B  B14  1  0.500000  0.052861  0.067345  1
  B  B15  1  0.500000  0.949905  0.929913  1
  B  B16  1  0.500000  0.743462  0.422977  1
  B  B17  1  0.500000  0.256598  0.577727  1
  B  B18  1  0.500000  0.242694  0.075879  1
  B  B19  1  0.500000  0.756201  0.922318  1
  B  B20  1  0.500000  0.802784  0.275244  1
  B  B21  1  0.500000  0.196504  0.726805  1
  B  B22  1  0.500000  0.301882  0.224597  1
  B  B23  1  0.500000  0.698033  0.774792  1
  B  B24  1  0.500000  0.644095  0.188887  1
  B  B25  1  0.500000  0.354520  0.812703  1
  B  B26  1  0.500000  0.144007  0.310454  1
  B  B27  1  0.500000  0.855475  0.688239  1
  B  B28  1  0.500000  0.990131  0.219225  1
  B  B29  1  0.500000  0.012728  0.780898  1
  B  B30  1  0.500000  0.489887  0.280798  1
  B  B31  1  0.500000  0.510451  0.719987  1
  B  B32  1  0.500000  0.639836  0.038578  1
  B  B33  1  0.500000  0.357173  0.960836  1
  B  B34  1  0.500000  0.138123  0.461169  1
  B  B35  1  0.500000  0.861061  0.538612  1
