# generated using pymatgen
data_Sc3MnAl2(B2Ir5)2
_symmetry_space_group_name_H-M   'P 1'
_cell_length_a   9.43707214
_cell_length_b   9.43707214
_cell_length_c   3.00098200
_cell_angle_alpha   90.00000000
_cell_angle_beta   90.00000000
_cell_angle_gamma   90.47812030
_symmetry_Int_Tables_number   1
_chemical_formula_structural   Sc3MnAl2(B2Ir5)2
_chemical_formula_sum   'Sc3 Mn1 Al2 B4 Ir10'
_cell_volume   267.25314184
_cell_formula_units_Z   1
loop_
 _symmetry_equiv_pos_site_id
 _symmetry_equiv_pos_as_xyz
  1  'x, y, z'
loop_
 _atom_site_type_symbol
 _atom_site_label
 _atom_site_symmetry_multiplicity
 _atom_site_fract_x
 _atom_site_fract_y
 _atom_site_fract_z
 _atom_site_occupancy
  Sc  Sc0  1  0.176362  0.322323  0.000000  1
  Sc  Sc1  1  0.822323  0.676362  0.000000  1
  Sc  Sc2  1  0.325906  0.825906  0.000000  1
  Mn  Mn3  1  0.678597  0.178597  0.000000  1
  Al  Al4  1  0.000643  0.999190  0.000000  1
  Al  Al5  1  0.499190  0.500643  0.000000  1
  B  B6  1  0.376765  0.125970  0.000000  1
  B  B7  1  0.870190  0.370190  0.000000  1
  B  B8  1  0.123988  0.623987  0.000000  1
  B  B9  1  0.625969  0.876765  0.000000  1
  Ir  Ir10  1  0.504222  0.004222  0.500002  1
  Ir  Ir11  1  0.216483  0.068501  0.500002  1
  Ir  Ir12  1  0.929005  0.212950  0.500002  1
  Ir  Ir13  1  0.430464  0.285701  0.500002  1
  Ir  Ir14  1  0.712951  0.429004  0.500002  1
  Ir  Ir15  1  0.998615  0.498615  0.500002  1
  Ir  Ir16  1  0.284092  0.570035  0.500002  1
  Ir  Ir17  1  0.568501  0.716484  0.500002  1
  Ir  Ir18  1  0.070035  0.784093  0.500002  1
  Ir  Ir19  1  0.785702  0.930465  0.500002  1
