# generated using pymatgen
data_CeTm3BeRh12
_symmetry_space_group_name_H-M   'P 1'
_cell_length_a   7.06666926
_cell_length_b   7.09009516
_cell_length_c   7.06666786
_cell_angle_alpha   109.53839192
_cell_angle_beta   109.40396550
_cell_angle_gamma   109.53838810
_symmetry_Int_Tables_number   1
_chemical_formula_structural   CeTm3BeRh12
_chemical_formula_sum   'Ce1 Tm3 Be1 Rh12'
_cell_volume   272.33216953
_cell_formula_units_Z   1
loop_
 _symmetry_equiv_pos_site_id
 _symmetry_equiv_pos_as_xyz
  1  'x, y, z'
loop_
 _atom_site_type_symbol
 _atom_site_label
 _atom_site_symmetry_multiplicity
 _atom_site_fract_x
 _atom_site_fract_y
 _atom_site_fract_z
 _atom_site_occupancy
  Ce  Ce0  1  0.000000  0.500000  0.000000  1
  Tm  Tm1  1  0.000000  0.000000  0.500000  1
  Tm  Tm2  1  0.500000  0.000000  0.000000  1
  Tm  Tm3  1  0.500000  0.500000  0.500000  1
  Be  Be4  1  0.000000  0.000000  0.000000  1
  Rh  Rh5  1  0.749881  0.249881  0.499762  1
  Rh  Rh6  1  0.749881  0.500000  0.250119  1
  Rh  Rh7  1  0.499762  0.249881  0.749881  1
  Rh  Rh8  1  0.250119  0.500000  0.749881  1
  Rh  Rh9  1  0.250119  0.750119  0.500238  1
  Rh  Rh10  1  0.500238  0.750119  0.250119  1
  Rh  Rh11  1  0.729801  0.730567  0.000000  1
  Rh  Rh12  1  0.270199  0.000766  0.270199  1
  Rh  Rh13  1  0.000000  0.269433  0.270199  1
  Rh  Rh14  1  0.270199  0.269433  0.000000  1
  Rh  Rh15  1  0.729801  0.999234  0.729801  1
  Rh  Rh16  1  0.000000  0.730567  0.729801  1
