# generated using pymatgen
data_Mg8B24IrRu3
_symmetry_space_group_name_H-M   'P 1'
_cell_length_a   3.47527100
_cell_length_b   8.85993179
_cell_length_c   11.03597402
_cell_angle_alpha   90.02058020
_cell_angle_beta   90.00000000
_cell_angle_gamma   90.00000000
_symmetry_Int_Tables_number   1
_chemical_formula_structural   Mg8B24IrRu3
_chemical_formula_sum   'Mg8 B24 Ir1 Ru3'
_cell_volume   339.80494632
_cell_formula_units_Z   1
loop_
 _symmetry_equiv_pos_site_id
 _symmetry_equiv_pos_as_xyz
  1  'x, y, z'
loop_
 _atom_site_type_symbol
 _atom_site_label
 _atom_site_symmetry_multiplicity
 _atom_site_fract_x
 _atom_site_fract_y
 _atom_site_fract_z
 _atom_site_occupancy
  Mg  Mg0  1  0.500000  0.321323  0.414775  1
  Mg  Mg1  1  0.500000  0.674900  0.590696  1
  Mg  Mg2  1  0.500000  0.172201  0.912864  1
  Mg  Mg3  1  0.500000  0.830620  0.082793  1
  Mg  Mg4  1  0.500000  0.442191  0.126837  1
  Mg  Mg5  1  0.500000  0.556515  0.871167  1
  Mg  Mg6  1  0.500000  0.055642  0.629454  1
  Mg  Mg7  1  0.500000  0.946095  0.371601  1
  B  B8  1  0.000000  0.092384  0.474485  1
  B  B9  1  0.000000  0.906521  0.526202  1
  B  B10  1  0.000000  0.407236  0.974153  1
  B  B11  1  0.000000  0.592714  0.025281  1
  B  B12  1  0.000000  0.131082  0.319727  1
  B  B13  1  0.000000  0.868972  0.680676  1
  B  B14  1  0.000000  0.368556  0.819459  1
  B  B15  1  0.000000  0.631533  0.180149  1
  B  B16  1  0.000000  0.054994  0.063931  1
  B  B17  1  0.000000  0.945187  0.935973  1
  B  B18  1  0.000000  0.444751  0.563965  1
  B  B19  1  0.000000  0.555960  0.436222  1
  B  B20  1  0.000000  0.479098  0.289475  1
  B  B21  1  0.000000  0.521344  0.710780  1
  B  B22  1  0.000000  0.020984  0.789077  1
  B  B23  1  0.000000  0.979643  0.210977  1
  B  B24  1  0.000000  0.255376  0.078905  1
  B  B25  1  0.000000  0.744077  0.920745  1
  B  B26  1  0.000000  0.243742  0.579267  1
  B  B27  1  0.000000  0.755466  0.420942  1
  B  B28  1  0.000000  0.296603  0.238945  1
  B  B29  1  0.000000  0.703254  0.761789  1
  B  B30  1  0.000000  0.203088  0.738102  1
  B  B31  1  0.000000  0.796588  0.261628  1
  Ir  Ir32  1  0.500000  0.641102  0.318624  1
  Ru  Ru33  1  0.500000  0.141570  0.180001  1
  Ru  Ru34  1  0.500000  0.859049  0.820765  1
  Ru  Ru35  1  0.500000  0.359643  0.679569  1
