# generated using pymatgen
data_Tb3Ho9TcRu3
_symmetry_space_group_name_H-M   'P 1'
_cell_length_a   6.27373217
_cell_length_b   7.32517815
_cell_length_c   9.16529300
_cell_angle_alpha   90.00000000
_cell_angle_beta   90.00000000
_cell_angle_gamma   90.00160876
_symmetry_Int_Tables_number   1
_chemical_formula_structural   Tb3Ho9TcRu3
_chemical_formula_sum   'Tb3 Ho9 Tc1 Ru3'
_cell_volume   421.20209109
_cell_formula_units_Z   1
loop_
 _symmetry_equiv_pos_site_id
 _symmetry_equiv_pos_as_xyz
  1  'x, y, z'
loop_
 _atom_site_type_symbol
 _atom_site_label
 _atom_site_symmetry_multiplicity
 _atom_site_fract_x
 _atom_site_fract_y
 _atom_site_fract_z
 _atom_site_occupancy
  Tb  Tb0  1  0.868705  0.539994  0.250000  1
  Tb  Tb1  1  0.133482  0.457913  0.750000  1
  Tb  Tb2  1  0.367103  0.958175  0.750000  1
  Ho  Ho3  1  0.333947  0.676336  0.065090  1
  Ho  Ho4  1  0.167370  0.175900  0.434903  1
  Ho  Ho5  1  0.667347  0.323488  0.564505  1
  Ho  Ho6  1  0.834963  0.825318  0.937059  1
  Ho  Ho7  1  0.667347  0.323488  0.935495  1
  Ho  Ho8  1  0.834963  0.825318  0.562941  1
  Ho  Ho9  1  0.333947  0.676336  0.434910  1
  Ho  Ho10  1  0.167370  0.175900  0.065097  1
  Ho  Ho11  1  0.627209  0.041545  0.250000  1
  Tc  Tc12  1  0.037261  0.885887  0.250000  1
  Ru  Ru13  1  0.460118  0.384085  0.250000  1
  Ru  Ru14  1  0.958373  0.116008  0.750000  1
  Ru  Ru15  1  0.540497  0.614312  0.750000  1
