# generated using pymatgen
data_TbNp3Al12Pd
_symmetry_space_group_name_H-M   'P 1'
_cell_length_a   7.50426952
_cell_length_b   7.52815274
_cell_length_c   7.50426978
_cell_angle_alpha   109.53569685
_cell_angle_beta   109.40666100
_cell_angle_gamma   109.53570836
_symmetry_Int_Tables_number   1
_chemical_formula_structural   TbNp3Al12Pd
_chemical_formula_sum   'Tb1 Np3 Al12 Pd1'
_cell_volume   326.08976627
_cell_formula_units_Z   1
loop_
 _symmetry_equiv_pos_site_id
 _symmetry_equiv_pos_as_xyz
  1  'x, y, z'
loop_
 _atom_site_type_symbol
 _atom_site_label
 _atom_site_symmetry_multiplicity
 _atom_site_fract_x
 _atom_site_fract_y
 _atom_site_fract_z
 _atom_site_occupancy
  Tb  Tb0  1  0.000000  0.500000  0.000000  1
  Np  Np1  1  0.500000  0.500000  0.500000  1
  Np  Np2  1  0.000000  0.000000  0.500000  1
  Np  Np3  1  0.500000  0.000000  0.000000  1
  Al  Al4  1  0.748817  0.500000  0.251183  1
  Al  Al5  1  0.502367  0.751183  0.251183  1
  Al  Al6  1  0.497633  0.248817  0.748817  1
  Al  Al7  1  0.748817  0.248817  0.497633  1
  Al  Al8  1  0.251183  0.751183  0.502367  1
  Al  Al9  1  0.251183  0.500000  0.748817  1
  Al  Al10  1  0.292374  0.003457  0.292374  1
  Al  Al11  1  0.000000  0.288917  0.292374  1
  Al  Al12  1  0.000000  0.711083  0.707626  1
  Al  Al13  1  0.292374  0.288917  0.000000  1
  Al  Al14  1  0.707626  0.711083  0.000000  1
  Al  Al15  1  0.707626  0.996543  0.707626  1
  Pd  Pd16  1  0.000000  0.000000  0.000000  1
