# generated using pymatgen
data_Lu4Co3Si4Ru
_symmetry_space_group_name_H-M   'P 1'
_cell_length_a   4.15095100
_cell_length_b   6.72070974
_cell_length_c   6.99261700
_cell_angle_alpha   90.20409164
_cell_angle_beta   90.00000000
_cell_angle_gamma   90.00000000
_symmetry_Int_Tables_number   1
_chemical_formula_structural   Lu4Co3Si4Ru
_chemical_formula_sum   'Lu4 Co3 Si4 Ru1'
_cell_volume   195.07415428
_cell_formula_units_Z   1
loop_
 _symmetry_equiv_pos_site_id
 _symmetry_equiv_pos_as_xyz
  1  'x, y, z'
loop_
 _atom_site_type_symbol
 _atom_site_label
 _atom_site_symmetry_multiplicity
 _atom_site_fract_x
 _atom_site_fract_y
 _atom_site_fract_z
 _atom_site_occupancy
  Lu  Lu0  1  0.750000  0.515629  0.811122  1
  Lu  Lu1  1  0.750000  0.011442  0.696541  1
  Lu  Lu2  1  0.250000  0.492486  0.187827  1
  Lu  Lu3  1  0.250000  0.990755  0.305448  1
  Co  Co4  1  0.750000  0.843930  0.062106  1
  Co  Co5  1  0.250000  0.651475  0.565765  1
  Co  Co6  1  0.250000  0.148431  0.932721  1
  Si  Si7  1  0.750000  0.196314  0.100153  1
  Si  Si8  1  0.750000  0.704660  0.397711  1
  Si  Si9  1  0.250000  0.801296  0.892913  1
  Si  Si10  1  0.250000  0.301099  0.612616  1
  Ru  Ru11  1  0.750000  0.342483  0.435077  1
