# generated using pymatgen
data_Zr3Ti3AlAs2
_symmetry_space_group_name_H-M   'P 1'
_cell_length_a   7.15423500
_cell_length_b   7.15423366
_cell_length_c   3.70795700
_cell_angle_alpha   90.00000000
_cell_angle_beta   90.00000000
_cell_angle_gamma   120.00000156
_symmetry_Int_Tables_number   1
_chemical_formula_structural   Zr3Ti3AlAs2
_chemical_formula_sum   'Zr3 Ti3 Al1 As2'
_cell_volume   164.35829830
_cell_formula_units_Z   1
loop_
 _symmetry_equiv_pos_site_id
 _symmetry_equiv_pos_as_xyz
  1  'x, y, z'
loop_
 _atom_site_type_symbol
 _atom_site_label
 _atom_site_symmetry_multiplicity
 _atom_site_fract_x
 _atom_site_fract_y
 _atom_site_fract_z
 _atom_site_occupancy
  Zr  Zr0  1  0.398537  0.405561  0.500000  1
  Zr  Zr1  1  0.594439  0.992976  0.500000  1
  Zr  Zr2  1  0.007024  0.601463  0.500000  1
  Ti  Ti3  1  0.002976  0.252196  0.000000  1
  Ti  Ti4  1  0.249221  0.997024  0.000000  1
  Ti  Ti5  1  0.747804  0.750779  0.000000  1
  Al  Al6  1  0.666667  0.333333  0.000000  1
  As  As7  1  0.000000  0.000000  0.500000  1
  As  As8  1  0.333333  0.666667  0.000000  1
