# generated using pymatgen
data_Pr4DyLuGa4
_symmetry_space_group_name_H-M   'P 1'
_cell_length_a   7.71168400
_cell_length_b   7.71168400
_cell_length_c   4.60389000
_cell_angle_alpha   90.00000000
_cell_angle_beta   90.00000000
_cell_angle_gamma   90.00000000
_symmetry_Int_Tables_number   1
_chemical_formula_structural   Pr4DyLuGa4
_chemical_formula_sum   'Pr4 Dy1 Lu1 Ga4'
_cell_volume   273.79366111
_cell_formula_units_Z   1
loop_
 _symmetry_equiv_pos_site_id
 _symmetry_equiv_pos_as_xyz
  1  'x, y, z'
loop_
 _atom_site_type_symbol
 _atom_site_label
 _atom_site_symmetry_multiplicity
 _atom_site_fract_x
 _atom_site_fract_y
 _atom_site_fract_z
 _atom_site_occupancy
  Pr  Pr0  1  0.326234  0.175248  0.500001  1
  Pr  Pr1  1  0.824752  0.326234  0.500001  1
  Pr  Pr2  1  0.175248  0.673766  0.500001  1
  Pr  Pr3  1  0.673766  0.824752  0.500001  1
  Dy  Dy4  1  0.000000  0.000000  0.000000  1
  Lu  Lu5  1  0.499999  0.499999  0.000000  1
  Ga  Ga6  1  0.619328  0.120929  0.000000  1
  Ga  Ga7  1  0.120929  0.380672  0.000000  1
  Ga  Ga8  1  0.879072  0.619328  0.000000  1
  Ga  Ga9  1  0.380672  0.879072  0.000000  1
