# generated using pymatgen
data_DyCoSb12Os2Ru
_symmetry_space_group_name_H-M   'P 1'
_cell_length_a   8.07992889
_cell_length_b   8.07502073
_cell_length_c   8.13836703
_cell_angle_alpha   109.61076950
_cell_angle_beta   109.62929908
_cell_angle_gamma   109.33887121
_symmetry_Int_Tables_number   1
_chemical_formula_structural   DyCoSb12Os2Ru
_chemical_formula_sum   'Dy1 Co1 Sb12 Os2 Ru1'
_cell_volume   407.91992771
_cell_formula_units_Z   1
loop_
 _symmetry_equiv_pos_site_id
 _symmetry_equiv_pos_as_xyz
  1  'x, y, z'
loop_
 _atom_site_type_symbol
 _atom_site_label
 _atom_site_symmetry_multiplicity
 _atom_site_fract_x
 _atom_site_fract_y
 _atom_site_fract_z
 _atom_site_occupancy
  Dy  Dy0  1  0.000000  0.000000  0.000000  1
  Co  Co1  1  0.000000  0.000000  0.500000  1
  Sb  Sb2  1  0.330626  0.176506  0.837030  1
  Sb  Sb3  1  0.669373  0.823494  0.162970  1
  Sb  Sb4  1  0.660330  0.504551  0.842967  1
  Sb  Sb5  1  0.339670  0.495449  0.157033  1
  Sb  Sb6  1  0.177455  0.846821  0.340588  1
  Sb  Sb7  1  0.822545  0.153179  0.659413  1
  Sb  Sb8  1  0.505038  0.844757  0.663139  1
  Sb  Sb9  1  0.494962  0.155243  0.336862  1
  Sb  Sb10  1  0.842963  0.338092  0.181396  1
  Sb  Sb11  1  0.157037  0.661907  0.818604  1
  Sb  Sb12  1  0.846742  0.669281  0.506172  1
  Sb  Sb13  1  0.153258  0.330719  0.493828  1
  Os  Os14  1  0.000000  0.500000  0.000000  1
  Os  Os15  1  0.500000  0.500000  0.500000  1
  Ru  Ru16  1  0.500000  0.000000  0.000000  1
