# generated using pymatgen
data_HfZr3N2
_symmetry_space_group_name_H-M   'P 1'
_cell_length_a   5.42073845
_cell_length_b   5.42073845
_cell_length_c   3.30181300
_cell_angle_alpha   90.00000000
_cell_angle_beta   90.00000000
_cell_angle_gamma   89.22349890
_symmetry_Int_Tables_number   1
_chemical_formula_structural   HfZr3N2
_chemical_formula_sum   'Hf1 Zr3 N2'
_cell_volume   97.01290180
_cell_formula_units_Z   1
loop_
 _symmetry_equiv_pos_site_id
 _symmetry_equiv_pos_as_xyz
  1  'x, y, z'
loop_
 _atom_site_type_symbol
 _atom_site_label
 _atom_site_symmetry_multiplicity
 _atom_site_fract_x
 _atom_site_fract_y
 _atom_site_fract_z
 _atom_site_occupancy
  Hf  Hf0  1  0.797176  0.202824  0.500000  1
  Zr  Zr1  1  0.296160  0.295804  0.000000  1
  Zr  Zr2  1  0.704196  0.703840  0.000000  1
  Zr  Zr3  1  0.204434  0.795566  0.500000  1
  N  N4  1  0.993903  0.006097  0.000000  1
  N  N5  1  0.504131  0.495869  0.500000  1
