# generated using pymatgen
data_BaAc7(SiN3)4
_symmetry_space_group_name_H-M   'P 1'
_cell_length_a   6.37817718
_cell_length_b   6.37817776
_cell_length_c   12.34973897
_cell_angle_alpha   90.07024233
_cell_angle_beta   89.92975637
_cell_angle_gamma   127.68493092
_symmetry_Int_Tables_number   1
_chemical_formula_structural   BaAc7(SiN3)4
_chemical_formula_sum   'Ba1 Ac7 Si4 N12'
_cell_volume   397.59235404
_cell_formula_units_Z   1
loop_
 _symmetry_equiv_pos_site_id
 _symmetry_equiv_pos_as_xyz
  1  'x, y, z'
loop_
 _atom_site_type_symbol
 _atom_site_label
 _atom_site_symmetry_multiplicity
 _atom_site_fract_x
 _atom_site_fract_y
 _atom_site_fract_z
 _atom_site_occupancy
  Ba  Ba0  1  0.044670  0.955330  0.855783  1
  Ac  Ac1  1  0.943695  0.056305  0.141033  1
  Ac  Ac2  1  0.442866  0.557134  0.360108  1
  Ac  Ac3  1  0.558408  0.441592  0.640177  1
  Ac  Ac4  1  0.638223  0.361777  0.073305  1
  Ac  Ac5  1  0.353234  0.646766  0.925711  1
  Ac  Ac6  1  0.861028  0.138972  0.571867  1
  Ac  Ac7  1  0.142248  0.857752  0.427789  1
  Si  Si8  1  0.737210  0.262790  0.831781  1
  Si  Si9  1  0.259840  0.740160  0.169660  1
  Si  Si10  1  0.760476  0.239524  0.331171  1
  Si  Si11  1  0.243833  0.756167  0.670392  1
  N  N12  1  0.584692  0.415308  0.857084  1
  N  N13  1  0.413400  0.586600  0.138773  1
  N  N14  1  0.914492  0.085508  0.358235  1
  N  N15  1  0.092937  0.907063  0.634585  1
  N  N16  1  0.529939  0.974164  0.750699  1
  N  N17  1  0.978722  0.518640  0.249818  1
  N  N18  1  0.481360  0.021278  0.249818  1
  N  N19  1  0.025836  0.470061  0.750699  1
  N  N20  1  0.822013  0.177987  0.951368  1
  N  N21  1  0.165367  0.834633  0.058485  1
  N  N22  1  0.665602  0.334398  0.444702  1
  N  N23  1  0.339908  0.660092  0.556957  1
