# generated using pymatgen
data_Hf5Sc3Ta4(VSi2)8
_symmetry_space_group_name_H-M   'P 1'
_cell_length_a   6.69892435
_cell_length_b   6.70041088
_cell_length_c   12.41389109
_cell_angle_alpha   90.02668938
_cell_angle_beta   89.97988696
_cell_angle_gamma   89.96310181
_symmetry_Int_Tables_number   1
_chemical_formula_structural   Hf5Sc3Ta4(VSi2)8
_chemical_formula_sum   'Hf5 Sc3 Ta4 V8 Si16'
_cell_volume   557.20406413
_cell_formula_units_Z   1
loop_
 _symmetry_equiv_pos_site_id
 _symmetry_equiv_pos_as_xyz
  1  'x, y, z'
loop_
 _atom_site_type_symbol
 _atom_site_label
 _atom_site_symmetry_multiplicity
 _atom_site_fract_x
 _atom_site_fract_y
 _atom_site_fract_z
 _atom_site_occupancy
  Hf  Hf0  1  0.004597  0.661110  0.030003  1
  Hf  Hf1  1  0.836439  0.503773  0.280075  1
  Hf  Hf2  1  0.162673  0.496292  0.780014  1
  Hf  Hf3  1  0.503581  0.836856  0.719566  1
  Hf  Hf4  1  0.496130  0.162948  0.219549  1
  Sc  Sc5  1  0.997403  0.337530  0.529440  1
  Sc  Sc6  1  0.663215  0.001858  0.970730  1
  Sc  Sc7  1  0.337577  0.997631  0.470520  1
  Ta  Ta8  1  0.332642  0.335340  0.999880  1
  Ta  Ta9  1  0.165686  0.834173  0.249675  1
  Ta  Ta10  1  0.834229  0.165595  0.749967  1
  Ta  Ta11  1  0.666095  0.665973  0.500033  1
  V  V12  1  0.004878  0.160224  0.127555  1
  V  V13  1  0.342154  0.506409  0.375751  1
  V  V14  1  0.658312  0.494680  0.876736  1
  V  V15  1  0.506271  0.342435  0.624189  1
  V  V16  1  0.494324  0.658854  0.123358  1
  V  V17  1  0.994833  0.839997  0.628544  1
  V  V18  1  0.158695  0.004703  0.872589  1
  V  V19  1  0.840224  0.994092  0.371653  1
  Si  Si20  1  0.294232  0.958992  0.061489  1
  Si  Si21  1  0.540586  0.795400  0.312807  1
  Si  Si22  1  0.459270  0.204672  0.812808  1
  Si  Si23  1  0.795436  0.540820  0.687159  1
  Si  Si24  1  0.206167  0.458509  0.188024  1
  Si  Si25  1  0.706887  0.041502  0.561390  1
  Si  Si26  1  0.956986  0.291977  0.937919  1
  Si  Si27  1  0.041492  0.706646  0.438515  1
  Si  Si28  1  0.708441  0.372964  0.073381  1
  Si  Si29  1  0.126785  0.208551  0.323082  1
  Si  Si30  1  0.872269  0.790721  0.823532  1
  Si  Si31  1  0.208924  0.127261  0.677012  1
  Si  Si32  1  0.790282  0.873616  0.176969  1
  Si  Si33  1  0.291169  0.627200  0.573123  1
  Si  Si34  1  0.373870  0.709728  0.926158  1
  Si  Si35  1  0.627249  0.290966  0.426807  1
