# generated using pymatgen
data_LaY(Ni3Pt2)2
_symmetry_space_group_name_H-M   'P 1'
_cell_length_a   4.07448900
_cell_length_b   5.36902200
_cell_length_c   8.64200000
_cell_angle_alpha   90.00000000
_cell_angle_beta   90.00000000
_cell_angle_gamma   90.00000000
_symmetry_Int_Tables_number   1
_chemical_formula_structural   LaY(Ni3Pt2)2
_chemical_formula_sum   'La1 Y1 Ni6 Pt4'
_cell_volume   189.05257417
_cell_formula_units_Z   1
loop_
 _symmetry_equiv_pos_site_id
 _symmetry_equiv_pos_as_xyz
  1  'x, y, z'
loop_
 _atom_site_type_symbol
 _atom_site_label
 _atom_site_symmetry_multiplicity
 _atom_site_fract_x
 _atom_site_fract_y
 _atom_site_fract_z
 _atom_site_occupancy
  La  La0  1  0.000000  0.500000  0.000000  1
  Y  Y1  1  0.000000  0.000000  0.500000  1
  Ni  Ni2  1  0.000000  0.500000  0.350268  1
  Ni  Ni3  1  0.000000  0.000000  0.846256  1
  Ni  Ni4  1  0.000000  0.000000  0.153744  1
  Ni  Ni5  1  0.000000  0.500000  0.649732  1
  Ni  Ni6  1  0.500000  0.500000  0.500000  1
  Ni  Ni7  1  0.500000  0.000000  0.000000  1
  Pt  Pt8  1  0.500000  0.752255  0.254312  1
  Pt  Pt9  1  0.500000  0.247745  0.745688  1
  Pt  Pt10  1  0.500000  0.247745  0.254312  1
  Pt  Pt11  1  0.500000  0.752255  0.745688  1
