# generated using pymatgen
data_Er8VOs3C8
_symmetry_space_group_name_H-M   'P 1'
_cell_length_a   5.04110700
_cell_length_b   6.48749269
_cell_length_c   9.72648732
_cell_angle_alpha   89.79516402
_cell_angle_beta   90.00000000
_cell_angle_gamma   90.00000000
_symmetry_Int_Tables_number   1
_chemical_formula_structural   Er8VOs3C8
_chemical_formula_sum   'Er8 V1 Os3 C8'
_cell_volume   318.09441711
_cell_formula_units_Z   1
loop_
 _symmetry_equiv_pos_site_id
 _symmetry_equiv_pos_as_xyz
  1  'x, y, z'
loop_
 _atom_site_type_symbol
 _atom_site_label
 _atom_site_symmetry_multiplicity
 _atom_site_fract_x
 _atom_site_fract_y
 _atom_site_fract_z
 _atom_site_occupancy
  Er  Er0  1  0.250000  0.680740  0.558189  1
  Er  Er1  1  0.750000  0.323699  0.443185  1
  Er  Er2  1  0.750000  0.823055  0.056145  1
  Er  Er3  1  0.250000  0.173882  0.943022  1
  Er  Er4  1  0.250000  0.532073  0.211577  1
  Er  Er5  1  0.750000  0.465679  0.779900  1
  Er  Er6  1  0.750000  0.972026  0.715548  1
  Er  Er7  1  0.250000  0.029492  0.285219  1
  V  V8  1  0.250000  0.721284  0.867468  1
  Os  Os9  1  0.750000  0.281413  0.133592  1
  Os  Os10  1  0.750000  0.780823  0.365353  1
  Os  Os11  1  0.250000  0.223388  0.633924  1
  C  C12  1  0.250000  0.456358  0.762779  1
  C  C13  1  0.750000  0.545897  0.242395  1
  C  C14  1  0.750000  0.046516  0.258726  1
  C  C15  1  0.250000  0.953355  0.741708  1
  C  C16  1  0.250000  0.820059  0.052344  1
  C  C17  1  0.750000  0.172663  0.948858  1
  C  C18  1  0.750000  0.673455  0.552482  1
  C  C19  1  0.250000  0.324144  0.447584  1
