# generated using pymatgen
data_Sr14TaNb(Si2N9)2
_symmetry_space_group_name_H-M   'P 1'
_cell_length_a   10.40627200
_cell_length_b   6.43266732
_cell_length_c   9.53806929
_cell_angle_alpha   89.66515450
_cell_angle_beta   90.00000000
_cell_angle_gamma   90.00000000
_symmetry_Int_Tables_number   1
_chemical_formula_structural   Sr14TaNb(Si2N9)2
_chemical_formula_sum   'Sr14 Ta1 Nb1 Si4 N18'
_cell_volume   638.46827383
_cell_formula_units_Z   1
loop_
 _symmetry_equiv_pos_site_id
 _symmetry_equiv_pos_as_xyz
  1  'x, y, z'
loop_
 _atom_site_type_symbol
 _atom_site_label
 _atom_site_symmetry_multiplicity
 _atom_site_fract_x
 _atom_site_fract_y
 _atom_site_fract_z
 _atom_site_occupancy
  Sr  Sr0  1  0.946122  0.430536  0.169013  1
  Sr  Sr1  1  0.078828  0.249306  0.492801  1
  Sr  Sr2  1  0.250000  0.099684  0.795199  1
  Sr  Sr3  1  0.446589  0.569402  0.831904  1
  Sr  Sr4  1  0.578708  0.750875  0.506269  1
  Sr  Sr5  1  0.582247  0.071995  0.832750  1
  Sr  Sr6  1  0.917753  0.071995  0.832750  1
  Sr  Sr7  1  0.417966  0.928025  0.167419  1
  Sr  Sr8  1  0.421172  0.249306  0.492801  1
  Sr  Sr9  1  0.082034  0.928025  0.167419  1
  Sr  Sr10  1  0.921292  0.750875  0.506269  1
  Sr  Sr11  1  0.053411  0.569402  0.831904  1
  Sr  Sr12  1  0.750000  0.899736  0.205801  1
  Sr  Sr13  1  0.553878  0.430536  0.169013  1
  Ta  Ta14  1  0.750000  0.284608  0.439621  1
  Nb  Nb15  1  0.250000  0.715877  0.562177  1
  Si  Si16  1  0.250000  0.325964  0.066302  1
  Si  Si17  1  0.750000  0.460164  0.719426  1
  Si  Si18  1  0.750000  0.674226  0.933539  1
  Si  Si19  1  0.250000  0.540231  0.280161  1
  N  N20  1  0.393707  0.235174  0.986830  1
  N  N21  1  0.250000  0.260512  0.253632  1
  N  N22  1  0.894772  0.126858  0.348351  1
  N  N23  1  0.617249  0.366941  0.627399  1
  N  N24  1  0.750000  0.543788  0.337784  1
  N  N25  1  0.250000  0.606754  0.094750  1
  N  N26  1  0.882751  0.366941  0.627399  1
  N  N27  1  0.384192  0.631852  0.370290  1
  N  N28  1  0.750000  0.393231  0.904403  1
  N  N29  1  0.104428  0.874092  0.653077  1
  N  N30  1  0.750000  0.739254  0.746032  1
  N  N31  1  0.115808  0.631852  0.370290  1
  N  N32  1  0.606383  0.764927  0.012872  1
  N  N33  1  0.250000  0.456006  0.663226  1
  N  N34  1  0.395572  0.874092  0.653077  1
  N  N35  1  0.605228  0.126858  0.348351  1
  N  N36  1  0.106293  0.235174  0.986830  1
  N  N37  1  0.893617  0.764927  0.012872  1
