# generated using pymatgen
data_CeSm2Y(ReN3)4
_symmetry_space_group_name_H-M   'P 1'
_cell_length_a   5.47279488
_cell_length_b   5.59500766
_cell_length_c   7.82931200
_cell_angle_alpha   90.00000000
_cell_angle_beta   90.00000000
_cell_angle_gamma   90.50868641
_symmetry_Int_Tables_number   1
_chemical_formula_structural   CeSm2Y(ReN3)4
_chemical_formula_sum   'Ce1 Sm2 Y1 Re4 N12'
_cell_volume   239.72666313
_cell_formula_units_Z   1
loop_
 _symmetry_equiv_pos_site_id
 _symmetry_equiv_pos_as_xyz
  1  'x, y, z'
loop_
 _atom_site_type_symbol
 _atom_site_label
 _atom_site_symmetry_multiplicity
 _atom_site_fract_x
 _atom_site_fract_y
 _atom_site_fract_z
 _atom_site_occupancy
  Ce  Ce0  1  0.009119  0.965847  0.250000  1
  Sm  Sm1  1  0.486817  0.446262  0.250000  1
  Sm  Sm2  1  0.500910  0.546109  0.750000  1
  Y  Y3  1  0.000501  0.060133  0.750000  1
  Re  Re4  1  0.507055  0.996954  0.503042  1
  Re  Re5  1  0.997565  0.506848  0.999325  1
  Re  Re6  1  0.997565  0.506848  0.500675  1
  Re  Re7  1  0.507055  0.996954  0.996958  1
  N  N8  1  0.705191  0.291289  0.535182  1
  N  N9  1  0.296107  0.704126  0.034268  1
  N  N10  1  0.200174  0.199425  0.039977  1
  N  N11  1  0.424233  0.987156  0.750000  1
  N  N12  1  0.931214  0.514055  0.250000  1
  N  N13  1  0.296107  0.704126  0.465732  1
  N  N14  1  0.799116  0.795778  0.961772  1
  N  N15  1  0.705191  0.291289  0.964818  1
  N  N16  1  0.799116  0.795778  0.538228  1
  N  N17  1  0.067972  0.481347  0.750000  1
  N  N18  1  0.200174  0.199425  0.460023  1
  N  N19  1  0.568817  0.010246  0.250000  1
