# generated using pymatgen
data_TbYbPr(Si3Pd10)2
_symmetry_space_group_name_H-M   'P 1'
_cell_length_a   8.73960736
_cell_length_b   8.73941109
_cell_length_c   8.73885801
_cell_angle_alpha   59.99803589
_cell_angle_beta   59.99837402
_cell_angle_gamma   59.99989635
_symmetry_Int_Tables_number   1
_chemical_formula_structural   TbYbPr(Si3Pd10)2
_chemical_formula_sum   'Tb1 Yb1 Pr1 Si6 Pd20'
_cell_volume   471.95615203
_cell_formula_units_Z   1
loop_
 _symmetry_equiv_pos_site_id
 _symmetry_equiv_pos_as_xyz
  1  'x, y, z'
loop_
 _atom_site_type_symbol
 _atom_site_label
 _atom_site_symmetry_multiplicity
 _atom_site_fract_x
 _atom_site_fract_y
 _atom_site_fract_z
 _atom_site_occupancy
  Tb  Tb0  1  0.749992  0.749995  0.750002  1
  Yb  Yb1  1  0.000000  0.000000  0.000000  1
  Pr  Pr2  1  0.250014  0.250007  0.249993  1
  Si  Si3  1  0.733646  0.266324  0.266353  1
  Si  Si4  1  0.266351  0.733677  0.733648  1
  Si  Si5  1  0.266324  0.733645  0.266355  1
  Si  Si6  1  0.733678  0.266351  0.733647  1
  Si  Si7  1  0.266334  0.266335  0.733634  1
  Si  Si8  1  0.733669  0.733668  0.266361  1
  Pd  Pd9  1  0.385982  0.385970  0.385997  1
  Pd  Pd10  1  0.617015  0.617027  0.617002  1
  Pd  Pd11  1  0.385963  0.385949  0.842099  1
  Pd  Pd12  1  0.385949  0.842125  0.385958  1
  Pd  Pd13  1  0.617034  0.617047  0.148905  1
  Pd  Pd14  1  0.617047  0.148881  0.617039  1
  Pd  Pd15  1  0.842110  0.385946  0.385967  1
  Pd  Pd16  1  0.148895  0.617049  0.617031  1
  Pd  Pd17  1  0.345737  0.999408  0.999402  1
  Pd  Pd18  1  0.655477  0.999379  0.999382  1
  Pd  Pd19  1  0.999389  0.345761  0.655468  1
  Pd  Pd20  1  0.999396  0.655456  0.345750  1
  Pd  Pd21  1  0.999418  0.345731  0.999408  1
  Pd  Pd22  1  0.655445  0.999405  0.345739  1
  Pd  Pd23  1  0.999366  0.655484  0.999373  1
  Pd  Pd24  1  0.345770  0.999382  0.655477  1
  Pd  Pd25  1  0.999420  0.999418  0.345761  1
  Pd  Pd26  1  0.999361  0.999363  0.655458  1
  Pd  Pd27  1  0.655477  0.345720  0.999402  1
  Pd  Pd28  1  0.345738  0.655494  0.999386  1
