# generated using pymatgen
data_Er6Hf2Co16(SiP3)3
_symmetry_space_group_name_H-M   'P 1'
_cell_length_a   3.72893500
_cell_length_b   10.69821100
_cell_length_c   12.41101000
_cell_angle_alpha   90.00000000
_cell_angle_beta   90.00000000
_cell_angle_gamma   90.00000000
_symmetry_Int_Tables_number   1
_chemical_formula_structural   Er6Hf2Co16(SiP3)3
_chemical_formula_sum   'Er6 Hf2 Co16 Si3 P9'
_cell_volume   495.11159579
_cell_formula_units_Z   1
loop_
 _symmetry_equiv_pos_site_id
 _symmetry_equiv_pos_as_xyz
  1  'x, y, z'
loop_
 _atom_site_type_symbol
 _atom_site_label
 _atom_site_symmetry_multiplicity
 _atom_site_fract_x
 _atom_site_fract_y
 _atom_site_fract_z
 _atom_site_occupancy
  Er  Er0  1  0.750000  0.250000  0.468796  1
  Er  Er1  1  0.250000  0.750000  0.527731  1
  Er  Er2  1  0.250000  0.927835  0.792495  1
  Er  Er3  1  0.250000  0.572165  0.792495  1
  Er  Er4  1  0.750000  0.071738  0.206931  1
  Er  Er5  1  0.750000  0.428262  0.206931  1
  Hf  Hf6  1  0.250000  0.250000  0.844837  1
  Hf  Hf7  1  0.750000  0.750000  0.158306  1
  Co  Co8  1  0.250000  0.250000  0.300309  1
  Co  Co9  1  0.750000  0.750000  0.699014  1
  Co  Co10  1  0.750000  0.250000  0.009098  1
  Co  Co11  1  0.250000  0.750000  0.991793  1
  Co  Co12  1  0.250000  0.420823  0.003961  1
  Co  Co13  1  0.250000  0.079177  0.003961  1
  Co  Co14  1  0.750000  0.579841  0.997023  1
  Co  Co15  1  0.750000  0.920159  0.997023  1
  Co  Co16  1  0.250000  0.458200  0.564697  1
  Co  Co17  1  0.250000  0.041800  0.564697  1
  Co  Co18  1  0.750000  0.545892  0.432309  1
  Co  Co19  1  0.750000  0.954108  0.432309  1
  Co  Co20  1  0.250000  0.871572  0.298244  1
  Co  Co21  1  0.250000  0.628428  0.298244  1
  Co  Co22  1  0.750000  0.126938  0.703542  1
  Co  Co23  1  0.750000  0.373062  0.703542  1
  Si  Si24  1  0.250000  0.250000  0.115315  1
  Si  Si25  1  0.750000  0.750000  0.884811  1
  Si  Si26  1  0.250000  0.250000  0.637962  1
  P  P27  1  0.750000  0.750000  0.362276  1
  P  P28  1  0.250000  0.440993  0.384295  1
  P  P29  1  0.250000  0.059007  0.384295  1
  P  P30  1  0.750000  0.558604  0.615760  1
  P  P31  1  0.750000  0.941396  0.615760  1
  P  P32  1  0.250000  0.911887  0.107222  1
  P  P33  1  0.250000  0.588113  0.107222  1
  P  P34  1  0.750000  0.087133  0.893396  1
  P  P35  1  0.750000  0.412867  0.893396  1
