# generated using pymatgen
data_DyEr3(HfIr)4
_symmetry_space_group_name_H-M   'P 1'
_cell_length_a   4.51869200
_cell_length_b   7.02251502
_cell_length_c   8.28831529
_cell_angle_alpha   89.87874770
_cell_angle_beta   90.00000000
_cell_angle_gamma   90.00000000
_symmetry_Int_Tables_number   1
_chemical_formula_structural   DyEr3(HfIr)4
_chemical_formula_sum   'Dy1 Er3 Hf4 Ir4'
_cell_volume   263.00905945
_cell_formula_units_Z   1
loop_
 _symmetry_equiv_pos_site_id
 _symmetry_equiv_pos_as_xyz
  1  'x, y, z'
loop_
 _atom_site_type_symbol
 _atom_site_label
 _atom_site_symmetry_multiplicity
 _atom_site_fract_x
 _atom_site_fract_y
 _atom_site_fract_z
 _atom_site_occupancy
  Dy  Dy0  1  0.250000  0.983588  0.321817  1
  Er  Er1  1  0.250000  0.482612  0.177679  1
  Er  Er2  1  0.750000  0.017423  0.678683  1
  Er  Er3  1  0.750000  0.517362  0.821833  1
  Hf  Hf4  1  0.250000  0.357076  0.570868  1
  Hf  Hf5  1  0.250000  0.856576  0.929170  1
  Hf  Hf6  1  0.750000  0.642750  0.430129  1
  Hf  Hf7  1  0.750000  0.142857  0.069055  1
  Ir  Ir8  1  0.250000  0.231947  0.903746  1
  Ir  Ir9  1  0.250000  0.731475  0.597105  1
  Ir  Ir10  1  0.750000  0.767436  0.095385  1
  Ir  Ir11  1  0.750000  0.268898  0.404528  1
