# generated using pymatgen
data_Ho4VRe(TcB8)2
_symmetry_space_group_name_H-M   'P 1'
_cell_length_a   3.56990400
_cell_length_b   5.96778645
_cell_length_c   11.53209886
_cell_angle_alpha   90.15742522
_cell_angle_beta   90.00000000
_cell_angle_gamma   90.00000000
_symmetry_Int_Tables_number   1
_chemical_formula_structural   Ho4VRe(TcB8)2
_chemical_formula_sum   'Ho4 V1 Re1 Tc2 B16'
_cell_volume   245.68380464
_cell_formula_units_Z   1
loop_
 _symmetry_equiv_pos_site_id
 _symmetry_equiv_pos_as_xyz
  1  'x, y, z'
loop_
 _atom_site_type_symbol
 _atom_site_label
 _atom_site_symmetry_multiplicity
 _atom_site_fract_x
 _atom_site_fract_y
 _atom_site_fract_z
 _atom_site_occupancy
  Ho  Ho0  1  0.000000  0.626024  0.150085  1
  Ho  Ho1  1  0.000000  0.373093  0.850188  1
  Ho  Ho2  1  0.000000  0.127785  0.348850  1
  Ho  Ho3  1  0.000000  0.872536  0.649699  1
  V  V4  1  0.000000  0.128805  0.082669  1
  Re  Re5  1  0.000000  0.872122  0.916098  1
  Tc  Tc6  1  0.000000  0.634145  0.413571  1
  Tc  Tc7  1  0.000000  0.365922  0.587663  1
  B  B8  1  0.500000  0.977753  0.192769  1
  B  B9  1  0.500000  0.022688  0.807236  1
  B  B10  1  0.500000  0.476617  0.307319  1
  B  B11  1  0.500000  0.523217  0.692547  1
  B  B12  1  0.500000  0.786297  0.314713  1
  B  B13  1  0.500000  0.213782  0.685527  1
  B  B14  1  0.500000  0.286793  0.185037  1
  B  B15  1  0.500000  0.712987  0.815124  1
  B  B16  1  0.500000  0.864326  0.468834  1
  B  B17  1  0.500000  0.135664  0.531079  1
  B  B18  1  0.500000  0.365096  0.032349  1
  B  B19  1  0.500000  0.634803  0.968128  1
  B  B20  1  0.500000  0.886091  0.047643  1
  B  B21  1  0.500000  0.113931  0.952893  1
  B  B22  1  0.500000  0.386287  0.452494  1
  B  B23  1  0.500000  0.613236  0.547484  1
