# generated using pymatgen
data_K2Ga(GePd2)3
_symmetry_space_group_name_H-M   'P 1'
_cell_length_a   7.06643761
_cell_length_b   7.05674427
_cell_length_c   7.06643635
_cell_angle_alpha   129.27487373
_cell_angle_beta   117.52213682
_cell_angle_gamma   84.58357664
_symmetry_Int_Tables_number   1
_chemical_formula_structural   K2Ga(GePd2)3
_chemical_formula_sum   'K2 Ga1 Ge3 Pd6'
_cell_volume   231.61659049
_cell_formula_units_Z   1
loop_
 _symmetry_equiv_pos_site_id
 _symmetry_equiv_pos_as_xyz
  1  'x, y, z'
loop_
 _atom_site_type_symbol
 _atom_site_label
 _atom_site_symmetry_multiplicity
 _atom_site_fract_x
 _atom_site_fract_y
 _atom_site_fract_z
 _atom_site_occupancy
  K  K0  1  0.000905  0.982845  0.981940  1
  K  K1  1  0.499886  0.031046  0.531160  1
  Ga  Ga2  1  0.342085  0.388858  0.046772  1
  Ge  Ge3  1  0.816409  0.258137  0.441727  1
  Ge  Ge4  1  0.652999  0.697031  0.044032  1
  Ge  Ge5  1  0.187256  0.627060  0.439803  1
  Pd  Pd6  1  0.953934  0.501748  0.955247  1
  Pd  Pd7  1  0.546500  0.501748  0.547813  1
  Pd  Pd8  1  0.040469  0.999355  0.540997  1
  Pd  Pd9  1  0.782159  0.498911  0.279874  1
  Pd  Pd10  1  0.219036  0.498911  0.716750  1
  Pd  Pd11  1  0.458359  0.999355  0.958886  1
