# generated using pymatgen
data_Ce3Al7Si5Tc3Ru
_symmetry_space_group_name_H-M   'P 1'
_cell_length_a   8.79382336
_cell_length_b   8.80229381
_cell_length_c   9.41407100
_cell_angle_alpha   90.00000000
_cell_angle_beta   90.00000000
_cell_angle_gamma   120.03186780
_symmetry_Int_Tables_number   1
_chemical_formula_structural   Ce3Al7Si5Tc3Ru
_chemical_formula_sum   'Ce6 Al14 Si10 Tc6 Ru2'
_cell_volume   630.87330224
_cell_formula_units_Z   2
loop_
 _symmetry_equiv_pos_site_id
 _symmetry_equiv_pos_as_xyz
  1  'x, y, z'
loop_
 _atom_site_type_symbol
 _atom_site_label
 _atom_site_symmetry_multiplicity
 _atom_site_fract_x
 _atom_site_fract_y
 _atom_site_fract_z
 _atom_site_occupancy
  Ce  Ce0  1  0.808666  0.616882  0.750000  1
  Ce  Ce1  1  0.191334  0.808216  0.250000  1
  Ce  Ce2  1  0.617905  0.808976  0.250000  1
  Ce  Ce3  1  0.382095  0.191072  0.750000  1
  Ce  Ce4  1  0.807808  0.192454  0.750000  1
  Ce  Ce5  1  0.192192  0.384646  0.250000  1
  Al  Al6  1  0.164569  0.330599  0.579986  1
  Al  Al7  1  0.669616  0.836204  0.579640  1
  Al  Al8  1  0.166038  0.835252  0.578388  1
  Al  Al9  1  0.835431  0.166028  0.079986  1
  Al  Al10  1  0.835431  0.166028  0.420014  1
  Al  Al11  1  0.833962  0.669214  0.078388  1
  Al  Al12  1  0.330384  0.166587  0.079640  1
  Al  Al13  1  0.669616  0.836204  0.920360  1
  Al  Al14  1  0.164569  0.330599  0.920014  1
  Al  Al15  1  0.833962  0.669214  0.421612  1
  Al  Al16  1  0.566379  0.434724  0.250000  1
  Al  Al17  1  0.433621  0.868345  0.750000  1
  Al  Al18  1  0.166038  0.835252  0.921612  1
  Al  Al19  1  0.330384  0.166587  0.420360  1
  Si  Si20  1  0.335073  0.668440  0.462080  1
  Si  Si21  1  0.664927  0.333366  0.962080  1
  Si  Si22  1  0.664927  0.333366  0.537920  1
  Si  Si23  1  0.335073  0.668440  0.037920  1
  Si  Si24  1  0.001050  0.002296  0.250000  1
  Si  Si25  1  0.998950  0.001246  0.750000  1
  Si  Si26  1  0.564775  0.123564  0.250000  1
  Si  Si27  1  0.435225  0.558789  0.750000  1
  Si  Si28  1  0.121740  0.558426  0.750000  1
  Si  Si29  1  0.878260  0.436686  0.250000  1
  Tc  Tc30  1  0.500534  0.000770  0.494696  1
  Tc  Tc31  1  0.499466  0.500236  0.994696  1
  Tc  Tc32  1  0.000000  0.499703  0.000000  1
  Tc  Tc33  1  0.000000  0.499703  0.500000  1
  Tc  Tc34  1  0.499466  0.500236  0.505304  1
  Tc  Tc35  1  0.500534  0.000770  0.005304  1
  Ru  Ru36  1  0.000000  0.000440  0.500000  1
  Ru  Ru37  1  0.000000  0.000440  0.000000  1
