# generated using pymatgen
data_Tb7TmSc12Si15P
_symmetry_space_group_name_H-M   'P 1'
_cell_length_a   7.09633616
_cell_length_b   7.37679416
_cell_length_c   13.98183006
_cell_angle_alpha   89.95941882
_cell_angle_beta   89.98159871
_cell_angle_gamma   90.10076260
_symmetry_Int_Tables_number   1
_chemical_formula_structural   Tb7TmSc12Si15P
_chemical_formula_sum   'Tb7 Tm1 Sc12 Si15 P1'
_cell_volume   731.92243822
_cell_formula_units_Z   1
loop_
 _symmetry_equiv_pos_site_id
 _symmetry_equiv_pos_as_xyz
  1  'x, y, z'
loop_
 _atom_site_type_symbol
 _atom_site_label
 _atom_site_symmetry_multiplicity
 _atom_site_fract_x
 _atom_site_fract_y
 _atom_site_fract_z
 _atom_site_occupancy
  Tb  Tb0  1  0.990779  0.827492  0.900667  1
  Tb  Tb1  1  0.489340  0.674659  0.903824  1
  Tb  Tb2  1  0.990579  0.827517  0.599591  1
  Tb  Tb3  1  0.511771  0.324635  0.096497  1
  Tb  Tb4  1  0.010649  0.174642  0.403412  1
  Tb  Tb5  1  0.511610  0.324883  0.403309  1
  Tb  Tb6  1  0.489542  0.674718  0.596408  1
  Tm  Tm7  1  0.010782  0.175382  0.097222  1
  Sc  Sc8  1  0.159839  0.501847  0.749952  1
  Sc  Sc9  1  0.839228  0.497287  0.249816  1
  Sc  Sc10  1  0.339168  0.002454  0.249904  1
  Sc  Sc11  1  0.662255  0.999416  0.749928  1
  Sc  Sc12  1  0.326788  0.173025  0.627245  1
  Sc  Sc13  1  0.668742  0.823759  0.375273  1
  Sc  Sc14  1  0.168441  0.677004  0.375171  1
  Sc  Sc15  1  0.669045  0.824257  0.124549  1
  Sc  Sc16  1  0.832480  0.322763  0.626401  1
  Sc  Sc17  1  0.326514  0.173087  0.872862  1
  Sc  Sc18  1  0.832857  0.322324  0.873711  1
  Sc  Sc19  1  0.168149  0.677195  0.124610  1
  Si  Si20  1  0.965569  0.883088  0.249608  1
  Si  Si21  1  0.466149  0.617001  0.249943  1
  Si  Si22  1  0.531661  0.381209  0.750068  1
  Si  Si23  1  0.295791  0.865108  0.750002  1
  Si  Si24  1  0.715172  0.125418  0.249376  1
  Si  Si25  1  0.213770  0.373979  0.249448  1
  Si  Si26  1  0.787061  0.626866  0.749997  1
  Si  Si27  1  0.156651  0.463628  0.540085  1
  Si  Si28  1  0.842977  0.535987  0.461433  1
  Si  Si29  1  0.341557  0.964981  0.460766  1
  Si  Si30  1  0.843523  0.534848  0.038901  1
  Si  Si31  1  0.658150  0.036738  0.540411  1
  Si  Si32  1  0.156263  0.462624  0.960292  1
  Si  Si33  1  0.658616  0.036816  0.959721  1
  Si  Si34  1  0.339803  0.965877  0.039508  1
  P  P35  1  0.028727  0.127485  0.750089  1
