# generated using pymatgen
data_DyTm2Si2GeRu2
_symmetry_space_group_name_H-M   'P 1'
_cell_length_a   5.70995374
_cell_length_b   5.70995224
_cell_length_c   13.82999500
_cell_angle_alpha   90.00000000
_cell_angle_beta   90.00000000
_cell_angle_gamma   137.29652595
_symmetry_Int_Tables_number   1
_chemical_formula_structural   DyTm2Si2GeRu2
_chemical_formula_sum   'Dy2 Tm4 Si4 Ge2 Ru4'
_cell_volume   305.80711252
_cell_formula_units_Z   2
loop_
 _symmetry_equiv_pos_site_id
 _symmetry_equiv_pos_as_xyz
  1  'x, y, z'
loop_
 _atom_site_type_symbol
 _atom_site_label
 _atom_site_symmetry_multiplicity
 _atom_site_fract_x
 _atom_site_fract_y
 _atom_site_fract_z
 _atom_site_occupancy
  Dy  Dy0  1  0.644558  0.355442  0.250000  1
  Dy  Dy1  1  0.355442  0.644558  0.750000  1
  Tm  Tm2  1  0.925051  0.074949  0.387860  1
  Tm  Tm3  1  0.074949  0.925051  0.612140  1
  Tm  Tm4  1  0.925051  0.074949  0.112140  1
  Tm  Tm5  1  0.074949  0.925051  0.887860  1
  Si  Si6  1  0.615809  0.384191  0.461876  1
  Si  Si7  1  0.384191  0.615809  0.538124  1
  Si  Si8  1  0.615809  0.384191  0.038124  1
  Si  Si9  1  0.384191  0.615809  0.961876  1
  Ge  Ge10  1  0.339668  0.660332  0.250000  1
  Ge  Ge11  1  0.660332  0.339668  0.750000  1
  Ru  Ru12  1  0.788377  0.211623  0.920669  1
  Ru  Ru13  1  0.211623  0.788377  0.079331  1
  Ru  Ru14  1  0.788377  0.211623  0.579331  1
  Ru  Ru15  1  0.211623  0.788377  0.420669  1
