# generated using pymatgen
data_Nd7Y(MoO6)4
_symmetry_space_group_name_H-M   'P 1'
_cell_length_a   10.20014505
_cell_length_b   10.20014455
_cell_length_c   5.57047101
_cell_angle_alpha   75.30288564
_cell_angle_beta   75.30287989
_cell_angle_gamma   68.47694488
_symmetry_Int_Tables_number   1
_chemical_formula_structural   Nd7Y(MoO6)4
_chemical_formula_sum   'Nd7 Y1 Mo4 O24'
_cell_volume   513.13754009
_cell_formula_units_Z   1
loop_
 _symmetry_equiv_pos_site_id
 _symmetry_equiv_pos_as_xyz
  1  'x, y, z'
loop_
 _atom_site_type_symbol
 _atom_site_label
 _atom_site_symmetry_multiplicity
 _atom_site_fract_x
 _atom_site_fract_y
 _atom_site_fract_z
 _atom_site_occupancy
  Nd  Nd0  1  0.788245  0.553675  0.618078  1
  Nd  Nd1  1  0.211667  0.444511  0.382326  1
  Nd  Nd2  1  0.611838  0.388162  0.250000  1
  Nd  Nd3  1  0.390168  0.609832  0.750000  1
  Nd  Nd4  1  0.555489  0.788333  0.117674  1
  Nd  Nd5  1  0.131279  0.868721  0.250000  1
  Nd  Nd6  1  0.446325  0.211755  0.881922  1
  Y  Y7  1  0.866433  0.133567  0.750000  1
  Mo  Mo8  1  0.294901  0.009363  0.559958  1
  Mo  Mo9  1  0.705414  0.991066  0.441065  1
  Mo  Mo10  1  0.990637  0.705099  0.940042  1
  Mo  Mo11  1  0.008934  0.294586  0.058935  1
  O  O12  1  0.392784  0.422859  0.577987  1
  O  O13  1  0.571283  0.975355  0.732653  1
  O  O14  1  0.823184  0.712984  0.862936  1
  O  O15  1  0.675890  0.115057  0.139396  1
  O  O16  1  0.114315  0.673077  0.638536  1
  O  O17  1  0.326923  0.885685  0.861464  1
  O  O18  1  0.287016  0.176816  0.637064  1
  O  O19  1  0.972988  0.572182  0.234681  1
  O  O20  1  0.577141  0.607216  0.922013  1
  O  O21  1  0.427818  0.027012  0.265319  1
  O  O22  1  0.110901  0.048350  0.522905  1
  O  O23  1  0.185086  0.664662  0.083635  1
  O  O24  1  0.813845  0.330517  0.908115  1
  O  O25  1  0.335338  0.814914  0.416365  1
  O  O26  1  0.884943  0.324110  0.360604  1
  O  O27  1  0.951650  0.889099  0.977095  1
  O  O28  1  0.886718  0.954993  0.486212  1
  O  O29  1  0.669483  0.186155  0.591885  1
  O  O30  1  0.714274  0.823854  0.363327  1
  O  O31  1  0.045007  0.113282  0.013788  1
  O  O32  1  0.176146  0.285726  0.136673  1
  O  O33  1  0.607962  0.576663  0.420572  1
  O  O34  1  0.423337  0.392038  0.079428  1
  O  O35  1  0.024645  0.428717  0.767347  1
