# generated using pymatgen
data_GaCoMo6(PtN)2
_symmetry_space_group_name_H-M   'P 1'
_cell_length_a   6.82013526
_cell_length_b   6.82295532
_cell_length_c   6.84103322
_cell_angle_alpha   89.72680930
_cell_angle_beta   90.14310131
_cell_angle_gamma   89.41122188
_symmetry_Int_Tables_number   1
_chemical_formula_structural   GaCoMo6(PtN)2
_chemical_formula_sum   'Ga2 Co2 Mo12 Pt4 N4'
_cell_volume   318.31561098
_cell_formula_units_Z   2
loop_
 _symmetry_equiv_pos_site_id
 _symmetry_equiv_pos_as_xyz
  1  'x, y, z'
loop_
 _atom_site_type_symbol
 _atom_site_label
 _atom_site_symmetry_multiplicity
 _atom_site_fract_x
 _atom_site_fract_y
 _atom_site_fract_z
 _atom_site_occupancy
  Ga  Ga0  1  0.193610  0.175000  0.176870  1
  Ga  Ga1  1  0.320629  0.828364  0.692096  1
  Co  Co2  1  0.426753  0.060744  0.936126  1
  Co  Co3  1  0.815348  0.687425  0.310683  1
  Mo  Mo4  1  0.625963  0.703813  0.968044  1
  Mo  Mo5  1  0.469868  0.874658  0.294806  1
  Mo  Mo6  1  0.706201  0.953962  0.619405  1
  Mo  Mo7  1  0.545953  0.374003  0.201213  1
  Mo  Mo8  1  0.378319  0.207039  0.551934  1
  Mo  Mo9  1  0.190068  0.539081  0.370180  1
  Mo  Mo10  1  0.872328  0.308364  0.460953  1
  Mo  Mo11  1  0.041998  0.122536  0.800637  1
  Mo  Mo12  1  0.303031  0.456811  0.870349  1
  Mo  Mo13  1  0.123370  0.796311  0.043474  1
  Mo  Mo14  1  0.789580  0.041370  0.121342  1
  Mo  Mo15  1  0.951610  0.625794  0.697382  1
  Pt  Pt16  1  0.676621  0.303596  0.817046  1
  Pt  Pt17  1  0.558123  0.572765  0.556550  1
  Pt  Pt18  1  0.068740  0.933096  0.432257  1
  Pt  Pt19  1  0.943702  0.435420  0.068875  1
  N  N20  1  0.372654  0.623584  0.129345  1
  N  N21  1  0.871005  0.872471  0.874158  1
  N  N22  1  0.124816  0.373876  0.629525  1
  N  N23  1  0.629708  0.129921  0.376749  1
