# generated using pymatgen
data_Ho8ReTc(B12Ru)2
_symmetry_space_group_name_H-M   'P 1'
_cell_length_a   3.65982000
_cell_length_b   9.13143963
_cell_length_c   11.50524000
_cell_angle_alpha   90.21051201
_cell_angle_beta   90.00000000
_cell_angle_gamma   90.00000000
_symmetry_Int_Tables_number   1
_chemical_formula_structural   Ho8ReTc(B12Ru)2
_chemical_formula_sum   'Ho8 Re1 Tc1 B24 Ru2'
_cell_volume   384.49591467
_cell_formula_units_Z   1
loop_
 _symmetry_equiv_pos_site_id
 _symmetry_equiv_pos_as_xyz
  1  'x, y, z'
loop_
 _atom_site_type_symbol
 _atom_site_label
 _atom_site_symmetry_multiplicity
 _atom_site_fract_x
 _atom_site_fract_y
 _atom_site_fract_z
 _atom_site_occupancy
  Ho  Ho0  1  0.000000  0.324788  0.413787  1
  Ho  Ho1  1  0.000000  0.678436  0.585943  1
  Ho  Ho2  1  0.000000  0.821944  0.085677  1
  Ho  Ho3  1  0.000000  0.175817  0.913869  1
  Ho  Ho4  1  0.000000  0.942443  0.370121  1
  Ho  Ho5  1  0.000000  0.057625  0.628765  1
  Ho  Ho6  1  0.000000  0.442569  0.129731  1
  Ho  Ho7  1  0.000000  0.556587  0.870816  1
  Re  Re8  1  0.000000  0.862549  0.821177  1
  Tc  Tc9  1  0.000000  0.637544  0.321364  1
  B  B10  1  0.500000  0.553163  0.433736  1
  B  B11  1  0.500000  0.446602  0.567460  1
  B  B12  1  0.500000  0.053520  0.067348  1
  B  B13  1  0.500000  0.947413  0.933472  1
  B  B14  1  0.500000  0.748964  0.419290  1
  B  B15  1  0.500000  0.252129  0.580719  1
  B  B16  1  0.500000  0.247812  0.081064  1
  B  B17  1  0.500000  0.751122  0.919217  1
  B  B18  1  0.500000  0.791261  0.265411  1
  B  B19  1  0.500000  0.209054  0.733871  1
  B  B20  1  0.500000  0.290871  0.234441  1
  B  B21  1  0.500000  0.708314  0.765438  1
  B  B22  1  0.500000  0.630676  0.185552  1
  B  B23  1  0.500000  0.368236  0.814429  1
  B  B24  1  0.500000  0.131637  0.314327  1
  B  B25  1  0.500000  0.869144  0.685220  1
  B  B26  1  0.500000  0.983295  0.212115  1
  B  B27  1  0.500000  0.018326  0.787720  1
  B  B28  1  0.500000  0.481973  0.288168  1
  B  B29  1  0.500000  0.516540  0.712604  1
  B  B30  1  0.500000  0.602970  0.028918  1
  B  B31  1  0.500000  0.394905  0.971068  1
  B  B32  1  0.500000  0.105018  0.470619  1
  B  B33  1  0.500000  0.896768  0.528477  1
  Ru  Ru34  1  0.000000  0.361733  0.679013  1
  Ru  Ru35  1  0.000000  0.138251  0.179057  1
