# generated using pymatgen
data_Sc4Nb2Re5Si6Os
_symmetry_space_group_name_H-M   'P 1'
_cell_length_a   7.70537823
_cell_length_b   7.70524217
_cell_length_c   7.70524241
_cell_angle_alpha   126.34023548
_cell_angle_beta   128.29135613
_cell_angle_gamma   77.74594903
_symmetry_Int_Tables_number   1
_chemical_formula_structural   Sc4Nb2Re5Si6Os
_chemical_formula_sum   'Sc4 Nb2 Re5 Si6 Os1'
_cell_volume   280.40414411
_cell_formula_units_Z   1
loop_
 _symmetry_equiv_pos_site_id
 _symmetry_equiv_pos_as_xyz
  1  'x, y, z'
loop_
 _atom_site_type_symbol
 _atom_site_label
 _atom_site_symmetry_multiplicity
 _atom_site_fract_x
 _atom_site_fract_y
 _atom_site_fract_z
 _atom_site_occupancy
  Sc  Sc0  1  0.550453  0.096460  0.047337  1
  Sc  Sc1  1  0.449547  0.496885  0.546006  1
  Sc  Sc2  1  0.951452  0.496983  0.046863  1
  Sc  Sc3  1  0.048548  0.095410  0.545532  1
  Nb  Nb4  1  0.752553  0.897751  0.649520  1
  Nb  Nb5  1  0.247447  0.896966  0.145198  1
  Re  Re6  1  0.000000  0.232712  0.232712  1
  Re  Re7  1  0.126595  0.755662  0.629743  1
  Re  Re8  1  0.873405  0.503148  0.629067  1
  Re  Re9  1  0.625764  0.755002  0.128583  1
  Re  Re10  1  0.374236  0.502819  0.129238  1
  Si  Si11  1  0.749694  0.495781  0.245178  1
  Si  Si12  1  0.250306  0.495484  0.746087  1
  Si  Si13  1  0.335294  0.831240  0.497444  1
  Si  Si14  1  0.664706  0.162151  0.495947  1
  Si  Si15  1  0.831858  0.828703  0.995314  1
  Si  Si16  1  0.168142  0.163457  0.996845  1
  Os  Os17  1  0.500000  0.235585  0.735585  1
