# generated using pymatgen
data_Yb2Pr8AlSi4Ge
_symmetry_space_group_name_H-M   'P 1'
_cell_length_a   7.84855900
_cell_length_b   9.05885031
_cell_length_c   7.84855900
_cell_angle_alpha   115.67071434
_cell_angle_beta   90.00000000
_cell_angle_gamma   115.67071434
_symmetry_Int_Tables_number   1
_chemical_formula_structural   Yb2Pr8AlSi4Ge
_chemical_formula_sum   'Yb2 Pr8 Al1 Si4 Ge1'
_cell_volume   441.04317880
_cell_formula_units_Z   1
loop_
 _symmetry_equiv_pos_site_id
 _symmetry_equiv_pos_as_xyz
  1  'x, y, z'
loop_
 _atom_site_type_symbol
 _atom_site_label
 _atom_site_symmetry_multiplicity
 _atom_site_fract_x
 _atom_site_fract_y
 _atom_site_fract_z
 _atom_site_occupancy
  Yb  Yb0  1  0.991617  0.983234  0.991617  1
  Yb  Yb1  1  0.508383  0.016766  0.508383  1
  Pr  Pr2  1  0.530959  0.714090  0.674292  1
  Pr  Pr3  1  0.183132  0.714090  0.039800  1
  Pr  Pr4  1  0.674292  0.714090  0.183132  1
  Pr  Pr5  1  0.039800  0.714090  0.530959  1
  Pr  Pr6  1  0.460200  0.285910  0.316868  1
  Pr  Pr7  1  0.825708  0.285910  0.969041  1
  Pr  Pr8  1  0.316868  0.285910  0.825708  1
  Pr  Pr9  1  0.969041  0.285910  0.460200  1
  Al  Al10  1  0.750000  0.500000  0.750000  1
  Si  Si11  1  0.887377  0.000000  0.612623  1
  Si  Si12  1  0.112623  0.000000  0.387377  1
  Si  Si13  1  0.612623  0.000000  0.112623  1
  Si  Si14  1  0.387377  0.000000  0.887377  1
  Ge  Ge15  1  0.250000  0.500000  0.250000  1
