# generated using pymatgen
data_Ca4Si2SnPd27
_symmetry_space_group_name_H-M   'P 1'
_cell_length_a   8.97883678
_cell_length_b   8.97883678
_cell_length_c   7.10876306
_cell_angle_alpha   90.36675636
_cell_angle_beta   90.36675636
_cell_angle_gamma   89.24560606
_symmetry_Int_Tables_number   1
_chemical_formula_structural   Ca4Si2SnPd27
_chemical_formula_sum   'Ca4 Si2 Sn1 Pd27'
_cell_volume   573.03214230
_cell_formula_units_Z   1
loop_
 _symmetry_equiv_pos_site_id
 _symmetry_equiv_pos_as_xyz
  1  'x, y, z'
loop_
 _atom_site_type_symbol
 _atom_site_label
 _atom_site_symmetry_multiplicity
 _atom_site_fract_x
 _atom_site_fract_y
 _atom_site_fract_z
 _atom_site_occupancy
  Ca  Ca0  1  0.510266  0.010266  0.934392  1
  Ca  Ca1  1  0.989734  0.489734  0.065608  1
  Ca  Ca2  1  0.000712  0.999288  0.500000  1
  Ca  Ca3  1  0.499288  0.500712  0.500000  1
  Si  Si4  1  0.504580  0.004580  0.444568  1
  Si  Si5  1  0.995420  0.495420  0.555432  1
  Sn  Sn6  1  0.250000  0.750000  0.000000  1
  Pd  Pd7  1  0.338829  0.838829  0.604811  1
  Pd  Pd8  1  0.335043  0.167553  0.617247  1
  Pd  Pd9  1  0.667553  0.835043  0.617247  1
  Pd  Pd10  1  0.667533  0.167533  0.616987  1
  Pd  Pd11  1  0.161171  0.661171  0.395189  1
  Pd  Pd12  1  0.164957  0.332447  0.382753  1
  Pd  Pd13  1  0.832447  0.664957  0.382753  1
  Pd  Pd14  1  0.832467  0.332467  0.383013  1
  Pd  Pd15  1  0.503073  0.772984  0.253757  1
  Pd  Pd16  1  0.499693  0.232564  0.256131  1
  Pd  Pd17  1  0.272984  0.003073  0.253757  1
  Pd  Pd18  1  0.732564  0.999693  0.256131  1
  Pd  Pd19  1  0.996927  0.727016  0.746243  1
  Pd  Pd20  1  0.000307  0.267436  0.743869  1
  Pd  Pd21  1  0.227016  0.496927  0.746243  1
  Pd  Pd22  1  0.767436  0.500307  0.743869  1
  Pd  Pd23  1  0.497972  0.351722  0.855950  1
  Pd  Pd24  1  0.497686  0.656724  0.855282  1
  Pd  Pd25  1  0.851722  0.997972  0.855950  1
  Pd  Pd26  1  0.156724  0.997686  0.855282  1
  Pd  Pd27  1  0.002028  0.148278  0.144050  1
  Pd  Pd28  1  0.002314  0.843276  0.144718  1
  Pd  Pd29  1  0.648278  0.502028  0.144050  1
  Pd  Pd30  1  0.343276  0.502314  0.144718  1
  Pd  Pd31  1  0.250000  0.250000  0.000000  1
  Pd  Pd32  1  0.750000  0.750000  0.000000  1
  Pd  Pd33  1  0.750000  0.250000  0.000000  1
