# generated using pymatgen
data_KAgSn3
_symmetry_space_group_name_H-M   'P 1'
_cell_length_a   7.15008966
_cell_length_b   7.15009005
_cell_length_c   7.15008980
_cell_angle_alpha   140.45221093
_cell_angle_beta   140.45221888
_cell_angle_gamma   57.16731389
_symmetry_Int_Tables_number   1
_chemical_formula_structural   KAgSn3
_chemical_formula_sum   'K1 Ag1 Sn3'
_cell_volume   146.95203994
_cell_formula_units_Z   1
loop_
 _symmetry_equiv_pos_site_id
 _symmetry_equiv_pos_as_xyz
  1  'x, y, z'
loop_
 _atom_site_type_symbol
 _atom_site_label
 _atom_site_symmetry_multiplicity
 _atom_site_fract_x
 _atom_site_fract_y
 _atom_site_fract_z
 _atom_site_occupancy
  K  K0  1  0.985073  0.985073  0.000000  1
  Ag  Ag1  1  0.366420  0.366420  0.000000  1
  Sn  Sn2  1  0.591550  0.591550  0.000000  1
  Sn  Sn3  1  0.738929  0.238928  0.500001  1
  Sn  Sn4  1  0.238928  0.738929  0.500001  1
