# generated using pymatgen
data_Dy3Tm8Lu5(CdNi)4
_symmetry_space_group_name_H-M   'P 1'
_cell_length_a   9.42451285
_cell_length_b   9.41657042
_cell_length_c   9.41537803
_cell_angle_alpha   60.01282205
_cell_angle_beta   60.03776241
_cell_angle_gamma   59.99957317
_symmetry_Int_Tables_number   1
_chemical_formula_structural   Dy3Tm8Lu5(CdNi)4
_chemical_formula_sum   'Dy3 Tm8 Lu5 Cd4 Ni4'
_cell_volume   591.06999265
_cell_formula_units_Z   1
loop_
 _symmetry_equiv_pos_site_id
 _symmetry_equiv_pos_as_xyz
  1  'x, y, z'
loop_
 _atom_site_type_symbol
 _atom_site_label
 _atom_site_symmetry_multiplicity
 _atom_site_fract_x
 _atom_site_fract_y
 _atom_site_fract_z
 _atom_site_occupancy
  Dy  Dy0  1  0.348000  0.349521  0.348684  1
  Dy  Dy1  1  0.347969  0.349497  0.953803  1
  Dy  Dy2  1  0.347399  0.953799  0.349379  1
  Tm  Tm3  1  0.186716  0.186188  0.813532  1
  Tm  Tm4  1  0.813098  0.812734  0.187053  1
  Tm  Tm5  1  0.936227  0.563778  0.563710  1
  Tm  Tm6  1  0.564680  0.935759  0.935661  1
  Tm  Tm7  1  0.564590  0.935804  0.563941  1
  Tm  Tm8  1  0.936269  0.563754  0.936355  1
  Tm  Tm9  1  0.564940  0.564050  0.935514  1
  Tm  Tm10  1  0.936093  0.935857  0.564041  1
  Lu  Lu11  1  0.954237  0.348198  0.348780  1
  Lu  Lu12  1  0.812391  0.187991  0.187828  1
  Lu  Lu13  1  0.187555  0.812795  0.812781  1
  Lu  Lu14  1  0.187546  0.812826  0.186880  1
  Lu  Lu15  1  0.812367  0.187983  0.811830  1
  Cd  Cd16  1  0.583647  0.580720  0.581015  1
  Cd  Cd17  1  0.583537  0.580726  0.254641  1
  Cd  Cd18  1  0.583371  0.254528  0.580993  1
  Cd  Cd19  1  0.254692  0.581685  0.581826  1
  Ni  Ni20  1  0.139240  0.142346  0.143269  1
  Ni  Ni21  1  0.139366  0.142232  0.575119  1
  Ni  Ni22  1  0.140006  0.575246  0.142403  1
  Ni  Ni23  1  0.576067  0.141985  0.140965  1
