# generated using pymatgen
data_Dy4Sc16Bi7Sb5
_symmetry_space_group_name_H-M   'P 1'
_cell_length_a   7.80724354
_cell_length_b   8.99310780
_cell_length_c   11.48009609
_cell_angle_alpha   90.03492707
_cell_angle_beta   89.92411535
_cell_angle_gamma   89.94762119
_symmetry_Int_Tables_number   1
_chemical_formula_structural   Dy4Sc16Bi7Sb5
_chemical_formula_sum   'Dy4 Sc16 Bi7 Sb5'
_cell_volume   806.03222704
_cell_formula_units_Z   1
loop_
 _symmetry_equiv_pos_site_id
 _symmetry_equiv_pos_as_xyz
  1  'x, y, z'
loop_
 _atom_site_type_symbol
 _atom_site_label
 _atom_site_symmetry_multiplicity
 _atom_site_fract_x
 _atom_site_fract_y
 _atom_site_fract_z
 _atom_site_occupancy
  Dy  Dy0  1  0.318895  0.246788  0.219525  1
  Dy  Dy1  1  0.814449  0.245919  0.281689  1
  Dy  Dy2  1  0.682597  0.750096  0.781209  1
  Dy  Dy3  1  0.183010  0.749864  0.718585  1
  Sc  Sc4  1  0.353461  0.754078  0.217833  1
  Sc  Sc5  1  0.844940  0.753632  0.284037  1
  Sc  Sc6  1  0.650726  0.250166  0.783292  1
  Sc  Sc7  1  0.151001  0.249948  0.716273  1
  Sc  Sc8  1  0.689766  0.565654  0.060790  1
  Sc  Sc9  1  0.192051  0.935645  0.438698  1
  Sc  Sc10  1  0.310625  0.065138  0.939786  1
  Sc  Sc11  1  0.809940  0.434391  0.559932  1
  Sc  Sc12  1  0.310613  0.434468  0.939752  1
  Sc  Sc13  1  0.808998  0.064296  0.558113  1
  Sc  Sc14  1  0.687322  0.935112  0.063423  1
  Sc  Sc15  1  0.190581  0.565402  0.439079  1
  Sc  Sc16  1  0.477602  0.247305  0.487135  1
  Sc  Sc17  1  0.977371  0.250111  0.012002  1
  Sc  Sc18  1  0.523679  0.752831  0.509309  1
  Sc  Sc19  1  0.022379  0.749914  0.988790  1
  Bi  Bi20  1  0.063479  0.510402  0.172904  1
  Bi  Bi21  1  0.437054  0.489736  0.670537  1
  Bi  Bi22  1  0.936347  0.010401  0.828212  1
  Bi  Bi23  1  0.436634  0.010352  0.672223  1
  Bi  Bi24  1  0.936558  0.489589  0.828241  1
  Bi  Bi25  1  0.563611  0.509910  0.328041  1
  Bi  Bi26  1  0.063560  0.989247  0.171464  1
  Sb  Sb27  1  0.403491  0.749767  0.966660  1
  Sb  Sb28  1  0.904829  0.749639  0.533408  1
  Sb  Sb29  1  0.596317  0.250213  0.033376  1
  Sb  Sb30  1  0.095649  0.250110  0.466031  1
  Sb  Sb31  1  0.562460  0.989875  0.329653  1
