# generated using pymatgen
data_CrFe2CoSi8(W6C)2
_symmetry_space_group_name_H-M   'P 1'
_cell_length_a   7.80566607
_cell_length_b   7.78249450
_cell_length_c   7.78700089
_cell_angle_alpha   60.01913690
_cell_angle_beta   60.04003217
_cell_angle_gamma   60.09815218
_symmetry_Int_Tables_number   1
_chemical_formula_structural   CrFe2CoSi8(W6C)2
_chemical_formula_sum   'Cr1 Fe2 Co1 Si8 W12 C2'
_cell_volume   334.88789775
_cell_formula_units_Z   1
loop_
 _symmetry_equiv_pos_site_id
 _symmetry_equiv_pos_as_xyz
  1  'x, y, z'
loop_
 _atom_site_type_symbol
 _atom_site_label
 _atom_site_symmetry_multiplicity
 _atom_site_fract_x
 _atom_site_fract_y
 _atom_site_fract_z
 _atom_site_occupancy
  Cr  Cr0  1  0.625000  0.125000  0.125000  1
  Fe  Fe1  1  0.125000  0.625000  0.125000  1
  Fe  Fe2  1  0.125000  0.125000  0.125000  1
  Co  Co3  1  0.125000  0.125000  0.625000  1
  Si  Si4  1  0.920927  0.253451  0.913104  1
  Si  Si5  1  0.329073  0.996549  0.336896  1
  Si  Si6  1  0.329073  0.337481  0.336896  1
  Si  Si7  1  0.993793  0.335706  0.334795  1
  Si  Si8  1  0.921497  0.913254  0.251995  1
  Si  Si9  1  0.256207  0.914294  0.915205  1
  Si  Si10  1  0.328503  0.336746  0.998005  1
  Si  Si11  1  0.920927  0.912519  0.913104  1
  W  W12  1  0.310167  0.690964  0.692394  1
  W  W13  1  0.310167  0.306475  0.692394  1
  W  W14  1  0.559324  0.943162  0.554351  1
  W  W15  1  0.939833  0.559036  0.557606  1
  W  W16  1  0.558477  0.943024  0.944258  1
  W  W17  1  0.691523  0.306976  0.305742  1
  W  W18  1  0.938825  0.558720  0.943736  1
  W  W19  1  0.311175  0.691280  0.306264  1
  W  W20  1  0.558477  0.554242  0.944258  1
  W  W21  1  0.690676  0.306838  0.695649  1
  W  W22  1  0.691523  0.695758  0.305742  1
  W  W23  1  0.939833  0.943525  0.557606  1
  C  C24  1  0.748570  0.750409  0.750613  1
  C  C25  1  0.501430  0.499591  0.499387  1
