# generated using pymatgen
data_La2Pr5Nd9(CdPd)4
_symmetry_space_group_name_H-M   'P 1'
_cell_length_a   10.07847574
_cell_length_b   10.07799799
_cell_length_c   10.08472204
_cell_angle_alpha   59.98831569
_cell_angle_beta   59.98314803
_cell_angle_gamma   59.95309965
_symmetry_Int_Tables_number   1
_chemical_formula_structural   La2Pr5Nd9(CdPd)4
_chemical_formula_sum   'La2 Pr5 Nd9 Cd4 Pd4'
_cell_volume   723.88612881
_cell_formula_units_Z   1
loop_
 _symmetry_equiv_pos_site_id
 _symmetry_equiv_pos_as_xyz
  1  'x, y, z'
loop_
 _atom_site_type_symbol
 _atom_site_label
 _atom_site_symmetry_multiplicity
 _atom_site_fract_x
 _atom_site_fract_y
 _atom_site_fract_z
 _atom_site_occupancy
  La  La0  1  0.349839  0.350067  0.351519  1
  La  La1  1  0.349981  0.350013  0.948616  1
  Pr  Pr2  1  0.564014  0.936549  0.933795  1
  Pr  Pr3  1  0.564276  0.936331  0.565661  1
  Pr  Pr4  1  0.936525  0.563972  0.933552  1
  Pr  Pr5  1  0.565088  0.564787  0.934970  1
  Pr  Pr6  1  0.935264  0.935063  0.564710  1
  Nd  Nd7  1  0.351561  0.942902  0.352772  1
  Nd  Nd8  1  0.942899  0.351663  0.352879  1
  Nd  Nd9  1  0.809510  0.191656  0.191551  1
  Nd  Nd10  1  0.191584  0.809535  0.807342  1
  Nd  Nd11  1  0.191481  0.809436  0.191704  1
  Nd  Nd12  1  0.809605  0.191761  0.807211  1
  Nd  Nd13  1  0.191414  0.191728  0.808332  1
  Nd  Nd14  1  0.807882  0.807732  0.192323  1
  Nd  Nd15  1  0.936598  0.563936  0.565574  1
  Cd  Cd16  1  0.580878  0.580644  0.579213  1
  Cd  Cd17  1  0.580637  0.580639  0.259520  1
  Cd  Cd18  1  0.581167  0.259341  0.579744  1
  Cd  Cd19  1  0.259062  0.581169  0.579761  1
  Pd  Pd20  1  0.143626  0.143620  0.143693  1
  Pd  Pd21  1  0.143534  0.143804  0.569043  1
  Pd  Pd22  1  0.143233  0.570334  0.143354  1
  Pd  Pd23  1  0.570341  0.143315  0.143160  1
