# generated using pymatgen
data_Yb3DyPt3RhO14
_symmetry_space_group_name_H-M   'P 1'
_cell_length_a   7.22512589
_cell_length_b   7.22512642
_cell_length_c   7.22512632
_cell_angle_alpha   60.19707842
_cell_angle_beta   60.19708517
_cell_angle_gamma   60.19708136
_symmetry_Int_Tables_number   1
_chemical_formula_structural   Yb3DyPt3RhO14
_chemical_formula_sum   'Yb3 Dy1 Pt3 Rh1 O14'
_cell_volume   267.88916669
_cell_formula_units_Z   1
loop_
 _symmetry_equiv_pos_site_id
 _symmetry_equiv_pos_as_xyz
  1  'x, y, z'
loop_
 _atom_site_type_symbol
 _atom_site_label
 _atom_site_symmetry_multiplicity
 _atom_site_fract_x
 _atom_site_fract_y
 _atom_site_fract_z
 _atom_site_occupancy
  Yb  Yb0  1  0.125000  0.625000  0.125000  1
  Yb  Yb1  1  0.125000  0.125000  0.625000  1
  Yb  Yb2  1  0.625000  0.125000  0.125000  1
  Dy  Dy3  1  0.125000  0.125000  0.125000  1
  Pt  Pt4  1  0.125000  0.625000  0.625000  1
  Pt  Pt5  1  0.625000  0.125000  0.625000  1
  Pt  Pt6  1  0.625000  0.625000  0.125000  1
  Rh  Rh7  1  0.625000  0.625000  0.625000  1
  O  O8  1  0.294960  0.705452  0.705452  1
  O  O9  1  0.534951  0.959958  0.959958  1
  O  O10  1  0.705452  0.294960  0.705452  1
  O  O11  1  0.290042  0.290042  0.715049  1
  O  O12  1  0.705452  0.705452  0.294960  1
  O  O13  1  0.001997  0.001997  0.001997  1
  O  O14  1  0.290042  0.715049  0.290042  1
  O  O15  1  0.959958  0.534951  0.959958  1
  O  O16  1  0.959958  0.959958  0.534951  1
  O  O17  1  0.544548  0.544548  0.955040  1
  O  O18  1  0.248003  0.248003  0.248003  1
  O  O19  1  0.544548  0.955040  0.544548  1
  O  O20  1  0.715049  0.290042  0.290042  1
  O  O21  1  0.955040  0.544548  0.544548  1
