# generated using pymatgen
data_RbWS2O9
_symmetry_space_group_name_H-M   'P 1'
_cell_length_a   5.24223900
_cell_length_b   8.87685829
_cell_length_c   9.43996545
_cell_angle_alpha   76.70102602
_cell_angle_beta   90.00000000
_cell_angle_gamma   90.00000000
_symmetry_Int_Tables_number   1
_chemical_formula_structural   RbWS2O9
_chemical_formula_sum   'Rb2 W2 S4 O18'
_cell_volume   427.50482323
_cell_formula_units_Z   2
loop_
 _symmetry_equiv_pos_site_id
 _symmetry_equiv_pos_as_xyz
  1  'x, y, z'
loop_
 _atom_site_type_symbol
 _atom_site_label
 _atom_site_symmetry_multiplicity
 _atom_site_fract_x
 _atom_site_fract_y
 _atom_site_fract_z
 _atom_site_occupancy
  Rb  Rb0  1  0.250000  0.421258  0.224708  1
  Rb  Rb1  1  0.750000  0.578742  0.775292  1
  W  W2  1  0.250000  0.916166  0.254875  1
  W  W3  1  0.750000  0.083834  0.745125  1
  S  S4  1  0.250000  0.322644  0.660121  1
  S  S5  1  0.750000  0.677356  0.339879  1
  S  S6  1  0.250000  0.851937  0.895829  1
  S  S7  1  0.750000  0.148063  0.104171  1
  O  O8  1  0.250000  0.279533  0.522093  1
  O  O9  1  0.750000  0.720467  0.477907  1
  O  O10  1  0.250000  0.486274  0.659806  1
  O  O11  1  0.750000  0.513726  0.340194  1
  O  O12  1  0.017618  0.251304  0.753034  1
  O  O13  1  0.517618  0.748696  0.246966  1
  O  O14  1  0.982382  0.748696  0.246966  1
  O  O15  1  0.482382  0.251304  0.753034  1
  O  O16  1  0.250000  0.933400  0.016255  1
  O  O17  1  0.750000  0.066600  0.983745  1
  O  O18  1  0.250000  0.684654  0.941157  1
  O  O19  1  0.750000  0.315346  0.058843  1
  O  O20  1  0.016679  0.902554  0.802616  1
  O  O21  1  0.516679  0.097446  0.197384  1
  O  O22  1  0.983321  0.097446  0.197384  1
  O  O23  1  0.483321  0.902554  0.802616  1
  O  O24  1  0.250000  0.902166  0.439731  1
  O  O25  1  0.750000  0.097834  0.560269  1
