# generated using pymatgen
data_Na4TmBiO6
_symmetry_space_group_name_H-M   'P 1'
_cell_length_a   5.80950729
_cell_length_b   5.80950666
_cell_length_c   5.91247681
_cell_angle_alpha   99.44820470
_cell_angle_beta   99.44819840
_cell_angle_gamma   119.97568752
_symmetry_Int_Tables_number   1
_chemical_formula_structural   Na4TmBiO6
_chemical_formula_sum   'Na4 Tm1 Bi1 O6'
_cell_volume   163.28193212
_cell_formula_units_Z   1
loop_
 _symmetry_equiv_pos_site_id
 _symmetry_equiv_pos_as_xyz
  1  'x, y, z'
loop_
 _atom_site_type_symbol
 _atom_site_label
 _atom_site_symmetry_multiplicity
 _atom_site_fract_x
 _atom_site_fract_y
 _atom_site_fract_z
 _atom_site_occupancy
  Na  Na0  1  0.499496  0.500502  0.000000  1
  Na  Na1  1  0.006251  0.993748  0.499998  1
  Na  Na2  1  0.656836  0.343164  0.500000  1
  Na  Na3  1  0.339869  0.660130  0.500000  1
  Tm  Tm4  1  0.832745  0.167253  0.000000  1
  Bi  Bi5  1  0.167311  0.832687  0.000000  1
  O  O6  1  0.941925  0.583860  0.216191  1
  O  O7  1  0.561334  0.932204  0.220340  1
  O  O8  1  0.214014  0.203718  0.219701  1
  O  O9  1  0.796282  0.785987  0.780298  1
  O  O10  1  0.067796  0.438665  0.779661  1
  O  O11  1  0.416142  0.058077  0.783810  1
