# generated using pymatgen
data_Gd4Pd3PtPb2
_symmetry_space_group_name_H-M   'P 1'
_cell_length_a   7.85073800
_cell_length_b   7.85073888
_cell_length_c   3.74711100
_cell_angle_alpha   90.00000000
_cell_angle_beta   90.00000000
_cell_angle_gamma   89.90908705
_symmetry_Int_Tables_number   1
_chemical_formula_structural   Gd4Pd3PtPb2
_chemical_formula_sum   'Gd4 Pd3 Pt1 Pb2'
_cell_volume   230.94950116
_cell_formula_units_Z   1
loop_
 _symmetry_equiv_pos_site_id
 _symmetry_equiv_pos_as_xyz
  1  'x, y, z'
loop_
 _atom_site_type_symbol
 _atom_site_label
 _atom_site_symmetry_multiplicity
 _atom_site_fract_x
 _atom_site_fract_y
 _atom_site_fract_z
 _atom_site_occupancy
  Gd  Gd0  1  0.667474  0.174909  0.500000  1
  Gd  Gd1  1  0.176284  0.323716  0.500000  1
  Gd  Gd2  1  0.829520  0.670480  0.500000  1
  Gd  Gd3  1  0.325091  0.832526  0.500000  1
  Pd  Pd4  1  0.126477  0.626099  0.000000  1
  Pd  Pd5  1  0.630248  0.869752  0.000000  1
  Pd  Pd6  1  0.873901  0.373523  0.000000  1
  Pt  Pt7  1  0.377036  0.122964  0.000000  1
  Pb  Pb8  1  0.993825  0.999854  0.000000  1
  Pb  Pb9  1  0.500146  0.506175  0.000000  1
