# generated using pymatgen
data_Y4Ho3Co6Sn23
_symmetry_space_group_name_H-M   'P 1'
_cell_length_a   9.70595900
_cell_length_b   9.70595870
_cell_length_c   9.95669800
_cell_angle_alpha   90.00000000
_cell_angle_beta   90.00000000
_cell_angle_gamma   119.99999763
_symmetry_Int_Tables_number   1
_chemical_formula_structural   Y4Ho3Co6Sn23
_chemical_formula_sum   'Y4 Ho3 Co6 Sn23'
_cell_volume   812.31199810
_cell_formula_units_Z   1
loop_
 _symmetry_equiv_pos_site_id
 _symmetry_equiv_pos_as_xyz
  1  'x, y, z'
loop_
 _atom_site_type_symbol
 _atom_site_label
 _atom_site_symmetry_multiplicity
 _atom_site_fract_x
 _atom_site_fract_y
 _atom_site_fract_z
 _atom_site_occupancy
  Y  Y0  1  0.000000  0.000000  0.000043  1
  Y  Y1  1  0.521606  0.478394  0.693271  1
  Y  Y2  1  0.521606  0.043212  0.693271  1
  Y  Y3  1  0.956788  0.478394  0.693271  1
  Ho  Ho4  1  0.042783  0.521392  0.306557  1
  Ho  Ho5  1  0.478608  0.957217  0.306557  1
  Ho  Ho6  1  0.478608  0.521392  0.306557  1
  Co  Co7  1  0.167614  0.832386  0.802926  1
  Co  Co8  1  0.167614  0.335229  0.802926  1
  Co  Co9  1  0.664771  0.832386  0.802926  1
  Co  Co10  1  0.335467  0.167734  0.197276  1
  Co  Co11  1  0.832266  0.664533  0.197276  1
  Co  Co12  1  0.832266  0.167734  0.197276  1
  Sn  Sn13  1  0.666667  0.333333  0.181238  1
  Sn  Sn14  1  0.666667  0.333333  0.883158  1
  Sn  Sn15  1  0.333333  0.666667  0.117604  1
  Sn  Sn16  1  0.346234  0.346273  0.000126  1
  Sn  Sn17  1  0.000040  0.653766  0.000126  1
  Sn  Sn18  1  0.653727  0.999960  0.000126  1
  Sn  Sn19  1  0.653727  0.653766  0.000126  1
  Sn  Sn20  1  0.333333  0.666667  0.818877  1
  Sn  Sn21  1  0.436838  0.218420  0.451543  1
  Sn  Sn22  1  0.218428  0.781572  0.547777  1
  Sn  Sn23  1  0.218428  0.436854  0.547777  1
  Sn  Sn24  1  0.563146  0.781572  0.547777  1
  Sn  Sn25  1  0.117935  0.882065  0.274247  1
  Sn  Sn26  1  0.781580  0.563162  0.451543  1
  Sn  Sn27  1  0.781580  0.218420  0.451543  1
  Sn  Sn28  1  0.346234  0.999960  0.000126  1
  Sn  Sn29  1  0.117935  0.235870  0.274247  1
  Sn  Sn30  1  0.764130  0.882065  0.274247  1
  Sn  Sn31  1  0.235373  0.117686  0.725861  1
  Sn  Sn32  1  0.882314  0.764627  0.725861  1
  Sn  Sn33  1  0.882314  0.117686  0.725861  1
  Sn  Sn34  1  0.000000  0.000000  0.499952  1
  Sn  Sn35  1  0.000040  0.346273  0.000126  1
