# generated using pymatgen
data_Pr8Gd9Lu3Pb16
_symmetry_space_group_name_H-M   'P 1'
_cell_length_a   8.23636500
_cell_length_b   8.36793902
_cell_length_c   15.71973400
_cell_angle_alpha   90.00000000
_cell_angle_beta   90.00000000
_cell_angle_gamma   90.12215849
_symmetry_Int_Tables_number   1
_chemical_formula_structural   Pr8Gd9Lu3Pb16
_chemical_formula_sum   'Pr8 Gd9 Lu3 Pb16'
_cell_volume   1083.42361337
_cell_formula_units_Z   1
loop_
 _symmetry_equiv_pos_site_id
 _symmetry_equiv_pos_as_xyz
  1  'x, y, z'
loop_
 _atom_site_type_symbol
 _atom_site_label
 _atom_site_symmetry_multiplicity
 _atom_site_fract_x
 _atom_site_fract_y
 _atom_site_fract_z
 _atom_site_occupancy
  Pr  Pr0  1  0.482791  0.678490  0.595847  1
  Pr  Pr1  1  0.982684  0.821372  0.903565  1
  Pr  Pr2  1  0.516466  0.321199  0.095211  1
  Pr  Pr3  1  0.017440  0.179102  0.404602  1
  Pr  Pr4  1  0.516466  0.321199  0.404789  1
  Pr  Pr5  1  0.017440  0.179102  0.095398  1
  Pr  Pr6  1  0.482791  0.678490  0.904153  1
  Pr  Pr7  1  0.982684  0.821372  0.596435  1
  Gd  Gd8  1  0.641399  0.158215  0.623362  1
  Gd  Gd9  1  0.141100  0.341601  0.877221  1
  Gd  Gd10  1  0.359214  0.841390  0.122180  1
  Gd  Gd11  1  0.859738  0.658850  0.377827  1
  Gd  Gd12  1  0.359214  0.841390  0.377820  1
  Gd  Gd13  1  0.859738  0.658850  0.122173  1
  Gd  Gd14  1  0.641399  0.158215  0.876638  1
  Gd  Gd15  1  0.141100  0.341601  0.622779  1
  Gd  Gd16  1  0.690241  0.996079  0.250000  1
  Lu  Lu17  1  0.807946  0.495339  0.750000  1
  Lu  Lu18  1  0.307450  0.004225  0.750000  1
  Lu  Lu19  1  0.192170  0.506042  0.250000  1
  Pb  Pb20  1  0.700639  0.958716  0.457499  1
  Pb  Pb21  1  0.200502  0.540134  0.044292  1
  Pb  Pb22  1  0.299434  0.040620  0.955543  1
  Pb  Pb23  1  0.799368  0.459467  0.544529  1
  Pb  Pb24  1  0.299434  0.040620  0.544457  1
  Pb  Pb25  1  0.799368  0.459467  0.955471  1
  Pb  Pb26  1  0.700639  0.958716  0.042501  1
  Pb  Pb27  1  0.200502  0.540134  0.455708  1
  Pb  Pb28  1  0.446904  0.376248  0.750000  1
  Pb  Pb29  1  0.947067  0.123936  0.750000  1
  Pb  Pb30  1  0.553538  0.620709  0.250000  1
  Pb  Pb31  1  0.055830  0.875021  0.250000  1
  Pb  Pb32  1  0.672696  0.845639  0.750000  1
  Pb  Pb33  1  0.172965  0.653213  0.750000  1
  Pb  Pb34  1  0.323929  0.154295  0.250000  1
  Pb  Pb35  1  0.827714  0.350938  0.250000  1
