# generated using pymatgen
data_Nd3ErIr3RhO14
_symmetry_space_group_name_H-M   'P 1'
_cell_length_a   7.36914291
_cell_length_b   7.36914377
_cell_length_c   7.33135808
_cell_angle_alpha   59.82937283
_cell_angle_beta   59.82935854
_cell_angle_gamma   59.99999803
_symmetry_Int_Tables_number   1
_chemical_formula_structural   Nd3ErIr3RhO14
_chemical_formula_sum   'Nd3 Er1 Ir3 Rh1 O14'
_cell_volume   280.78797395
_cell_formula_units_Z   1
loop_
 _symmetry_equiv_pos_site_id
 _symmetry_equiv_pos_as_xyz
  1  'x, y, z'
loop_
 _atom_site_type_symbol
 _atom_site_label
 _atom_site_symmetry_multiplicity
 _atom_site_fract_x
 _atom_site_fract_y
 _atom_site_fract_z
 _atom_site_occupancy
  Nd  Nd0  1  0.625000  0.125000  0.125000  1
  Nd  Nd1  1  0.125000  0.625000  0.125000  1
  Nd  Nd2  1  0.125000  0.125000  0.125000  1
  Er  Er3  1  0.125000  0.125000  0.625000  1
  Ir  Ir4  1  0.125000  0.625000  0.625000  1
  Ir  Ir5  1  0.625000  0.125000  0.625000  1
  Ir  Ir6  1  0.625000  0.625000  0.625000  1
  Rh  Rh7  1  0.625000  0.625000  0.125000  1
  O  O8  1  0.710232  0.710232  0.293170  1
  O  O9  1  0.292817  0.292817  0.695257  1
  O  O10  1  0.719110  0.292817  0.695257  1
  O  O11  1  0.286366  0.710232  0.293170  1
  O  O12  1  0.292817  0.719110  0.695257  1
  O  O13  1  0.710232  0.286366  0.293170  1
  O  O14  1  0.539768  0.539768  0.956830  1
  O  O15  1  0.957183  0.957183  0.554743  1
  O  O16  1  0.530890  0.957183  0.554743  1
  O  O17  1  0.963634  0.539768  0.956830  1
  O  O18  1  0.957183  0.530890  0.554743  1
  O  O19  1  0.539768  0.963634  0.956830  1
  O  O20  1  0.245095  0.245095  0.264714  1
  O  O21  1  0.004905  0.004905  0.985286  1
