# generated using pymatgen
data_Tm12InFe3Rh
_symmetry_space_group_name_H-M   'P 1'
_cell_length_a   8.10435040
_cell_length_b   8.10435023
_cell_length_c   8.10434989
_cell_angle_alpha   107.28377186
_cell_angle_beta   110.44302570
_cell_angle_gamma   110.70887580
_symmetry_Int_Tables_number   1
_chemical_formula_structural   Tm12InFe3Rh
_chemical_formula_sum   'Tm12 In1 Fe3 Rh1'
_cell_volume   409.31485996
_cell_formula_units_Z   1
loop_
 _symmetry_equiv_pos_site_id
 _symmetry_equiv_pos_as_xyz
  1  'x, y, z'
loop_
 _atom_site_type_symbol
 _atom_site_label
 _atom_site_symmetry_multiplicity
 _atom_site_fract_x
 _atom_site_fract_y
 _atom_site_fract_z
 _atom_site_occupancy
  Tm  Tm0  1  0.188843  0.406723  0.217880  1
  Tm  Tm1  1  0.811157  0.593277  0.782120  1
  Tm  Tm2  1  0.188843  0.970964  0.782120  1
  Tm  Tm3  1  0.914535  0.188616  0.725918  1
  Tm  Tm4  1  0.811157  0.029036  0.217880  1
  Tm  Tm5  1  0.085465  0.811384  0.274082  1
  Tm  Tm6  1  0.462697  0.188616  0.274082  1
  Tm  Tm7  1  0.537303  0.811384  0.725918  1
  Tm  Tm8  1  0.308288  0.310169  0.618458  1
  Tm  Tm9  1  0.691712  0.689831  0.381542  1
  Tm  Tm10  1  0.691712  0.310169  0.001881  1
  Tm  Tm11  1  0.308288  0.689831  0.998119  1
  In  In12  1  0.000000  0.500000  0.500000  1
  Fe  Fe13  1  0.381514  0.381514  0.000000  1
  Fe  Fe14  1  0.618486  0.618486  0.000000  1
  Fe  Fe15  1  0.000000  0.000000  0.000000  1
  Rh  Rh16  1  0.500000  0.000000  0.500000  1
