# generated using pymatgen
data_K4Zr5Sc3Se16
_symmetry_space_group_name_H-M   'P 1'
_cell_length_a   6.68300707
_cell_length_b   7.71105700
_cell_length_c   16.33908223
_cell_angle_alpha   90.00000000
_cell_angle_beta   90.01800432
_cell_angle_gamma   90.00000000
_symmetry_Int_Tables_number   1
_chemical_formula_structural   K4Zr5Sc3Se16
_chemical_formula_sum   'K4 Zr5 Sc3 Se16'
_cell_volume   842.00267478
_cell_formula_units_Z   1
loop_
 _symmetry_equiv_pos_site_id
 _symmetry_equiv_pos_as_xyz
  1  'x, y, z'
loop_
 _atom_site_type_symbol
 _atom_site_label
 _atom_site_symmetry_multiplicity
 _atom_site_fract_x
 _atom_site_fract_y
 _atom_site_fract_z
 _atom_site_occupancy
  K  K0  1  0.343094  0.000000  0.001990  1
  K  K1  1  0.658093  0.500000  0.497633  1
  K  K2  1  0.020162  0.000000  0.497986  1
  K  K3  1  0.980817  0.500000  0.002393  1
  Zr  Zr4  1  0.999429  0.500000  0.748405  1
  Zr  Zr5  1  0.500019  0.249982  0.250021  1
  Zr  Zr6  1  0.499649  0.752478  0.750055  1
  Zr  Zr7  1  0.500019  0.750018  0.250021  1
  Zr  Zr8  1  0.499649  0.247522  0.750055  1
  Sc  Sc9  1  0.000782  0.000000  0.248288  1
  Sc  Sc10  1  0.000369  0.000000  0.751513  1
  Sc  Sc11  1  0.999264  0.500000  0.251777  1
  Se  Se12  1  0.832711  0.248331  0.345437  1
  Se  Se13  1  0.833019  0.750887  0.653073  1
  Se  Se14  1  0.167390  0.748399  0.154619  1
  Se  Se15  1  0.166458  0.252102  0.846870  1
  Se  Se16  1  0.167390  0.251601  0.154619  1
  Se  Se17  1  0.166458  0.747898  0.846870  1
  Se  Se18  1  0.832711  0.751669  0.345437  1
  Se  Se19  1  0.833019  0.249113  0.653073  1
  Se  Se20  1  0.667443  0.000000  0.154322  1
  Se  Se21  1  0.668637  0.000000  0.846520  1
  Se  Se22  1  0.332637  0.500000  0.345736  1
  Se  Se23  1  0.331077  0.500000  0.653299  1
  Se  Se24  1  0.335285  0.000000  0.344672  1
  Se  Se25  1  0.333204  0.000000  0.654452  1
  Se  Se26  1  0.664757  0.500000  0.155371  1
  Se  Se27  1  0.666458  0.500000  0.845493  1
