# generated using pymatgen
data_NaSiPRh2
_symmetry_space_group_name_H-M   'P 1'
_cell_length_a   5.68533566
_cell_length_b   5.68533517
_cell_length_c   5.68533718
_cell_angle_alpha   138.34185030
_cell_angle_beta   138.34184569
_cell_angle_gamma   60.37985641
_symmetry_Int_Tables_number   1
_chemical_formula_structural   NaSiPRh2
_chemical_formula_sum   'Na1 Si1 P1 Rh2'
_cell_volume   80.33458193
_cell_formula_units_Z   1
loop_
 _symmetry_equiv_pos_site_id
 _symmetry_equiv_pos_as_xyz
  1  'x, y, z'
loop_
 _atom_site_type_symbol
 _atom_site_label
 _atom_site_symmetry_multiplicity
 _atom_site_fract_x
 _atom_site_fract_y
 _atom_site_fract_z
 _atom_site_occupancy
  Na  Na0  1  0.000192  0.000192  0.000000  1
  Si  Si1  1  0.620913  0.620913  0.000000  1
  P  P2  1  0.375342  0.375342  0.000000  1
  Rh  Rh3  1  0.751776  0.251776  0.500000  1
  Rh  Rh4  1  0.251776  0.751776  0.500000  1
