# generated using pymatgen
data_Ca2Al3Tc14C3
_symmetry_space_group_name_H-M   'P 1'
_cell_length_a   6.95494797
_cell_length_b   6.95494945
_cell_length_c   6.95494857
_cell_angle_alpha   82.33915474
_cell_angle_beta   82.33915297
_cell_angle_gamma   82.33915746
_symmetry_Int_Tables_number   1
_chemical_formula_structural   Ca2Al3Tc14C3
_chemical_formula_sum   'Ca2 Al3 Tc14 C3'
_cell_volume   328.14735761
_cell_formula_units_Z   1
loop_
 _symmetry_equiv_pos_site_id
 _symmetry_equiv_pos_as_xyz
  1  'x, y, z'
loop_
 _atom_site_type_symbol
 _atom_site_label
 _atom_site_symmetry_multiplicity
 _atom_site_fract_x
 _atom_site_fract_y
 _atom_site_fract_z
 _atom_site_occupancy
  Ca  Ca0  1  0.657040  0.657040  0.657040  1
  Ca  Ca1  1  0.342960  0.342960  0.342960  1
  Al  Al2  1  0.000000  0.000000  0.500000  1
  Al  Al3  1  0.500000  0.000000  0.000000  1
  Al  Al4  1  0.000000  0.500000  0.000000  1
  Tc  Tc5  1  0.721777  0.278223  0.000000  1
  Tc  Tc6  1  0.000000  0.721777  0.278223  1
  Tc  Tc7  1  0.278223  0.000000  0.721777  1
  Tc  Tc8  1  0.000000  0.278223  0.721777  1
  Tc  Tc9  1  0.721777  0.000000  0.278223  1
  Tc  Tc10  1  0.278223  0.721777  0.000000  1
  Tc  Tc11  1  0.351358  0.351358  0.851037  1
  Tc  Tc12  1  0.851037  0.351358  0.351358  1
  Tc  Tc13  1  0.351358  0.851037  0.351358  1
  Tc  Tc14  1  0.648642  0.648642  0.148963  1
  Tc  Tc15  1  0.148963  0.648642  0.648642  1
  Tc  Tc16  1  0.648642  0.148963  0.648642  1
  Tc  Tc17  1  0.905046  0.905046  0.905046  1
  Tc  Tc18  1  0.094954  0.094954  0.094954  1
  C  C19  1  0.500000  0.500000  0.000000  1
  C  C20  1  0.000000  0.500000  0.500000  1
  C  C21  1  0.500000  0.000000  0.500000  1
