# generated using pymatgen
data_Hf4ZnSe
_symmetry_space_group_name_H-M   'P 1'
_cell_length_a   5.38480653
_cell_length_b   5.38480644
_cell_length_c   5.38480638
_cell_angle_alpha   103.98478286
_cell_angle_beta   103.98477106
_cell_angle_gamma   121.10926996
_symmetry_Int_Tables_number   1
_chemical_formula_structural   Hf4ZnSe
_chemical_formula_sum   'Hf4 Zn1 Se1'
_cell_volume   116.41473552
_cell_formula_units_Z   1
loop_
 _symmetry_equiv_pos_site_id
 _symmetry_equiv_pos_as_xyz
  1  'x, y, z'
loop_
 _atom_site_type_symbol
 _atom_site_label
 _atom_site_symmetry_multiplicity
 _atom_site_fract_x
 _atom_site_fract_y
 _atom_site_fract_z
 _atom_site_occupancy
  Hf  Hf0  1  0.653917  0.846083  0.500000  1
  Hf  Hf1  1  0.846083  0.346083  0.192165  1
  Hf  Hf2  1  0.346083  0.153917  0.500000  1
  Hf  Hf3  1  0.153917  0.653917  0.807835  1
  Zn  Zn4  1  0.250000  0.250000  0.000000  1
  Se  Se5  1  0.750000  0.750000  0.000000  1
