# generated using pymatgen
data_Yb8Si6PdPt7
_symmetry_space_group_name_H-M   'P 1'
_cell_length_a   10.69371538
_cell_length_b   10.71256294
_cell_length_c   7.75448810
_cell_angle_alpha   70.74730201
_cell_angle_beta   70.63374874
_cell_angle_gamma   31.31885107
_symmetry_Int_Tables_number   1
_chemical_formula_structural   Yb8Si6PdPt7
_chemical_formula_sum   'Yb8 Si6 Pd1 Pt7'
_cell_volume   433.66952040
_cell_formula_units_Z   1
loop_
 _symmetry_equiv_pos_site_id
 _symmetry_equiv_pos_as_xyz
  1  'x, y, z'
loop_
 _atom_site_type_symbol
 _atom_site_label
 _atom_site_symmetry_multiplicity
 _atom_site_fract_x
 _atom_site_fract_y
 _atom_site_fract_z
 _atom_site_occupancy
  Yb  Yb0  1  0.931765  0.203198  0.327573  1
  Yb  Yb1  1  0.068979  0.796532  0.671787  1
  Yb  Yb2  1  0.795196  0.069431  0.173193  1
  Yb  Yb3  1  0.446085  0.211689  0.912094  1
  Yb  Yb4  1  0.788334  0.553197  0.590285  1
  Yb  Yb5  1  0.212820  0.445411  0.411074  1
  Yb  Yb6  1  0.202213  0.932446  0.827243  1
  Yb  Yb7  1  0.551683  0.790330  0.085612  1
  Si  Si8  1  0.304867  0.040151  0.427095  1
  Si  Si9  1  0.400909  0.599239  0.249456  1
  Si  Si10  1  0.040385  0.306591  0.925877  1
  Si  Si11  1  0.694399  0.957094  0.575266  1
  Si  Si12  1  0.958450  0.697721  0.071479  1
  Si  Si13  1  0.600862  0.399044  0.750749  1
  Pd  Pd14  1  0.077949  0.360090  0.179449  1
  Pt  Pt15  1  0.585277  0.288818  0.531270  1
  Pt  Pt16  1  0.710468  0.414549  0.969753  1
  Pt  Pt17  1  0.288232  0.587349  0.030822  1
  Pt  Pt18  1  0.417390  0.707730  0.468514  1
  Pt  Pt19  1  0.643570  0.919710  0.320846  1
  Pt  Pt20  1  0.923873  0.640674  0.822084  1
  Pt  Pt21  1  0.356296  0.079004  0.678478  1
