# generated using pymatgen
data_Na3Pr3(PS4)4
_symmetry_space_group_name_H-M   'P 1'
_cell_length_a   10.03222969
_cell_length_b   10.03222995
_cell_length_c   14.74725900
_cell_angle_alpha   89.22925425
_cell_angle_beta   89.22925423
_cell_angle_gamma   72.01230047
_symmetry_Int_Tables_number   1
_chemical_formula_structural   Na3Pr3(PS4)4
_chemical_formula_sum   'Na6 Pr6 P8 S32'
_cell_volume   1411.50626732
_cell_formula_units_Z   2
loop_
 _symmetry_equiv_pos_site_id
 _symmetry_equiv_pos_as_xyz
  1  'x, y, z'
loop_
 _atom_site_type_symbol
 _atom_site_label
 _atom_site_symmetry_multiplicity
 _atom_site_fract_x
 _atom_site_fract_y
 _atom_site_fract_z
 _atom_site_occupancy
  Na  Na0  1  0.551764  0.975478  0.847186  1
  Na  Na1  1  0.024522  0.448236  0.652814  1
  Na  Na2  1  0.975478  0.551764  0.347186  1
  Na  Na3  1  0.000000  0.000000  0.000000  1
  Na  Na4  1  0.448236  0.024522  0.152814  1
  Na  Na5  1  0.000000  0.000000  0.500000  1
  Pr  Pr6  1  0.516181  0.746681  0.491361  1
  Pr  Pr7  1  0.483819  0.253319  0.508639  1
  Pr  Pr8  1  0.746681  0.516181  0.991361  1
  Pr  Pr9  1  0.236581  0.763419  0.750000  1
  Pr  Pr10  1  0.763419  0.236581  0.250000  1
  Pr  Pr11  1  0.253319  0.483819  0.008639  1
  P  P12  1  0.384004  0.774516  0.979121  1
  P  P13  1  0.615996  0.225484  0.020879  1
  P  P14  1  0.225484  0.615996  0.520879  1
  P  P15  1  0.326224  0.046703  0.641007  1
  P  P16  1  0.046703  0.326224  0.141007  1
  P  P17  1  0.774516  0.384004  0.479121  1
  P  P18  1  0.673776  0.953297  0.358993  1
  P  P19  1  0.953297  0.673776  0.858993  1
  S  S20  1  0.256375  0.735146  0.414718  1
  S  S21  1  0.946323  0.681690  0.998486  1
  S  S22  1  0.530937  0.145858  0.321036  1
  S  S23  1  0.681690  0.946323  0.498486  1
  S  S24  1  0.743625  0.264854  0.585282  1
  S  S25  1  0.941928  0.867153  0.808987  1
  S  S26  1  0.854142  0.469063  0.178964  1
  S  S27  1  0.060660  0.727541  0.599822  1
  S  S28  1  0.132847  0.058072  0.691013  1
  S  S29  1  0.469063  0.854142  0.678964  1
  S  S30  1  0.800850  0.599558  0.810535  1
  S  S31  1  0.446954  0.597298  0.896331  1
  S  S32  1  0.402702  0.553046  0.603669  1
  S  S33  1  0.058072  0.132847  0.191013  1
  S  S34  1  0.264854  0.743625  0.085282  1
  S  S35  1  0.939340  0.272459  0.400178  1
  S  S36  1  0.318310  0.053677  0.501514  1
  S  S37  1  0.053677  0.318310  0.001514  1
  S  S38  1  0.727541  0.060660  0.099822  1
  S  S39  1  0.400442  0.199150  0.689465  1
  S  S40  1  0.565953  0.805202  0.021836  1
  S  S41  1  0.194798  0.434047  0.478164  1
  S  S42  1  0.272459  0.939340  0.900178  1
  S  S43  1  0.805202  0.565953  0.521836  1
  S  S44  1  0.867153  0.941928  0.308987  1
  S  S45  1  0.199150  0.400442  0.189465  1
  S  S46  1  0.553046  0.402702  0.103669  1
  S  S47  1  0.597298  0.446954  0.396331  1
  S  S48  1  0.145858  0.530937  0.821036  1
  S  S49  1  0.735146  0.256375  0.914718  1
  S  S50  1  0.434047  0.194798  0.978164  1
  S  S51  1  0.599558  0.800850  0.310535  1
