# generated using pymatgen
data_SrBiPtO6
_symmetry_space_group_name_H-M   'P 1'
_cell_length_a   5.56306344
_cell_length_b   5.56151249
_cell_length_c   5.29213100
_cell_angle_alpha   90.00935439
_cell_angle_beta   89.97727970
_cell_angle_gamma   120.00793369
_symmetry_Int_Tables_number   1
_chemical_formula_structural   SrBiPtO6
_chemical_formula_sum   'Sr1 Bi1 Pt1 O6'
_cell_volume   141.78601194
_cell_formula_units_Z   1
loop_
 _symmetry_equiv_pos_site_id
 _symmetry_equiv_pos_as_xyz
  1  'x, y, z'
loop_
 _atom_site_type_symbol
 _atom_site_label
 _atom_site_symmetry_multiplicity
 _atom_site_fract_x
 _atom_site_fract_y
 _atom_site_fract_z
 _atom_site_occupancy
  Sr  Sr0  1  0.999991  0.000008  0.000852  1
  Bi  Bi1  1  0.333269  0.666551  0.500390  1
  Pt  Pt2  1  0.666699  0.333421  0.499919  1
  O  O3  1  0.646912  0.024902  0.290306  1
  O  O4  1  0.378433  0.353347  0.289950  1
  O  O5  1  0.975238  0.621764  0.290011  1
  O  O6  1  0.376996  0.025502  0.709316  1
  O  O7  1  0.974314  0.351741  0.709678  1
  O  O8  1  0.648143  0.622763  0.709577  1
