# generated using pymatgen
data_La2Nd4RuPtBr6
_symmetry_space_group_name_H-M   'P 1'
_cell_length_a   10.49592575
_cell_length_b   10.59572179
_cell_length_c   10.49592526
_cell_angle_alpha   108.72177119
_cell_angle_beta   109.55777590
_cell_angle_gamma   109.75532563
_symmetry_Int_Tables_number   1
_chemical_formula_structural   La2Nd4RuPtBr6
_chemical_formula_sum   'La4 Nd8 Ru2 Pt2 Br12'
_cell_volume   902.68042741
_cell_formula_units_Z   2
loop_
 _symmetry_equiv_pos_site_id
 _symmetry_equiv_pos_as_xyz
  1  'x, y, z'
loop_
 _atom_site_type_symbol
 _atom_site_label
 _atom_site_symmetry_multiplicity
 _atom_site_fract_x
 _atom_site_fract_y
 _atom_site_fract_z
 _atom_site_occupancy
  La  La0  1  0.761599  0.238813  0.272502  1
  La  La1  1  0.760149  0.022239  0.489726  1
  La  La2  1  0.467485  0.477761  0.237910  1
  La  La3  1  0.033692  0.261187  0.022786  1
  Nd  Nd4  1  0.265174  0.752912  0.235690  1
  Nd  Nd5  1  0.482777  0.747088  0.012262  1
  Nd  Nd6  1  0.232578  0.469462  0.489207  1
  Nd  Nd7  1  0.019744  0.030538  0.263115  1
  Nd  Nd8  1  0.229737  0.261131  0.738209  1
  Nd  Nd9  1  0.013655  0.483922  0.747822  1
  Nd  Nd10  1  0.477078  0.238869  0.468605  1
  Nd  Nd11  1  0.263900  0.016078  0.029734  1
  Ru  Ru12  1  0.993663  0.246928  0.496254  1
  Ru  Ru13  1  0.249326  0.253072  0.246735  1
  Pt  Pt14  1  0.500011  0.000611  0.250402  1
  Pt  Pt15  1  0.249790  0.499389  0.999400  1
  Br  Br16  1  0.250174  0.994459  0.504235  1
  Br  Br17  1  0.509777  0.505541  0.755716  1
  Br  Br18  1  0.249647  0.754709  0.745597  1
  Br  Br19  1  0.990888  0.745291  0.994938  1
  Br  Br20  1  0.001956  0.510970  0.255754  1
  Br  Br21  1  0.744784  0.989030  0.990985  1
  Br  Br22  1  0.753650  0.746558  0.244634  1
  Br  Br23  1  0.498077  0.753442  0.507093  1
  Br  Br24  1  0.498660  0.244570  0.990640  1
  Br  Br25  1  0.754652  0.509175  0.510480  1
  Br  Br26  1  0.746070  0.255430  0.754090  1
  Br  Br27  1  0.001307  0.990825  0.745478  1
