# generated using pymatgen
data_Ho2Pa(InPd)3
_symmetry_space_group_name_H-M   'P 1'
_cell_length_a   7.58360713
_cell_length_b   7.64082340
_cell_length_c   3.95541000
_cell_angle_alpha   90.00000000
_cell_angle_beta   90.00000000
_cell_angle_gamma   120.24989966
_symmetry_Int_Tables_number   1
_chemical_formula_structural   Ho2Pa(InPd)3
_chemical_formula_sum   'Ho2 Pa1 In3 Pd3'
_cell_volume   197.98805517
_cell_formula_units_Z   1
loop_
 _symmetry_equiv_pos_site_id
 _symmetry_equiv_pos_as_xyz
  1  'x, y, z'
loop_
 _atom_site_type_symbol
 _atom_site_label
 _atom_site_symmetry_multiplicity
 _atom_site_fract_x
 _atom_site_fract_y
 _atom_site_fract_z
 _atom_site_occupancy
  Ho  Ho0  1  0.406224  0.408947  0.000000  1
  Ho  Ho1  1  0.593776  0.002723  0.000000  1
  Pa  Pa2  1  0.000000  0.587464  0.000000  1
  In  In3  1  0.732732  0.742824  0.500000  1
  In  In4  1  0.000000  0.247141  0.500000  1
  In  In5  1  0.267268  0.010092  0.500000  1
  Pd  Pd6  1  0.316807  0.664712  0.500000  1
  Pd  Pd7  1  0.000000  0.988194  0.000000  1
  Pd  Pd8  1  0.683193  0.347904  0.500000  1
