# generated using pymatgen
data_TmLu3FeOs7
_symmetry_space_group_name_H-M   'P 1'
_cell_length_a   5.26440215
_cell_length_b   5.26422197
_cell_length_c   8.75721700
_cell_angle_alpha   89.96234137
_cell_angle_beta   89.96209233
_cell_angle_gamma   60.90938749
_symmetry_Int_Tables_number   1
_chemical_formula_structural   TmLu3FeOs7
_chemical_formula_sum   'Tm1 Lu3 Fe1 Os7'
_cell_volume   212.07382411
_cell_formula_units_Z   1
loop_
 _symmetry_equiv_pos_site_id
 _symmetry_equiv_pos_as_xyz
  1  'x, y, z'
loop_
 _atom_site_type_symbol
 _atom_site_label
 _atom_site_symmetry_multiplicity
 _atom_site_fract_x
 _atom_site_fract_y
 _atom_site_fract_z
 _atom_site_occupancy
  Tm  Tm0  1  0.331079  0.331319  0.563279  1
  Lu  Lu1  1  0.668088  0.668266  0.433787  1
  Lu  Lu2  1  0.667999  0.668128  0.066160  1
  Lu  Lu3  1  0.330953  0.331124  0.936789  1
  Fe  Fe4  1  0.167850  0.167941  0.249771  1
  Os  Os5  1  0.998500  0.998836  0.498306  1
  Os  Os6  1  0.998402  0.998680  0.001494  1
  Os  Os7  1  0.826135  0.346688  0.750299  1
  Os  Os8  1  0.347571  0.825625  0.750301  1
  Os  Os9  1  0.830291  0.830210  0.750343  1
  Os  Os10  1  0.178490  0.654652  0.249734  1
  Os  Os11  1  0.654645  0.178529  0.249734  1
