# generated using pymatgen
data_NdAlSiIrRh
_symmetry_space_group_name_H-M   'P 1'
_cell_length_a   4.16447600
_cell_length_b   4.16447600
_cell_length_c   10.36786800
_cell_angle_alpha   90.00000000
_cell_angle_beta   90.00000000
_cell_angle_gamma   90.00000000
_symmetry_Int_Tables_number   1
_chemical_formula_structural   NdAlSiIrRh
_chemical_formula_sum   'Nd2 Al2 Si2 Ir2 Rh2'
_cell_volume   179.80848690
_cell_formula_units_Z   2
loop_
 _symmetry_equiv_pos_site_id
 _symmetry_equiv_pos_as_xyz
  1  'x, y, z'
loop_
 _atom_site_type_symbol
 _atom_site_label
 _atom_site_symmetry_multiplicity
 _atom_site_fract_x
 _atom_site_fract_y
 _atom_site_fract_z
 _atom_site_occupancy
  Nd  Nd0  1  0.000000  0.500000  0.246391  1
  Nd  Nd1  1  0.500000  0.000000  0.753609  1
  Al  Al2  1  0.000000  0.000000  0.500000  1
  Al  Al3  1  0.500000  0.500000  0.500000  1
  Si  Si4  1  0.000000  0.500000  0.877950  1
  Si  Si5  1  0.500000  0.000000  0.122050  1
  Ir  Ir6  1  0.000000  0.500000  0.644026  1
  Ir  Ir7  1  0.500000  0.000000  0.355974  1
  Rh  Rh8  1  0.000000  0.000000  0.000000  1
  Rh  Rh9  1  0.500000  0.500000  0.000000  1
