# generated using pymatgen
data_Hf4UNb3Tc8
_symmetry_space_group_name_H-M   'P 1'
_cell_length_a   6.48252809
_cell_length_b   6.47755610
_cell_length_c   6.48705202
_cell_angle_alpha   90.00719526
_cell_angle_beta   90.00510743
_cell_angle_gamma   89.98172366
_symmetry_Int_Tables_number   1
_chemical_formula_structural   Hf4UNb3Tc8
_chemical_formula_sum   'Hf4 U1 Nb3 Tc8'
_cell_volume   272.39739071
_cell_formula_units_Z   1
loop_
 _symmetry_equiv_pos_site_id
 _symmetry_equiv_pos_as_xyz
  1  'x, y, z'
loop_
 _atom_site_type_symbol
 _atom_site_label
 _atom_site_symmetry_multiplicity
 _atom_site_fract_x
 _atom_site_fract_y
 _atom_site_fract_z
 _atom_site_occupancy
  Hf  Hf0  1  0.749906  0.250000  0.000070  1
  Hf  Hf1  1  0.249927  0.750002  0.500003  1
  Hf  Hf2  1  0.750069  0.249998  0.500264  1
  Hf  Hf3  1  0.250102  0.750001  0.999811  1
  U  U4  1  0.249999  0.250015  0.000795  1
  Nb  Nb5  1  0.749962  0.749991  0.499334  1
  Nb  Nb6  1  0.250072  0.250003  0.500635  1
  Nb  Nb7  1  0.750021  0.749993  0.999088  1
  Tc  Tc8  1  0.498046  0.001941  0.247684  1
  Tc  Tc9  1  0.498214  0.498243  0.247733  1
  Tc  Tc10  1  0.001744  0.001741  0.247657  1
  Tc  Tc11  1  0.001959  0.498049  0.247616  1
  Tc  Tc12  1  0.001743  0.001764  0.752316  1
  Tc  Tc13  1  0.001915  0.498055  0.752379  1
  Tc  Tc14  1  0.498267  0.498267  0.752289  1
  Tc  Tc15  1  0.498053  0.001939  0.752325  1
