# generated using pymatgen
data_Tb2TiCo8ReP6
_symmetry_space_group_name_H-M   'P 1'
_cell_length_a   3.69661300
_cell_length_b   10.42950700
_cell_length_c   11.88770900
_cell_angle_alpha   90.00000000
_cell_angle_beta   90.00000000
_cell_angle_gamma   90.00000000
_symmetry_Int_Tables_number   1
_chemical_formula_structural   Tb2TiCo8ReP6
_chemical_formula_sum   'Tb4 Ti2 Co16 Re2 P12'
_cell_volume   458.31696342
_cell_formula_units_Z   2
loop_
 _symmetry_equiv_pos_site_id
 _symmetry_equiv_pos_as_xyz
  1  'x, y, z'
loop_
 _atom_site_type_symbol
 _atom_site_label
 _atom_site_symmetry_multiplicity
 _atom_site_fract_x
 _atom_site_fract_y
 _atom_site_fract_z
 _atom_site_occupancy
  Tb  Tb0  1  0.250000  0.581991  0.704452  1
  Tb  Tb1  1  0.250000  0.918009  0.204452  1
  Tb  Tb2  1  0.750000  0.417325  0.295929  1
  Tb  Tb3  1  0.750000  0.082675  0.795929  1
  Ti  Ti4  1  0.750000  0.295203  0.010244  1
  Ti  Ti5  1  0.750000  0.204797  0.510244  1
  Co  Co6  1  0.250000  0.407357  0.488008  1
  Co  Co7  1  0.250000  0.092643  0.988008  1
  Co  Co8  1  0.750000  0.596603  0.509363  1
  Co  Co9  1  0.750000  0.903397  0.009363  1
  Co  Co10  1  0.250000  0.220431  0.176055  1
  Co  Co11  1  0.250000  0.279569  0.676055  1
  Co  Co12  1  0.750000  0.776517  0.822101  1
  Co  Co13  1  0.750000  0.723483  0.322101  1
  Co  Co14  1  0.250000  0.885909  0.700647  1
  Co  Co15  1  0.250000  0.614091  0.200647  1
  Co  Co16  1  0.750000  0.112563  0.301121  1
  Co  Co17  1  0.750000  0.387437  0.801121  1
  Co  Co18  1  0.250000  0.466839  0.935023  1
  Co  Co19  1  0.250000  0.033161  0.435023  1
  Co  Co20  1  0.750000  0.536400  0.067940  1
  Co  Co21  1  0.750000  0.963600  0.567940  1
  Re  Re22  1  0.250000  0.707712  0.989715  1
  Re  Re23  1  0.250000  0.792288  0.489715  1
  P  P24  1  0.250000  0.419672  0.116501  1
  P  P25  1  0.250000  0.080328  0.616501  1
  P  P26  1  0.750000  0.579760  0.886528  1
  P  P27  1  0.750000  0.920240  0.386528  1
  P  P28  1  0.250000  0.271539  0.862639  1
  P  P29  1  0.250000  0.228461  0.362639  1
  P  P30  1  0.750000  0.732043  0.133627  1
  P  P31  1  0.750000  0.767957  0.633627  1
  P  P32  1  0.250000  0.598210  0.391241  1
  P  P33  1  0.250000  0.901790  0.891241  1
  P  P34  1  0.750000  0.406574  0.608867  1
  P  P35  1  0.750000  0.093426  0.108867  1
