# generated using pymatgen
data_Yb5ZnBi2Pb
_symmetry_space_group_name_H-M   'P 1'
_cell_length_a   9.34610152
_cell_length_b   9.33312450
_cell_length_c   7.03852200
_cell_angle_alpha   90.00000000
_cell_angle_beta   90.00000000
_cell_angle_gamma   119.95407014
_symmetry_Int_Tables_number   1
_chemical_formula_structural   Yb5ZnBi2Pb
_chemical_formula_sum   'Yb10 Zn2 Bi4 Pb2'
_cell_volume   531.94958122
_cell_formula_units_Z   2
loop_
 _symmetry_equiv_pos_site_id
 _symmetry_equiv_pos_as_xyz
  1  'x, y, z'
loop_
 _atom_site_type_symbol
 _atom_site_label
 _atom_site_symmetry_multiplicity
 _atom_site_fract_x
 _atom_site_fract_y
 _atom_site_fract_z
 _atom_site_occupancy
  Yb  Yb0  1  0.331362  0.665682  0.000000  1
  Yb  Yb1  1  0.658505  0.329252  0.500000  1
  Yb  Yb2  1  0.658505  0.329252  0.000000  1
  Yb  Yb3  1  0.331362  0.665682  0.500000  1
  Yb  Yb4  1  0.276608  0.005039  0.250000  1
  Yb  Yb5  1  0.276608  0.271569  0.750000  1
  Yb  Yb6  1  0.002540  0.728670  0.750000  1
  Yb  Yb7  1  0.002540  0.273870  0.250000  1
  Yb  Yb8  1  0.724107  0.726480  0.250000  1
  Yb  Yb9  1  0.724107  0.997628  0.750000  1
  Zn  Zn10  1  0.011265  0.005633  0.000000  1
  Zn  Zn11  1  0.011265  0.005633  0.500000  1
  Bi  Bi12  1  0.621092  0.000883  0.250000  1
  Bi  Bi13  1  0.621092  0.620209  0.750000  1
  Bi  Bi14  1  0.998069  0.376186  0.750000  1
  Bi  Bi15  1  0.998069  0.621885  0.250000  1
  Pb  Pb16  1  0.376452  0.379346  0.250000  1
  Pb  Pb17  1  0.376452  0.997105  0.750000  1
