# generated using pymatgen
data_DyHo2BePd5
_symmetry_space_group_name_H-M   'P 1'
_cell_length_a   8.13353749
_cell_length_b   8.13353743
_cell_length_c   8.13353700
_cell_angle_alpha   127.75506807
_cell_angle_beta   125.06687683
_cell_angle_gamma   79.23277149
_symmetry_Int_Tables_number   1
_chemical_formula_structural   DyHo2BePd5
_chemical_formula_sum   'Dy2 Ho4 Be2 Pd10'
_cell_volume   336.69303583
_cell_formula_units_Z   2
loop_
 _symmetry_equiv_pos_site_id
 _symmetry_equiv_pos_as_xyz
  1  'x, y, z'
loop_
 _atom_site_type_symbol
 _atom_site_label
 _atom_site_symmetry_multiplicity
 _atom_site_fract_x
 _atom_site_fract_y
 _atom_site_fract_z
 _atom_site_occupancy
  Dy  Dy0  1  0.402448  0.250000  0.152448  1
  Dy  Dy1  1  0.597552  0.750000  0.847552  1
  Ho  Ho2  1  0.220463  0.446587  0.773877  1
  Ho  Ho3  1  0.779537  0.553413  0.226123  1
  Ho  Ho4  1  0.827292  0.053413  0.773877  1
  Ho  Ho5  1  0.172708  0.946587  0.226123  1
  Be  Be6  1  0.791215  0.250000  0.541215  1
  Be  Be7  1  0.208785  0.750000  0.458785  1
  Pd  Pd8  1  0.170536  0.405587  0.356190  1
  Pd  Pd9  1  0.829464  0.185655  0.235051  1
  Pd  Pd10  1  0.450603  0.094413  0.764949  1
  Pd  Pd11  1  0.549397  0.314345  0.643810  1
  Pd  Pd12  1  0.000000  0.500000  0.000000  1
  Pd  Pd13  1  0.000000  0.000000  0.500000  1
  Pd  Pd14  1  0.450603  0.685655  0.356190  1
  Pd  Pd15  1  0.549397  0.905587  0.235051  1
  Pd  Pd16  1  0.170536  0.814345  0.764949  1
  Pd  Pd17  1  0.829464  0.594413  0.643810  1
