# generated using pymatgen
data_Zr6Zn16AsPd7
_symmetry_space_group_name_H-M   'P 1'
_cell_length_a   8.83871722
_cell_length_b   8.83871663
_cell_length_c   8.83871600
_cell_angle_alpha   60.00000236
_cell_angle_beta   60.00000456
_cell_angle_gamma   60.00000084
_symmetry_Int_Tables_number   1
_chemical_formula_structural   Zr6Zn16AsPd7
_chemical_formula_sum   'Zr6 Zn16 As1 Pd7'
_cell_volume   488.26169836
_cell_formula_units_Z   1
loop_
 _symmetry_equiv_pos_site_id
 _symmetry_equiv_pos_as_xyz
  1  'x, y, z'
loop_
 _atom_site_type_symbol
 _atom_site_label
 _atom_site_symmetry_multiplicity
 _atom_site_fract_x
 _atom_site_fract_y
 _atom_site_fract_z
 _atom_site_occupancy
  Zr  Zr0  1  0.714114  0.285886  0.285886  1
  Zr  Zr1  1  0.285886  0.714114  0.714114  1
  Zr  Zr2  1  0.285886  0.714114  0.285886  1
  Zr  Zr3  1  0.714114  0.285886  0.714114  1
  Zr  Zr4  1  0.285886  0.285886  0.714114  1
  Zr  Zr5  1  0.714114  0.714114  0.285886  1
  Zn  Zn6  1  0.122282  0.122282  0.122282  1
  Zn  Zn7  1  0.877718  0.877718  0.877718  1
  Zn  Zn8  1  0.122282  0.122282  0.633154  1
  Zn  Zn9  1  0.122282  0.633154  0.122282  1
  Zn  Zn10  1  0.877718  0.877718  0.366846  1
  Zn  Zn11  1  0.877718  0.366846  0.877718  1
  Zn  Zn12  1  0.633154  0.122282  0.122282  1
  Zn  Zn13  1  0.366846  0.877718  0.877718  1
  Zn  Zn14  1  0.338202  0.338202  0.338202  1
  Zn  Zn15  1  0.661798  0.661798  0.661798  1
  Zn  Zn16  1  0.338202  0.338202  0.985396  1
  Zn  Zn17  1  0.338202  0.985396  0.338202  1
  Zn  Zn18  1  0.661798  0.661798  0.014604  1
  Zn  Zn19  1  0.661798  0.014604  0.661798  1
  Zn  Zn20  1  0.985396  0.338202  0.338202  1
  Zn  Zn21  1  0.014604  0.661798  0.661798  1
  As  As22  1  0.500000  0.500000  0.500000  1
  Pd  Pd23  1  0.500000  0.000000  0.000000  1
  Pd  Pd24  1  0.000000  0.500000  0.500000  1
  Pd  Pd25  1  0.000000  0.500000  0.000000  1
  Pd  Pd26  1  0.500000  0.000000  0.500000  1
  Pd  Pd27  1  0.000000  0.000000  0.500000  1
  Pd  Pd28  1  0.500000  0.500000  0.000000  1
  Pd  Pd29  1  0.000000  0.000000  0.000000  1
