# generated using pymatgen
data_Gd4In2Ir3
_symmetry_space_group_name_H-M   'P 1'
_cell_length_a   7.59281800
_cell_length_b   7.59281714
_cell_length_c   4.16608800
_cell_angle_alpha   90.00000000
_cell_angle_beta   90.00000000
_cell_angle_gamma   121.10707588
_symmetry_Int_Tables_number   1
_chemical_formula_structural   Gd4In2Ir3
_chemical_formula_sum   'Gd4 In2 Ir3'
_cell_volume   205.64173590
_cell_formula_units_Z   1
loop_
 _symmetry_equiv_pos_site_id
 _symmetry_equiv_pos_as_xyz
  1  'x, y, z'
loop_
 _atom_site_type_symbol
 _atom_site_label
 _atom_site_symmetry_multiplicity
 _atom_site_fract_x
 _atom_site_fract_y
 _atom_site_fract_z
 _atom_site_occupancy
  Gd  Gd0  1  0.586231  0.021425  0.000000  1
  Gd  Gd1  1  0.021425  0.586231  0.000000  1
  Gd  Gd2  1  0.387791  0.387791  0.000000  1
  Gd  Gd3  1  0.752259  0.752259  0.500000  1
  In  In4  1  0.251947  0.995306  0.500000  1
  In  In5  1  0.995306  0.251947  0.500000  1
  Ir  Ir6  1  0.332444  0.666101  0.500000  1
  Ir  Ir7  1  0.666101  0.332444  0.500000  1
  Ir  Ir8  1  0.006495  0.006495  0.000000  1
