# generated using pymatgen
data_La5YbTh2(CdIr)2
_symmetry_space_group_name_H-M   'P 1'
_cell_length_a   10.12964620
_cell_length_b   10.05491022
_cell_length_c   10.05491083
_cell_angle_alpha   60.49236310
_cell_angle_beta   59.75382232
_cell_angle_gamma   59.75382840
_symmetry_Int_Tables_number   1
_chemical_formula_structural   La5YbTh2(CdIr)2
_chemical_formula_sum   'La10 Yb2 Th4 Cd4 Ir4'
_cell_volume   724.08140859
_cell_formula_units_Z   2
loop_
 _symmetry_equiv_pos_site_id
 _symmetry_equiv_pos_as_xyz
  1  'x, y, z'
loop_
 _atom_site_type_symbol
 _atom_site_label
 _atom_site_symmetry_multiplicity
 _atom_site_fract_x
 _atom_site_fract_y
 _atom_site_fract_z
 _atom_site_occupancy
  La  La0  1  0.439679  0.060321  0.439679  1
  La  La1  1  0.060321  0.439679  0.060321  1
  La  La2  1  0.439679  0.439679  0.060321  1
  La  La3  1  0.060321  0.060321  0.439679  1
  La  La4  1  0.189281  0.810719  0.810719  1
  La  La5  1  0.810719  0.189281  0.189281  1
  La  La6  1  0.809462  0.190538  0.809462  1
  La  La7  1  0.190538  0.809462  0.190538  1
  La  La8  1  0.809462  0.809462  0.190538  1
  La  La9  1  0.190538  0.190538  0.809462  1
  Yb  Yb10  1  0.056649  0.443351  0.443351  1
  Yb  Yb11  1  0.443351  0.056649  0.056649  1
  Th  Th12  1  0.598970  0.594352  0.594352  1
  Th  Th13  1  0.594352  0.598970  0.212326  1
  Th  Th14  1  0.594352  0.212326  0.598970  1
  Th  Th15  1  0.212326  0.594352  0.594352  1
  Cd  Cd16  1  0.828727  0.829260  0.829260  1
  Cd  Cd17  1  0.829260  0.828727  0.512753  1
  Cd  Cd18  1  0.829260  0.512753  0.828727  1
  Cd  Cd19  1  0.512753  0.829260  0.829260  1
  Ir  Ir20  1  0.398683  0.394464  0.394464  1
  Ir  Ir21  1  0.394464  0.398683  0.812390  1
  Ir  Ir22  1  0.394464  0.812390  0.398683  1
  Ir  Ir23  1  0.812390  0.394464  0.394464  1
