# generated using pymatgen
data_Ni3Sb8Pt
_symmetry_space_group_name_H-M   'P 1'
_cell_length_a   6.41279911
_cell_length_b   6.55068591
_cell_length_c   6.56811748
_cell_angle_alpha   72.72427964
_cell_angle_beta   90.06948545
_cell_angle_gamma   90.01783863
_symmetry_Int_Tables_number   1
_chemical_formula_structural   Ni3Sb8Pt
_chemical_formula_sum   'Ni3 Sb8 Pt1'
_cell_volume   263.46738540
_cell_formula_units_Z   1
loop_
 _symmetry_equiv_pos_site_id
 _symmetry_equiv_pos_as_xyz
  1  'x, y, z'
loop_
 _atom_site_type_symbol
 _atom_site_label
 _atom_site_symmetry_multiplicity
 _atom_site_fract_x
 _atom_site_fract_y
 _atom_site_fract_z
 _atom_site_occupancy
  Ni  Ni0  1  0.500521  0.249546  0.248086  1
  Ni  Ni1  1  0.499466  0.750377  0.752025  1
  Ni  Ni2  1  0.000424  0.749408  0.252108  1
  Sb  Sb3  1  0.627716  0.362210  0.860660  1
  Sb  Sb4  1  0.143289  0.655061  0.637840  1
  Sb  Sb5  1  0.358925  0.639938  0.143150  1
  Sb  Sb6  1  0.856988  0.363254  0.344301  1
  Sb  Sb7  1  0.371355  0.138979  0.635082  1
  Sb  Sb8  1  0.854737  0.846234  0.866735  1
  Sb  Sb9  1  0.642217  0.858748  0.361163  1
  Sb  Sb10  1  0.144762  0.135598  0.150831  1
  Pt  Pt11  1  0.999602  0.250648  0.748021  1
