# generated using pymatgen
data_Ca3Eu(RuO4)4
_symmetry_space_group_name_H-M   'P 1'
_cell_length_a   5.02025132
_cell_length_b   5.47716633
_cell_length_c   13.76773600
_cell_angle_alpha   67.68355378
_cell_angle_beta   90.08340573
_cell_angle_gamma   90.22793769
_symmetry_Int_Tables_number   1
_chemical_formula_structural   Ca3Eu(RuO4)4
_chemical_formula_sum   'Ca3 Eu1 Ru4 O16'
_cell_volume   350.21078695
_cell_formula_units_Z   1
loop_
 _symmetry_equiv_pos_site_id
 _symmetry_equiv_pos_as_xyz
  1  'x, y, z'
loop_
 _atom_site_type_symbol
 _atom_site_label
 _atom_site_symmetry_multiplicity
 _atom_site_fract_x
 _atom_site_fract_y
 _atom_site_fract_z
 _atom_site_occupancy
  Ca  Ca0  1  0.742095  0.160620  0.340160  1
  Ca  Ca1  1  0.242355  0.838665  0.160115  1
  Ca  Ca2  1  0.256442  0.845507  0.659481  1
  Eu  Eu3  1  0.755815  0.152226  0.839575  1
  Ru  Ru4  1  0.246361  0.583406  0.420909  1
  Ru  Ru5  1  0.747051  0.416505  0.079227  1
  Ru  Ru6  1  0.746367  0.423795  0.577777  1
  Ru  Ru7  1  0.246875  0.576088  0.922590  1
  O  O8  1  0.547214  0.736724  0.461208  1
  O  O9  1  0.046351  0.262998  0.038652  1
  O  O10  1  0.457464  0.260160  0.538454  1
  O  O11  1  0.958879  0.742445  0.962075  1
  O  O12  1  0.953426  0.347577  0.456337  1
  O  O13  1  0.455030  0.652452  0.043441  1
  O  O14  1  0.050387  0.649195  0.543616  1
  O  O15  1  0.551591  0.350455  0.955637  1
  O  O16  1  0.108358  0.887028  0.321633  1
  O  O17  1  0.607869  0.112033  0.178360  1
  O  O18  1  0.892801  0.115338  0.678415  1
  O  O19  1  0.390972  0.887511  0.821709  1
  O  O20  1  0.390706  0.481344  0.318794  1
  O  O21  1  0.891389  0.518227  0.181576  1
  O  O22  1  0.606909  0.520145  0.682474  1
  O  O23  1  0.107298  0.479556  0.817785  1
