# generated using pymatgen
data_YEr19GaBi11
_symmetry_space_group_name_H-M   'P 1'
_cell_length_a   8.16161420
_cell_length_b   9.42304200
_cell_length_c   11.95831329
_cell_angle_alpha   90.00000000
_cell_angle_beta   90.30076399
_cell_angle_gamma   90.00000000
_symmetry_Int_Tables_number   1
_chemical_formula_structural   YEr19GaBi11
_chemical_formula_sum   'Y1 Er19 Ga1 Bi11'
_cell_volume   919.66812008
_cell_formula_units_Z   1
loop_
 _symmetry_equiv_pos_site_id
 _symmetry_equiv_pos_as_xyz
  1  'x, y, z'
loop_
 _atom_site_type_symbol
 _atom_site_label
 _atom_site_symmetry_multiplicity
 _atom_site_fract_x
 _atom_site_fract_y
 _atom_site_fract_z
 _atom_site_occupancy
  Y  Y0  1  0.148635  0.250000  0.715742  1
  Er  Er1  1  0.036904  0.750000  0.990030  1
  Er  Er2  1  0.526896  0.750000  0.511468  1
  Er  Er3  1  0.977632  0.250000  0.010350  1
  Er  Er4  1  0.473934  0.250000  0.488905  1
  Er  Er5  1  0.191143  0.750000  0.722540  1
  Er  Er6  1  0.673250  0.750000  0.788864  1
  Er  Er7  1  0.811249  0.250000  0.280752  1
  Er  Er8  1  0.313519  0.250000  0.219803  1
  Er  Er9  1  0.308697  0.451337  0.940528  1
  Er  Er10  1  0.805421  0.063278  0.559689  1
  Er  Er11  1  0.685772  0.929873  0.055384  1
  Er  Er12  1  0.194718  0.563715  0.439027  1
  Er  Er13  1  0.685772  0.570127  0.055384  1
  Er  Er14  1  0.194718  0.936285  0.439027  1
  Er  Er15  1  0.308697  0.048663  0.940528  1
  Er  Er16  1  0.805421  0.436722  0.559689  1
  Er  Er17  1  0.355920  0.750000  0.205490  1
  Er  Er18  1  0.852892  0.750000  0.285048  1
  Er  Er19  1  0.648097  0.250000  0.785006  1
  Ga  Ga20  1  0.411144  0.750000  0.961460  1
  Bi  Bi21  1  0.435502  0.003702  0.674683  1
  Bi  Bi22  1  0.934271  0.498133  0.825551  1
  Bi  Bi23  1  0.565227  0.504423  0.325651  1
  Bi  Bi24  1  0.064001  0.996997  0.175024  1
  Bi  Bi25  1  0.565227  0.995577  0.325651  1
  Bi  Bi26  1  0.064001  0.503003  0.175024  1
  Bi  Bi27  1  0.435502  0.496298  0.674683  1
  Bi  Bi28  1  0.934271  0.001867  0.825551  1
  Bi  Bi29  1  0.910810  0.750000  0.544105  1
  Bi  Bi30  1  0.590647  0.250000  0.042137  1
  Bi  Bi31  1  0.090114  0.250000  0.457230  1
