# generated using pymatgen
data_Yb2HoTm(Ga3Ir)6
_symmetry_space_group_name_H-M   'P 1'
_cell_length_a   7.54714966
_cell_length_b   7.54907609
_cell_length_c   9.57518200
_cell_angle_alpha   90.00000000
_cell_angle_beta   90.00000000
_cell_angle_gamma   119.64773264
_symmetry_Int_Tables_number   1
_chemical_formula_structural   Yb2HoTm(Ga3Ir)6
_chemical_formula_sum   'Yb2 Ho1 Tm1 Ga18 Ir6'
_cell_volume   474.11655689
_cell_formula_units_Z   1
loop_
 _symmetry_equiv_pos_site_id
 _symmetry_equiv_pos_as_xyz
  1  'x, y, z'
loop_
 _atom_site_type_symbol
 _atom_site_label
 _atom_site_symmetry_multiplicity
 _atom_site_fract_x
 _atom_site_fract_y
 _atom_site_fract_z
 _atom_site_occupancy
  Yb  Yb0  1  0.996593  0.669746  0.750000  1
  Yb  Yb1  1  0.003435  0.330221  0.250000  1
  Ho  Ho2  1  0.669640  0.998512  0.750000  1
  Tm  Tm3  1  0.330310  0.001365  0.250000  1
  Ga  Ga4  1  0.127388  0.129976  0.750000  1
  Ga  Ga5  1  0.873141  0.870368  0.250000  1
  Ga  Ga6  1  0.000705  0.336216  0.577530  1
  Ga  Ga7  1  0.999724  0.664211  0.421894  1
  Ga  Ga8  1  0.999724  0.664211  0.078106  1
  Ga  Ga9  1  0.333022  0.998708  0.920849  1
  Ga  Ga10  1  0.000705  0.336216  0.922470  1
  Ga  Ga11  1  0.666563  0.001323  0.080006  1
  Ga  Ga12  1  0.666563  0.001323  0.419994  1
  Ga  Ga13  1  0.333022  0.998708  0.579151  1
  Ga  Ga14  1  0.332032  0.332382  0.064994  1
  Ga  Ga15  1  0.667924  0.667231  0.935629  1
  Ga  Ga16  1  0.667924  0.667231  0.564371  1
  Ga  Ga17  1  0.332032  0.332382  0.435006  1
  Ga  Ga18  1  0.339239  0.547157  0.750000  1
  Ga  Ga19  1  0.660524  0.452386  0.250000  1
  Ga  Ga20  1  0.546275  0.336445  0.750000  1
  Ga  Ga21  1  0.453511  0.663599  0.250000  1
  Ir  Ir22  1  0.671015  0.328137  0.500137  1
  Ir  Ir23  1  0.328899  0.671868  0.499555  1
  Ir  Ir24  1  0.328899  0.671868  0.000445  1
  Ir  Ir25  1  0.671015  0.328137  0.999863  1
  Ir  Ir26  1  0.000088  0.000037  0.499880  1
  Ir  Ir27  1  0.000088  0.000037  0.000120  1
