# generated using pymatgen
data_CaNb8SbS16
_symmetry_space_group_name_H-M   'P 1'
_cell_length_a   6.65709000
_cell_length_b   6.65709082
_cell_length_c   14.16416500
_cell_angle_alpha   90.00000000
_cell_angle_beta   90.00000000
_cell_angle_gamma   119.99999593
_symmetry_Int_Tables_number   1
_chemical_formula_structural   CaNb8SbS16
_chemical_formula_sum   'Ca1 Nb8 Sb1 S16'
_cell_volume   543.61387995
_cell_formula_units_Z   1
loop_
 _symmetry_equiv_pos_site_id
 _symmetry_equiv_pos_as_xyz
  1  'x, y, z'
loop_
 _atom_site_type_symbol
 _atom_site_label
 _atom_site_symmetry_multiplicity
 _atom_site_fract_x
 _atom_site_fract_y
 _atom_site_fract_z
 _atom_site_occupancy
  Ca  Ca0  1  0.000000  0.000000  0.500000  1
  Nb  Nb1  1  0.991046  0.495523  0.243422  1
  Nb  Nb2  1  0.008954  0.504477  0.756578  1
  Nb  Nb3  1  0.495523  0.504477  0.756578  1
  Nb  Nb4  1  0.504477  0.008954  0.243422  1
  Nb  Nb5  1  0.000000  0.000000  0.755756  1
  Nb  Nb6  1  0.000000  0.000000  0.244244  1
  Nb  Nb7  1  0.504477  0.495523  0.243422  1
  Nb  Nb8  1  0.495523  0.991046  0.756578  1
  Sb  Sb9  1  0.000000  0.000000  0.000000  1
  S  S10  1  0.333333  0.666667  0.643194  1
  S  S11  1  0.666667  0.333333  0.130417  1
  S  S12  1  0.666667  0.333333  0.356806  1
  S  S13  1  0.333333  0.666667  0.869583  1
  S  S14  1  0.167632  0.335264  0.354360  1
  S  S15  1  0.830645  0.169355  0.866859  1
  S  S16  1  0.338711  0.169355  0.866859  1
  S  S17  1  0.664736  0.832368  0.354360  1
  S  S18  1  0.167632  0.832368  0.354360  1
  S  S19  1  0.830645  0.661289  0.866859  1
  S  S20  1  0.169355  0.338711  0.133141  1
  S  S21  1  0.832368  0.167632  0.645640  1
  S  S22  1  0.335264  0.167632  0.645640  1
  S  S23  1  0.661289  0.830645  0.133141  1
  S  S24  1  0.169355  0.830645  0.133141  1
  S  S25  1  0.832368  0.664736  0.645640  1
