# generated using pymatgen
data_Er3(ThTc)2
_symmetry_space_group_name_H-M   'P 1'
_cell_length_a   6.37009332
_cell_length_b   7.36573302
_cell_length_c   8.66497653
_cell_angle_alpha   96.52921310
_cell_angle_beta   111.56626081
_cell_angle_gamma   90.00000630
_symmetry_Int_Tables_number   1
_chemical_formula_structural   Er3(ThTc)2
_chemical_formula_sum   'Er6 Th4 Tc4'
_cell_volume   375.26499659
_cell_formula_units_Z   2
loop_
 _symmetry_equiv_pos_site_id
 _symmetry_equiv_pos_as_xyz
  1  'x, y, z'
loop_
 _atom_site_type_symbol
 _atom_site_label
 _atom_site_symmetry_multiplicity
 _atom_site_fract_x
 _atom_site_fract_y
 _atom_site_fract_z
 _atom_site_occupancy
  Er  Er0  1  0.207162  0.685486  0.571263  1
  Er  Er1  1  0.635899  0.814514  0.428737  1
  Er  Er2  1  0.792838  0.314514  0.428737  1
  Er  Er3  1  0.364101  0.185486  0.571263  1
  Er  Er4  1  0.421160  0.750000  0.000000  1
  Er  Er5  1  0.578840  0.250000  0.000000  1
  Th  Th6  1  0.790114  0.589755  0.806369  1
  Th  Th7  1  0.983746  0.910245  0.193631  1
  Th  Th8  1  0.209886  0.410245  0.193631  1
  Th  Th9  1  0.016254  0.089755  0.806369  1
  Tc  Tc10  1  0.629646  0.914469  0.783675  1
  Tc  Tc11  1  0.845970  0.585531  0.216325  1
  Tc  Tc12  1  0.370354  0.085531  0.216325  1
  Tc  Tc13  1  0.154030  0.414469  0.783675  1
