# generated using pymatgen
data_YEr3Mg2(Ni7B2)2
_symmetry_space_group_name_H-M   'P 1'
_cell_length_a   4.99669300
_cell_length_b   4.99669319
_cell_length_c   14.16907900
_cell_angle_alpha   90.00000000
_cell_angle_beta   90.00000000
_cell_angle_gamma   120.00000538
_symmetry_Int_Tables_number   1
_chemical_formula_structural   YEr3Mg2(Ni7B2)2
_chemical_formula_sum   'Y1 Er3 Mg2 Ni14 B4'
_cell_volume   306.36389332
_cell_formula_units_Z   1
loop_
 _symmetry_equiv_pos_site_id
 _symmetry_equiv_pos_as_xyz
  1  'x, y, z'
loop_
 _atom_site_type_symbol
 _atom_site_label
 _atom_site_symmetry_multiplicity
 _atom_site_fract_x
 _atom_site_fract_y
 _atom_site_fract_z
 _atom_site_occupancy
  Y  Y0  1  0.666667  0.333333  0.530130  1
  Er  Er1  1  0.333333  0.666667  0.029570  1
  Er  Er2  1  0.666667  0.333333  0.756209  1
  Er  Er3  1  0.333333  0.666667  0.254625  1
  Mg  Mg4  1  0.333333  0.666667  0.466167  1
  Mg  Mg5  1  0.666667  0.333333  0.968339  1
  Ni  Ni6  1  0.834656  0.165344  0.351868  1
  Ni  Ni7  1  0.834656  0.669312  0.351868  1
  Ni  Ni8  1  0.000000  0.000000  0.998942  1
  Ni  Ni9  1  0.000000  0.000000  0.498665  1
  Ni  Ni10  1  0.833759  0.667519  0.147070  1
  Ni  Ni11  1  0.166136  0.833864  0.648363  1
  Ni  Ni12  1  0.667727  0.833864  0.648363  1
  Ni  Ni13  1  0.332481  0.166241  0.147070  1
  Ni  Ni14  1  0.833759  0.166241  0.147070  1
  Ni  Ni15  1  0.165716  0.331431  0.853355  1
  Ni  Ni16  1  0.165716  0.834284  0.853355  1
  Ni  Ni17  1  0.166136  0.332273  0.648363  1
  Ni  Ni18  1  0.668569  0.834284  0.853355  1
  Ni  Ni19  1  0.330688  0.165344  0.351868  1
  B  B20  1  0.666667  0.333333  0.249451  1
  B  B21  1  0.333333  0.666667  0.750256  1
  B  B22  1  0.000000  0.000000  0.748541  1
  B  B23  1  0.000000  0.000000  0.247135  1
