# generated using pymatgen
data_PrNd7(ZrIr3)2
_symmetry_space_group_name_H-M   'P 1'
_cell_length_a   11.20502863
_cell_length_b   11.20882886
_cell_length_c   6.39024840
_cell_angle_alpha   89.96687465
_cell_angle_beta   90.02364390
_cell_angle_gamma   90.03024404
_symmetry_Int_Tables_number   1
_chemical_formula_structural   PrNd7(ZrIr3)2
_chemical_formula_sum   'Pr2 Nd14 Zr4 Ir12'
_cell_volume   802.58452038
_cell_formula_units_Z   2
loop_
 _symmetry_equiv_pos_site_id
 _symmetry_equiv_pos_as_xyz
  1  'x, y, z'
loop_
 _atom_site_type_symbol
 _atom_site_label
 _atom_site_symmetry_multiplicity
 _atom_site_fract_x
 _atom_site_fract_y
 _atom_site_fract_z
 _atom_site_occupancy
  Pr  Pr0  1  0.087551  0.287207  0.122261  1
  Pr  Pr1  1  0.787217  0.412850  0.122152  1
  Nd  Nd2  1  0.212474  0.587038  0.121607  1
  Nd  Nd3  1  0.913387  0.712587  0.121579  1
  Nd  Nd4  1  0.413319  0.787654  0.378414  1
  Nd  Nd5  1  0.586680  0.212333  0.378397  1
  Nd  Nd6  1  0.287720  0.086661  0.378514  1
  Nd  Nd7  1  0.712463  0.913366  0.378260  1
  Nd  Nd8  1  0.413315  0.212416  0.878198  1
  Nd  Nd9  1  0.712289  0.086598  0.878285  1
  Nd  Nd10  1  0.287598  0.913249  0.878423  1
  Nd  Nd11  1  0.586661  0.787663  0.878421  1
  Nd  Nd12  1  0.086761  0.712189  0.621623  1
  Nd  Nd13  1  0.913094  0.287579  0.621892  1
  Nd  Nd14  1  0.212382  0.413319  0.621750  1
  Nd  Nd15  1  0.787702  0.586950  0.621808  1
  Zr  Zr16  1  0.999908  0.999673  0.000000  1
  Zr  Zr17  1  0.499683  0.500179  0.999895  1
  Zr  Zr18  1  0.499933  0.499993  0.499843  1
  Zr  Zr19  1  0.000005  0.999969  0.499944  1
  Ir  Ir20  1  0.138921  0.860999  0.249962  1
  Ir  Ir21  1  0.361282  0.361088  0.249974  1
  Ir  Ir22  1  0.638704  0.639355  0.250283  1
  Ir  Ir23  1  0.860658  0.138372  0.250393  1
  Ir  Ir24  1  0.361276  0.638971  0.749872  1
  Ir  Ir25  1  0.139069  0.138464  0.749319  1
  Ir  Ir26  1  0.861102  0.861195  0.749933  1
  Ir  Ir27  1  0.638603  0.361102  0.749256  1
  Ir  Ir28  1  0.000077  0.500500  0.380030  1
  Ir  Ir29  1  0.499933  0.999835  0.120337  1
  Ir  Ir30  1  0.500009  0.999953  0.620386  1
  Ir  Ir31  1  0.000221  0.500694  0.878989  1
