# generated using pymatgen
data_Er2Tm8(InSb)3
_symmetry_space_group_name_H-M   'P 1'
_cell_length_a   6.41860100
_cell_length_b   8.85963867
_cell_length_c   8.86336400
_cell_angle_alpha   59.98291625
_cell_angle_beta   89.99947518
_cell_angle_gamma   90.00033332
_symmetry_Int_Tables_number   1
_chemical_formula_structural   Er2Tm8(InSb)3
_chemical_formula_sum   'Er2 Tm8 In3 Sb3'
_cell_volume   436.42620382
_cell_formula_units_Z   1
loop_
 _symmetry_equiv_pos_site_id
 _symmetry_equiv_pos_as_xyz
  1  'x, y, z'
loop_
 _atom_site_type_symbol
 _atom_site_label
 _atom_site_symmetry_multiplicity
 _atom_site_fract_x
 _atom_site_fract_y
 _atom_site_fract_z
 _atom_site_occupancy
  Er  Er0  1  0.250054  0.762105  0.237824  1
  Er  Er1  1  0.250015  0.237904  0.999928  1
  Tm  Tm2  1  0.503540  0.333302  0.333304  1
  Tm  Tm3  1  0.503519  0.666693  0.666697  1
  Tm  Tm4  1  0.996467  0.666621  0.666676  1
  Tm  Tm5  1  0.996473  0.333340  0.333363  1
  Tm  Tm6  1  0.749996  0.238372  0.761549  1
  Tm  Tm7  1  0.750020  0.761651  0.999924  1
  Tm  Tm8  1  0.750034  0.999995  0.238536  1
  Tm  Tm9  1  0.250006  0.000019  0.762049  1
  In  In10  1  0.749805  0.605633  0.394363  1
  In  In11  1  0.750032  0.394312  0.000001  1
  In  In12  1  0.750027  0.999998  0.605645  1
  Sb  Sb13  1  0.250044  0.395415  0.604393  1
  Sb  Sb14  1  0.249989  0.604649  0.999807  1
  Sb  Sb15  1  0.249980  0.999994  0.395942  1
