# generated using pymatgen
data_Er16MgCd3Co4
_symmetry_space_group_name_H-M   'P 1'
_cell_length_a   9.43015708
_cell_length_b   9.40482434
_cell_length_c   9.40482400
_cell_angle_alpha   60.00000120
_cell_angle_beta   60.08882534
_cell_angle_gamma   60.08882410
_symmetry_Int_Tables_number   1
_chemical_formula_structural   Er16MgCd3Co4
_chemical_formula_sum   'Er16 Mg1 Cd3 Co4'
_cell_volume   590.59133179
_cell_formula_units_Z   1
loop_
 _symmetry_equiv_pos_site_id
 _symmetry_equiv_pos_as_xyz
  1  'x, y, z'
loop_
 _atom_site_type_symbol
 _atom_site_label
 _atom_site_symmetry_multiplicity
 _atom_site_fract_x
 _atom_site_fract_y
 _atom_site_fract_z
 _atom_site_occupancy
  Er  Er0  1  0.596134  0.595097  0.595097  1
  Er  Er1  1  0.596134  0.595097  0.213672  1
  Er  Er2  1  0.596134  0.213672  0.595097  1
  Er  Er3  1  0.210414  0.596529  0.596529  1
  Er  Er4  1  0.061896  0.437878  0.437878  1
  Er  Er5  1  0.436614  0.063346  0.063346  1
  Er  Er6  1  0.436614  0.063346  0.436693  1
  Er  Er7  1  0.061896  0.437878  0.062347  1
  Er  Er8  1  0.436614  0.436693  0.063346  1
  Er  Er9  1  0.061896  0.062347  0.437878  1
  Er  Er10  1  0.185789  0.812833  0.812833  1
  Er  Er11  1  0.812475  0.187290  0.187290  1
  Er  Er12  1  0.812475  0.187290  0.812945  1
  Er  Er13  1  0.185789  0.812833  0.188544  1
  Er  Er14  1  0.812475  0.812945  0.187290  1
  Er  Er15  1  0.185789  0.188544  0.812833  1
  Mg  Mg16  1  0.521466  0.826178  0.826178  1
  Cd  Cd17  1  0.830270  0.830847  0.830847  1
  Cd  Cd18  1  0.830270  0.830847  0.508035  1
  Cd  Cd19  1  0.830270  0.508035  0.830847  1
  Co  Co20  1  0.390127  0.391129  0.391129  1
  Co  Co21  1  0.390127  0.391129  0.827615  1
  Co  Co22  1  0.390127  0.827615  0.391129  1
  Co  Co23  1  0.828202  0.390600  0.390600  1
