# generated using pymatgen
data_Pm3H7
_symmetry_space_group_name_H-M   'P 1'
_cell_length_a   3.84645686
_cell_length_b   6.61640118
_cell_length_c   6.62853650
_cell_angle_alpha   60.23583339
_cell_angle_beta   106.57519842
_cell_angle_gamma   125.67749756
_symmetry_Int_Tables_number   1
_chemical_formula_structural   Pm3H7
_chemical_formula_sum   'Pm3 H7'
_cell_volume   118.95246552
_cell_formula_units_Z   1
loop_
 _symmetry_equiv_pos_site_id
 _symmetry_equiv_pos_as_xyz
  1  'x, y, z'
loop_
 _atom_site_type_symbol
 _atom_site_label
 _atom_site_symmetry_multiplicity
 _atom_site_fract_x
 _atom_site_fract_y
 _atom_site_fract_z
 _atom_site_occupancy
  Pm  Pm0  1  0.178665  0.547591  0.284850  1
  Pm  Pm1  1  0.181440  0.221582  0.936674  1
  Pm  Pm2  1  0.172382  0.880102  0.611269  1
  H  H3  1  0.442006  0.651743  0.610215  1
  H  H4  1  0.422340  0.299342  0.269174  1
  H  H5  1  0.680871  0.394738  0.614185  1
  H  H6  1  0.422230  0.956976  0.952947  1
  H  H7  1  0.909757  0.118530  0.610988  1
  H  H8  1  0.935754  0.811942  0.266143  1
  H  H9  1  0.936109  0.466637  0.956540  1
