# generated using pymatgen
data_DyHo3Ga16CoIr2
_symmetry_space_group_name_H-M   'P 1'
_cell_length_a   6.12215500
_cell_length_b   6.07685200
_cell_length_c   11.15165900
_cell_angle_alpha   90.00000000
_cell_angle_beta   90.00000000
_cell_angle_gamma   90.00000000
_symmetry_Int_Tables_number   1
_chemical_formula_structural   DyHo3Ga16CoIr2
_chemical_formula_sum   'Dy1 Ho3 Ga16 Co1 Ir2'
_cell_volume   414.87996339
_cell_formula_units_Z   1
loop_
 _symmetry_equiv_pos_site_id
 _symmetry_equiv_pos_as_xyz
  1  'x, y, z'
loop_
 _atom_site_type_symbol
 _atom_site_label
 _atom_site_symmetry_multiplicity
 _atom_site_fract_x
 _atom_site_fract_y
 _atom_site_fract_z
 _atom_site_occupancy
  Dy  Dy0  1  0.500000  0.000000  0.197917  1
  Ho  Ho1  1  0.500000  0.000000  0.802015  1
  Ho  Ho2  1  0.000000  0.500000  0.808010  1
  Ho  Ho3  1  0.000000  0.500000  0.191987  1
  Ga  Ga4  1  0.241746  0.256837  0.617180  1
  Ga  Ga5  1  0.758254  0.743163  0.617180  1
  Ga  Ga6  1  0.758254  0.256837  0.617180  1
  Ga  Ga7  1  0.241746  0.743163  0.617180  1
  Ga  Ga8  1  0.758297  0.743119  0.382860  1
  Ga  Ga9  1  0.241703  0.256881  0.382860  1
  Ga  Ga10  1  0.241703  0.743119  0.382860  1
  Ga  Ga11  1  0.758297  0.256881  0.382860  1
  Ga  Ga12  1  0.289757  0.287066  0.999958  1
  Ga  Ga13  1  0.710243  0.712934  0.999958  1
  Ga  Ga14  1  0.710243  0.287066  0.999958  1
  Ga  Ga15  1  0.289757  0.712934  0.999958  1
  Ga  Ga16  1  0.500000  0.500000  0.802813  1
  Ga  Ga17  1  0.500000  0.500000  0.197189  1
  Ga  Ga18  1  0.000000  0.000000  0.774362  1
  Ga  Ga19  1  0.000000  0.000000  0.225659  1
  Co  Co20  1  0.000000  0.500000  0.500002  1
  Ir  Ir21  1  0.500000  0.000000  0.500043  1
  Ir  Ir22  1  0.000000  0.000000  0.000011  1
