# generated using pymatgen
data_Tm2Ta(TiGe2)2
_symmetry_space_group_name_H-M   'P 1'
_cell_length_a   6.98679900
_cell_length_b   7.08804200
_cell_length_c   13.39980100
_cell_angle_alpha   90.00000000
_cell_angle_beta   90.00000000
_cell_angle_gamma   90.00000000
_symmetry_Int_Tables_number   1
_chemical_formula_structural   Tm2Ta(TiGe2)2
_chemical_formula_sum   'Tm8 Ta4 Ti8 Ge16'
_cell_volume   663.59465673
_cell_formula_units_Z   4
loop_
 _symmetry_equiv_pos_site_id
 _symmetry_equiv_pos_as_xyz
  1  'x, y, z'
loop_
 _atom_site_type_symbol
 _atom_site_label
 _atom_site_symmetry_multiplicity
 _atom_site_fract_x
 _atom_site_fract_y
 _atom_site_fract_z
 _atom_site_occupancy
  Tm  Tm0  1  0.495055  0.675228  0.594961  1
  Tm  Tm1  1  0.995055  0.824772  0.905039  1
  Tm  Tm2  1  0.504945  0.324772  0.094961  1
  Tm  Tm3  1  0.004945  0.175228  0.405039  1
  Tm  Tm4  1  0.504945  0.324772  0.405039  1
  Tm  Tm5  1  0.004945  0.175228  0.094961  1
  Tm  Tm6  1  0.495055  0.675228  0.905039  1
  Tm  Tm7  1  0.995055  0.824772  0.594961  1
  Ta  Ta8  1  0.833449  0.489478  0.750000  1
  Ta  Ta9  1  0.333449  0.010522  0.750000  1
  Ta  Ta10  1  0.166551  0.510522  0.250000  1
  Ta  Ta11  1  0.666551  0.989478  0.250000  1
  Ti  Ti12  1  0.659220  0.169469  0.627121  1
  Ti  Ti13  1  0.159220  0.330531  0.872879  1
  Ti  Ti14  1  0.340780  0.830531  0.127121  1
  Ti  Ti15  1  0.840780  0.669469  0.372879  1
  Ti  Ti16  1  0.340780  0.830531  0.372879  1
  Ti  Ti17  1  0.840780  0.669469  0.127121  1
  Ti  Ti18  1  0.659220  0.169469  0.872879  1
  Ti  Ti19  1  0.159220  0.330531  0.627121  1
  Ge  Ge20  1  0.676593  0.959771  0.457806  1
  Ge  Ge21  1  0.176593  0.540229  0.042194  1
  Ge  Ge22  1  0.323407  0.040229  0.957806  1
  Ge  Ge23  1  0.823407  0.459771  0.542194  1
  Ge  Ge24  1  0.323407  0.040229  0.542194  1
  Ge  Ge25  1  0.823407  0.459771  0.957806  1
  Ge  Ge26  1  0.676593  0.959771  0.042194  1
  Ge  Ge27  1  0.176593  0.540229  0.457806  1
  Ge  Ge28  1  0.459657  0.375894  0.750000  1
  Ge  Ge29  1  0.959657  0.124106  0.750000  1
  Ge  Ge30  1  0.540343  0.624106  0.250000  1
  Ge  Ge31  1  0.040343  0.875894  0.250000  1
  Ge  Ge32  1  0.692839  0.859526  0.750000  1
  Ge  Ge33  1  0.192839  0.640474  0.750000  1
  Ge  Ge34  1  0.307161  0.140474  0.250000  1
  Ge  Ge35  1  0.807161  0.359526  0.250000  1
