# generated using pymatgen
data_Dy3ScMn4O14
_symmetry_space_group_name_H-M   'P 1'
_cell_length_a   7.05547784
_cell_length_b   7.02783931
_cell_length_c   7.05547800
_cell_angle_alpha   59.86982041
_cell_angle_beta   59.99999925
_cell_angle_gamma   59.86982066
_symmetry_Int_Tables_number   1
_chemical_formula_structural   Dy3ScMn4O14
_chemical_formula_sum   'Dy3 Sc1 Mn4 O14'
_cell_volume   246.88934305
_cell_formula_units_Z   1
loop_
 _symmetry_equiv_pos_site_id
 _symmetry_equiv_pos_as_xyz
  1  'x, y, z'
loop_
 _atom_site_type_symbol
 _atom_site_label
 _atom_site_symmetry_multiplicity
 _atom_site_fract_x
 _atom_site_fract_y
 _atom_site_fract_z
 _atom_site_occupancy
  Dy  Dy0  1  0.125000  0.125000  0.625000  1
  Dy  Dy1  1  0.625000  0.125000  0.125000  1
  Dy  Dy2  1  0.125000  0.125000  0.125000  1
  Sc  Sc3  1  0.125000  0.625000  0.125000  1
  Mn  Mn4  1  0.625000  0.625000  0.625000  1
  Mn  Mn5  1  0.125000  0.625000  0.625000  1
  Mn  Mn6  1  0.625000  0.625000  0.125000  1
  Mn  Mn7  1  0.625000  0.125000  0.625000  1
  O  O8  1  0.293788  0.702492  0.709932  1
  O  O9  1  0.543217  0.956679  0.956887  1
  O  O10  1  0.709932  0.702492  0.293788  1
  O  O11  1  0.293113  0.293321  0.706783  1
  O  O12  1  0.006781  0.979657  0.006781  1
  O  O13  1  0.706783  0.293321  0.706783  1
  O  O14  1  0.293788  0.702492  0.293788  1
  O  O15  1  0.956212  0.547508  0.956212  1
  O  O16  1  0.540068  0.547508  0.956212  1
  O  O17  1  0.956887  0.956679  0.543217  1
  O  O18  1  0.243219  0.270343  0.243219  1
  O  O19  1  0.543217  0.956679  0.543217  1
  O  O20  1  0.706783  0.293321  0.293113  1
  O  O21  1  0.956212  0.547508  0.540068  1
