# generated using pymatgen
data_Nd4CrTc3B16
_symmetry_space_group_name_H-M   'P 1'
_cell_length_a   3.65208800
_cell_length_b   6.06180568
_cell_length_c   11.73176078
_cell_angle_alpha   89.86603391
_cell_angle_beta   90.00000000
_cell_angle_gamma   90.00000000
_symmetry_Int_Tables_number   1
_chemical_formula_structural   Nd4CrTc3B16
_chemical_formula_sum   'Nd4 Cr1 Tc3 B16'
_cell_volume   259.71991726
_cell_formula_units_Z   1
loop_
 _symmetry_equiv_pos_site_id
 _symmetry_equiv_pos_as_xyz
  1  'x, y, z'
loop_
 _atom_site_type_symbol
 _atom_site_label
 _atom_site_symmetry_multiplicity
 _atom_site_fract_x
 _atom_site_fract_y
 _atom_site_fract_z
 _atom_site_occupancy
  Nd  Nd0  1  0.000000  0.375617  0.649840  1
  Nd  Nd1  1  0.000000  0.623490  0.350192  1
  Nd  Nd2  1  0.000000  0.874365  0.848894  1
  Nd  Nd3  1  0.000000  0.125665  0.152368  1
  Cr  Cr4  1  0.000000  0.124650  0.417734  1
  Tc  Tc5  1  0.000000  0.369218  0.913535  1
  Tc  Tc6  1  0.000000  0.631124  0.086392  1
  Tc  Tc7  1  0.000000  0.875915  0.582087  1
  B  B8  1  0.500000  0.023631  0.688750  1
  B  B9  1  0.500000  0.977419  0.311102  1
  B  B10  1  0.500000  0.524624  0.809980  1
  B  B11  1  0.500000  0.474850  0.190415  1
  B  B12  1  0.500000  0.388026  0.046355  1
  B  B13  1  0.500000  0.611559  0.954380  1
  B  B14  1  0.500000  0.888898  0.453444  1
  B  B15  1  0.500000  0.112558  0.544726  1
  B  B16  1  0.500000  0.279725  0.318154  1
  B  B17  1  0.500000  0.719013  0.682226  1
  B  B18  1  0.500000  0.781381  0.184111  1
  B  B19  1  0.500000  0.219168  0.816101  1
  B  B20  1  0.500000  0.358821  0.466755  1
  B  B21  1  0.500000  0.640285  0.531970  1
  B  B22  1  0.500000  0.860437  0.032224  1
  B  B23  1  0.500000  0.139561  0.968262  1
