# generated using pymatgen
data_CaNd4Si12Ir19
_symmetry_space_group_name_H-M   'P 1'
_cell_length_a   12.90374500
_cell_length_b   12.91585903
_cell_length_c   4.02706100
_cell_angle_alpha   90.00000000
_cell_angle_beta   90.00000000
_cell_angle_gamma   119.96898642
_symmetry_Int_Tables_number   1
_chemical_formula_structural   CaNd4Si12Ir19
_chemical_formula_sum   'Ca1 Nd4 Si12 Ir19'
_cell_volume   581.42479205
_cell_formula_units_Z   1
loop_
 _symmetry_equiv_pos_site_id
 _symmetry_equiv_pos_as_xyz
  1  'x, y, z'
loop_
 _atom_site_type_symbol
 _atom_site_label
 _atom_site_symmetry_multiplicity
 _atom_site_fract_x
 _atom_site_fract_y
 _atom_site_fract_z
 _atom_site_occupancy
  Ca  Ca0  1  0.185176  0.000000  0.500000  1
  Nd  Nd1  1  0.000533  0.184519  0.500000  1
  Nd  Nd2  1  0.816014  0.815481  0.500000  1
  Nd  Nd3  1  0.666972  0.334068  0.000000  1
  Nd  Nd4  1  0.332903  0.665932  0.000000  1
  Si  Si5  1  0.478825  0.310839  0.500000  1
  Si  Si6  1  0.816203  0.000000  0.000000  1
  Si  Si7  1  0.184362  0.181893  0.000000  1
  Si  Si8  1  0.002469  0.818107  0.000000  1
  Si  Si9  1  0.368663  0.000000  0.000000  1
  Si  Si10  1  0.687887  0.167854  0.500000  1
  Si  Si11  1  0.833298  0.521345  0.500000  1
  Si  Si12  1  0.520034  0.832146  0.500000  1
  Si  Si13  1  0.167987  0.689161  0.500000  1
  Si  Si14  1  0.311954  0.478655  0.500000  1
  Si  Si15  1  0.999912  0.369754  0.000000  1
  Si  Si16  1  0.630158  0.630246  0.000000  1
  Ir  Ir17  1  0.804563  0.182371  0.000000  1
  Ir  Ir18  1  0.378765  0.194900  0.000000  1
  Ir  Ir19  1  0.638015  0.512462  0.500000  1
  Ir  Ir20  1  0.874326  0.361582  0.500000  1
  Ir  Ir21  1  0.361865  0.874886  0.500000  1
  Ir  Ir22  1  0.512744  0.638418  0.500000  1
  Ir  Ir23  1  0.125553  0.487538  0.500000  1
  Ir  Ir24  1  0.817647  0.622689  0.000000  1
  Ir  Ir25  1  0.622193  0.817629  0.000000  1
  Ir  Ir26  1  0.183866  0.805100  0.000000  1
  Ir  Ir27  1  0.194959  0.377311  0.000000  1
  Ir  Ir28  1  0.000106  0.716539  0.500000  1
  Ir  Ir29  1  0.283567  0.283461  0.500000  1
  Ir  Ir30  1  0.715258  0.000000  0.500000  1
  Ir  Ir31  1  0.998042  0.551532  0.000000  1
  Ir  Ir32  1  0.446510  0.448468  0.000000  1
  Ir  Ir33  1  0.552370  0.000000  0.000000  1
  Ir  Ir34  1  0.999322  0.000000  0.000000  1
  Ir  Ir35  1  0.486980  0.125114  0.500000  1
