# generated using pymatgen
data_ErTm7(BBr6)2
_symmetry_space_group_name_H-M   'P 1'
_cell_length_a   3.90800800
_cell_length_b   13.01186019
_cell_length_c   13.47232320
_cell_angle_alpha   89.98048188
_cell_angle_beta   90.00000000
_cell_angle_gamma   90.00000000
_symmetry_Int_Tables_number   1
_chemical_formula_structural   ErTm7(BBr6)2
_chemical_formula_sum   'Er1 Tm7 B2 Br12'
_cell_volume   685.07370730
_cell_formula_units_Z   1
loop_
 _symmetry_equiv_pos_site_id
 _symmetry_equiv_pos_as_xyz
  1  'x, y, z'
loop_
 _atom_site_type_symbol
 _atom_site_label
 _atom_site_symmetry_multiplicity
 _atom_site_fract_x
 _atom_site_fract_y
 _atom_site_fract_z
 _atom_site_occupancy
  Er  Er0  1  0.500000  0.377960  0.356500  1
  Tm  Tm1  1  0.000000  0.100519  0.079829  1
  Tm  Tm2  1  0.000000  0.899472  0.920160  1
  Tm  Tm3  1  0.000000  0.600597  0.420244  1
  Tm  Tm4  1  0.000000  0.399551  0.579929  1
  Tm  Tm5  1  0.500000  0.121803  0.856787  1
  Tm  Tm6  1  0.500000  0.878187  0.143203  1
  Tm  Tm7  1  0.500000  0.621857  0.643268  1
  B  B8  1  0.500000  0.999977  0.999986  1
  B  B9  1  0.500000  0.500185  0.500226  1
  Br  Br10  1  0.500000  0.267899  0.682148  1
  Br  Br11  1  0.500000  0.732142  0.317900  1
  Br  Br12  1  0.500000  0.767927  0.817916  1
  Br  Br13  1  0.500000  0.231827  0.181805  1
  Br  Br14  1  0.000000  0.260536  0.930740  1
  Br  Br15  1  0.000000  0.739474  0.069244  1
  Br  Br16  1  0.000000  0.480686  0.239272  1
  Br  Br17  1  0.000000  0.519859  0.760395  1
  Br  Br18  1  0.000000  0.980117  0.260346  1
  Br  Br19  1  0.000000  0.019863  0.739643  1
  Br  Br20  1  0.000000  0.238981  0.431214  1
  Br  Br21  1  0.000000  0.760583  0.569245  1
