# generated using pymatgen
data_Tb4Er4B24MoOs3
_symmetry_space_group_name_H-M   'P 1'
_cell_length_a   3.65352300
_cell_length_b   9.16330200
_cell_length_c   11.56371202
_cell_angle_alpha   89.90034858
_cell_angle_beta   90.00000000
_cell_angle_gamma   90.00000000
_symmetry_Int_Tables_number   1
_chemical_formula_structural   Tb4Er4B24MoOs3
_chemical_formula_sum   'Tb4 Er4 B24 Mo1 Os3'
_cell_volume   387.13323494
_cell_formula_units_Z   1
loop_
 _symmetry_equiv_pos_site_id
 _symmetry_equiv_pos_as_xyz
  1  'x, y, z'
loop_
 _atom_site_type_symbol
 _atom_site_label
 _atom_site_symmetry_multiplicity
 _atom_site_fract_x
 _atom_site_fract_y
 _atom_site_fract_z
 _atom_site_occupancy
  Tb  Tb0  1  0.000000  0.322138  0.413179  1
  Tb  Tb1  1  0.000000  0.677230  0.585019  1
  Tb  Tb2  1  0.000000  0.820818  0.087209  1
  Tb  Tb3  1  0.000000  0.177365  0.914480  1
  Er  Er4  1  0.000000  0.944952  0.372707  1
  Er  Er5  1  0.000000  0.057415  0.628424  1
  Er  Er6  1  0.000000  0.443483  0.126969  1
  Er  Er7  1  0.000000  0.556731  0.871268  1
  B  B8  1  0.500000  0.551583  0.434866  1
  B  B9  1  0.500000  0.445820  0.568412  1
  B  B10  1  0.500000  0.053947  0.067610  1
  B  B11  1  0.500000  0.945889  0.932558  1
  B  B12  1  0.500000  0.751052  0.420939  1
  B  B13  1  0.500000  0.251741  0.581732  1
  B  B14  1  0.500000  0.248648  0.080929  1
  B  B15  1  0.500000  0.751101  0.918424  1
  B  B16  1  0.500000  0.794149  0.265146  1
  B  B17  1  0.500000  0.208823  0.734081  1
  B  B18  1  0.500000  0.290828  0.232652  1
  B  B19  1  0.500000  0.709459  0.766200  1
  B  B20  1  0.500000  0.631399  0.183482  1
  B  B21  1  0.500000  0.368487  0.814770  1
  B  B22  1  0.500000  0.131056  0.313593  1
  B  B23  1  0.500000  0.869660  0.685840  1
  B  B24  1  0.500000  0.983520  0.213099  1
  B  B25  1  0.500000  0.016820  0.787665  1
  B  B26  1  0.500000  0.479140  0.286078  1
  B  B27  1  0.500000  0.515978  0.713349  1
  B  B28  1  0.500000  0.604530  0.027575  1
  B  B29  1  0.500000  0.395050  0.970245  1
  B  B30  1  0.500000  0.105292  0.471459  1
  B  B31  1  0.500000  0.897220  0.529877  1
  Mo  Mo32  1  0.000000  0.637856  0.321002  1
  Os  Os33  1  0.000000  0.360778  0.680616  1
  Os  Os34  1  0.000000  0.137824  0.177826  1
  Os  Os35  1  0.000000  0.862220  0.820724  1
