# generated using pymatgen
data_Li4Ac3Si3As
_symmetry_space_group_name_H-M   'P 1'
_cell_length_a   4.59134361
_cell_length_b   7.10193284
_cell_length_c   8.75011535
_cell_angle_alpha   113.94249173
_cell_angle_beta   105.21009123
_cell_angle_gamma   90.00000945
_symmetry_Int_Tables_number   1
_chemical_formula_structural   Li4Ac3Si3As
_chemical_formula_sum   'Li4 Ac3 Si3 As1'
_cell_volume   249.79286691
_cell_formula_units_Z   1
loop_
 _symmetry_equiv_pos_site_id
 _symmetry_equiv_pos_as_xyz
  1  'x, y, z'
loop_
 _atom_site_type_symbol
 _atom_site_label
 _atom_site_symmetry_multiplicity
 _atom_site_fract_x
 _atom_site_fract_y
 _atom_site_fract_z
 _atom_site_occupancy
  Li  Li0  1  0.670365  0.980146  0.340728  1
  Li  Li1  1  0.330308  0.016188  0.660617  1
  Li  Li2  1  0.330308  0.644428  0.660617  1
  Li  Li3  1  0.670365  0.360582  0.340728  1
  Ac  Ac4  1  0.997461  0.997461  0.994922  1
  Ac  Ac5  1  0.133760  0.633760  0.267521  1
  Ac  Ac6  1  0.869186  0.369186  0.738371  1
  Si  Si7  1  0.499794  0.672283  0.999589  1
  Si  Si8  1  0.499794  0.327307  0.999589  1
  Si  Si9  1  0.786378  0.786378  0.572754  1
  As  As10  1  0.212281  0.212281  0.424561  1
