# generated using pymatgen
data_TbYbPa2(Pd2Pb)2
_symmetry_space_group_name_H-M   'P 1'
_cell_length_a   7.94414239
_cell_length_b   7.91716021
_cell_length_c   3.64116200
_cell_angle_alpha   90.00000000
_cell_angle_beta   90.00000000
_cell_angle_gamma   89.73441678
_symmetry_Int_Tables_number   1
_chemical_formula_structural   TbYbPa2(Pd2Pb)2
_chemical_formula_sum   'Tb1 Yb1 Pa2 Pd4 Pb2'
_cell_volume   229.00859861
_cell_formula_units_Z   1
loop_
 _symmetry_equiv_pos_site_id
 _symmetry_equiv_pos_as_xyz
  1  'x, y, z'
loop_
 _atom_site_type_symbol
 _atom_site_label
 _atom_site_symmetry_multiplicity
 _atom_site_fract_x
 _atom_site_fract_y
 _atom_site_fract_z
 _atom_site_occupancy
  Tb  Tb0  1  0.326070  0.827075  0.500000  1
  Yb  Yb1  1  0.827033  0.672089  0.500000  1
  Pa  Pa2  1  0.671767  0.170140  0.500000  1
  Pa  Pa3  1  0.169534  0.330289  0.500000  1
  Pd  Pd4  1  0.372121  0.139506  0.000000  1
  Pd  Pd5  1  0.127776  0.609906  0.000000  1
  Pd  Pd6  1  0.626975  0.892644  0.000000  1
  Pd  Pd7  1  0.871739  0.360760  0.000000  1
  Pb  Pb8  1  0.000658  0.986509  0.000000  1
  Pb  Pb9  1  0.506328  0.511083  0.000000  1
