# generated using pymatgen
data_Hf6Ti6Si5As
_symmetry_space_group_name_H-M   'P 1'
_cell_length_a   7.89525999
_cell_length_b   7.89794788
_cell_length_c   7.89557179
_cell_angle_alpha   127.54161586
_cell_angle_beta   124.25114629
_cell_angle_gamma   80.09336992
_symmetry_Int_Tables_number   1
_chemical_formula_structural   Hf6Ti6Si5As
_chemical_formula_sum   'Hf6 Ti6 Si5 As1'
_cell_volume   311.51670460
_cell_formula_units_Z   1
loop_
 _symmetry_equiv_pos_site_id
 _symmetry_equiv_pos_as_xyz
  1  'x, y, z'
loop_
 _atom_site_type_symbol
 _atom_site_label
 _atom_site_symmetry_multiplicity
 _atom_site_fract_x
 _atom_site_fract_y
 _atom_site_fract_z
 _atom_site_occupancy
  Hf  Hf0  1  0.450749  0.660517  0.706090  1
  Hf  Hf1  1  0.544549  0.251729  0.203419  1
  Hf  Hf2  1  0.748707  0.848147  0.595381  1
  Hf  Hf3  1  0.253088  0.848416  0.099464  1
  Hf  Hf4  1  0.048718  0.251771  0.706891  1
  Hf  Hf5  1  0.954032  0.659594  0.209113  1
  Ti  Ti6  1  0.500223  0.502594  0.002413  1
  Ti  Ti7  1  0.000829  0.500418  0.499545  1
  Ti  Ti8  1  0.123468  0.253464  0.128758  1
  Ti  Ti9  1  0.876707  0.008129  0.132762  1
  Ti  Ti10  1  0.375041  0.003675  0.627296  1
  Ti  Ti11  1  0.623859  0.250864  0.628260  1
  Si  Si12  1  0.251353  0.253805  0.503903  1
  Si  Si13  1  0.748724  0.252540  0.002436  1
  Si  Si14  1  0.333102  0.586405  0.252995  1
  Si  Si15  1  0.667448  0.920586  0.253630  1
  Si  Si16  1  0.165964  0.919740  0.753252  1
  As  As17  1  0.833439  0.587202  0.753991  1
