# generated using pymatgen
data_SrMn7NiO16
_symmetry_space_group_name_H-M   'P 1'
_cell_length_a   5.85632655
_cell_length_b   7.00097360
_cell_length_c   7.24195575
_cell_angle_alpha   89.83409066
_cell_angle_beta   78.38511053
_cell_angle_gamma   77.80752360
_symmetry_Int_Tables_number   1
_chemical_formula_structural   SrMn7NiO16
_chemical_formula_sum   'Sr1 Mn7 Ni1 O16'
_cell_volume   284.03618494
_cell_formula_units_Z   1
loop_
 _symmetry_equiv_pos_site_id
 _symmetry_equiv_pos_as_xyz
  1  'x, y, z'
loop_
 _atom_site_type_symbol
 _atom_site_label
 _atom_site_symmetry_multiplicity
 _atom_site_fract_x
 _atom_site_fract_y
 _atom_site_fract_z
 _atom_site_occupancy
  Sr  Sr0  1  0.993666  0.988541  0.998474  1
  Mn  Mn1  1  0.081586  0.505540  0.180958  1
  Mn  Mn2  1  0.173412  0.816013  0.521355  1
  Mn  Mn3  1  0.665734  0.818893  0.528999  1
  Mn  Mn4  1  0.337735  0.187353  0.471981  1
  Mn  Mn5  1  0.840367  0.185684  0.479441  1
  Mn  Mn6  1  0.428576  0.487697  0.822202  1
  Mn  Mn7  1  0.924748  0.493933  0.822115  1
  Ni  Ni8  1  0.580968  0.514651  0.181754  1
  O  O9  1  0.846131  0.653199  0.049972  1
  O  O10  1  0.310319  0.649775  0.049850  1
  O  O11  1  0.980698  0.696505  0.390110  1
  O  O12  1  0.483893  0.698310  0.401662  1
  O  O13  1  0.856306  0.964339  0.651344  1
  O  O14  1  0.346792  0.966148  0.648811  1
  O  O15  1  0.337125  0.359872  0.279216  1
  O  O16  1  0.858216  0.347684  0.272371  1
  O  O17  1  0.164043  0.641799  0.726000  1
  O  O18  1  0.660276  0.640985  0.729575  1
  O  O19  1  0.154383  0.034421  0.354398  1
  O  O20  1  0.660689  0.035411  0.356766  1
  O  O21  1  0.027773  0.306034  0.609345  1
  O  O22  1  0.524756  0.309574  0.603736  1
  O  O23  1  0.178315  0.348985  0.940610  1
  O  O24  1  0.690590  0.348653  0.928948  1
