# generated using pymatgen
data_Ce4Dy3Y(ReB6)4
_symmetry_space_group_name_H-M   'P 1'
_cell_length_a   3.73313900
_cell_length_b   9.22963900
_cell_length_c   11.60919900
_cell_angle_alpha   90.00081935
_cell_angle_beta   90.00000000
_cell_angle_gamma   90.00000000
_symmetry_Int_Tables_number   1
_chemical_formula_structural   Ce4Dy3Y(ReB6)4
_chemical_formula_sum   'Ce4 Dy3 Y1 Re4 B24'
_cell_volume   400.00104992
_cell_formula_units_Z   1
loop_
 _symmetry_equiv_pos_site_id
 _symmetry_equiv_pos_as_xyz
  1  'x, y, z'
loop_
 _atom_site_type_symbol
 _atom_site_label
 _atom_site_symmetry_multiplicity
 _atom_site_fract_x
 _atom_site_fract_y
 _atom_site_fract_z
 _atom_site_occupancy
  Ce  Ce0  1  0.000000  0.823007  0.085802  1
  Ce  Ce1  1  0.000000  0.176999  0.914231  1
  Ce  Ce2  1  0.000000  0.323084  0.414130  1
  Ce  Ce3  1  0.000000  0.676893  0.585860  1
  Dy  Dy4  1  0.000000  0.444286  0.127077  1
  Dy  Dy5  1  0.000000  0.555737  0.872944  1
  Dy  Dy6  1  0.000000  0.944199  0.372789  1
  Y  Y7  1  0.000000  0.055614  0.626909  1
  Re  Re8  1  0.000000  0.138269  0.178706  1
  Re  Re9  1  0.000000  0.861640  0.821391  1
  Re  Re10  1  0.000000  0.638381  0.321210  1
  Re  Re11  1  0.000000  0.361867  0.678833  1
  B  B12  1  0.500000  0.054267  0.068320  1
  B  B13  1  0.500000  0.945736  0.931720  1
  B  B14  1  0.500000  0.554302  0.431679  1
  B  B15  1  0.500000  0.445770  0.568327  1
  B  B16  1  0.500000  0.248140  0.081223  1
  B  B17  1  0.500000  0.751830  0.918804  1
  B  B18  1  0.500000  0.748130  0.418756  1
  B  B19  1  0.500000  0.251970  0.581178  1
  B  B20  1  0.500000  0.291220  0.233702  1
  B  B21  1  0.500000  0.708754  0.766284  1
  B  B22  1  0.500000  0.791205  0.266257  1
  B  B23  1  0.500000  0.208838  0.733847  1
  B  B24  1  0.500000  0.131795  0.313723  1
  B  B25  1  0.500000  0.868052  0.686243  1
  B  B26  1  0.500000  0.631817  0.186221  1
  B  B27  1  0.500000  0.368212  0.813811  1
  B  B28  1  0.500000  0.483822  0.287096  1
  B  B29  1  0.500000  0.516240  0.712902  1
  B  B30  1  0.500000  0.983804  0.212869  1
  B  B31  1  0.500000  0.016216  0.787247  1
  B  B32  1  0.500000  0.107710  0.470162  1
  B  B33  1  0.500000  0.892189  0.529728  1
  B  B34  1  0.500000  0.607676  0.029775  1
  B  B35  1  0.500000  0.392327  0.970241  1
