# generated using pymatgen
data_LaTh3Si8
_symmetry_space_group_name_H-M   'P 1'
_cell_length_a   4.11571200
_cell_length_b   4.11571200
_cell_length_c   14.68004500
_cell_angle_alpha   90.00000000
_cell_angle_beta   90.00000000
_cell_angle_gamma   90.00000000
_symmetry_Int_Tables_number   1
_chemical_formula_structural   LaTh3Si8
_chemical_formula_sum   'La1 Th3 Si8'
_cell_volume   248.66653398
_cell_formula_units_Z   1
loop_
 _symmetry_equiv_pos_site_id
 _symmetry_equiv_pos_as_xyz
  1  'x, y, z'
loop_
 _atom_site_type_symbol
 _atom_site_label
 _atom_site_symmetry_multiplicity
 _atom_site_fract_x
 _atom_site_fract_y
 _atom_site_fract_z
 _atom_site_occupancy
  La  La0  1  0.500000  0.500000  0.000000  1
  Th  Th1  1  0.000000  0.000000  0.500000  1
  Th  Th2  1  0.500000  0.000000  0.748468  1
  Th  Th3  1  0.000000  0.500000  0.251532  1
  Si  Si4  1  0.000000  0.000000  0.914848  1
  Si  Si5  1  0.500000  0.500000  0.416864  1
  Si  Si6  1  0.000000  0.500000  0.831222  1
  Si  Si7  1  0.500000  0.000000  0.334272  1
  Si  Si8  1  0.000000  0.000000  0.085152  1
  Si  Si9  1  0.500000  0.500000  0.583136  1
  Si  Si10  1  0.500000  0.000000  0.168778  1
  Si  Si11  1  0.000000  0.500000  0.665728  1
