# generated using pymatgen
data_La9Sm(US10)2
_symmetry_space_group_name_H-M   'P 1'
_cell_length_a   7.60702523
_cell_length_b   8.28660700
_cell_length_c   12.05021600
_cell_angle_alpha   90.00000000
_cell_angle_beta   90.09397626
_cell_angle_gamma   90.00000000
_symmetry_Int_Tables_number   1
_chemical_formula_structural   La9Sm(US10)2
_chemical_formula_sum   'La9 Sm1 U2 S20'
_cell_volume   759.60155801
_cell_formula_units_Z   1
loop_
 _symmetry_equiv_pos_site_id
 _symmetry_equiv_pos_as_xyz
  1  'x, y, z'
loop_
 _atom_site_type_symbol
 _atom_site_label
 _atom_site_symmetry_multiplicity
 _atom_site_fract_x
 _atom_site_fract_y
 _atom_site_fract_z
 _atom_site_occupancy
  La  La0  1  0.530184  0.502563  0.325622  1
  La  La1  1  0.969778  0.997250  0.823293  1
  La  La2  1  0.475759  0.999800  0.674769  1
  La  La3  1  0.025022  0.499913  0.176876  1
  La  La4  1  0.475759  0.500200  0.674769  1
  La  La5  1  0.025022  0.000087  0.176876  1
  La  La6  1  0.530184  0.997437  0.325622  1
  La  La7  1  0.969778  0.502750  0.823293  1
  La  La8  1  0.425979  0.750000  0.990482  1
  Sm  Sm9  1  0.074832  0.750000  0.490352  1
  U  U10  1  0.944376  0.250000  0.506118  1
  U  U11  1  0.556102  0.250000  0.005792  1
  S  S12  1  0.838183  0.972906  0.592085  1
  S  S13  1  0.662772  0.521822  0.096094  1
  S  S14  1  0.163690  0.450707  0.407413  1
  S  S15  1  0.336283  0.053749  0.905114  1
  S  S16  1  0.163690  0.049293  0.407413  1
  S  S17  1  0.336283  0.446251  0.905114  1
  S  S18  1  0.838183  0.527094  0.592085  1
  S  S19  1  0.662772  0.978178  0.096094  1
  S  S20  1  0.831075  0.750000  0.307744  1
  S  S21  1  0.672181  0.750000  0.803751  1
  S  S22  1  0.160396  0.250000  0.683908  1
  S  S23  1  0.338238  0.250000  0.184072  1
  S  S24  1  0.458494  0.750000  0.498928  1
  S  S25  1  0.035198  0.750000  0.999089  1
  S  S26  1  0.552220  0.250000  0.502075  1
  S  S27  1  0.947288  0.250000  0.000863  1
  S  S28  1  0.194986  0.750000  0.718191  1
  S  S29  1  0.304008  0.750000  0.221605  1
  S  S30  1  0.813841  0.250000  0.293353  1
  S  S31  1  0.687447  0.250000  0.791146  1
