# generated using pymatgen
data_Y3HoGa7Ag5
_symmetry_space_group_name_H-M   'P 1'
_cell_length_a   4.36389900
_cell_length_b   7.02097047
_cell_length_c   10.32811296
_cell_angle_alpha   89.97673584
_cell_angle_beta   90.00000000
_cell_angle_gamma   90.00000000
_symmetry_Int_Tables_number   1
_chemical_formula_structural   Y3HoGa7Ag5
_chemical_formula_sum   'Y3 Ho1 Ga7 Ag5'
_cell_volume   316.44102330
_cell_formula_units_Z   1
loop_
 _symmetry_equiv_pos_site_id
 _symmetry_equiv_pos_as_xyz
  1  'x, y, z'
loop_
 _atom_site_type_symbol
 _atom_site_label
 _atom_site_symmetry_multiplicity
 _atom_site_fract_x
 _atom_site_fract_y
 _atom_site_fract_z
 _atom_site_occupancy
  Y  Y0  1  0.500000  0.781689  0.172484  1
  Y  Y1  1  0.500000  0.278786  0.328403  1
  Y  Y2  1  0.000000  0.215457  0.829431  1
  Ho  Ho3  1  0.000000  0.721659  0.669977  1
  Ga  Ga4  1  0.500000  0.922534  0.846337  1
  Ga  Ga5  1  0.500000  0.425927  0.654629  1
  Ga  Ga6  1  0.000000  0.077955  0.153141  1
  Ga  Ga7  1  0.000000  0.575849  0.344704  1
  Ga  Ga8  1  0.500000  0.202934  0.035974  1
  Ga  Ga9  1  0.000000  0.299514  0.535851  1
  Ga  Ga10  1  0.000000  0.795299  0.963656  1
  Ag  Ag11  1  0.500000  0.540997  0.903216  1
  Ag  Ag12  1  0.500000  0.046061  0.600999  1
  Ag  Ag13  1  0.000000  0.457538  0.097103  1
  Ag  Ag14  1  0.000000  0.960824  0.401689  1
  Ag  Ag15  1  0.500000  0.696980  0.462404  1
