# generated using pymatgen
data_Cs2Nd10Zn2Br17
_symmetry_space_group_name_H-M   'P 1'
_cell_length_a   9.52288210
_cell_length_b   11.17718194
_cell_length_c   11.17729561
_cell_angle_alpha   106.88331553
_cell_angle_beta   94.48470372
_cell_angle_gamma   94.48484929
_symmetry_Int_Tables_number   1
_chemical_formula_structural   Cs2Nd10Zn2Br17
_chemical_formula_sum   'Cs2 Nd10 Zn2 Br17'
_cell_volume   1128.56951556
_cell_formula_units_Z   1
loop_
 _symmetry_equiv_pos_site_id
 _symmetry_equiv_pos_as_xyz
  1  'x, y, z'
loop_
 _atom_site_type_symbol
 _atom_site_label
 _atom_site_symmetry_multiplicity
 _atom_site_fract_x
 _atom_site_fract_y
 _atom_site_fract_z
 _atom_site_occupancy
  Cs  Cs0  1  0.999999  0.822381  0.177619  1
  Cs  Cs1  1  0.000002  0.177619  0.822383  1
  Nd  Nd2  1  0.436620  0.156549  0.156554  1
  Nd  Nd3  1  0.572682  0.515446  0.198368  1
  Nd  Nd4  1  0.840698  0.289124  0.289121  1
  Nd  Nd5  1  0.296228  0.429865  0.429866  1
  Nd  Nd6  1  0.427316  0.801631  0.484552  1
  Nd  Nd7  1  0.572681  0.198365  0.515448  1
  Nd  Nd8  1  0.703773  0.570131  0.570135  1
  Nd  Nd9  1  0.159304  0.710878  0.710878  1
  Nd  Nd10  1  0.427315  0.484552  0.801631  1
  Nd  Nd11  1  0.563381  0.843449  0.843445  1
  Zn  Zn12  1  0.571778  0.357830  0.357830  1
  Zn  Zn13  1  0.428226  0.642170  0.642166  1
  Br  Br14  1  0.581080  0.689344  0.023297  1
  Br  Br15  1  0.714927  0.067966  0.067967  1
  Br  Br16  1  0.856372  0.451360  0.119776  1
  Br  Br17  1  0.135766  0.206994  0.206995  1
  Br  Br18  1  0.283146  0.602339  0.256727  1
  Br  Br19  1  0.418913  0.976703  0.310656  1
  Br  Br20  1  0.716853  0.743271  0.397661  1
  Br  Br21  1  0.856372  0.119771  0.451352  1
  Br  Br22  1  0.000001  0.500001  0.500002  1
  Br  Br23  1  0.143631  0.880230  0.548639  1
  Br  Br24  1  0.283157  0.256729  0.602345  1
  Br  Br25  1  0.581085  0.023303  0.689348  1
  Br  Br26  1  0.716855  0.397659  0.743270  1
  Br  Br27  1  0.864236  0.793007  0.793008  1
  Br  Br28  1  0.143623  0.548641  0.880227  1
  Br  Br29  1  0.285072  0.932034  0.932034  1
  Br  Br30  1  0.418911  0.310655  0.976701  1
