# generated using pymatgen
data_Tb9Nd8Dy3Sn16
_symmetry_space_group_name_H-M   'P 1'
_cell_length_a   8.10349100
_cell_length_b   8.26429625
_cell_length_c   15.61564000
_cell_angle_alpha   90.00000000
_cell_angle_beta   90.00000000
_cell_angle_gamma   90.01417091
_symmetry_Int_Tables_number   1
_chemical_formula_structural   Tb9Nd8Dy3Sn16
_chemical_formula_sum   'Tb9 Nd8 Dy3 Sn16'
_cell_volume   1045.77391811
_cell_formula_units_Z   1
loop_
 _symmetry_equiv_pos_site_id
 _symmetry_equiv_pos_as_xyz
  1  'x, y, z'
loop_
 _atom_site_type_symbol
 _atom_site_label
 _atom_site_symmetry_multiplicity
 _atom_site_fract_x
 _atom_site_fract_y
 _atom_site_fract_z
 _atom_site_occupancy
  Tb  Tb0  1  0.365308  0.835862  0.877981  1
  Tb  Tb1  1  0.865190  0.664218  0.622023  1
  Tb  Tb2  1  0.634749  0.164145  0.377898  1
  Tb  Tb3  1  0.134751  0.335841  0.122249  1
  Tb  Tb4  1  0.634749  0.164145  0.122102  1
  Tb  Tb5  1  0.134751  0.335841  0.377751  1
  Tb  Tb6  1  0.365308  0.835862  0.622019  1
  Tb  Tb7  1  0.865190  0.664218  0.877977  1
  Tb  Tb8  1  0.197638  0.502851  0.750000  1
  Nd  Nd9  1  0.517861  0.320481  0.902484  1
  Nd  Nd10  1  0.017745  0.179298  0.597500  1
  Nd  Nd11  1  0.482152  0.679406  0.402347  1
  Nd  Nd12  1  0.982171  0.820622  0.097578  1
  Nd  Nd13  1  0.482152  0.679406  0.097653  1
  Nd  Nd14  1  0.982171  0.820622  0.402422  1
  Nd  Nd15  1  0.517861  0.320481  0.597516  1
  Nd  Nd16  1  0.017745  0.179298  0.902500  1
  Dy  Dy17  1  0.697662  0.996986  0.750000  1
  Dy  Dy18  1  0.802385  0.497091  0.250000  1
  Dy  Dy19  1  0.302407  0.002943  0.250000  1
  Sn  Sn20  1  0.297610  0.037977  0.042233  1
  Sn  Sn21  1  0.797686  0.462164  0.457765  1
  Sn  Sn22  1  0.702321  0.962047  0.542092  1
  Sn  Sn23  1  0.202282  0.538113  0.958185  1
  Sn  Sn24  1  0.702321  0.962047  0.957908  1
  Sn  Sn25  1  0.202282  0.538113  0.541815  1
  Sn  Sn26  1  0.297610  0.037977  0.457767  1
  Sn  Sn27  1  0.797686  0.462164  0.042235  1
  Sn  Sn28  1  0.564703  0.621063  0.750000  1
  Sn  Sn29  1  0.063962  0.879327  0.750000  1
  Sn  Sn30  1  0.436012  0.378969  0.250000  1
  Sn  Sn31  1  0.935867  0.120980  0.250000  1
  Sn  Sn32  1  0.325822  0.142705  0.750000  1
  Sn  Sn33  1  0.825565  0.356576  0.750000  1
  Sn  Sn34  1  0.674212  0.856821  0.250000  1
  Sn  Sn35  1  0.174111  0.643342  0.250000  1
