# generated using pymatgen
data_SrCa7Ta4(FeO6)4
_symmetry_space_group_name_H-M   'P 1'
_cell_length_a   5.62377770
_cell_length_b   9.59895486
_cell_length_c   9.57757801
_cell_angle_alpha   70.14035735
_cell_angle_beta   89.99759899
_cell_angle_gamma   90.05487066
_symmetry_Int_Tables_number   1
_chemical_formula_structural   SrCa7Ta4(FeO6)4
_chemical_formula_sum   'Sr1 Ca7 Ta4 Fe4 O24'
_cell_volume   486.27184710
_cell_formula_units_Z   1
loop_
 _symmetry_equiv_pos_site_id
 _symmetry_equiv_pos_as_xyz
  1  'x, y, z'
loop_
 _atom_site_type_symbol
 _atom_site_label
 _atom_site_symmetry_multiplicity
 _atom_site_fract_x
 _atom_site_fract_y
 _atom_site_fract_z
 _atom_site_occupancy
  Sr  Sr0  1  0.532530  0.378064  0.872441  1
  Ca  Ca1  1  0.451537  0.118188  0.630573  1
  Ca  Ca2  1  0.452764  0.617911  0.129757  1
  Ca  Ca3  1  0.955414  0.880957  0.870362  1
  Ca  Ca4  1  0.955529  0.381664  0.369640  1
  Ca  Ca5  1  0.047938  0.118136  0.130174  1
  Ca  Ca6  1  0.043813  0.617831  0.630903  1
  Ca  Ca7  1  0.547370  0.882890  0.368496  1
  Ta  Ta8  1  0.000039  0.749485  0.250381  1
  Ta  Ta9  1  0.998618  0.249974  0.747554  1
  Ta  Ta10  1  0.501551  0.247829  0.253771  1
  Ta  Ta11  1  0.499106  0.752947  0.748694  1
  Fe  Fe12  1  0.998262  0.501439  0.000109  1
  Fe  Fe13  1  0.499459  0.501246  0.497656  1
  Fe  Fe14  1  0.999939  0.999884  0.500549  1
  Fe  Fe15  1  0.500929  0.996816  0.001554  1
  O  O16  1  0.470836  0.671960  0.581729  1
  O  O17  1  0.473302  0.159279  0.092795  1
  O  O18  1  0.972291  0.827252  0.419750  1
  O  O19  1  0.990699  0.330470  0.916454  1
  O  O20  1  0.530424  0.327538  0.419653  1
  O  O21  1  0.529520  0.829238  0.919278  1
  O  O22  1  0.024133  0.170815  0.580769  1
  O  O23  1  0.024293  0.670820  0.082046  1
  O  O24  1  0.212385  0.880499  0.672285  1
  O  O25  1  0.216482  0.376106  0.171126  1
  O  O26  1  0.712816  0.123999  0.828639  1
  O  O27  1  0.711099  0.623427  0.326748  1
  O  O28  1  0.792578  0.123482  0.327645  1
  O  O29  1  0.786327  0.626299  0.827364  1
  O  O30  1  0.289263  0.873702  0.173051  1
  O  O31  1  0.279412  0.378530  0.661213  1
  O  O32  1  0.797676  0.918115  0.127694  1
  O  O33  1  0.792514  0.418128  0.626718  1
  O  O34  1  0.296297  0.081398  0.376465  1
  O  O35  1  0.284659  0.592040  0.870878  1
  O  O36  1  0.209486  0.084105  0.870296  1
  O  O37  1  0.206873  0.581728  0.369350  1
  O  O38  1  0.704545  0.919994  0.627091  1
  O  O39  1  0.707290  0.415817  0.128354  1
