# generated using pymatgen
data_RbSb12Ir3Ru
_symmetry_space_group_name_H-M   'P 1'
_cell_length_a   8.18439095
_cell_length_b   8.18890539
_cell_length_c   8.18890620
_cell_angle_alpha   109.48238831
_cell_angle_beta   109.46005375
_cell_angle_gamma   109.46004892
_symmetry_Int_Tables_number   1
_chemical_formula_structural   RbSb12Ir3Ru
_chemical_formula_sum   'Rb1 Sb12 Ir3 Ru1'
_cell_volume   422.54801803
_cell_formula_units_Z   1
loop_
 _symmetry_equiv_pos_site_id
 _symmetry_equiv_pos_as_xyz
  1  'x, y, z'
loop_
 _atom_site_type_symbol
 _atom_site_label
 _atom_site_symmetry_multiplicity
 _atom_site_fract_x
 _atom_site_fract_y
 _atom_site_fract_z
 _atom_site_occupancy
  Rb  Rb0  1  0.000000  0.000000  0.000000  1
  Sb  Sb1  1  0.159282  0.815628  0.660620  1
  Sb  Sb2  1  0.155603  0.499153  0.343194  1
  Sb  Sb3  1  0.501338  0.660620  0.844991  1
  Sb  Sb4  1  0.343653  0.844991  0.184372  1
  Sb  Sb5  1  0.812410  0.656806  0.155959  1
  Sb  Sb6  1  0.656450  0.844041  0.500847  1
  Sb  Sb7  1  0.187590  0.343194  0.844041  1
  Sb  Sb8  1  0.656347  0.155009  0.815628  1
  Sb  Sb9  1  0.343550  0.155959  0.499153  1
  Sb  Sb10  1  0.498662  0.339380  0.155009  1
  Sb  Sb11  1  0.844397  0.500847  0.656806  1
  Sb  Sb12  1  0.840718  0.184372  0.339380  1
  Ir  Ir13  1  0.500000  0.500000  0.500000  1
  Ir  Ir14  1  0.000000  0.000000  0.500000  1
  Ir  Ir15  1  0.000000  0.500000  0.000000  1
  Ru  Ru16  1  0.500000  0.000000  0.000000  1
