# generated using pymatgen
data_TbY2Al12RuRh3
_symmetry_space_group_name_H-M   'P 1'
_cell_length_a   8.84729242
_cell_length_b   8.84259670
_cell_length_c   9.50913700
_cell_angle_alpha   90.00000000
_cell_angle_beta   90.00000000
_cell_angle_gamma   119.98244822
_symmetry_Int_Tables_number   1
_chemical_formula_structural   TbY2Al12RuRh3
_chemical_formula_sum   'Tb2 Y4 Al24 Ru2 Rh6'
_cell_volume   644.37505399
_cell_formula_units_Z   2
loop_
 _symmetry_equiv_pos_site_id
 _symmetry_equiv_pos_as_xyz
  1  'x, y, z'
loop_
 _atom_site_type_symbol
 _atom_site_label
 _atom_site_symmetry_multiplicity
 _atom_site_fract_x
 _atom_site_fract_y
 _atom_site_fract_z
 _atom_site_occupancy
  Tb  Tb0  1  0.191150  0.808868  0.750000  1
  Tb  Tb1  1  0.191150  0.382283  0.750000  1
  Y  Y2  1  0.382943  0.191471  0.250000  1
  Y  Y3  1  0.808506  0.191473  0.250000  1
  Y  Y4  1  0.808506  0.617031  0.250000  1
  Y  Y5  1  0.617467  0.808734  0.750000  1
  Al  Al6  1  0.438161  0.876330  0.250000  1
  Al  Al7  1  0.123605  0.561802  0.250000  1
  Al  Al8  1  0.438161  0.561831  0.250000  1
  Al  Al9  1  0.561914  0.123851  0.750000  1
  Al  Al10  1  0.876118  0.438059  0.750000  1
  Al  Al11  1  0.561914  0.438063  0.750000  1
  Al  Al12  1  0.163171  0.836865  0.424210  1
  Al  Al13  1  0.163171  0.326308  0.424210  1
  Al  Al14  1  0.673719  0.836861  0.424202  1
  Al  Al15  1  0.836811  0.163115  0.575843  1
  Al  Al16  1  0.836811  0.673694  0.575843  1
  Al  Al17  1  0.326306  0.163152  0.575913  1
  Al  Al18  1  0.836811  0.163115  0.924157  1
  Al  Al19  1  0.836811  0.673694  0.924157  1
  Al  Al20  1  0.326306  0.163152  0.924087  1
  Al  Al21  1  0.163171  0.836865  0.075790  1
  Al  Al22  1  0.163171  0.326308  0.075790  1
  Al  Al23  1  0.673719  0.836861  0.075798  1
  Al  Al24  1  0.333448  0.666724  0.529799  1
  Al  Al25  1  0.666683  0.333341  0.470075  1
  Al  Al26  1  0.666683  0.333341  0.029925  1
  Al  Al27  1  0.333448  0.666724  0.970201  1
  Al  Al28  1  0.999947  0.999973  0.250000  1
  Al  Al29  1  0.000228  0.000114  0.750000  1
  Ru  Ru30  1  0.999912  0.999956  0.499546  1
  Ru  Ru31  1  0.999912  0.999956  0.000454  1
  Rh  Rh32  1  0.500033  0.999990  0.499904  1
  Rh  Rh33  1  0.000018  0.500009  0.499974  1
  Rh  Rh34  1  0.500033  0.500042  0.499904  1
  Rh  Rh35  1  0.500033  0.999990  0.000096  1
  Rh  Rh36  1  0.000018  0.500009  0.000026  1
  Rh  Rh37  1  0.500033  0.500042  0.000096  1
