# generated using pymatgen
data_Nd16Cd4AgRu3
_symmetry_space_group_name_H-M   'P 1'
_cell_length_a   9.97364110
_cell_length_b   10.00581442
_cell_length_c   10.00581400
_cell_angle_alpha   60.00000139
_cell_angle_beta   59.89323414
_cell_angle_gamma   59.89324147
_symmetry_Int_Tables_number   1
_chemical_formula_structural   Nd16Cd4AgRu3
_chemical_formula_sum   'Nd16 Cd4 Ag1 Ru3'
_cell_volume   704.92173026
_cell_formula_units_Z   1
loop_
 _symmetry_equiv_pos_site_id
 _symmetry_equiv_pos_as_xyz
  1  'x, y, z'
loop_
 _atom_site_type_symbol
 _atom_site_label
 _atom_site_symmetry_multiplicity
 _atom_site_fract_x
 _atom_site_fract_y
 _atom_site_fract_z
 _atom_site_occupancy
  Nd  Nd0  1  0.339479  0.356055  0.356055  1
  Nd  Nd1  1  0.339479  0.356055  0.948412  1
  Nd  Nd2  1  0.339479  0.948412  0.356055  1
  Nd  Nd3  1  0.964695  0.345101  0.345101  1
  Nd  Nd4  1  0.821294  0.191108  0.191108  1
  Nd  Nd5  1  0.190087  0.810953  0.810953  1
  Nd  Nd6  1  0.190087  0.810953  0.188008  1
  Nd  Nd7  1  0.821294  0.191108  0.796491  1
  Nd  Nd8  1  0.190087  0.188008  0.810953  1
  Nd  Nd9  1  0.821294  0.796491  0.191108  1
  Nd  Nd10  1  0.934032  0.563924  0.563924  1
  Nd  Nd11  1  0.556451  0.938705  0.938705  1
  Nd  Nd12  1  0.556451  0.938705  0.566140  1
  Nd  Nd13  1  0.934032  0.563924  0.938120  1
  Nd  Nd14  1  0.556451  0.566140  0.938705  1
  Nd  Nd15  1  0.934032  0.938120  0.563924  1
  Cd  Cd16  1  0.581344  0.578984  0.578984  1
  Cd  Cd17  1  0.581344  0.578984  0.260688  1
  Cd  Cd18  1  0.581344  0.260688  0.578984  1
  Cd  Cd19  1  0.259837  0.580055  0.580055  1
  Ag  Ag20  1  0.572846  0.142385  0.142385  1
  Ru  Ru21  1  0.144855  0.138708  0.138708  1
  Ru  Ru22  1  0.144855  0.138708  0.577729  1
  Ru  Ru23  1  0.144855  0.577729  0.138708  1
