# generated using pymatgen
data_ThCd(ClO4)6
_symmetry_space_group_name_H-M   'P 1'
_cell_length_a   9.48427400
_cell_length_b   9.48427468
_cell_length_c   5.83597700
_cell_angle_alpha   90.00000000
_cell_angle_beta   90.00000000
_cell_angle_gamma   119.99999765
_symmetry_Int_Tables_number   1
_chemical_formula_structural   ThCd(ClO4)6
_chemical_formula_sum   'Th1 Cd1 Cl6 O24'
_cell_volume   454.62407351
_cell_formula_units_Z   1
loop_
 _symmetry_equiv_pos_site_id
 _symmetry_equiv_pos_as_xyz
  1  'x, y, z'
loop_
 _atom_site_type_symbol
 _atom_site_label
 _atom_site_symmetry_multiplicity
 _atom_site_fract_x
 _atom_site_fract_y
 _atom_site_fract_z
 _atom_site_occupancy
  Th  Th0  1  0.666667  0.333333  0.750000  1
  Cd  Cd1  1  0.333333  0.666667  0.250000  1
  Cl  Cl2  1  0.294664  0.908428  0.750000  1
  Cl  Cl3  1  0.706654  0.093014  0.250000  1
  Cl  Cl4  1  0.613765  0.705336  0.750000  1
  Cl  Cl5  1  0.386360  0.293346  0.250000  1
  Cl  Cl6  1  0.091572  0.386235  0.750000  1
  Cl  Cl7  1  0.906986  0.613640  0.250000  1
  O  O8  1  0.786686  0.803460  0.750000  1
  O  O9  1  0.963580  0.436529  0.750000  1
  O  O10  1  0.472949  0.036420  0.750000  1
  O  O11  1  0.196540  0.983226  0.750000  1
  O  O12  1  0.974362  0.784615  0.250000  1
  O  O13  1  0.458413  0.256244  0.452327  1
  O  O14  1  0.191789  0.455471  0.953769  1
  O  O15  1  0.534823  0.975009  0.250000  1
  O  O16  1  0.544529  0.736318  0.953769  1
  O  O17  1  0.024991  0.559812  0.250000  1
  O  O18  1  0.016774  0.213314  0.750000  1
  O  O19  1  0.263682  0.808211  0.546231  1
  O  O20  1  0.797831  0.541587  0.452327  1
  O  O21  1  0.458413  0.256244  0.047673  1
  O  O22  1  0.544529  0.736318  0.546231  1
  O  O23  1  0.263682  0.808211  0.953769  1
  O  O24  1  0.797831  0.541587  0.047673  1
  O  O25  1  0.563471  0.527051  0.750000  1
  O  O26  1  0.440188  0.465177  0.250000  1
  O  O27  1  0.191789  0.455471  0.546231  1
  O  O28  1  0.743756  0.202169  0.047673  1
  O  O29  1  0.215385  0.189747  0.250000  1
  O  O30  1  0.743756  0.202169  0.452327  1
  O  O31  1  0.810253  0.025638  0.250000  1
