# generated using pymatgen
data_Ti8VMo3Ir4
_symmetry_space_group_name_H-M   'P 1'
_cell_length_a   6.23970100
_cell_length_b   4.41253400
_cell_length_c   8.86292900
_cell_angle_alpha   90.00000000
_cell_angle_beta   90.00071367
_cell_angle_gamma   90.00000000
_symmetry_Int_Tables_number   1
_chemical_formula_structural   Ti8VMo3Ir4
_chemical_formula_sum   'Ti8 V1 Mo3 Ir4'
_cell_volume   244.02207415
_cell_formula_units_Z   1
loop_
 _symmetry_equiv_pos_site_id
 _symmetry_equiv_pos_as_xyz
  1  'x, y, z'
loop_
 _atom_site_type_symbol
 _atom_site_label
 _atom_site_symmetry_multiplicity
 _atom_site_fract_x
 _atom_site_fract_y
 _atom_site_fract_z
 _atom_site_occupancy
  Ti  Ti0  1  0.005565  0.749999  0.124999  1
  Ti  Ti1  1  0.494400  0.749999  0.125001  1
  Ti  Ti2  1  0.002067  0.249999  0.378462  1
  Ti  Ti3  1  0.497938  0.249999  0.378471  1
  Ti  Ti4  1  0.500690  0.749999  0.624999  1
  Ti  Ti5  1  0.999312  0.749999  0.625001  1
  Ti  Ti6  1  0.497950  0.249999  0.871525  1
  Ti  Ti7  1  0.002072  0.249999  0.871534  1
  V  V8  1  0.749933  0.249999  0.124994  1
  Mo  Mo9  1  0.250042  0.749999  0.374596  1
  Mo  Mo10  1  0.749964  0.249999  0.624995  1
  Mo  Mo11  1  0.250046  0.749999  0.875410  1
  Ir  Ir12  1  0.250011  0.249999  0.125009  1
  Ir  Ir13  1  0.750000  0.749999  0.369509  1
  Ir  Ir14  1  0.250003  0.249999  0.625009  1
  Ir  Ir15  1  0.750007  0.749999  0.880485  1
