# generated using pymatgen
data_Dy3Sc5Ti11Si16Pt
_symmetry_space_group_name_H-M   'P 1'
_cell_length_a   6.94921646
_cell_length_b   6.93667910
_cell_length_c   12.64498770
_cell_angle_alpha   89.85483660
_cell_angle_beta   90.11310235
_cell_angle_gamma   89.80419003
_symmetry_Int_Tables_number   1
_chemical_formula_structural   Dy3Sc5Ti11Si16Pt
_chemical_formula_sum   'Dy3 Sc5 Ti11 Si16 Pt1'
_cell_volume   609.53840038
_cell_formula_units_Z   1
loop_
 _symmetry_equiv_pos_site_id
 _symmetry_equiv_pos_as_xyz
  1  'x, y, z'
loop_
 _atom_site_type_symbol
 _atom_site_label
 _atom_site_symmetry_multiplicity
 _atom_site_fract_x
 _atom_site_fract_y
 _atom_site_fract_z
 _atom_site_occupancy
  Dy  Dy0  1  0.505652  0.158028  0.217362  1
  Dy  Dy1  1  0.497772  0.840607  0.713269  1
  Dy  Dy2  1  0.343085  0.000316  0.469090  1
  Sc  Sc3  1  0.999821  0.658510  0.032086  1
  Sc  Sc4  1  0.999068  0.342019  0.531654  1
  Sc  Sc5  1  0.658079  0.998543  0.966703  1
  Sc  Sc6  1  0.154679  0.501550  0.784495  1
  Sc  Sc7  1  0.846642  0.499082  0.282426  1
  Ti  Ti8  1  0.342234  0.504057  0.378188  1
  Ti  Ti9  1  0.850773  0.996352  0.375093  1
  Ti  Ti10  1  0.004930  0.147144  0.124657  1
  Ti  Ti11  1  0.995694  0.854728  0.626653  1
  Ti  Ti12  1  0.505221  0.350888  0.624760  1
  Ti  Ti13  1  0.146977  0.008192  0.874937  1
  Ti  Ti14  1  0.826019  0.175830  0.750214  1
  Ti  Ti15  1  0.172149  0.822112  0.251074  1
  Ti  Ti16  1  0.325981  0.328359  0.000241  1
  Ti  Ti17  1  0.493984  0.647619  0.124966  1
  Ti  Ti18  1  0.649112  0.496560  0.873706  1
  Si  Si19  1  0.044644  0.705682  0.436054  1
  Si  Si20  1  0.953333  0.298142  0.934712  1
  Si  Si21  1  0.718544  0.063950  0.564592  1
  Si  Si22  1  0.201434  0.455875  0.183994  1
  Si  Si23  1  0.799716  0.547138  0.684987  1
  Si  Si24  1  0.451826  0.208757  0.816708  1
  Si  Si25  1  0.555046  0.783616  0.314497  1
  Si  Si26  1  0.294029  0.950081  0.063573  1
  Si  Si27  1  0.800958  0.856995  0.180631  1
  Si  Si28  1  0.271182  0.620283  0.574087  1
  Si  Si29  1  0.710647  0.368713  0.067077  1
  Si  Si30  1  0.636343  0.299968  0.430252  1
  Si  Si31  1  0.362884  0.705762  0.930342  1
  Si  Si32  1  0.128322  0.209321  0.318633  1
  Si  Si33  1  0.199544  0.143508  0.682837  1
  Si  Si34  1  0.865865  0.795788  0.820947  1
  Pt  Pt35  1  0.687804  0.655919  0.494505  1
