# generated using pymatgen
data_TbEr5C2Cl7
_symmetry_space_group_name_H-M   'P 1'
_cell_length_a   9.97957809
_cell_length_b   9.97957871
_cell_length_c   11.36506300
_cell_angle_alpha   57.67211542
_cell_angle_beta   57.67211316
_cell_angle_gamma   20.92350173
_symmetry_Int_Tables_number   1
_chemical_formula_structural   TbEr5C2Cl7
_chemical_formula_sum   'Tb1 Er5 C2 Cl7'
_cell_volume   339.22179652
_cell_formula_units_Z   1
loop_
 _symmetry_equiv_pos_site_id
 _symmetry_equiv_pos_as_xyz
  1  'x, y, z'
loop_
 _atom_site_type_symbol
 _atom_site_label
 _atom_site_symmetry_multiplicity
 _atom_site_fract_x
 _atom_site_fract_y
 _atom_site_fract_z
 _atom_site_occupancy
  Tb  Tb0  1  0.226864  0.226864  0.851827  1
  Er  Er1  1  0.316548  0.316548  0.360034  1
  Er  Er2  1  0.127869  0.127869  0.440292  1
  Er  Er3  1  0.871995  0.871995  0.560323  1
  Er  Er4  1  0.683797  0.683797  0.640128  1
  Er  Er5  1  0.772465  0.772465  0.151174  1
  C  C6  1  0.279776  0.279776  0.608576  1
  C  C7  1  0.720741  0.720741  0.389044  1
  Cl  Cl8  1  0.165472  0.165472  0.163057  1
  Cl  Cl9  1  0.837559  0.837559  0.837135  1
  Cl  Cl10  1  0.059225  0.059225  0.713521  1
  Cl  Cl11  1  0.940985  0.940985  0.285782  1
  Cl  Cl12  1  0.500394  0.500394  0.499060  1
  Cl  Cl13  1  0.387989  0.387989  0.068687  1
  Cl  Cl14  1  0.608319  0.608319  0.931362  1
