# generated using pymatgen
data_Ho2B(PtRh2)2
_symmetry_space_group_name_H-M   'P 1'
_cell_length_a   5.85199803
_cell_length_b   5.85903479
_cell_length_c   5.85199843
_cell_angle_alpha   59.96021856
_cell_angle_beta   59.74556681
_cell_angle_gamma   59.96021650
_symmetry_Int_Tables_number   1
_chemical_formula_structural   Ho2B(PtRh2)2
_chemical_formula_sum   'Ho2 B1 Pt2 Rh4'
_cell_volume   141.51972792
_cell_formula_units_Z   1
loop_
 _symmetry_equiv_pos_site_id
 _symmetry_equiv_pos_as_xyz
  1  'x, y, z'
loop_
 _atom_site_type_symbol
 _atom_site_label
 _atom_site_symmetry_multiplicity
 _atom_site_fract_x
 _atom_site_fract_y
 _atom_site_fract_z
 _atom_site_occupancy
  Ho  Ho0  1  0.250730  0.249922  0.249425  1
  Ho  Ho1  1  0.750575  0.750078  0.749270  1
  B  B2  1  0.994839  0.000000  0.005161  1
  Pt  Pt3  1  0.258033  0.257640  0.741968  1
  Pt  Pt4  1  0.258034  0.742360  0.741967  1
  Rh  Rh5  1  0.742989  0.257780  0.257012  1
  Rh  Rh6  1  0.256264  0.744644  0.254450  1
  Rh  Rh7  1  0.742988  0.742220  0.257013  1
  Rh  Rh8  1  0.745550  0.255358  0.743736  1
