# generated using pymatgen
data_Dy3Ho3PtI10
_symmetry_space_group_name_H-M   'P 1'
_cell_length_a   7.72660827
_cell_length_b   9.71815268
_cell_length_c   9.76681147
_cell_angle_alpha   107.21406623
_cell_angle_beta   96.95991517
_cell_angle_gamma   104.68153571
_symmetry_Int_Tables_number   1
_chemical_formula_structural   Dy3Ho3PtI10
_chemical_formula_sum   'Dy3 Ho3 Pt1 I10'
_cell_volume   662.20128363
_cell_formula_units_Z   1
loop_
 _symmetry_equiv_pos_site_id
 _symmetry_equiv_pos_as_xyz
  1  'x, y, z'
loop_
 _atom_site_type_symbol
 _atom_site_label
 _atom_site_symmetry_multiplicity
 _atom_site_fract_x
 _atom_site_fract_y
 _atom_site_fract_z
 _atom_site_occupancy
  Dy  Dy0  1  0.885063  0.959516  0.241497  1
  Dy  Dy1  1  0.114503  0.040343  0.758338  1
  Dy  Dy2  1  0.348450  0.125239  0.165730  1
  Ho  Ho3  1  0.652413  0.874882  0.834615  1
  Ho  Ho4  1  0.971241  0.286335  0.086464  1
  Ho  Ho5  1  0.028473  0.713607  0.913420  1
  Pt  Pt6  1  0.999956  0.999963  0.999982  1
  I  I7  1  0.354461  0.453219  0.272469  1
  I  I8  1  0.645213  0.547330  0.727570  1
  I  I9  1  0.914434  0.626492  0.178919  1
  I  I10  1  0.085494  0.373490  0.821050  1
  I  I11  1  0.453430  0.816577  0.091719  1
  I  I12  1  0.546536  0.182944  0.907762  1
  I  I13  1  0.259183  0.087661  0.463343  1
  I  I14  1  0.740503  0.912213  0.536875  1
  I  I15  1  0.779312  0.259225  0.347012  1
  I  I16  1  0.221335  0.740964  0.653235  1
