# generated using pymatgen
data_DyEr2Th(Al3Rh)6
_symmetry_space_group_name_H-M   'P 1'
_cell_length_a   7.56970714
_cell_length_b   7.58489271
_cell_length_c   9.46705500
_cell_angle_alpha   90.00000000
_cell_angle_beta   90.00000000
_cell_angle_gamma   119.36856499
_symmetry_Int_Tables_number   1
_chemical_formula_structural   DyEr2Th(Al3Rh)6
_chemical_formula_sum   'Dy1 Er2 Th1 Al18 Rh6'
_cell_volume   473.69886619
_cell_formula_units_Z   1
loop_
 _symmetry_equiv_pos_site_id
 _symmetry_equiv_pos_as_xyz
  1  'x, y, z'
loop_
 _atom_site_type_symbol
 _atom_site_label
 _atom_site_symmetry_multiplicity
 _atom_site_fract_x
 _atom_site_fract_y
 _atom_site_fract_z
 _atom_site_occupancy
  Dy  Dy0  1  0.672027  0.994541  0.750000  1
  Er  Er1  1  0.004332  0.327895  0.250000  1
  Er  Er2  1  0.327557  0.004985  0.250000  1
  Th  Th3  1  0.994702  0.671298  0.750000  1
  Al  Al4  1  0.130890  0.132466  0.750000  1
  Al  Al5  1  0.872489  0.874894  0.250000  1
  Al  Al6  1  0.001327  0.331004  0.572110  1
  Al  Al7  1  0.999462  0.664058  0.417172  1
  Al  Al8  1  0.999462  0.664058  0.082828  1
  Al  Al9  1  0.340276  0.005347  0.927786  1
  Al  Al10  1  0.001327  0.331004  0.927890  1
  Al  Al11  1  0.664412  0.000889  0.077055  1
  Al  Al12  1  0.664412  0.000889  0.422945  1
  Al  Al13  1  0.340276  0.005347  0.572214  1
  Al  Al14  1  0.331991  0.332102  0.055026  1
  Al  Al15  1  0.663228  0.666660  0.956232  1
  Al  Al16  1  0.663228  0.666660  0.543768  1
  Al  Al17  1  0.331991  0.332102  0.444974  1
  Al  Al18  1  0.344114  0.548950  0.750000  1
  Al  Al19  1  0.658011  0.447377  0.250000  1
  Al  Al20  1  0.545240  0.336446  0.750000  1
  Al  Al21  1  0.448395  0.660838  0.250000  1
  Rh  Rh22  1  0.673222  0.329274  0.499771  1
  Rh  Rh23  1  0.326488  0.671703  0.500013  1
  Rh  Rh24  1  0.326488  0.671703  0.999987  1
  Rh  Rh25  1  0.673222  0.329274  0.000229  1
  Rh  Rh26  1  0.000715  0.999117  0.499835  1
  Rh  Rh27  1  0.000715  0.999117  0.000165  1
