# generated using pymatgen
data_Sr2Ir3O8
_symmetry_space_group_name_H-M   'P 1'
_cell_length_a   6.55255800
_cell_length_b   6.55255809
_cell_length_c   5.46120121
_cell_angle_alpha   71.99432620
_cell_angle_beta   71.99432632
_cell_angle_gamma   58.88907911
_symmetry_Int_Tables_number   1
_chemical_formula_structural   Sr2Ir3O8
_chemical_formula_sum   'Sr2 Ir3 O8'
_cell_volume   187.68331297
_cell_formula_units_Z   1
loop_
 _symmetry_equiv_pos_site_id
 _symmetry_equiv_pos_as_xyz
  1  'x, y, z'
loop_
 _atom_site_type_symbol
 _atom_site_label
 _atom_site_symmetry_multiplicity
 _atom_site_fract_x
 _atom_site_fract_y
 _atom_site_fract_z
 _atom_site_occupancy
  Sr  Sr0  1  0.719510  0.719510  0.333004  1
  Sr  Sr1  1  0.280490  0.280490  0.666996  1
  Ir  Ir2  1  0.000000  0.000000  0.500000  1
  Ir  Ir3  1  0.745502  0.254498  0.000000  1
  Ir  Ir4  1  0.254498  0.745502  0.000000  1
  O  O5  1  0.401202  0.401202  0.957322  1
  O  O6  1  0.598798  0.598798  0.042678  1
  O  O7  1  0.908614  0.908614  0.908165  1
  O  O8  1  0.091386  0.091386  0.091835  1
  O  O9  1  0.315232  0.878390  0.614298  1
  O  O10  1  0.878390  0.315232  0.614298  1
  O  O11  1  0.121610  0.684768  0.385702  1
  O  O12  1  0.684768  0.121610  0.385702  1
