# generated using pymatgen
data_Hf6Be2Re3Ge4Ru3
_symmetry_space_group_name_H-M   'P 1'
_cell_length_a   7.70683517
_cell_length_b   7.70830675
_cell_length_c   7.70739108
_cell_angle_alpha   126.59607018
_cell_angle_beta   127.49389522
_cell_angle_gamma   78.18007625
_symmetry_Int_Tables_number   1
_chemical_formula_structural   Hf6Be2Re3Ge4Ru3
_chemical_formula_sum   'Hf6 Be2 Re3 Ge4 Ru3'
_cell_volume   282.54565668
_cell_formula_units_Z   1
loop_
 _symmetry_equiv_pos_site_id
 _symmetry_equiv_pos_as_xyz
  1  'x, y, z'
loop_
 _atom_site_type_symbol
 _atom_site_label
 _atom_site_symmetry_multiplicity
 _atom_site_fract_x
 _atom_site_fract_y
 _atom_site_fract_z
 _atom_site_occupancy
  Hf  Hf0  1  0.442301  0.639946  0.697310  1
  Hf  Hf1  1  0.557240  0.257127  0.199562  1
  Hf  Hf2  1  0.750942  0.866131  0.615794  1
  Hf  Hf3  1  0.250375  0.866228  0.115145  1
  Hf  Hf4  1  0.057783  0.257056  0.699656  1
  Hf  Hf5  1  0.942409  0.639574  0.197394  1
  Be  Be6  1  0.252056  0.250485  0.503699  1
  Be  Be7  1  0.746552  0.250181  0.998457  1
  Re  Re8  1  0.499703  0.497161  0.997443  1
  Re  Re9  1  0.000726  0.496200  0.495532  1
  Re  Re10  1  0.122100  0.253683  0.131329  1
  Ge  Ge11  1  0.333456  0.588032  0.254420  1
  Ge  Ge12  1  0.667291  0.921273  0.254055  1
  Ge  Ge13  1  0.166930  0.920842  0.753739  1
  Ge  Ge14  1  0.833496  0.587170  0.753762  1
  Ru  Ru15  1  0.877502  0.007742  0.130690  1
  Ru  Ru16  1  0.377141  0.007636  0.630134  1
  Ru  Ru17  1  0.621999  0.253131  0.631477  1
