# generated using pymatgen
data_DyTm11(OsRu)2
_symmetry_space_group_name_H-M   'P 1'
_cell_length_a   6.24695389
_cell_length_b   7.29131703
_cell_length_c   8.94742300
_cell_angle_alpha   90.00000000
_cell_angle_beta   90.00000000
_cell_angle_gamma   90.06090046
_symmetry_Int_Tables_number   1
_chemical_formula_structural   DyTm11(OsRu)2
_chemical_formula_sum   'Dy1 Tm11 Os2 Ru2'
_cell_volume   407.54165621
_cell_formula_units_Z   1
loop_
 _symmetry_equiv_pos_site_id
 _symmetry_equiv_pos_as_xyz
  1  'x, y, z'
loop_
 _atom_site_type_symbol
 _atom_site_label
 _atom_site_symmetry_multiplicity
 _atom_site_fract_x
 _atom_site_fract_y
 _atom_site_fract_z
 _atom_site_occupancy
  Dy  Dy0  1  0.631452  0.040941  0.250000  1
  Tm  Tm1  1  0.332581  0.674817  0.062038  1
  Tm  Tm2  1  0.166023  0.175656  0.438302  1
  Tm  Tm3  1  0.670407  0.324606  0.564368  1
  Tm  Tm4  1  0.830331  0.823278  0.935394  1
  Tm  Tm5  1  0.670407  0.324606  0.935632  1
  Tm  Tm6  1  0.830331  0.823278  0.564606  1
  Tm  Tm7  1  0.332581  0.674817  0.437962  1
  Tm  Tm8  1  0.166023  0.175656  0.061698  1
  Tm  Tm9  1  0.868266  0.541049  0.250000  1
  Tm  Tm10  1  0.130648  0.460615  0.750000  1
  Tm  Tm11  1  0.369609  0.960527  0.750000  1
  Os  Os12  1  0.962030  0.116453  0.750000  1
  Os  Os13  1  0.537931  0.616150  0.750000  1
  Ru  Ru14  1  0.039585  0.882634  0.250000  1
  Ru  Ru15  1  0.461798  0.384914  0.250000  1
