# generated using pymatgen
data_HoAl5Cu6
_symmetry_space_group_name_H-M   'P 1'
_cell_length_a   10.32387902
_cell_length_b   8.19074552
_cell_length_c   7.81157590
_cell_angle_alpha   80.31555275
_cell_angle_beta   51.45070755
_cell_angle_gamma   48.23373406
_symmetry_Int_Tables_number   1
_chemical_formula_structural   HoAl5Cu6
_chemical_formula_sum   'Ho2 Al10 Cu12'
_cell_volume   349.10258544
_cell_formula_units_Z   2
loop_
 _symmetry_equiv_pos_site_id
 _symmetry_equiv_pos_as_xyz
  1  'x, y, z'
loop_
 _atom_site_type_symbol
 _atom_site_label
 _atom_site_symmetry_multiplicity
 _atom_site_fract_x
 _atom_site_fract_y
 _atom_site_fract_z
 _atom_site_occupancy
  Ho  Ho0  1  0.000000  0.000000  0.000000  1
  Ho  Ho1  1  0.250000  0.250000  0.250000  1
  Al  Al2  1  0.500000  0.500000  0.500000  1
  Al  Al3  1  0.750000  0.750000  0.750000  1
  Al  Al4  1  0.754092  0.071777  0.836852  1
  Al  Al5  1  0.836852  0.337280  0.754092  1
  Al  Al6  1  0.071777  0.754092  0.337280  1
  Al  Al7  1  0.337280  0.836852  0.071777  1
  Al  Al8  1  0.495908  0.178223  0.413148  1
  Al  Al9  1  0.413148  0.912720  0.495908  1
  Al  Al10  1  0.178223  0.495908  0.912720  1
  Al  Al11  1  0.912720  0.413148  0.178223  1
  Cu  Cu12  1  0.625000  0.125000  0.625000  1
  Cu  Cu13  1  0.625000  0.625000  0.625000  1
  Cu  Cu14  1  0.125000  0.625000  0.625000  1
  Cu  Cu15  1  0.625000  0.625000  0.125000  1
  Cu  Cu16  1  0.491989  0.434543  0.183353  1
  Cu  Cu17  1  0.183353  0.890115  0.491989  1
  Cu  Cu18  1  0.434543  0.491989  0.890115  1
  Cu  Cu19  1  0.890115  0.183353  0.434543  1
  Cu  Cu20  1  0.758011  0.815457  0.066647  1
  Cu  Cu21  1  0.066647  0.359885  0.758011  1
  Cu  Cu22  1  0.815457  0.758011  0.359885  1
  Cu  Cu23  1  0.359885  0.066647  0.815457  1
