# generated using pymatgen
data_Dy2YWO7
_symmetry_space_group_name_H-M   'P 1'
_cell_length_a   6.48660664
_cell_length_b   6.48660690
_cell_length_c   7.48969100
_cell_angle_alpha   90.00000000
_cell_angle_beta   90.00000000
_cell_angle_gamma   109.07243258
_symmetry_Int_Tables_number   1
_chemical_formula_structural   Dy2YWO7
_chemical_formula_sum   'Dy4 Y2 W2 O14'
_cell_volume   297.83770282
_cell_formula_units_Z   2
loop_
 _symmetry_equiv_pos_site_id
 _symmetry_equiv_pos_as_xyz
  1  'x, y, z'
loop_
 _atom_site_type_symbol
 _atom_site_label
 _atom_site_symmetry_multiplicity
 _atom_site_fract_x
 _atom_site_fract_y
 _atom_site_fract_z
 _atom_site_occupancy
  Dy  Dy0  1  0.998627  0.466738  0.497432  1
  Dy  Dy1  1  0.533262  0.001373  0.502568  1
  Dy  Dy2  1  0.001373  0.533262  0.997432  1
  Dy  Dy3  1  0.466738  0.998627  0.002568  1
  Y  Y4  1  0.518883  0.518883  0.250000  1
  Y  Y5  1  0.481117  0.481117  0.750000  1
  W  W6  1  0.000756  0.000756  0.250000  1
  W  W7  1  0.999244  0.999244  0.750000  1
  O  O8  1  0.066717  0.318207  0.217586  1
  O  O9  1  0.681793  0.933283  0.782414  1
  O  O10  1  0.933283  0.681793  0.717586  1
  O  O11  1  0.318207  0.066717  0.282414  1
  O  O12  1  0.674866  0.919189  0.222093  1
  O  O13  1  0.080811  0.325134  0.777907  1
  O  O14  1  0.325134  0.080811  0.722093  1
  O  O15  1  0.919189  0.674866  0.277907  1
  O  O16  1  0.368679  0.631321  0.500000  1
  O  O17  1  0.631321  0.368679  0.000000  1
  O  O18  1  0.363209  0.636791  0.000000  1
  O  O19  1  0.636791  0.363209  0.500000  1
  O  O20  1  0.925027  0.074973  0.500000  1
  O  O21  1  0.074973  0.925027  0.000000  1
