# generated using pymatgen
data_Zr2Mn8SiP3
_symmetry_space_group_name_H-M   'P 1'
_cell_length_a   6.92265410
_cell_length_b   6.92265410
_cell_length_c   3.71098400
_cell_angle_alpha   90.00000000
_cell_angle_beta   90.00000000
_cell_angle_gamma   90.01954924
_symmetry_Int_Tables_number   1
_chemical_formula_structural   Zr2Mn8SiP3
_chemical_formula_sum   'Zr2 Mn8 Si1 P3'
_cell_volume   177.84199467
_cell_formula_units_Z   1
loop_
 _symmetry_equiv_pos_site_id
 _symmetry_equiv_pos_as_xyz
  1  'x, y, z'
loop_
 _atom_site_type_symbol
 _atom_site_label
 _atom_site_symmetry_multiplicity
 _atom_site_fract_x
 _atom_site_fract_y
 _atom_site_fract_z
 _atom_site_occupancy
  Zr  Zr0  1  0.499113  0.499113  0.000000  1
  Zr  Zr1  1  0.001321  0.001321  0.500000  1
  Mn  Mn2  1  0.587028  0.153774  0.500000  1
  Mn  Mn3  1  0.407825  0.848209  0.500000  1
  Mn  Mn4  1  0.087182  0.343316  0.000000  1
  Mn  Mn5  1  0.917384  0.653403  0.000000  1
  Mn  Mn6  1  0.153774  0.587028  0.500000  1
  Mn  Mn7  1  0.848209  0.407825  0.500000  1
  Mn  Mn8  1  0.343316  0.087182  0.000000  1
  Mn  Mn9  1  0.653403  0.917384  0.000000  1
  Si  Si10  1  0.715474  0.715474  0.500000  1
  P  P11  1  0.285044  0.285044  0.500000  1
  P  P12  1  0.215477  0.785449  0.000000  1
  P  P13  1  0.785449  0.215477  0.000000  1
