# generated using pymatgen
data_Tm5Lu7IrOs3
_symmetry_space_group_name_H-M   'P 1'
_cell_length_a   7.29951813
_cell_length_b   8.84174275
_cell_length_c   6.21639170
_cell_angle_alpha   90.04478991
_cell_angle_beta   90.02338285
_cell_angle_gamma   89.98543692
_symmetry_Int_Tables_number   1
_chemical_formula_structural   Tm5Lu7IrOs3
_chemical_formula_sum   'Tm5 Lu7 Ir1 Os3'
_cell_volume   401.20862005
_cell_formula_units_Z   1
loop_
 _symmetry_equiv_pos_site_id
 _symmetry_equiv_pos_as_xyz
  1  'x, y, z'
loop_
 _atom_site_type_symbol
 _atom_site_label
 _atom_site_symmetry_multiplicity
 _atom_site_fract_x
 _atom_site_fract_y
 _atom_site_fract_z
 _atom_site_occupancy
  Tm  Tm0  1  0.674404  0.061212  0.334106  1
  Tm  Tm1  1  0.537553  0.250151  0.873098  1
  Tm  Tm2  1  0.039052  0.250053  0.626982  1
  Tm  Tm3  1  0.461263  0.749831  0.126735  1
  Tm  Tm4  1  0.961576  0.749885  0.372970  1
  Lu  Lu5  1  0.176934  0.438825  0.167308  1
  Lu  Lu6  1  0.324935  0.562270  0.667229  1
  Lu  Lu7  1  0.824157  0.936000  0.831144  1
  Lu  Lu8  1  0.324776  0.937623  0.667316  1
  Lu  Lu9  1  0.824081  0.563885  0.831135  1
  Lu  Lu10  1  0.674210  0.438862  0.334131  1
  Lu  Lu11  1  0.176878  0.061203  0.167319  1
  Ir  Ir12  1  0.884076  0.250207  0.039547  1
  Os  Os13  1  0.383141  0.250201  0.460485  1
  Os  Os14  1  0.116031  0.750040  0.961734  1
  Os  Os15  1  0.616931  0.749750  0.538761  1
