# generated using pymatgen
data_YTm2Ni2Ir7
_symmetry_space_group_name_H-M   'P 1'
_cell_length_a   5.27633903
_cell_length_b   5.27633897
_cell_length_c   8.96717344
_cell_angle_alpha   72.89023215
_cell_angle_beta   72.89023340
_cell_angle_gamma   60.00000643
_symmetry_Int_Tables_number   1
_chemical_formula_structural   YTm2Ni2Ir7
_chemical_formula_sum   'Y1 Tm2 Ni2 Ir7'
_cell_volume   203.34020592
_cell_formula_units_Z   1
loop_
 _symmetry_equiv_pos_site_id
 _symmetry_equiv_pos_as_xyz
  1  'x, y, z'
loop_
 _atom_site_type_symbol
 _atom_site_label
 _atom_site_symmetry_multiplicity
 _atom_site_fract_x
 _atom_site_fract_y
 _atom_site_fract_z
 _atom_site_occupancy
  Y  Y0  1  0.000000  0.000000  0.000000  1
  Tm  Tm1  1  0.140216  0.140216  0.579353  1
  Tm  Tm2  1  0.859784  0.859784  0.420647  1
  Ni  Ni3  1  0.333487  0.333487  0.999538  1
  Ni  Ni4  1  0.666513  0.666513  0.000462  1
  Ir  Ir5  1  0.078143  0.581545  0.758767  1
  Ir  Ir6  1  0.581545  0.581545  0.758767  1
  Ir  Ir7  1  0.581545  0.078143  0.758767  1
  Ir  Ir8  1  0.921857  0.418455  0.241233  1
  Ir  Ir9  1  0.418455  0.418455  0.241233  1
  Ir  Ir10  1  0.418455  0.921857  0.241233  1
  Ir  Ir11  1  0.500000  0.500000  0.500000  1
