# generated using pymatgen
data_Tm4Ga3Si
_symmetry_space_group_name_H-M   'P 1'
_cell_length_a   3.93135000
_cell_length_b   4.28101300
_cell_length_c   10.65497000
_cell_angle_alpha   90.00000000
_cell_angle_beta   90.00000000
_cell_angle_gamma   90.00000000
_symmetry_Int_Tables_number   1
_chemical_formula_structural   Tm4Ga3Si
_chemical_formula_sum   'Tm4 Ga3 Si1'
_cell_volume   179.32485477
_cell_formula_units_Z   1
loop_
 _symmetry_equiv_pos_site_id
 _symmetry_equiv_pos_as_xyz
  1  'x, y, z'
loop_
 _atom_site_type_symbol
 _atom_site_label
 _atom_site_symmetry_multiplicity
 _atom_site_fract_x
 _atom_site_fract_y
 _atom_site_fract_z
 _atom_site_occupancy
  Tm  Tm0  1  0.000000  0.000000  0.143213  1
  Tm  Tm1  1  0.000000  0.500000  0.638408  1
  Tm  Tm2  1  0.500000  0.500000  0.360919  1
  Tm  Tm3  1  0.500000  0.000000  0.858153  1
  Ga  Ga4  1  0.000000  0.500000  0.920234  1
  Ga  Ga5  1  0.500000  0.500000  0.081192  1
  Ga  Ga6  1  0.500000  0.000000  0.575049  1
  Si  Si7  1  0.000000  0.000000  0.422834  1
