# generated using pymatgen
data_TbHo15Cd4Ni3Ru
_symmetry_space_group_name_H-M   'P 1'
_cell_length_a   9.53733334
_cell_length_b   9.53732554
_cell_length_c   9.53638323
_cell_angle_alpha   59.77083023
_cell_angle_beta   59.75707985
_cell_angle_gamma   59.79026018
_symmetry_Int_Tables_number   1
_chemical_formula_structural   TbHo15Cd4Ni3Ru
_chemical_formula_sum   'Tb1 Ho15 Cd4 Ni3 Ru1'
_cell_volume   610.20438423
_cell_formula_units_Z   1
loop_
 _symmetry_equiv_pos_site_id
 _symmetry_equiv_pos_as_xyz
  1  'x, y, z'
loop_
 _atom_site_type_symbol
 _atom_site_label
 _atom_site_symmetry_multiplicity
 _atom_site_fract_x
 _atom_site_fract_y
 _atom_site_fract_z
 _atom_site_occupancy
  Tb  Tb0  1  0.347322  0.347318  0.347415  1
  Ho  Ho1  1  0.350950  0.350869  0.953647  1
  Ho  Ho2  1  0.350812  0.953723  0.350955  1
  Ho  Ho3  1  0.953694  0.350751  0.350973  1
  Ho  Ho4  1  0.810728  0.188043  0.187990  1
  Ho  Ho5  1  0.187123  0.811588  0.811484  1
  Ho  Ho6  1  0.188029  0.810743  0.187989  1
  Ho  Ho7  1  0.811565  0.187124  0.811546  1
  Ho  Ho8  1  0.188048  0.188064  0.810712  1
  Ho  Ho9  1  0.811477  0.811567  0.187099  1
  Ho  Ho10  1  0.935669  0.565962  0.565933  1
  Ho  Ho11  1  0.559617  0.937686  0.937699  1
  Ho  Ho12  1  0.565979  0.935712  0.565877  1
  Ho  Ho13  1  0.937694  0.559632  0.937698  1
  Ho  Ho14  1  0.565960  0.565891  0.935707  1
  Ho  Ho15  1  0.937701  0.937691  0.559618  1
  Cd  Cd16  1  0.580222  0.580263  0.580162  1
  Cd  Cd17  1  0.580274  0.580298  0.255388  1
  Cd  Cd18  1  0.580290  0.255402  0.580241  1
  Cd  Cd19  1  0.255405  0.580305  0.580232  1
  Ni  Ni20  1  0.141602  0.141602  0.574952  1
  Ni  Ni21  1  0.141622  0.574808  0.141642  1
  Ni  Ni22  1  0.574874  0.141690  0.141707  1
  Ru  Ru23  1  0.143341  0.143267  0.143333  1
