# generated using pymatgen
data_TbMgCo3P3Rh
_symmetry_space_group_name_H-M   'P 1'
_cell_length_a   3.73235300
_cell_length_b   10.51228300
_cell_length_c   12.37910400
_cell_angle_alpha   90.00000000
_cell_angle_beta   90.00000000
_cell_angle_gamma   90.00000000
_symmetry_Int_Tables_number   1
_chemical_formula_structural   TbMgCo3P3Rh
_chemical_formula_sum   'Tb4 Mg4 Co12 P12 Rh4'
_cell_volume   485.70096623
_cell_formula_units_Z   4
loop_
 _symmetry_equiv_pos_site_id
 _symmetry_equiv_pos_as_xyz
  1  'x, y, z'
loop_
 _atom_site_type_symbol
 _atom_site_label
 _atom_site_symmetry_multiplicity
 _atom_site_fract_x
 _atom_site_fract_y
 _atom_site_fract_z
 _atom_site_occupancy
  Tb  Tb0  1  0.250000  0.581960  0.711053  1
  Tb  Tb1  1  0.250000  0.918040  0.211053  1
  Tb  Tb2  1  0.750000  0.418040  0.288947  1
  Tb  Tb3  1  0.750000  0.081960  0.788947  1
  Mg  Mg4  1  0.250000  0.705926  0.992938  1
  Mg  Mg5  1  0.250000  0.794074  0.492938  1
  Mg  Mg6  1  0.750000  0.294074  0.007062  1
  Mg  Mg7  1  0.750000  0.205926  0.507062  1
  Co  Co8  1  0.250000  0.218083  0.175866  1
  Co  Co9  1  0.250000  0.281917  0.675866  1
  Co  Co10  1  0.750000  0.781917  0.824134  1
  Co  Co11  1  0.750000  0.718083  0.324134  1
  Co  Co12  1  0.250000  0.883571  0.697029  1
  Co  Co13  1  0.250000  0.616429  0.197029  1
  Co  Co14  1  0.750000  0.116429  0.302971  1
  Co  Co15  1  0.750000  0.383571  0.802971  1
  Co  Co16  1  0.250000  0.467623  0.933870  1
  Co  Co17  1  0.250000  0.032377  0.433870  1
  Co  Co18  1  0.750000  0.532377  0.066130  1
  Co  Co19  1  0.750000  0.967623  0.566130  1
  P  P20  1  0.250000  0.423440  0.115394  1
  P  P21  1  0.250000  0.076560  0.615394  1
  P  P22  1  0.750000  0.576560  0.884606  1
  P  P23  1  0.750000  0.923440  0.384606  1
  P  P24  1  0.250000  0.277256  0.853873  1
  P  P25  1  0.250000  0.222744  0.353873  1
  P  P26  1  0.750000  0.722744  0.146127  1
  P  P27  1  0.750000  0.777256  0.646127  1
  P  P28  1  0.250000  0.598828  0.378029  1
  P  P29  1  0.250000  0.901172  0.878029  1
  P  P30  1  0.750000  0.401172  0.621971  1
  P  P31  1  0.750000  0.098828  0.121971  1
  Rh  Rh32  1  0.250000  0.400017  0.479510  1
  Rh  Rh33  1  0.250000  0.099983  0.979510  1
  Rh  Rh34  1  0.750000  0.599983  0.520490  1
  Rh  Rh35  1  0.750000  0.900017  0.020490  1
