# generated using pymatgen
data_Rb4Ga3FeI16
_symmetry_space_group_name_H-M   'P 1'
_cell_length_a   8.36005825
_cell_length_b   8.86032234
_cell_length_c   16.96854600
_cell_angle_alpha   85.48371779
_cell_angle_beta   90.01387151
_cell_angle_gamma   89.99741927
_symmetry_Int_Tables_number   1
_chemical_formula_structural   Rb4Ga3FeI16
_chemical_formula_sum   'Rb4 Ga3 Fe1 I16'
_cell_volume   1253.00515665
_cell_formula_units_Z   1
loop_
 _symmetry_equiv_pos_site_id
 _symmetry_equiv_pos_as_xyz
  1  'x, y, z'
loop_
 _atom_site_type_symbol
 _atom_site_label
 _atom_site_symmetry_multiplicity
 _atom_site_fract_x
 _atom_site_fract_y
 _atom_site_fract_z
 _atom_site_occupancy
  Rb  Rb0  1  0.501321  0.257210  0.640229  1
  Rb  Rb1  1  0.001914  0.742441  0.859906  1
  Rb  Rb2  1  0.498619  0.742822  0.359962  1
  Rb  Rb3  1  0.998505  0.257305  0.140028  1
  Ga  Ga4  1  0.357448  0.246593  0.360709  1
  Ga  Ga5  1  0.857265  0.753492  0.139210  1
  Ga  Ga6  1  0.642744  0.753456  0.639388  1
  Fe  Fe7  1  0.142638  0.246099  0.860654  1
  I  I8  1  0.869179  0.145878  0.907661  1
  I  I9  1  0.366124  0.855043  0.591794  1
  I  I10  1  0.133589  0.855150  0.091828  1
  I  I11  1  0.633837  0.144763  0.408046  1
  I  I12  1  0.391354  0.407920  0.227348  1
  I  I13  1  0.891438  0.592255  0.272690  1
  I  I14  1  0.608237  0.592489  0.772998  1
  I  I15  1  0.108771  0.406105  0.728743  1
  I  I16  1  0.659395  0.972667  0.158764  1
  I  I17  1  0.159310  0.027729  0.341113  1
  I  I18  1  0.338910  0.029749  0.841395  1
  I  I19  1  0.840756  0.972784  0.658878  1
  I  I20  1  0.242307  0.417023  0.464666  1
  I  I21  1  0.742093  0.583082  0.035107  1
  I  I22  1  0.757810  0.582857  0.535316  1
  I  I23  1  0.256435  0.415087  0.963567  1
