# generated using pymatgen
data_CrH3F8
_symmetry_space_group_name_H-M   'P 1'
_cell_length_a   5.16554808
_cell_length_b   6.36679872
_cell_length_c   6.39718147
_cell_angle_alpha   82.78109614
_cell_angle_beta   57.08758127
_cell_angle_gamma   83.04657050
_symmetry_Int_Tables_number   1
_chemical_formula_structural   CrH3F8
_chemical_formula_sum   'Cr1 H3 F8'
_cell_volume   174.87099047
_cell_formula_units_Z   1
loop_
 _symmetry_equiv_pos_site_id
 _symmetry_equiv_pos_as_xyz
  1  'x, y, z'
loop_
 _atom_site_type_symbol
 _atom_site_label
 _atom_site_symmetry_multiplicity
 _atom_site_fract_x
 _atom_site_fract_y
 _atom_site_fract_z
 _atom_site_occupancy
  Cr  Cr0  1  0.550820  0.387640  0.772026  1
  H  H1  1  0.818816  0.800973  0.767999  1
  H  H2  1  0.234438  0.842321  0.529031  1
  H  H3  1  0.516343  0.600426  0.398641  1
  F  F4  1  0.521051  0.345189  0.058019  1
  F  F5  1  0.170483  0.484880  0.881835  1
  F  F6  1  0.595894  0.447859  0.431920  1
  F  F7  1  0.417661  0.790011  0.362820  1
  F  F8  1  0.946069  0.328168  0.581670  1
  F  F9  1  0.979537  0.888755  0.750431  1
  F  F10  1  0.458224  0.127460  0.784605  1
  F  F11  1  0.637885  0.671588  0.743100  1
