# generated using pymatgen
data_Zr2CoNi2As3
_symmetry_space_group_name_H-M   'P 1'
_cell_length_a   3.75293500
_cell_length_b   10.43521900
_cell_length_c   12.67467900
_cell_angle_alpha   90.00000000
_cell_angle_beta   90.00000000
_cell_angle_gamma   90.00000000
_symmetry_Int_Tables_number   1
_chemical_formula_structural   Zr2CoNi2As3
_chemical_formula_sum   'Zr8 Co4 Ni8 As12'
_cell_volume   496.37463375
_cell_formula_units_Z   4
loop_
 _symmetry_equiv_pos_site_id
 _symmetry_equiv_pos_as_xyz
  1  'x, y, z'
loop_
 _atom_site_type_symbol
 _atom_site_label
 _atom_site_symmetry_multiplicity
 _atom_site_fract_x
 _atom_site_fract_y
 _atom_site_fract_z
 _atom_site_occupancy
  Zr  Zr0  1  0.250000  0.334281  0.994742  1
  Zr  Zr1  1  0.250000  0.165719  0.494742  1
  Zr  Zr2  1  0.750000  0.665719  0.005258  1
  Zr  Zr3  1  0.750000  0.834281  0.505258  1
  Zr  Zr4  1  0.250000  0.424925  0.707905  1
  Zr  Zr5  1  0.250000  0.075075  0.207905  1
  Zr  Zr6  1  0.750000  0.575075  0.292095  1
  Zr  Zr7  1  0.750000  0.924925  0.792095  1
  Co  Co8  1  0.250000  0.906643  0.985595  1
  Co  Co9  1  0.250000  0.593357  0.485595  1
  Co  Co10  1  0.750000  0.093357  0.014405  1
  Co  Co11  1  0.750000  0.406643  0.514405  1
  Ni  Ni12  1  0.250000  0.138315  0.719733  1
  Ni  Ni13  1  0.250000  0.361685  0.219733  1
  Ni  Ni14  1  0.750000  0.861685  0.280267  1
  Ni  Ni15  1  0.750000  0.638315  0.780267  1
  Ni  Ni16  1  0.250000  0.773387  0.165852  1
  Ni  Ni17  1  0.250000  0.726613  0.665852  1
  Ni  Ni18  1  0.750000  0.226613  0.834148  1
  Ni  Ni19  1  0.750000  0.273387  0.334148  1
  As  As20  1  0.250000  0.099965  0.900251  1
  As  As21  1  0.250000  0.400035  0.400251  1
  As  As22  1  0.750000  0.900035  0.099749  1
  As  As23  1  0.750000  0.599965  0.599749  1
  As  As24  1  0.250000  0.739247  0.858361  1
  As  As25  1  0.250000  0.760753  0.358361  1
  As  As26  1  0.750000  0.260753  0.141639  1
  As  As27  1  0.750000  0.239247  0.641639  1
  As  As28  1  0.250000  0.551788  0.126949  1
  As  As29  1  0.250000  0.948212  0.626949  1
  As  As30  1  0.750000  0.448212  0.873051  1
  As  As31  1  0.750000  0.051788  0.373051  1
