# generated using pymatgen
data_Nb7Fe4Co4Si14Mo
_symmetry_space_group_name_H-M   'P 1'
_cell_length_a   9.20871420
_cell_length_b   9.19120810
_cell_length_c   9.21526968
_cell_angle_alpha   94.20747680
_cell_angle_beta   94.30849884
_cell_angle_gamma   148.34874829
_symmetry_Int_Tables_number   1
_chemical_formula_structural   Nb7Fe4Co4Si14Mo
_chemical_formula_sum   'Nb7 Fe4 Co4 Si14 Mo1'
_cell_volume   393.82771072
_cell_formula_units_Z   1
loop_
 _symmetry_equiv_pos_site_id
 _symmetry_equiv_pos_as_xyz
  1  'x, y, z'
loop_
 _atom_site_type_symbol
 _atom_site_label
 _atom_site_symmetry_multiplicity
 _atom_site_fract_x
 _atom_site_fract_y
 _atom_site_fract_z
 _atom_site_occupancy
  Nb  Nb0  1  0.865973  0.865973  0.731945  1
  Nb  Nb1  1  0.863975  0.133941  0.998410  1
  Nb  Nb2  1  0.134434  0.864468  0.998410  1
  Nb  Nb3  1  0.499998  0.691288  0.192259  1
  Nb  Nb4  1  0.498603  0.308097  0.809192  1
  Nb  Nb5  1  0.310589  0.501095  0.809192  1
  Nb  Nb6  1  0.692261  0.500970  0.192259  1
  Fe  Fe7  1  0.597930  0.400152  0.499054  1
  Fe  Fe8  1  0.901125  0.098902  0.499054  1
  Fe  Fe9  1  0.901368  0.401368  0.802737  1
  Fe  Fe10  1  0.599264  0.099264  0.198529  1
  Co  Co11  1  0.397872  0.897872  0.795744  1
  Co  Co12  1  0.102736  0.602736  0.205473  1
  Co  Co13  1  0.101923  0.897722  0.499201  1
  Co  Co14  1  0.397278  0.601480  0.499201  1
  Si  Si15  1  0.290714  0.290714  0.581429  1
  Si  Si16  1  0.708408  0.708408  0.416815  1
  Si  Si17  1  0.708643  0.291635  0.000245  1
  Si  Si18  1  0.291602  0.708610  0.000245  1
  Si  Si19  1  0.996052  0.289172  0.295701  1
  Si  Si20  1  0.992656  0.694745  0.701622  1
  Si  Si21  1  0.708966  0.006878  0.701622  1
  Si  Si22  1  0.299650  0.006531  0.295701  1
  Si  Si23  1  0.512677  0.919559  0.406240  1
  Si  Si24  1  0.512715  0.107059  0.594718  1
  Si  Si25  1  0.082003  0.487658  0.594718  1
  Si  Si26  1  0.893563  0.486682  0.406240  1
  Si  Si27  1  0.752309  0.752243  0.002621  1
  Si  Si28  1  0.250312  0.250378  0.002621  1
  Mo  Mo29  1  0.134401  0.134401  0.268800  1
