# generated using pymatgen
data_Tb8Ti11Si16Ag
_symmetry_space_group_name_H-M   'P 1'
_cell_length_a   7.09608375
_cell_length_b   7.09608375
_cell_length_c   12.96526763
_cell_angle_alpha   90.07512080
_cell_angle_beta   89.92487920
_cell_angle_gamma   89.58641059
_symmetry_Int_Tables_number   1
_chemical_formula_structural   Tb8Ti11Si16Ag
_chemical_formula_sum   'Tb8 Ti11 Si16 Ag1'
_cell_volume   652.84019137
_cell_formula_units_Z   1
loop_
 _symmetry_equiv_pos_site_id
 _symmetry_equiv_pos_as_xyz
  1  'x, y, z'
loop_
 _atom_site_type_symbol
 _atom_site_label
 _atom_site_symmetry_multiplicity
 _atom_site_fract_x
 _atom_site_fract_y
 _atom_site_fract_z
 _atom_site_occupancy
  Tb  Tb0  1  0.340287  0.002715  0.466531  1
  Tb  Tb1  1  0.497296  0.839614  0.716870  1
  Tb  Tb2  1  0.500933  0.158796  0.214332  1
  Tb  Tb3  1  0.839614  0.497296  0.283130  1
  Tb  Tb4  1  0.158796  0.500933  0.785668  1
  Tb  Tb5  1  0.656572  0.000690  0.968232  1
  Tb  Tb6  1  0.002715  0.340287  0.533469  1
  Tb  Tb7  1  0.000690  0.656572  0.031768  1
  Ti  Ti8  1  0.173790  0.826744  0.249941  1
  Ti  Ti9  1  0.826744  0.173790  0.750059  1
  Ti  Ti10  1  0.672849  0.672849  0.500000  1
  Ti  Ti11  1  0.148719  0.008782  0.877537  1
  Ti  Ti12  1  0.494255  0.651191  0.123967  1
  Ti  Ti13  1  0.508855  0.349653  0.625656  1
  Ti  Ti14  1  0.651191  0.494255  0.876033  1
  Ti  Ti15  1  0.349653  0.508855  0.374344  1
  Ti  Ti16  1  0.848795  0.991388  0.374847  1
  Ti  Ti17  1  0.008782  0.148719  0.122463  1
  Ti  Ti18  1  0.991388  0.848795  0.625153  1
  Si  Si19  1  0.201447  0.130779  0.685481  1
  Si  Si20  1  0.374600  0.718124  0.930509  1
  Si  Si21  1  0.630010  0.295172  0.433706  1
  Si  Si22  1  0.718124  0.374600  0.069491  1
  Si  Si23  1  0.295172  0.630010  0.566294  1
  Si  Si24  1  0.798159  0.869392  0.183514  1
  Si  Si25  1  0.130779  0.201447  0.314519  1
  Si  Si26  1  0.869392  0.798159  0.816486  1
  Si  Si27  1  0.285449  0.937740  0.066483  1
  Si  Si28  1  0.546359  0.791113  0.314376  1
  Si  Si29  1  0.456043  0.207862  0.808781  1
  Si  Si30  1  0.791113  0.546359  0.685624  1
  Si  Si31  1  0.207862  0.456043  0.191219  1
  Si  Si32  1  0.709665  0.047547  0.564679  1
  Si  Si33  1  0.937740  0.285449  0.933517  1
  Si  Si34  1  0.047547  0.709665  0.435321  1
  Ag  Ag35  1  0.328616  0.328616  0.000000  1
