# generated using pymatgen
data_Y8TiSi16Tc11
_symmetry_space_group_name_H-M   'P 1'
_cell_length_a   6.81896210
_cell_length_b   6.83296380
_cell_length_c   12.72825516
_cell_angle_alpha   90.06630935
_cell_angle_beta   90.33871300
_cell_angle_gamma   90.17496858
_symmetry_Int_Tables_number   1
_chemical_formula_structural   Y8TiSi16Tc11
_chemical_formula_sum   'Y8 Ti1 Si16 Tc11'
_cell_volume   593.04323491
_cell_formula_units_Z   1
loop_
 _symmetry_equiv_pos_site_id
 _symmetry_equiv_pos_as_xyz
  1  'x, y, z'
loop_
 _atom_site_type_symbol
 _atom_site_label
 _atom_site_symmetry_multiplicity
 _atom_site_fract_x
 _atom_site_fract_y
 _atom_site_fract_z
 _atom_site_occupancy
  Y  Y0  1  0.335332  0.995314  0.467684  1
  Y  Y1  1  0.500559  0.835154  0.720161  1
  Y  Y2  1  0.494962  0.160355  0.218580  1
  Y  Y3  1  0.836862  0.500661  0.279509  1
  Y  Y4  1  0.160763  0.493070  0.782327  1
  Y  Y5  1  0.661120  0.001551  0.970025  1
  Y  Y6  1  0.998975  0.339160  0.530388  1
  Y  Y7  1  0.002463  0.659654  0.030855  1
  Ti  Ti8  1  0.994744  0.829536  0.621356  1
  Si  Si9  1  0.200534  0.119420  0.685873  1
  Si  Si10  1  0.384853  0.690367  0.938620  1
  Si  Si11  1  0.615525  0.309945  0.439207  1
  Si  Si12  1  0.689987  0.385043  0.062928  1
  Si  Si13  1  0.310048  0.617294  0.561183  1
  Si  Si14  1  0.808486  0.884310  0.188405  1
  Si  Si15  1  0.117742  0.195044  0.313034  1
  Si  Si16  1  0.885217  0.802698  0.814803  1
  Si  Si17  1  0.268680  0.980691  0.061496  1
  Si  Si18  1  0.526016  0.777303  0.313587  1
  Si  Si19  1  0.475244  0.219304  0.813807  1
  Si  Si20  1  0.779672  0.523089  0.688404  1
  Si  Si21  1  0.225788  0.477898  0.186559  1
  Si  Si22  1  0.709277  0.041184  0.564167  1
  Si  Si23  1  0.980009  0.266385  0.938208  1
  Si  Si24  1  0.030821  0.722428  0.429531  1
  Tc  Tc25  1  0.330961  0.333569  0.001298  1
  Tc  Tc26  1  0.167106  0.831902  0.248413  1
  Tc  Tc27  1  0.835697  0.161609  0.749092  1
  Tc  Tc28  1  0.672658  0.666909  0.501868  1
  Tc  Tc29  1  0.187061  0.975639  0.869691  1
  Tc  Tc30  1  0.519193  0.682224  0.123359  1
  Tc  Tc31  1  0.492903  0.323271  0.625006  1
  Tc  Tc32  1  0.676249  0.508252  0.878057  1
  Tc  Tc33  1  0.323552  0.483186  0.375375  1
  Tc  Tc34  1  0.825219  0.022904  0.375895  1
  Tc  Tc35  1  0.975723  0.183677  0.131248  1
