# generated using pymatgen
data_Sc10Co8Si17Ge3
_symmetry_space_group_name_H-M   'P 1'
_cell_length_a   12.09941114
_cell_length_b   12.10522714
_cell_length_c   3.92942200
_cell_angle_alpha   90.00000000
_cell_angle_beta   90.00000000
_cell_angle_gamma   89.98239321
_symmetry_Int_Tables_number   1
_chemical_formula_structural   Sc10Co8Si17Ge3
_chemical_formula_sum   'Sc10 Co8 Si17 Ge3'
_cell_volume   575.52716771
_cell_formula_units_Z   1
loop_
 _symmetry_equiv_pos_site_id
 _symmetry_equiv_pos_as_xyz
  1  'x, y, z'
loop_
 _atom_site_type_symbol
 _atom_site_label
 _atom_site_symmetry_multiplicity
 _atom_site_fract_x
 _atom_site_fract_y
 _atom_site_fract_z
 _atom_site_occupancy
  Sc  Sc0  1  0.999123  0.000369  0.000000  1
  Sc  Sc1  1  0.500738  0.500905  0.000000  1
  Sc  Sc2  1  0.674413  0.175278  0.500000  1
  Sc  Sc3  1  0.176569  0.327216  0.500000  1
  Sc  Sc4  1  0.822366  0.675246  0.500000  1
  Sc  Sc5  1  0.327012  0.822807  0.500000  1
  Sc  Sc6  1  0.888974  0.391186  0.500000  1
  Sc  Sc7  1  0.391219  0.110410  0.500000  1
  Sc  Sc8  1  0.610938  0.888043  0.500000  1
  Sc  Sc9  1  0.110219  0.609497  0.500000  1
  Co  Co10  1  0.524317  0.254114  0.000000  1
  Co  Co11  1  0.254506  0.476175  0.000000  1
  Co  Co12  1  0.745180  0.524376  0.000000  1
  Co  Co13  1  0.476925  0.745537  0.000000  1
  Co  Co14  1  0.971786  0.753517  0.000000  1
  Co  Co15  1  0.024918  0.248939  0.000000  1
  Co  Co16  1  0.751660  0.021096  0.000000  1
  Co  Co17  1  0.248042  0.974413  0.000000  1
  Si  Si18  1  0.567914  0.068168  0.000000  1
  Si  Si19  1  0.068502  0.433204  0.000000  1
  Si  Si20  1  0.930315  0.568528  0.000000  1
  Si  Si21  1  0.432449  0.930874  0.000000  1
  Si  Si22  1  0.800829  0.842674  0.000000  1
  Si  Si23  1  0.307810  0.653196  0.000000  1
  Si  Si24  1  0.692737  0.346808  0.000000  1
  Si  Si25  1  0.656609  0.697814  0.000000  1
  Si  Si26  1  0.347246  0.307618  0.000000  1
  Si  Si27  1  0.006687  0.164207  0.500000  1
  Si  Si28  1  0.163170  0.992472  0.500000  1
  Si  Si29  1  0.834197  0.998494  0.500000  1
  Si  Si30  1  0.989159  0.837912  0.500000  1
  Si  Si31  1  0.499965  0.663438  0.500000  1
  Si  Si32  1  0.502654  0.336759  0.500000  1
  Si  Si33  1  0.663224  0.502550  0.500000  1
  Si  Si34  1  0.336841  0.498784  0.500000  1
  Ge  Ge35  1  0.202251  0.159190  0.000000  1
  Ge  Ge36  1  0.157772  0.797555  0.000000  1
  Ge  Ge37  1  0.840763  0.200632  0.000000  1
