# generated using pymatgen
data_CeHo9(Sn3N)2
_symmetry_space_group_name_H-M   'P 1'
_cell_length_a   8.91502080
_cell_length_b   8.91502213
_cell_length_c   6.41507900
_cell_angle_alpha   90.00000000
_cell_angle_beta   90.00000000
_cell_angle_gamma   120.29128832
_symmetry_Int_Tables_number   1
_chemical_formula_structural   CeHo9(Sn3N)2
_chemical_formula_sum   'Ce1 Ho9 Sn6 N2'
_cell_volume   440.24575966
_cell_formula_units_Z   1
loop_
 _symmetry_equiv_pos_site_id
 _symmetry_equiv_pos_as_xyz
  1  'x, y, z'
loop_
 _atom_site_type_symbol
 _atom_site_label
 _atom_site_symmetry_multiplicity
 _atom_site_fract_x
 _atom_site_fract_y
 _atom_site_fract_z
 _atom_site_occupancy
  Ce  Ce0  1  0.789910  0.789910  0.750000  1
  Ho  Ho1  1  0.665685  0.333118  0.000533  1
  Ho  Ho2  1  0.333118  0.665685  0.000533  1
  Ho  Ho3  1  0.333118  0.665685  0.499467  1
  Ho  Ho4  1  0.665685  0.333118  0.499467  1
  Ho  Ho5  1  0.220144  0.002393  0.750000  1
  Ho  Ho6  1  0.002393  0.220144  0.750000  1
  Ho  Ho7  1  0.216004  0.216004  0.250000  1
  Ho  Ho8  1  0.785457  0.000490  0.250000  1
  Ho  Ho9  1  0.000490  0.785457  0.250000  1
  Sn  Sn10  1  0.402973  0.402973  0.750000  1
  Sn  Sn11  1  0.595791  0.001946  0.750000  1
  Sn  Sn12  1  0.001946  0.595791  0.750000  1
  Sn  Sn13  1  0.595352  0.595352  0.250000  1
  Sn  Sn14  1  0.401997  0.999500  0.250000  1
  Sn  Sn15  1  0.999500  0.401997  0.250000  1
  N  N16  1  0.995218  0.995218  0.000511  1
  N  N17  1  0.995218  0.995218  0.499489  1
