# generated using pymatgen
data_La20Si11Au
_symmetry_space_group_name_H-M   'P 1'
_cell_length_a   7.90144500
_cell_length_b   7.90144500
_cell_length_c   14.54678000
_cell_angle_alpha   90.00000000
_cell_angle_beta   90.00000000
_cell_angle_gamma   90.00000000
_symmetry_Int_Tables_number   1
_chemical_formula_structural   La20Si11Au
_chemical_formula_sum   'La20 Si11 Au1'
_cell_volume   908.19668771
_cell_formula_units_Z   1
loop_
 _symmetry_equiv_pos_site_id
 _symmetry_equiv_pos_as_xyz
  1  'x, y, z'
loop_
 _atom_site_type_symbol
 _atom_site_label
 _atom_site_symmetry_multiplicity
 _atom_site_fract_x
 _atom_site_fract_y
 _atom_site_fract_z
 _atom_site_occupancy
  La  La0  1  0.500000  0.000000  0.777141  1
  La  La1  1  0.328793  0.314055  0.104734  1
  La  La2  1  0.828519  0.815214  0.895338  1
  La  La3  1  0.000000  0.500000  0.223643  1
  La  La4  1  0.826542  0.181247  0.393540  1
  La  La5  1  0.171481  0.184786  0.895338  1
  La  La6  1  0.671207  0.685945  0.104734  1
  La  La7  1  0.000000  0.500000  0.721341  1
  La  La8  1  0.810152  0.837064  0.607518  1
  La  La9  1  0.318753  0.326542  0.393540  1
  La  La10  1  0.185945  0.828793  0.104734  1
  La  La11  1  0.189848  0.162936  0.607518  1
  La  La12  1  0.814055  0.171207  0.104734  1
  La  La13  1  0.337064  0.689848  0.607518  1
  La  La14  1  0.500000  0.000000  0.274723  1
  La  La15  1  0.684786  0.328519  0.895338  1
  La  La16  1  0.662936  0.310152  0.607518  1
  La  La17  1  0.315214  0.671481  0.895338  1
  La  La18  1  0.173458  0.818753  0.393540  1
  La  La19  1  0.681247  0.673458  0.393540  1
  Si  Si20  1  0.613769  0.387654  0.248857  1
  Si  Si21  1  0.887495  0.114174  0.751641  1
  Si  Si22  1  0.500000  0.000000  0.494916  1
  Si  Si23  1  0.887654  0.886231  0.248857  1
  Si  Si24  1  0.000000  0.500000  0.004798  1
  Si  Si25  1  0.112505  0.885826  0.751641  1
  Si  Si26  1  0.385826  0.387495  0.751641  1
  Si  Si27  1  0.112346  0.113769  0.248857  1
  Si  Si28  1  0.386231  0.612346  0.248857  1
  Si  Si29  1  0.614174  0.612505  0.751641  1
  Si  Si30  1  0.500000  0.000000  0.995101  1
  Au  Au31  1  0.000000  0.500000  0.501816  1
