# generated using pymatgen
data_KHfMnF7
_symmetry_space_group_name_H-M   'P 1'
_cell_length_a   6.43412333
_cell_length_b   6.43412435
_cell_length_c   8.29726100
_cell_angle_alpha   90.00000000
_cell_angle_beta   90.00000000
_cell_angle_gamma   117.03452980
_symmetry_Int_Tables_number   1
_chemical_formula_structural   KHfMnF7
_chemical_formula_sum   'K2 Hf2 Mn2 F14'
_cell_volume   305.95743309
_cell_formula_units_Z   2
loop_
 _symmetry_equiv_pos_site_id
 _symmetry_equiv_pos_as_xyz
  1  'x, y, z'
loop_
 _atom_site_type_symbol
 _atom_site_label
 _atom_site_symmetry_multiplicity
 _atom_site_fract_x
 _atom_site_fract_y
 _atom_site_fract_z
 _atom_site_occupancy
  K  K0  1  0.500000  0.500000  0.500000  1
  K  K1  1  0.500000  0.500000  0.000000  1
  Hf  Hf2  1  0.807375  0.192625  0.250000  1
  Hf  Hf3  1  0.192625  0.807375  0.750000  1
  Mn  Mn4  1  0.189998  0.810002  0.250000  1
  Mn  Mn5  1  0.810002  0.189998  0.750000  1
  F  F6  1  0.842181  0.557763  0.750000  1
  F  F7  1  0.157819  0.442237  0.250000  1
  F  F8  1  0.169409  0.469712  0.750000  1
  F  F9  1  0.799498  0.200502  0.492619  1
  F  F10  1  0.442237  0.157819  0.750000  1
  F  F11  1  0.799498  0.200502  0.007381  1
  F  F12  1  0.200502  0.799498  0.992619  1
  F  F13  1  0.830591  0.530288  0.250000  1
  F  F14  1  0.557763  0.842181  0.250000  1
  F  F15  1  0.992901  0.007099  0.250000  1
  F  F16  1  0.007099  0.992901  0.750000  1
  F  F17  1  0.200502  0.799498  0.507381  1
  F  F18  1  0.530288  0.830591  0.750000  1
  F  F19  1  0.469712  0.169409  0.250000  1
