# generated using pymatgen
data_HoLu3(Si2Tc)2
_symmetry_space_group_name_H-M   'P 1'
_cell_length_a   5.70094021
_cell_length_b   5.70094044
_cell_length_c   9.92559962
_cell_angle_alpha   63.99633993
_cell_angle_beta   63.99633946
_cell_angle_gamma   42.77279395
_symmetry_Int_Tables_number   1
_chemical_formula_structural   HoLu3(Si2Tc)2
_chemical_formula_sum   'Ho1 Lu3 Si4 Tc2'
_cell_volume   193.26465429
_cell_formula_units_Z   1
loop_
 _symmetry_equiv_pos_site_id
 _symmetry_equiv_pos_as_xyz
  1  'x, y, z'
loop_
 _atom_site_type_symbol
 _atom_site_label
 _atom_site_symmetry_multiplicity
 _atom_site_fract_x
 _atom_site_fract_y
 _atom_site_fract_z
 _atom_site_occupancy
  Ho  Ho0  1  0.188590  0.188590  0.892003  1
  Lu  Lu1  1  0.004175  0.004175  0.323636  1
  Lu  Lu2  1  0.995915  0.995915  0.676136  1
  Lu  Lu3  1  0.812583  0.812583  0.110247  1
  Si  Si4  1  0.639856  0.639856  0.439074  1
  Si  Si5  1  0.360577  0.360577  0.559515  1
  Si  Si6  1  0.502611  0.502611  0.122676  1
  Si  Si7  1  0.496066  0.496066  0.878023  1
  Tc  Tc8  1  0.728578  0.728578  0.629663  1
  Tc  Tc9  1  0.271049  0.271049  0.369029  1
