# generated using pymatgen
data_CsFe(PO3)4
_symmetry_space_group_name_H-M   'P 1'
_cell_length_a   10.75330314
_cell_length_b   10.75330331
_cell_length_c   5.28267300
_cell_angle_alpha   80.60883876
_cell_angle_beta   80.60882782
_cell_angle_gamma   72.85283590
_symmetry_Int_Tables_number   1
_chemical_formula_structural   CsFe(PO3)4
_chemical_formula_sum   'Cs2 Fe2 P8 O24'
_cell_volume   571.57329798
_cell_formula_units_Z   2
loop_
 _symmetry_equiv_pos_site_id
 _symmetry_equiv_pos_as_xyz
  1  'x, y, z'
loop_
 _atom_site_type_symbol
 _atom_site_label
 _atom_site_symmetry_multiplicity
 _atom_site_fract_x
 _atom_site_fract_y
 _atom_site_fract_z
 _atom_site_occupancy
  Cs  Cs0  1  0.398929  0.398929  0.764038  1
  Cs  Cs1  1  0.601071  0.601071  0.235962  1
  Fe  Fe2  1  0.500000  0.000000  0.000000  1
  Fe  Fe3  1  0.000000  0.500000  0.000000  1
  P  P4  1  0.809719  0.344476  0.839862  1
  P  P5  1  0.072367  0.307967  0.538154  1
  P  P6  1  0.307967  0.072367  0.538154  1
  P  P7  1  0.655524  0.190281  0.160138  1
  P  P8  1  0.344476  0.809719  0.839862  1
  P  P9  1  0.692033  0.927633  0.461846  1
  P  P10  1  0.927633  0.692033  0.461846  1
  P  P11  1  0.190281  0.655524  0.160138  1
  O  O12  1  0.411816  0.860896  0.016151  1
  O  O13  1  0.396778  0.099833  0.704213  1
  O  O14  1  0.420450  0.691453  0.717616  1
  O  O15  1  0.139104  0.588184  0.983849  1
  O  O16  1  0.588184  0.139104  0.983849  1
  O  O17  1  0.908626  0.653300  0.748911  1
  O  O18  1  0.206865  0.793135  0.000000  1
  O  O19  1  0.579550  0.308547  0.282384  1
  O  O20  1  0.603222  0.900167  0.295787  1
  O  O21  1  0.714913  0.069299  0.374867  1
  O  O22  1  0.308547  0.579550  0.282384  1
  O  O23  1  0.900167  0.603222  0.295787  1
  O  O24  1  0.860896  0.411816  0.016151  1
  O  O25  1  0.069299  0.714913  0.374867  1
  O  O26  1  0.160727  0.160727  0.605820  1
  O  O27  1  0.099833  0.396778  0.704213  1
  O  O28  1  0.691453  0.420450  0.717616  1
  O  O29  1  0.285087  0.930701  0.625133  1
  O  O30  1  0.793135  0.206865  0.000000  1
  O  O31  1  0.346700  0.091374  0.251089  1
  O  O32  1  0.653300  0.908626  0.748911  1
  O  O33  1  0.839273  0.839273  0.394180  1
  O  O34  1  0.930701  0.285087  0.625133  1
  O  O35  1  0.091374  0.346700  0.251089  1
