# generated using pymatgen
data_PaSb(As2Cl13)2
_symmetry_space_group_name_H-M   'P 1'
_cell_length_a   9.97871769
_cell_length_b   9.97871786
_cell_length_c   12.29104242
_cell_angle_alpha   90.09797956
_cell_angle_beta   89.90201937
_cell_angle_gamma   113.63409067
_symmetry_Int_Tables_number   1
_chemical_formula_structural   PaSb(As2Cl13)2
_chemical_formula_sum   'Pa1 Sb1 As4 Cl26'
_cell_volume   1121.22229000
_cell_formula_units_Z   1
loop_
 _symmetry_equiv_pos_site_id
 _symmetry_equiv_pos_as_xyz
  1  'x, y, z'
loop_
 _atom_site_type_symbol
 _atom_site_label
 _atom_site_symmetry_multiplicity
 _atom_site_fract_x
 _atom_site_fract_y
 _atom_site_fract_z
 _atom_site_occupancy
  Pa  Pa0  1  0.790629  0.209371  0.001109  1
  Sb  Sb1  1  0.209791  0.790209  0.500907  1
  As  As2  1  0.551406  0.448594  0.849297  1
  As  As3  1  0.856807  0.143193  0.538544  1
  As  As4  1  0.447900  0.552100  0.349658  1
  As  As5  1  0.143555  0.856445  0.037770  1
  Cl  Cl6  1  0.071826  0.241552  0.597990  1
  Cl  Cl7  1  0.312967  0.378714  0.869071  1
  Cl  Cl8  1  0.331257  0.668743  0.606741  1
  Cl  Cl9  1  0.661680  0.338320  0.112996  1
  Cl  Cl10  1  0.089800  0.910200  0.391518  1
  Cl  Cl11  1  0.917832  0.082168  0.884736  1
  Cl  Cl12  1  0.309424  0.002318  0.616821  1
  Cl  Cl13  1  0.685243  0.984927  0.124212  1
  Cl  Cl14  1  0.997682  0.690576  0.616821  1
  Cl  Cl15  1  0.015073  0.314757  0.124212  1
  Cl  Cl16  1  0.422943  0.891163  0.383818  1
  Cl  Cl17  1  0.564080  0.103191  0.877391  1
  Cl  Cl18  1  0.108837  0.577057  0.383818  1
  Cl  Cl19  1  0.896809  0.435920  0.877391  1
  Cl  Cl20  1  0.621286  0.687033  0.869071  1
  Cl  Cl21  1  0.241207  0.071652  0.098246  1
  Cl  Cl22  1  0.758448  0.928174  0.597990  1
  Cl  Cl23  1  0.928348  0.758793  0.098246  1
  Cl  Cl24  1  0.736595  0.263405  0.591061  1
  Cl  Cl25  1  0.263461  0.736539  0.091361  1
  Cl  Cl26  1  0.859999  0.140001  0.367235  1
  Cl  Cl27  1  0.140607  0.859393  0.866437  1
  Cl  Cl28  1  0.558467  0.441533  0.667259  1
  Cl  Cl29  1  0.440921  0.559079  0.167458  1
  Cl  Cl30  1  0.378488  0.313367  0.369206  1
  Cl  Cl31  1  0.686633  0.621512  0.369206  1
