# generated using pymatgen
data_Y7Ho13(Cd3Os)2
_symmetry_space_group_name_H-M   'P 1'
_cell_length_a   9.58930500
_cell_length_b   9.58930498
_cell_length_c   9.84475200
_cell_angle_alpha   90.00000000
_cell_angle_beta   90.00000000
_cell_angle_gamma   119.99999662
_symmetry_Int_Tables_number   1
_chemical_formula_structural   Y7Ho13(Cd3Os)2
_chemical_formula_sum   'Y7 Ho13 Cd6 Os2'
_cell_volume   783.98849613
_cell_formula_units_Z   1
loop_
 _symmetry_equiv_pos_site_id
 _symmetry_equiv_pos_as_xyz
  1  'x, y, z'
loop_
 _atom_site_type_symbol
 _atom_site_label
 _atom_site_symmetry_multiplicity
 _atom_site_fract_x
 _atom_site_fract_y
 _atom_site_fract_z
 _atom_site_occupancy
  Y  Y0  1  0.000000  0.000000  0.000000  1
  Y  Y1  1  0.540189  0.459811  0.250007  1
  Y  Y2  1  0.540189  0.080379  0.250007  1
  Y  Y3  1  0.919621  0.459811  0.250007  1
  Y  Y4  1  0.459811  0.540189  0.749993  1
  Y  Y5  1  0.459811  0.919621  0.749993  1
  Y  Y6  1  0.080379  0.540189  0.749993  1
  Ho  Ho7  1  0.000000  0.000000  0.500000  1
  Ho  Ho8  1  0.209778  0.790222  0.440042  1
  Ho  Ho9  1  0.209778  0.419555  0.440042  1
  Ho  Ho10  1  0.580445  0.790222  0.440042  1
  Ho  Ho11  1  0.790222  0.209778  0.559958  1
  Ho  Ho12  1  0.790222  0.580445  0.559958  1
  Ho  Ho13  1  0.419555  0.209778  0.559958  1
  Ho  Ho14  1  0.790154  0.209846  0.940004  1
  Ho  Ho15  1  0.790154  0.580307  0.940004  1
  Ho  Ho16  1  0.419693  0.209846  0.940004  1
  Ho  Ho17  1  0.209846  0.790154  0.059996  1
  Ho  Ho18  1  0.209846  0.419693  0.059996  1
  Ho  Ho19  1  0.580307  0.790154  0.059996  1
  Cd  Cd20  1  0.885460  0.114540  0.250078  1
  Cd  Cd21  1  0.885460  0.770922  0.250078  1
  Cd  Cd22  1  0.229078  0.114540  0.250078  1
  Cd  Cd23  1  0.114540  0.885460  0.749922  1
  Cd  Cd24  1  0.114540  0.229078  0.749922  1
  Cd  Cd25  1  0.770922  0.885460  0.749922  1
  Os  Os26  1  0.333333  0.666667  0.250004  1
  Os  Os27  1  0.666667  0.333333  0.749996  1
