# generated using pymatgen
data_Ba4Ca(IO6)2
_symmetry_space_group_name_H-M   'P 1'
_cell_length_a   10.28811166
_cell_length_b   10.28811164
_cell_length_c   10.28811273
_cell_angle_alpha   33.37697359
_cell_angle_beta   33.37697268
_cell_angle_gamma   33.37697787
_symmetry_Int_Tables_number   1
_chemical_formula_structural   Ba4Ca(IO6)2
_chemical_formula_sum   'Ba4 Ca1 I2 O12'
_cell_volume   293.47841076
_cell_formula_units_Z   1
loop_
 _symmetry_equiv_pos_site_id
 _symmetry_equiv_pos_as_xyz
  1  'x, y, z'
loop_
 _atom_site_type_symbol
 _atom_site_label
 _atom_site_symmetry_multiplicity
 _atom_site_fract_x
 _atom_site_fract_y
 _atom_site_fract_z
 _atom_site_occupancy
  Ba  Ba0  1  0.712302  0.712302  0.712302  1
  Ba  Ba1  1  0.287698  0.287698  0.287698  1
  Ba  Ba2  1  0.865572  0.865572  0.865572  1
  Ba  Ba3  1  0.134428  0.134428  0.134428  1
  Ca  Ca4  1  0.000000  0.000000  0.000000  1
  I  I5  1  0.581117  0.581117  0.581117  1
  I  I6  1  0.418883  0.418883  0.418883  1
  O  O7  1  0.227601  0.682222  0.227601  1
  O  O8  1  0.227601  0.227601  0.682222  1
  O  O9  1  0.682222  0.227601  0.227601  1
  O  O10  1  0.772399  0.317778  0.772399  1
  O  O11  1  0.772399  0.772399  0.317778  1
  O  O12  1  0.317778  0.772399  0.772399  1
  O  O13  1  0.389772  0.861421  0.389772  1
  O  O14  1  0.389772  0.389772  0.861421  1
  O  O15  1  0.861421  0.389772  0.389772  1
  O  O16  1  0.610228  0.138579  0.610228  1
  O  O17  1  0.610228  0.610228  0.138579  1
  O  O18  1  0.138579  0.610228  0.610228  1
