# generated using pymatgen
data_Ce9ThSn8
_symmetry_space_group_name_H-M   'P 1'
_cell_length_a   9.58800500
_cell_length_b   9.58800347
_cell_length_c   6.52174100
_cell_angle_alpha   90.00000000
_cell_angle_beta   90.00000000
_cell_angle_gamma   119.99999493
_symmetry_Int_Tables_number   1
_chemical_formula_structural   Ce9ThSn8
_chemical_formula_sum   'Ce9 Th1 Sn8'
_cell_volume   519.21907096
_cell_formula_units_Z   1
loop_
 _symmetry_equiv_pos_site_id
 _symmetry_equiv_pos_as_xyz
  1  'x, y, z'
loop_
 _atom_site_type_symbol
 _atom_site_label
 _atom_site_symmetry_multiplicity
 _atom_site_fract_x
 _atom_site_fract_y
 _atom_site_fract_z
 _atom_site_occupancy
  Ce  Ce0  1  0.333333  0.666667  0.000000  1
  Ce  Ce1  1  0.666667  0.333333  0.500000  1
  Ce  Ce2  1  0.666667  0.333333  0.000000  1
  Ce  Ce3  1  0.281011  0.002798  0.249261  1
  Ce  Ce4  1  0.281011  0.278213  0.750739  1
  Ce  Ce5  1  0.997202  0.718989  0.750739  1
  Ce  Ce6  1  0.997202  0.278213  0.249261  1
  Ce  Ce7  1  0.721787  0.718989  0.249261  1
  Ce  Ce8  1  0.721787  0.002798  0.750739  1
  Th  Th9  1  0.333333  0.666667  0.500000  1
  Sn  Sn10  1  0.000000  0.000000  0.000000  1
  Sn  Sn11  1  0.000000  0.000000  0.500000  1
  Sn  Sn12  1  0.621268  0.995960  0.252095  1
  Sn  Sn13  1  0.621268  0.625308  0.747905  1
  Sn  Sn14  1  0.004040  0.378732  0.747905  1
  Sn  Sn15  1  0.004040  0.625308  0.252095  1
  Sn  Sn16  1  0.374692  0.378732  0.252095  1
  Sn  Sn17  1  0.374692  0.995960  0.747905  1
