# generated using pymatgen
data_TmSb3Pb4O13
_symmetry_space_group_name_H-M   'P 1'
_cell_length_a   7.65210638
_cell_length_b   7.65210648
_cell_length_c   7.65210607
_cell_angle_alpha   59.82532811
_cell_angle_beta   59.82532738
_cell_angle_gamma   59.82532302
_symmetry_Int_Tables_number   1
_chemical_formula_structural   TmSb3Pb4O13
_chemical_formula_sum   'Tm1 Sb3 Pb4 O13'
_cell_volume   315.57511648
_cell_formula_units_Z   1
loop_
 _symmetry_equiv_pos_site_id
 _symmetry_equiv_pos_as_xyz
  1  'x, y, z'
loop_
 _atom_site_type_symbol
 _atom_site_label
 _atom_site_symmetry_multiplicity
 _atom_site_fract_x
 _atom_site_fract_y
 _atom_site_fract_z
 _atom_site_occupancy
  Tm  Tm0  1  0.499914  0.499914  0.499914  1
  Sb  Sb1  1  0.001116  0.499918  0.499918  1
  Sb  Sb2  1  0.499918  0.499918  0.001116  1
  Sb  Sb3  1  0.499918  0.001116  0.499918  1
  Pb  Pb4  1  0.998721  0.998721  0.998721  1
  Pb  Pb5  1  0.498871  0.001668  0.001668  1
  Pb  Pb6  1  0.001668  0.001668  0.498871  1
  Pb  Pb7  1  0.001668  0.498871  0.001668  1
  O  O8  1  0.849946  0.418966  0.418966  1
  O  O9  1  0.420659  0.817334  0.817334  1
  O  O10  1  0.418966  0.418966  0.849946  1
  O  O11  1  0.817334  0.817334  0.420659  1
  O  O12  1  0.817334  0.420659  0.817334  1
  O  O13  1  0.418966  0.849946  0.418966  1
  O  O14  1  0.154575  0.578338  0.578338  1
  O  O15  1  0.578721  0.184110  0.184110  1
  O  O16  1  0.578338  0.578338  0.154575  1
  O  O17  1  0.184110  0.184110  0.578721  1
  O  O18  1  0.184110  0.578721  0.184110  1
  O  O19  1  0.578338  0.154575  0.578338  1
  O  O20  1  0.121805  0.121805  0.121805  1
