# generated using pymatgen
data_Tb2Er4Co17P12Ru
_symmetry_space_group_name_H-M   'P 1'
_cell_length_a   3.68865800
_cell_length_b   10.49729400
_cell_length_c   12.19247400
_cell_angle_alpha   90.00000000
_cell_angle_beta   90.00000000
_cell_angle_gamma   90.00000000
_symmetry_Int_Tables_number   1
_chemical_formula_structural   Tb2Er4Co17P12Ru
_chemical_formula_sum   'Tb2 Er4 Co17 P12 Ru1'
_cell_volume   472.10390170
_cell_formula_units_Z   1
loop_
 _symmetry_equiv_pos_site_id
 _symmetry_equiv_pos_as_xyz
  1  'x, y, z'
loop_
 _atom_site_type_symbol
 _atom_site_label
 _atom_site_symmetry_multiplicity
 _atom_site_fract_x
 _atom_site_fract_y
 _atom_site_fract_z
 _atom_site_occupancy
  Tb  Tb0  1  0.750000  0.250000  0.474717  1
  Tb  Tb1  1  0.250000  0.750000  0.522126  1
  Er  Er2  1  0.250000  0.932268  0.793100  1
  Er  Er3  1  0.250000  0.567732  0.793100  1
  Er  Er4  1  0.750000  0.067172  0.206157  1
  Er  Er5  1  0.750000  0.432828  0.206157  1
  Co  Co6  1  0.750000  0.750000  0.160320  1
  Co  Co7  1  0.250000  0.250000  0.295469  1
  Co  Co8  1  0.750000  0.750000  0.705062  1
  Co  Co9  1  0.750000  0.250000  0.012877  1
  Co  Co10  1  0.250000  0.750000  0.985842  1
  Co  Co11  1  0.250000  0.418011  0.008918  1
  Co  Co12  1  0.250000  0.081989  0.008918  1
  Co  Co13  1  0.750000  0.583442  0.994524  1
  Co  Co14  1  0.750000  0.916558  0.994524  1
  Co  Co15  1  0.250000  0.452943  0.569602  1
  Co  Co16  1  0.250000  0.047057  0.569602  1
  Co  Co17  1  0.750000  0.546939  0.431067  1
  Co  Co18  1  0.750000  0.953061  0.431067  1
  Co  Co19  1  0.250000  0.871291  0.290883  1
  Co  Co20  1  0.250000  0.628709  0.290883  1
  Co  Co21  1  0.750000  0.128724  0.708166  1
  Co  Co22  1  0.750000  0.371276  0.708166  1
  P  P23  1  0.250000  0.250000  0.118304  1
  P  P24  1  0.750000  0.750000  0.882856  1
  P  P25  1  0.250000  0.250000  0.649441  1
  P  P26  1  0.750000  0.750000  0.344499  1
  P  P27  1  0.250000  0.439210  0.383041  1
  P  P28  1  0.250000  0.060790  0.383041  1
  P  P29  1  0.750000  0.561828  0.616334  1
  P  P30  1  0.750000  0.938172  0.616334  1
  P  P31  1  0.250000  0.901102  0.108504  1
  P  P32  1  0.250000  0.598898  0.108504  1
  P  P33  1  0.750000  0.094334  0.893819  1
  P  P34  1  0.750000  0.405666  0.893819  1
  Ru  Ru35  1  0.250000  0.250000  0.840257  1
