# generated using pymatgen
data_Lu12CdNi4Ru
_symmetry_space_group_name_H-M   'P 1'
_cell_length_a   8.10345501
_cell_length_b   8.10345575
_cell_length_c   8.10345448
_cell_angle_alpha   110.88622532
_cell_angle_beta   110.58980758
_cell_angle_gamma   106.96642634
_symmetry_Int_Tables_number   1
_chemical_formula_structural   Lu12CdNi4Ru
_chemical_formula_sum   'Lu12 Cd1 Ni4 Ru1'
_cell_volume   409.04047430
_cell_formula_units_Z   1
loop_
 _symmetry_equiv_pos_site_id
 _symmetry_equiv_pos_as_xyz
  1  'x, y, z'
loop_
 _atom_site_type_symbol
 _atom_site_label
 _atom_site_symmetry_multiplicity
 _atom_site_fract_x
 _atom_site_fract_y
 _atom_site_fract_z
 _atom_site_occupancy
  Lu  Lu0  1  0.417346  0.226714  0.190633  1
  Lu  Lu1  1  0.582654  0.773286  0.809367  1
  Lu  Lu2  1  0.036081  0.226714  0.809367  1
  Lu  Lu3  1  0.963919  0.773286  0.190633  1
  Lu  Lu4  1  0.180507  0.278047  0.458554  1
  Lu  Lu5  1  0.819493  0.721953  0.541446  1
  Lu  Lu6  1  0.180507  0.721953  0.902460  1
  Lu  Lu7  1  0.819493  0.278047  0.097540  1
  Lu  Lu8  1  0.323065  0.627853  0.304788  1
  Lu  Lu9  1  0.676935  0.372147  0.695212  1
  Lu  Lu10  1  0.323065  0.018277  0.695212  1
  Lu  Lu11  1  0.676935  0.981723  0.304788  1
  Cd  Cd12  1  0.500000  0.500000  0.000000  1
  Ni  Ni13  1  0.354278  0.000000  0.354278  1
  Ni  Ni14  1  0.645722  0.000000  0.645722  1
  Ni  Ni15  1  0.119818  0.619818  0.500000  1
  Ni  Ni16  1  0.880182  0.380182  0.500000  1
  Ru  Ru17  1  0.000000  0.000000  0.000000  1
