# generated using pymatgen
data_Ce3Pr4O12
_symmetry_space_group_name_H-M   'P 1'
_cell_length_a   6.85753446
_cell_length_b   6.83592358
_cell_length_c   6.79379388
_cell_angle_alpha   99.63523828
_cell_angle_beta   99.03667151
_cell_angle_gamma   99.66728846
_symmetry_Int_Tables_number   1
_chemical_formula_structural   Ce3Pr4O12
_chemical_formula_sum   'Ce3 Pr4 O12'
_cell_volume   303.85525240
_cell_formula_units_Z   1
loop_
 _symmetry_equiv_pos_site_id
 _symmetry_equiv_pos_as_xyz
  1  'x, y, z'
loop_
 _atom_site_type_symbol
 _atom_site_label
 _atom_site_symmetry_multiplicity
 _atom_site_fract_x
 _atom_site_fract_y
 _atom_site_fract_z
 _atom_site_occupancy
  Ce  Ce0  1  0.603007  0.139846  0.304510  1
  Ce  Ce1  1  0.302947  0.603994  0.138845  1
  Ce  Ce2  1  0.000819  0.002073  0.004338  1
  Pr  Pr3  1  0.861223  0.698027  0.392704  1
  Pr  Pr4  1  0.394717  0.863060  0.697554  1
  Pr  Pr5  1  0.698617  0.393533  0.860124  1
  Pr  Pr6  1  0.138338  0.298660  0.606069  1
  O  O7  1  0.065717  0.935073  0.687643  1
  O  O8  1  0.687229  0.065127  0.935662  1
  O  O9  1  0.938420  0.685908  0.062032  1
  O  O10  1  0.923632  0.065374  0.314013  1
  O  O11  1  0.319856  0.937971  0.079121  1
  O  O12  1  0.075986  0.322451  0.948434  1
  O  O13  1  0.561177  0.828426  0.398787  1
  O  O14  1  0.188602  0.582700  0.420721  1
  O  O15  1  0.567853  0.423254  0.184970  1
  O  O16  1  0.440140  0.179644  0.570570  1
  O  O17  1  0.820227  0.406233  0.554584  1
  O  O18  1  0.411491  0.568646  0.839319  1
