# generated using pymatgen
data_YbEr3Al17SiIr6
_symmetry_space_group_name_H-M   'P 1'
_cell_length_a   7.54519402
_cell_length_b   7.53758783
_cell_length_c   9.41441000
_cell_angle_alpha   90.00000000
_cell_angle_beta   90.00000000
_cell_angle_gamma   119.60990918
_symmetry_Int_Tables_number   1
_chemical_formula_structural   YbEr3Al17SiIr6
_chemical_formula_sum   'Yb1 Er3 Al17 Si1 Ir6'
_cell_volume   465.50063960
_cell_formula_units_Z   1
loop_
 _symmetry_equiv_pos_site_id
 _symmetry_equiv_pos_as_xyz
  1  'x, y, z'
loop_
 _atom_site_type_symbol
 _atom_site_label
 _atom_site_symmetry_multiplicity
 _atom_site_fract_x
 _atom_site_fract_y
 _atom_site_fract_z
 _atom_site_occupancy
  Yb  Yb0  1  0.323817  0.007177  0.750000  1
  Er  Er1  1  0.998114  0.670978  0.250000  1
  Er  Er2  1  0.006441  0.322830  0.750000  1
  Er  Er3  1  0.668304  0.996000  0.250000  1
  Al  Al4  1  0.125920  0.125659  0.250000  1
  Al  Al5  1  0.001142  0.334243  0.073983  1
  Al  Al6  1  0.000169  0.664192  0.924842  1
  Al  Al7  1  0.000169  0.664192  0.575158  1
  Al  Al8  1  0.334406  0.001859  0.427430  1
  Al  Al9  1  0.001142  0.334243  0.426017  1
  Al  Al10  1  0.662084  0.998723  0.575683  1
  Al  Al11  1  0.662084  0.998723  0.924317  1
  Al  Al12  1  0.334406  0.001859  0.072570  1
  Al  Al13  1  0.336709  0.336117  0.551409  1
  Al  Al14  1  0.668000  0.667790  0.443114  1
  Al  Al15  1  0.668000  0.667790  0.056886  1
  Al  Al16  1  0.336709  0.336117  0.948591  1
  Al  Al17  1  0.337668  0.546745  0.250000  1
  Al  Al18  1  0.666264  0.452071  0.750000  1
  Al  Al19  1  0.547505  0.337229  0.250000  1
  Al  Al20  1  0.450419  0.662280  0.750000  1
  Si  Si21  1  0.865466  0.867473  0.750000  1
  Ir  Ir22  1  0.674880  0.330768  0.000700  1
  Ir  Ir23  1  0.329545  0.672818  0.001084  1
  Ir  Ir24  1  0.329545  0.672818  0.498916  1
  Ir  Ir25  1  0.674880  0.330768  0.499300  1
  Ir  Ir26  1  0.998107  0.999267  0.993920  1
  Ir  Ir27  1  0.998107  0.999267  0.506080  1
