# generated using pymatgen
data_Tb3Si2ClO8
_symmetry_space_group_name_H-M   'P 1'
_cell_length_a   6.85956600
_cell_length_b   17.70909100
_cell_length_c   6.18069600
_cell_angle_alpha   90.00000000
_cell_angle_beta   90.00000000
_cell_angle_gamma   90.00000000
_symmetry_Int_Tables_number   1
_chemical_formula_structural   Tb3Si2ClO8
_chemical_formula_sum   'Tb12 Si8 Cl4 O32'
_cell_volume   750.81042099
_cell_formula_units_Z   4
loop_
 _symmetry_equiv_pos_site_id
 _symmetry_equiv_pos_as_xyz
  1  'x, y, z'
loop_
 _atom_site_type_symbol
 _atom_site_label
 _atom_site_symmetry_multiplicity
 _atom_site_fract_x
 _atom_site_fract_y
 _atom_site_fract_z
 _atom_site_occupancy
  Tb  Tb0  1  0.705443  0.750000  0.113609  1
  Tb  Tb1  1  0.014966  0.091499  0.127006  1
  Tb  Tb2  1  0.014966  0.408502  0.127006  1
  Tb  Tb3  1  0.514966  0.091499  0.372994  1
  Tb  Tb4  1  0.514966  0.408502  0.372994  1
  Tb  Tb5  1  0.205444  0.750000  0.386391  1
  Tb  Tb6  1  0.794557  0.250000  0.613610  1
  Tb  Tb7  1  0.485035  0.591498  0.627006  1
  Tb  Tb8  1  0.485035  0.908501  0.627006  1
  Tb  Tb9  1  0.985034  0.591498  0.872995  1
  Tb  Tb10  1  0.985034  0.908501  0.872995  1
  Tb  Tb11  1  0.294557  0.250000  0.886391  1
  Si  Si12  1  0.476306  0.599639  0.122346  1
  Si  Si13  1  0.476306  0.900361  0.122346  1
  Si  Si14  1  0.976305  0.599639  0.377655  1
  Si  Si15  1  0.976305  0.900361  0.377655  1
  Si  Si16  1  0.023695  0.099639  0.622346  1
  Si  Si17  1  0.023695  0.400361  0.622346  1
  Si  Si18  1  0.523695  0.099639  0.877655  1
  Si  Si19  1  0.523695  0.400361  0.877655  1
  Cl  Cl20  1  0.042972  0.250000  0.240659  1
  Cl  Cl21  1  0.542972  0.250000  0.259341  1
  Cl  Cl22  1  0.457027  0.750000  0.740658  1
  Cl  Cl23  1  0.957028  0.750000  0.759342  1
  O  O24  1  0.332689  0.118757  0.031654  1
  O  O25  1  0.332689  0.381243  0.031654  1
  O  O26  1  0.697969  0.095219  0.053596  1
  O  O27  1  0.697969  0.404781  0.053596  1
  O  O28  1  0.988214  0.529691  0.209996  1
  O  O29  1  0.988214  0.970309  0.209996  1
  O  O30  1  0.966821  0.676023  0.220879  1
  O  O31  1  0.966821  0.823978  0.220879  1
  O  O32  1  0.466821  0.676023  0.279121  1
  O  O33  1  0.466821  0.823978  0.279121  1
  O  O34  1  0.488213  0.529691  0.290004  1
  O  O35  1  0.488213  0.970309  0.290004  1
  O  O36  1  0.197968  0.095219  0.446404  1
  O  O37  1  0.197968  0.404781  0.446404  1
  O  O38  1  0.832688  0.118757  0.468347  1
  O  O39  1  0.832688  0.381243  0.468347  1
  O  O40  1  0.167313  0.618757  0.531654  1
  O  O41  1  0.167313  0.881243  0.531654  1
  O  O42  1  0.802031  0.595219  0.553595  1
  O  O43  1  0.802031  0.904781  0.553595  1
  O  O44  1  0.511786  0.029691  0.709996  1
  O  O45  1  0.511786  0.470309  0.709996  1
  O  O46  1  0.533179  0.176022  0.720879  1
  O  O47  1  0.533179  0.323978  0.720879  1
  O  O48  1  0.033180  0.176022  0.779122  1
  O  O49  1  0.033180  0.323978  0.779122  1
  O  O50  1  0.011786  0.029691  0.790005  1
  O  O51  1  0.011786  0.470309  0.790005  1
  O  O52  1  0.302031  0.595219  0.946405  1
  O  O53  1  0.302031  0.904781  0.946405  1
  O  O54  1  0.667312  0.618757  0.968345  1
  O  O55  1  0.667312  0.881243  0.968345  1
