# generated using pymatgen
data_Na3As(CO3)3
_symmetry_space_group_name_H-M   'P 1'
_cell_length_a   6.80479139
_cell_length_b   6.80479115
_cell_length_c   10.22279500
_cell_angle_alpha   90.00000000
_cell_angle_beta   90.00000000
_cell_angle_gamma   112.80337093
_symmetry_Int_Tables_number   1
_chemical_formula_structural   Na3As(CO3)3
_chemical_formula_sum   'Na6 As2 C6 O18'
_cell_volume   436.37009735
_cell_formula_units_Z   2
loop_
 _symmetry_equiv_pos_site_id
 _symmetry_equiv_pos_as_xyz
  1  'x, y, z'
loop_
 _atom_site_type_symbol
 _atom_site_label
 _atom_site_symmetry_multiplicity
 _atom_site_fract_x
 _atom_site_fract_y
 _atom_site_fract_z
 _atom_site_occupancy
  Na  Na0  1  0.067214  0.067214  0.000000  1
  Na  Na1  1  0.370276  0.391022  0.250000  1
  Na  Na2  1  0.148947  0.721781  0.250000  1
  Na  Na3  1  0.067214  0.067214  0.500000  1
  Na  Na4  1  0.721781  0.148947  0.750000  1
  Na  Na5  1  0.391022  0.370276  0.750000  1
  As  As6  1  0.685084  0.138510  0.250000  1
  As  As7  1  0.138510  0.685084  0.750000  1
  C  C8  1  0.555001  0.139696  0.005547  1
  C  C9  1  0.771320  0.789138  0.250000  1
  C  C10  1  0.555001  0.139696  0.494453  1
  C  C11  1  0.139696  0.555001  0.505547  1
  C  C12  1  0.789138  0.771320  0.750000  1
  C  C13  1  0.139696  0.555001  0.994453  1
  O  O14  1  0.730005  0.113125  0.001056  1
  O  O15  1  0.469562  0.134033  0.128363  1
  O  O16  1  0.170164  0.451948  0.089513  1
  O  O17  1  0.737130  0.594423  0.250000  1
  O  O18  1  0.953337  0.945689  0.250000  1
  O  O19  1  0.593137  0.841026  0.250000  1
  O  O20  1  0.170164  0.451948  0.410487  1
  O  O21  1  0.469562  0.134033  0.371637  1
  O  O22  1  0.730005  0.113125  0.498944  1
  O  O23  1  0.113125  0.730005  0.501056  1
  O  O24  1  0.134033  0.469562  0.628363  1
  O  O25  1  0.451948  0.170164  0.589513  1
  O  O26  1  0.841026  0.593137  0.750000  1
  O  O27  1  0.594423  0.737130  0.750000  1
  O  O28  1  0.945689  0.953337  0.750000  1
  O  O29  1  0.451948  0.170164  0.910487  1
  O  O30  1  0.134033  0.469562  0.871637  1
  O  O31  1  0.113125  0.730005  0.998944  1
