# generated using pymatgen
data_Nd10Sn3Bi3N2
_symmetry_space_group_name_H-M   'P 1'
_cell_length_a   9.34449700
_cell_length_b   9.34449693
_cell_length_c   6.62618500
_cell_angle_alpha   90.00000000
_cell_angle_beta   90.00000000
_cell_angle_gamma   119.99999669
_symmetry_Int_Tables_number   1
_chemical_formula_structural   Nd10Sn3Bi3N2
_chemical_formula_sum   'Nd10 Sn3 Bi3 N2'
_cell_volume   501.07883380
_cell_formula_units_Z   1
loop_
 _symmetry_equiv_pos_site_id
 _symmetry_equiv_pos_as_xyz
  1  'x, y, z'
loop_
 _atom_site_type_symbol
 _atom_site_label
 _atom_site_symmetry_multiplicity
 _atom_site_fract_x
 _atom_site_fract_y
 _atom_site_fract_z
 _atom_site_occupancy
  Nd  Nd0  1  0.666667  0.333333  0.004753  1
  Nd  Nd1  1  0.333333  0.666667  0.004753  1
  Nd  Nd2  1  0.333333  0.666667  0.495247  1
  Nd  Nd3  1  0.666667  0.333333  0.495247  1
  Nd  Nd4  1  0.785278  0.785278  0.750000  1
  Nd  Nd5  1  0.214722  0.000000  0.750000  1
  Nd  Nd6  1  0.000000  0.214722  0.750000  1
  Nd  Nd7  1  0.214370  0.214370  0.250000  1
  Nd  Nd8  1  0.785630  0.000000  0.250000  1
  Nd  Nd9  1  0.000000  0.785630  0.250000  1
  Sn  Sn10  1  0.599260  0.599260  0.250000  1
  Sn  Sn11  1  0.400740  0.000000  0.250000  1
  Sn  Sn12  1  0.000000  0.400740  0.250000  1
  Bi  Bi13  1  0.401211  0.401211  0.750000  1
  Bi  Bi14  1  0.598789  0.000000  0.750000  1
  Bi  Bi15  1  0.000000  0.598789  0.750000  1
  N  N16  1  0.000000  0.000000  0.998157  1
  N  N17  1  0.000000  0.000000  0.501843  1
