# generated using pymatgen
data_U2ReTcB6
_symmetry_space_group_name_H-M   'P 1'
_cell_length_a   5.07016200
_cell_length_b   5.07016229
_cell_length_c   5.11509500
_cell_angle_alpha   90.00000000
_cell_angle_beta   90.00000000
_cell_angle_gamma   119.99998509
_symmetry_Int_Tables_number   1
_chemical_formula_structural   U2ReTcB6
_chemical_formula_sum   'U2 Re1 Tc1 B6'
_cell_volume   113.87492328
_cell_formula_units_Z   1
loop_
 _symmetry_equiv_pos_site_id
 _symmetry_equiv_pos_as_xyz
  1  'x, y, z'
loop_
 _atom_site_type_symbol
 _atom_site_label
 _atom_site_symmetry_multiplicity
 _atom_site_fract_x
 _atom_site_fract_y
 _atom_site_fract_z
 _atom_site_occupancy
  U  U0  1  0.666667  0.333333  0.750134  1
  U  U1  1  0.333333  0.666667  0.249866  1
  Re  Re2  1  0.000000  0.000000  0.000000  1
  Tc  Tc3  1  0.000000  0.000000  0.500000  1
  B  B4  1  0.219658  0.439316  0.750173  1
  B  B5  1  0.780342  0.219658  0.249827  1
  B  B6  1  0.439316  0.219658  0.249827  1
  B  B7  1  0.560684  0.780342  0.750173  1
  B  B8  1  0.780342  0.560684  0.249827  1
  B  B9  1  0.219658  0.780342  0.750173  1
