# generated using pymatgen
data_Tb10Si5Sn
_symmetry_space_group_name_H-M   'P 1'
_cell_length_a   8.56786500
_cell_length_b   8.59257585
_cell_length_c   6.44775600
_cell_angle_alpha   90.00000000
_cell_angle_beta   90.00000000
_cell_angle_gamma   119.90490974
_symmetry_Int_Tables_number   1
_chemical_formula_structural   Tb10Si5Sn
_chemical_formula_sum   'Tb10 Si5 Sn1'
_cell_volume   411.48172900
_cell_formula_units_Z   1
loop_
 _symmetry_equiv_pos_site_id
 _symmetry_equiv_pos_as_xyz
  1  'x, y, z'
loop_
 _atom_site_type_symbol
 _atom_site_label
 _atom_site_symmetry_multiplicity
 _atom_site_fract_x
 _atom_site_fract_y
 _atom_site_fract_z
 _atom_site_occupancy
  Tb  Tb0  1  0.989221  0.748512  0.750000  1
  Tb  Tb1  1  0.999460  0.243495  0.250000  1
  Tb  Tb2  1  0.755965  0.756505  0.250000  1
  Tb  Tb3  1  0.764411  0.000000  0.750000  1
  Tb  Tb4  1  0.240709  0.251488  0.750000  1
  Tb  Tb5  1  0.241627  0.000000  0.250000  1
  Tb  Tb6  1  0.331807  0.658829  0.496605  1
  Tb  Tb7  1  0.672979  0.341171  0.003395  1
  Tb  Tb8  1  0.672979  0.341171  0.496605  1
  Tb  Tb9  1  0.331807  0.658829  0.003395  1
  Si  Si10  1  0.393518  0.392581  0.250000  1
  Si  Si11  1  0.000936  0.607419  0.250000  1
  Si  Si12  1  0.999097  0.394120  0.750000  1
  Si  Si13  1  0.604977  0.605880  0.750000  1
  Si  Si14  1  0.606208  0.000000  0.250000  1
  Sn  Sn15  1  0.394298  0.000000  0.750000  1
