# generated using pymatgen
data_Pr3YIr2(RhO7)2
_symmetry_space_group_name_H-M   'P 1'
_cell_length_a   7.40715826
_cell_length_b   7.37238791
_cell_length_c   7.40010670
_cell_angle_alpha   59.88937445
_cell_angle_beta   59.96846638
_cell_angle_gamma   59.84385729
_symmetry_Int_Tables_number   1
_chemical_formula_structural   Pr3YIr2(RhO7)2
_chemical_formula_sum   'Pr3 Y1 Ir2 Rh2 O14'
_cell_volume   285.10243873
_cell_formula_units_Z   1
loop_
 _symmetry_equiv_pos_site_id
 _symmetry_equiv_pos_as_xyz
  1  'x, y, z'
loop_
 _atom_site_type_symbol
 _atom_site_label
 _atom_site_symmetry_multiplicity
 _atom_site_fract_x
 _atom_site_fract_y
 _atom_site_fract_z
 _atom_site_occupancy
  Pr  Pr0  1  0.625000  0.125000  0.125000  1
  Pr  Pr1  1  0.125000  0.125000  0.625000  1
  Pr  Pr2  1  0.125000  0.125000  0.125000  1
  Y  Y3  1  0.125000  0.625000  0.125000  1
  Ir  Ir4  1  0.125000  0.625000  0.625000  1
  Ir  Ir5  1  0.625000  0.625000  0.625000  1
  Rh  Rh6  1  0.625000  0.125000  0.625000  1
  Rh  Rh7  1  0.625000  0.625000  0.125000  1
  O  O8  1  0.716961  0.697683  0.295818  1
  O  O9  1  0.289501  0.296493  0.704112  1
  O  O10  1  0.709894  0.296493  0.704112  1
  O  O11  1  0.289539  0.697683  0.295818  1
  O  O12  1  0.295621  0.698354  0.710404  1
  O  O13  1  0.710637  0.289681  0.289045  1
  O  O14  1  0.533039  0.552317  0.954182  1
  O  O15  1  0.960499  0.953507  0.545888  1
  O  O16  1  0.540106  0.953507  0.545888  1
  O  O17  1  0.960461  0.552317  0.954182  1
  O  O18  1  0.954379  0.551646  0.539596  1
  O  O19  1  0.539363  0.960319  0.960955  1
  O  O20  1  0.244946  0.263468  0.246640  1
  O  O21  1  0.005054  0.986532  0.003360  1
