# generated using pymatgen
data_Ca3TbTi4O12
_symmetry_space_group_name_H-M   'P 1'
_cell_length_a   5.40342149
_cell_length_b   5.53623058
_cell_length_c   7.71037100
_cell_angle_alpha   90.00000000
_cell_angle_beta   90.00000000
_cell_angle_gamma   89.76465961
_symmetry_Int_Tables_number   1
_chemical_formula_structural   Ca3TbTi4O12
_chemical_formula_sum   'Ca3 Tb1 Ti4 O12'
_cell_volume   230.65062057
_cell_formula_units_Z   1
loop_
 _symmetry_equiv_pos_site_id
 _symmetry_equiv_pos_as_xyz
  1  'x, y, z'
loop_
 _atom_site_type_symbol
 _atom_site_label
 _atom_site_symmetry_multiplicity
 _atom_site_fract_x
 _atom_site_fract_y
 _atom_site_fract_z
 _atom_site_occupancy
  Ca  Ca0  1  0.491809  0.456095  0.250000  1
  Ca  Ca1  1  0.989670  0.046819  0.750000  1
  Ca  Ca2  1  0.010693  0.954215  0.250000  1
  Tb  Tb3  1  0.511977  0.557394  0.750000  1
  Ti  Ti4  1  0.002426  0.498983  0.498291  1
  Ti  Ti5  1  0.002426  0.498983  0.001709  1
  Ti  Ti6  1  0.498244  0.002765  0.498315  1
  Ti  Ti7  1  0.498244  0.002765  0.001685  1
  O  O8  1  0.094179  0.477205  0.750000  1
  O  O9  1  0.922246  0.521878  0.250000  1
  O  O10  1  0.417556  0.973168  0.750000  1
  O  O11  1  0.582134  0.022343  0.250000  1
  O  O12  1  0.787686  0.785703  0.951341  1
  O  O13  1  0.204304  0.205930  0.457958  1
  O  O14  1  0.204304  0.205930  0.042042  1
  O  O15  1  0.787686  0.785703  0.548659  1
  O  O16  1  0.701031  0.296947  0.951145  1
  O  O17  1  0.296177  0.705113  0.462272  1
  O  O18  1  0.296177  0.705113  0.037728  1
  O  O19  1  0.701031  0.296947  0.548855  1
