# generated using pymatgen
data_Hf4Ta5VGe8
_symmetry_space_group_name_H-M   'P 1'
_cell_length_a   6.80549000
_cell_length_b   6.91959655
_cell_length_c   13.16851067
_cell_angle_alpha   90.13148503
_cell_angle_beta   90.00000000
_cell_angle_gamma   90.00000000
_symmetry_Int_Tables_number   1
_chemical_formula_structural   Hf4Ta5VGe8
_chemical_formula_sum   'Hf8 Ta10 V2 Ge16'
_cell_volume   620.11993141
_cell_formula_units_Z   2
loop_
 _symmetry_equiv_pos_site_id
 _symmetry_equiv_pos_as_xyz
  1  'x, y, z'
loop_
 _atom_site_type_symbol
 _atom_site_label
 _atom_site_symmetry_multiplicity
 _atom_site_fract_x
 _atom_site_fract_y
 _atom_site_fract_z
 _atom_site_occupancy
  Hf  Hf0  1  0.486958  0.673134  0.591540  1
  Hf  Hf1  1  0.986958  0.826866  0.908460  1
  Hf  Hf2  1  0.513717  0.325550  0.089351  1
  Hf  Hf3  1  0.013717  0.174450  0.410649  1
  Hf  Hf4  1  0.511688  0.325531  0.410216  1
  Hf  Hf5  1  0.011688  0.174469  0.089784  1
  Hf  Hf6  1  0.490905  0.676999  0.907970  1
  Hf  Hf7  1  0.990905  0.823001  0.592030  1
  Ta  Ta8  1  0.337907  0.836544  0.121818  1
  Ta  Ta9  1  0.837907  0.663456  0.378182  1
  Ta  Ta10  1  0.343393  0.837562  0.376232  1
  Ta  Ta11  1  0.843393  0.662438  0.123768  1
  Ta  Ta12  1  0.657599  0.162843  0.874703  1
  Ta  Ta13  1  0.157599  0.337157  0.625297  1
  Ta  Ta14  1  0.834917  0.491258  0.750281  1
  Ta  Ta15  1  0.334917  0.008742  0.749719  1
  Ta  Ta16  1  0.163933  0.508376  0.248934  1
  Ta  Ta17  1  0.663933  0.991624  0.251066  1
  V  V18  1  0.658880  0.159415  0.627648  1
  V  V19  1  0.158880  0.340585  0.872352  1
  Ge  Ge20  1  0.685589  0.965468  0.465809  1
  Ge  Ge21  1  0.185589  0.534532  0.034191  1
  Ge  Ge22  1  0.309256  0.050715  0.956310  1
  Ge  Ge23  1  0.809256  0.449285  0.543690  1
  Ge  Ge24  1  0.322097  0.041534  0.542429  1
  Ge  Ge25  1  0.822097  0.458466  0.957571  1
  Ge  Ge26  1  0.683065  0.959879  0.040058  1
  Ge  Ge27  1  0.183065  0.540121  0.459942  1
  Ge  Ge28  1  0.461435  0.383795  0.748646  1
  Ge  Ge29  1  0.961435  0.116205  0.751354  1
  Ge  Ge30  1  0.537638  0.611432  0.248921  1
  Ge  Ge31  1  0.037638  0.888568  0.251079  1
  Ge  Ge32  1  0.692833  0.850466  0.747686  1
  Ge  Ge33  1  0.192833  0.649534  0.752314  1
  Ge  Ge34  1  0.308191  0.153433  0.249559  1
  Ge  Ge35  1  0.808191  0.346567  0.250441  1
