# generated using pymatgen
data_Ta19Al10Mo
_symmetry_space_group_name_H-M   'P 1'
_cell_length_a   9.92245874
_cell_length_b   9.93151023
_cell_length_c   5.22043600
_cell_angle_alpha   90.00000000
_cell_angle_beta   90.00000000
_cell_angle_gamma   89.96548072
_symmetry_Int_Tables_number   1
_chemical_formula_structural   Ta19Al10Mo
_chemical_formula_sum   'Ta19 Al10 Mo1'
_cell_volume   514.44777481
_cell_formula_units_Z   1
loop_
 _symmetry_equiv_pos_site_id
 _symmetry_equiv_pos_as_xyz
  1  'x, y, z'
loop_
 _atom_site_type_symbol
 _atom_site_label
 _atom_site_symmetry_multiplicity
 _atom_site_fract_x
 _atom_site_fract_y
 _atom_site_fract_z
 _atom_site_occupancy
  Ta  Ta0  1  0.391905  0.398670  0.000000  1
  Ta  Ta1  1  0.898577  0.103437  0.500000  1
  Ta  Ta2  1  0.102005  0.896649  0.500000  1
  Ta  Ta3  1  0.600710  0.601377  0.000000  1
  Ta  Ta4  1  0.964497  0.371562  0.500000  1
  Ta  Ta5  1  0.036238  0.628239  0.500000  1
  Ta  Ta6  1  0.876083  0.534733  0.000000  1
  Ta  Ta7  1  0.371061  0.964085  0.500000  1
  Ta  Ta8  1  0.629041  0.036070  0.500000  1
  Ta  Ta9  1  0.463595  0.129371  0.000000  1
  Ta  Ta10  1  0.536381  0.871107  0.000000  1
  Ta  Ta11  1  0.181517  0.181459  0.252037  1
  Ta  Ta12  1  0.681406  0.319570  0.751733  1
  Ta  Ta13  1  0.318440  0.680954  0.751417  1
  Ta  Ta14  1  0.818660  0.818066  0.251409  1
  Ta  Ta15  1  0.318440  0.680954  0.248583  1
  Ta  Ta16  1  0.681406  0.319570  0.248267  1
  Ta  Ta17  1  0.181517  0.181459  0.747963  1
  Ta  Ta18  1  0.818660  0.818066  0.748591  1
  Al  Al19  1  0.999963  0.000091  0.000000  1
  Al  Al20  1  0.499754  0.500009  0.500000  1
  Al  Al21  1  0.262299  0.933278  0.000000  1
  Al  Al22  1  0.433489  0.237449  0.500000  1
  Al  Al23  1  0.566212  0.762503  0.500000  1
  Al  Al24  1  0.737438  0.066902  0.000000  1
  Al  Al25  1  0.237082  0.433751  0.500000  1
  Al  Al26  1  0.762617  0.566523  0.500000  1
  Al  Al27  1  0.935202  0.263068  0.000000  1
  Al  Al28  1  0.067413  0.736305  0.000000  1
  Mo  Mo29  1  0.128395  0.464726  0.000000  1
