# generated using pymatgen
data_Eu5(AlSb3)2
_symmetry_space_group_name_H-M   'P 1'
_cell_length_a   7.74231900
_cell_length_b   24.24307700
_cell_length_c   4.66198100
_cell_angle_alpha   90.00000000
_cell_angle_beta   90.00000000
_cell_angle_gamma   90.00000000
_symmetry_Int_Tables_number   1
_chemical_formula_structural   Eu5(AlSb3)2
_chemical_formula_sum   'Eu10 Al4 Sb12'
_cell_volume   875.04281126
_cell_formula_units_Z   2
loop_
 _symmetry_equiv_pos_site_id
 _symmetry_equiv_pos_as_xyz
  1  'x, y, z'
loop_
 _atom_site_type_symbol
 _atom_site_label
 _atom_site_symmetry_multiplicity
 _atom_site_fract_x
 _atom_site_fract_y
 _atom_site_fract_z
 _atom_site_occupancy
  Eu  Eu0  1  0.000000  0.000000  0.000000  1
  Eu  Eu1  1  0.456613  0.086491  0.000000  1
  Eu  Eu2  1  0.769036  0.247020  0.000000  1
  Eu  Eu3  1  0.269036  0.252980  0.000000  1
  Eu  Eu4  1  0.956613  0.413509  0.000000  1
  Eu  Eu5  1  0.500000  0.500000  0.000000  1
  Eu  Eu6  1  0.043386  0.586491  0.000000  1
  Eu  Eu7  1  0.730965  0.747021  0.000000  1
  Eu  Eu8  1  0.230964  0.752979  0.000000  1
  Eu  Eu9  1  0.543386  0.913510  0.000000  1
  Al  Al10  1  0.815997  0.119996  0.500000  1
  Al  Al11  1  0.315998  0.380004  0.500000  1
  Al  Al12  1  0.684002  0.619995  0.500000  1
  Al  Al13  1  0.184002  0.880004  0.500000  1
  Sb  Sb14  1  0.015814  0.135588  0.000000  1
  Sb  Sb15  1  0.515814  0.364412  0.000000  1
  Sb  Sb16  1  0.484186  0.635588  0.000000  1
  Sb  Sb17  1  0.984186  0.864412  0.000000  1
  Sb  Sb18  1  0.701410  0.008491  0.500000  1
  Sb  Sb19  1  0.522721  0.186523  0.500000  1
  Sb  Sb20  1  0.022722  0.313477  0.500000  1
  Sb  Sb21  1  0.201410  0.491509  0.500000  1
  Sb  Sb22  1  0.798591  0.508491  0.500000  1
  Sb  Sb23  1  0.977278  0.686523  0.500000  1
  Sb  Sb24  1  0.477278  0.813477  0.500000  1
  Sb  Sb25  1  0.298590  0.991510  0.500000  1
