# generated using pymatgen
data_K12Li8Ti3SiP12
_symmetry_space_group_name_H-M   'P 1'
_cell_length_a   9.84027649
_cell_length_b   9.84027598
_cell_length_c   14.69333089
_cell_angle_alpha   89.94926423
_cell_angle_beta   89.94926758
_cell_angle_gamma   142.99283891
_symmetry_Int_Tables_number   1
_chemical_formula_structural   K12Li8Ti3SiP12
_chemical_formula_sum   'K12 Li8 Ti3 Si1 P12'
_cell_volume   856.38331292
_cell_formula_units_Z   1
loop_
 _symmetry_equiv_pos_site_id
 _symmetry_equiv_pos_as_xyz
  1  'x, y, z'
loop_
 _atom_site_type_symbol
 _atom_site_label
 _atom_site_symmetry_multiplicity
 _atom_site_fract_x
 _atom_site_fract_y
 _atom_site_fract_z
 _atom_site_occupancy
  K  K0  1  0.105386  0.448679  0.671529  1
  K  K1  1  0.719766  0.717183  0.679512  1
  K  K2  1  0.216638  0.216376  0.820271  1
  K  K3  1  0.783624  0.783362  0.179729  1
  K  K4  1  0.947944  0.606784  0.827318  1
  K  K5  1  0.551321  0.894614  0.328471  1
  K  K6  1  0.393216  0.052056  0.172682  1
  K  K7  1  0.052814  0.394677  0.172914  1
  K  K8  1  0.895556  0.558027  0.330389  1
  K  K9  1  0.441973  0.104444  0.669611  1
  K  K10  1  0.605323  0.947187  0.827086  1
  K  K11  1  0.282817  0.280234  0.320488  1
  Li  Li12  1  0.918099  0.081901  0.000000  1
  Li  Li13  1  0.583438  0.416562  0.500000  1
  Li  Li14  1  0.081879  0.918121  0.000000  1
  Li  Li15  1  0.419129  0.580871  0.500000  1
  Li  Li16  1  0.750852  0.249148  0.000000  1
  Li  Li17  1  0.748369  0.251631  0.500000  1
  Li  Li18  1  0.249132  0.750868  0.000000  1
  Li  Li19  1  0.249739  0.750261  0.500000  1
  Ti  Ti20  1  0.413220  0.586780  0.000000  1
  Ti  Ti21  1  0.916948  0.083052  0.500000  1
  Ti  Ti22  1  0.586764  0.413236  0.000000  1
  Si  Si23  1  0.085071  0.914929  0.500000  1
  P  P24  1  0.886737  0.566282  0.089815  1
  P  P25  1  0.433718  0.113263  0.910185  1
  P  P26  1  0.616227  0.933877  0.589582  1
  P  P27  1  0.937421  0.625892  0.587922  1
  P  P28  1  0.113201  0.433596  0.909968  1
  P  P29  1  0.566404  0.886799  0.090032  1
  P  P30  1  0.374108  0.062579  0.412078  1
  P  P31  1  0.217083  0.209979  0.585087  1
  P  P32  1  0.718744  0.718803  0.915615  1
  P  P33  1  0.281197  0.281256  0.084385  1
  P  P34  1  0.066123  0.383773  0.410418  1
  P  P35  1  0.790021  0.782917  0.414913  1
