# generated using pymatgen
data_AgIrF34
_symmetry_space_group_name_H-M   'P 1'
_cell_length_a   8.76801896
_cell_length_b   8.45805042
_cell_length_c   10.13732450
_cell_angle_alpha   81.67044464
_cell_angle_beta   88.47622104
_cell_angle_gamma   65.46421120
_symmetry_Int_Tables_number   1
_chemical_formula_structural   AgIrF34
_chemical_formula_sum   'Ag1 Ir1 F34'
_cell_volume   676.21761191
_cell_formula_units_Z   1
loop_
 _symmetry_equiv_pos_site_id
 _symmetry_equiv_pos_as_xyz
  1  'x, y, z'
loop_
 _atom_site_type_symbol
 _atom_site_label
 _atom_site_symmetry_multiplicity
 _atom_site_fract_x
 _atom_site_fract_y
 _atom_site_fract_z
 _atom_site_occupancy
  Ag  Ag0  1  0.864973  0.250830  0.752041  1
  Ir  Ir1  1  0.134425  0.748473  0.240698  1
  F  F2  1  0.605081  0.209077  0.493158  1
  F  F3  1  0.399489  0.785873  0.519818  1
  F  F4  1  0.829669  0.674760  0.717944  1
  F  F5  1  0.167716  0.296670  0.278042  1
  F  F6  1  0.085932  0.765336  0.863637  1
  F  F7  1  0.901355  0.242120  0.130820  1
  F  F8  1  0.561889  0.149676  0.379663  1
  F  F9  1  0.438322  0.855809  0.627839  1
  F  F10  1  0.636494  0.331948  0.683337  1
  F  F11  1  0.355996  0.668190  0.306650  1
  F  F12  1  0.937740  0.060123  0.646658  1
  F  F13  1  0.063732  0.929842  0.344657  1
  F  F14  1  0.909511  0.393146  0.601672  1
  F  F15  1  0.093478  0.605611  0.383100  1
  F  F16  1  0.841375  0.820616  0.633884  1
  F  F17  1  0.142332  0.193839  0.393159  1
  F  F18  1  0.796582  0.445550  0.852928  1
  F  F19  1  0.202134  0.564507  0.138515  1
  F  F20  1  0.215176  0.687939  0.775076  1
  F  F21  1  0.788274  0.311203  0.232387  1
  F  F22  1  0.914778  0.827483  0.172163  1
  F  F23  1  0.091209  0.169751  0.823366  1
  F  F24  1  0.820693  0.106831  0.900606  1
  F  F25  1  0.178129  0.892013  0.100449  1
  F  F26  1  0.485659  0.591068  0.990948  1
  F  F27  1  0.518605  0.409848  0.004702  1
  F  F28  1  0.468244  0.084389  0.863056  1
  F  F29  1  0.538711  0.915259  0.136285  1
  F  F30  1  0.285689  0.254095  0.608890  1
  F  F31  1  0.718245  0.752777  0.397192  1
  F  F32  1  0.261011  0.400497  0.673666  1
  F  F33  1  0.746557  0.606959  0.329827  1
  F  F34  1  0.551209  0.904251  0.847011  1
  F  F35  1  0.449583  0.093639  0.156156  1
