# generated using pymatgen
data_Th3ZnGa2Ni3
_symmetry_space_group_name_H-M   'P 1'
_cell_length_a   7.06248069
_cell_length_b   7.10133481
_cell_length_c   4.01064000
_cell_angle_alpha   90.00000000
_cell_angle_beta   90.00000000
_cell_angle_gamma   120.18216840
_symmetry_Int_Tables_number   1
_chemical_formula_structural   Th3ZnGa2Ni3
_chemical_formula_sum   'Th3 Zn1 Ga2 Ni3'
_cell_volume   173.87671727
_cell_formula_units_Z   1
loop_
 _symmetry_equiv_pos_site_id
 _symmetry_equiv_pos_as_xyz
  1  'x, y, z'
loop_
 _atom_site_type_symbol
 _atom_site_label
 _atom_site_symmetry_multiplicity
 _atom_site_fract_x
 _atom_site_fract_y
 _atom_site_fract_z
 _atom_site_occupancy
  Th  Th0  1  0.000000  0.417532  0.500000  1
  Th  Th1  1  0.585048  0.583428  0.500000  1
  Th  Th2  1  0.414952  0.998380  0.500000  1
  Zn  Zn3  1  0.000000  0.764445  0.000000  1
  Ga  Ga4  1  0.233492  0.232339  0.000000  1
  Ga  Ga5  1  0.766508  0.998846  0.000000  1
  Ni  Ni6  1  0.337187  0.667340  0.000000  1
  Ni  Ni7  1  0.662813  0.330153  0.000000  1
  Ni  Ni8  1  0.000000  0.007537  0.500000  1
