# generated using pymatgen
data_Eu10InBi5
_symmetry_space_group_name_H-M   'P 1'
_cell_length_a   9.66410715
_cell_length_b   9.66410679
_cell_length_c   7.50098400
_cell_angle_alpha   90.00000000
_cell_angle_beta   90.00000000
_cell_angle_gamma   120.13935217
_symmetry_Int_Tables_number   1
_chemical_formula_structural   Eu10InBi5
_chemical_formula_sum   'Eu10 In1 Bi5'
_cell_volume   605.84394910
_cell_formula_units_Z   1
loop_
 _symmetry_equiv_pos_site_id
 _symmetry_equiv_pos_as_xyz
  1  'x, y, z'
loop_
 _atom_site_type_symbol
 _atom_site_label
 _atom_site_symmetry_multiplicity
 _atom_site_fract_x
 _atom_site_fract_y
 _atom_site_fract_z
 _atom_site_occupancy
  Eu  Eu0  1  0.665259  0.331630  0.498041  1
  Eu  Eu1  1  0.331630  0.665259  0.498041  1
  Eu  Eu2  1  0.331630  0.665259  0.001959  1
  Eu  Eu3  1  0.665259  0.331630  0.001959  1
  Eu  Eu4  1  0.741610  0.741610  0.250000  1
  Eu  Eu5  1  0.260557  0.004096  0.250000  1
  Eu  Eu6  1  0.004096  0.260557  0.250000  1
  Eu  Eu7  1  0.255613  0.255613  0.750000  1
  Eu  Eu8  1  0.741990  0.000272  0.750000  1
  Eu  Eu9  1  0.000272  0.741990  0.750000  1
  In  In10  1  0.393687  0.393687  0.250000  1
  Bi  Bi11  1  0.613814  0.000185  0.250000  1
  Bi  Bi12  1  0.000185  0.613814  0.250000  1
  Bi  Bi13  1  0.606201  0.606201  0.750000  1
  Bi  Bi14  1  0.389341  0.998857  0.750000  1
  Bi  Bi15  1  0.998857  0.389341  0.750000  1
