# generated using pymatgen
data_Nd2Lu2MgP12Ru19
_symmetry_space_group_name_H-M   'P 1'
_cell_length_a   12.50478636
_cell_length_b   12.50422961
_cell_length_c   3.99670900
_cell_angle_alpha   90.00000000
_cell_angle_beta   90.00000000
_cell_angle_gamma   119.99853589
_symmetry_Int_Tables_number   1
_chemical_formula_structural   Nd2Lu2MgP12Ru19
_chemical_formula_sum   'Nd2 Lu2 Mg1 P12 Ru19'
_cell_volume   541.21868710
_cell_formula_units_Z   1
loop_
 _symmetry_equiv_pos_site_id
 _symmetry_equiv_pos_as_xyz
  1  'x, y, z'
loop_
 _atom_site_type_symbol
 _atom_site_label
 _atom_site_symmetry_multiplicity
 _atom_site_fract_x
 _atom_site_fract_y
 _atom_site_fract_z
 _atom_site_occupancy
  Nd  Nd0  1  0.673080  0.333561  0.000000  1
  Nd  Nd1  1  0.326920  0.660482  0.000000  1
  Lu  Lu2  1  0.817357  0.816359  0.500000  1
  Lu  Lu3  1  0.182643  0.999002  0.500000  1
  Mg  Mg4  1  0.000000  0.189205  0.500000  1
  P  P5  1  0.000000  0.829171  0.000000  1
  P  P6  1  0.192923  0.178653  0.000000  1
  P  P7  1  0.807077  0.985730  0.000000  1
  P  P8  1  0.698501  0.166892  0.500000  1
  P  P9  1  0.833411  0.528068  0.500000  1
  P  P10  1  0.479038  0.307106  0.500000  1
  P  P11  1  0.166589  0.694657  0.500000  1
  P  P12  1  0.520962  0.828068  0.500000  1
  P  P13  1  0.301499  0.468390  0.500000  1
  P  P14  1  0.000000  0.381712  0.000000  1
  P  P15  1  0.624756  0.625476  0.000000  1
  P  P16  1  0.375244  0.000721  0.000000  1
  Ru  Ru17  1  0.000000  0.562101  0.000000  1
  Ru  Ru18  1  0.439206  0.444487  0.000000  1
  Ru  Ru19  1  0.560794  0.005282  0.000000  1
  Ru  Ru20  1  0.000000  0.724849  0.500000  1
  Ru  Ru21  1  0.281259  0.276675  0.500000  1
  Ru  Ru22  1  0.718741  0.995416  0.500000  1
  Ru  Ru23  1  0.826807  0.181867  0.000000  1
  Ru  Ru24  1  0.816161  0.631883  0.000000  1
  Ru  Ru25  1  0.381772  0.191990  0.000000  1
  Ru  Ru26  1  0.183839  0.815722  0.000000  1
  Ru  Ru27  1  0.618228  0.810217  0.000000  1
  Ru  Ru28  1  0.173193  0.355060  0.000000  1
  Ru  Ru29  1  0.875554  0.364232  0.500000  1
  Ru  Ru30  1  0.634686  0.511022  0.500000  1
  Ru  Ru31  1  0.495108  0.125691  0.500000  1
  Ru  Ru32  1  0.365314  0.876336  0.500000  1
  Ru  Ru33  1  0.504892  0.630583  0.500000  1
  Ru  Ru34  1  0.124446  0.488677  0.500000  1
  Ru  Ru35  1  0.000000  0.014658  0.000000  1
