# generated using pymatgen
data_TlCo2P3O10
_symmetry_space_group_name_H-M   'P 1'
_cell_length_a   7.96656590
_cell_length_b   7.96660860
_cell_length_c   9.56936900
_cell_angle_alpha   69.54894200
_cell_angle_beta   69.54832088
_cell_angle_gamma   71.93777910
_symmetry_Int_Tables_number   1
_chemical_formula_structural   TlCo2P3O10
_chemical_formula_sum   'Tl2 Co4 P6 O20'
_cell_volume   520.82203810
_cell_formula_units_Z   2
loop_
 _symmetry_equiv_pos_site_id
 _symmetry_equiv_pos_as_xyz
  1  'x, y, z'
loop_
 _atom_site_type_symbol
 _atom_site_label
 _atom_site_symmetry_multiplicity
 _atom_site_fract_x
 _atom_site_fract_y
 _atom_site_fract_z
 _atom_site_occupancy
  Tl  Tl0  1  0.700608  0.299394  0.249995  1
  Tl  Tl1  1  0.299392  0.700606  0.750005  1
  Co  Co2  1  0.687304  0.783753  0.948023  1
  Co  Co3  1  0.312696  0.216247  0.051977  1
  Co  Co4  1  0.216253  0.312707  0.551974  1
  Co  Co5  1  0.783747  0.687293  0.448026  1
  P  P6  1  0.854473  0.476336  0.772556  1
  P  P7  1  0.476341  0.854481  0.272556  1
  P  P8  1  0.145527  0.523664  0.227444  1
  P  P9  1  0.107108  0.892887  0.250006  1
  P  P10  1  0.892892  0.107113  0.749994  1
  P  P11  1  0.523659  0.145519  0.727444  1
  O  O12  1  0.574844  0.720643  0.171781  1
  O  O13  1  0.425156  0.279357  0.828219  1
  O  O14  1  0.279363  0.425176  0.328217  1
  O  O15  1  0.944963  0.520471  0.318636  1
  O  O16  1  0.740506  0.162946  0.658653  1
  O  O17  1  0.076084  0.116030  0.630399  1
  O  O18  1  0.837058  0.259488  0.841349  1
  O  O19  1  0.205325  0.464718  0.078589  1
  O  O20  1  0.720637  0.574824  0.671783  1
  O  O21  1  0.259494  0.837054  0.341347  1
  O  O22  1  0.520477  0.944958  0.818640  1
  O  O23  1  0.883987  0.923914  0.869584  1
  O  O24  1  0.479523  0.055042  0.181360  1
  O  O25  1  0.055037  0.479529  0.681364  1
  O  O26  1  0.535281  0.794695  0.421410  1
  O  O27  1  0.923916  0.883970  0.369601  1
  O  O28  1  0.162942  0.740512  0.158651  1
  O  O29  1  0.464719  0.205305  0.578590  1
  O  O30  1  0.794675  0.535282  0.921411  1
  O  O31  1  0.116013  0.076086  0.130416  1
