# generated using pymatgen
data_Er5Si2SnH
_symmetry_space_group_name_H-M   'P 1'
_cell_length_a   8.65386884
_cell_length_b   8.65386908
_cell_length_c   8.65386800
_cell_angle_alpha   128.02358969
_cell_angle_beta   128.02357415
_cell_angle_gamma   76.58682585
_symmetry_Int_Tables_number   1
_chemical_formula_structural   Er5Si2SnH
_chemical_formula_sum   'Er10 Si4 Sn2 H2'
_cell_volume   390.65516631
_cell_formula_units_Z   2
loop_
 _symmetry_equiv_pos_site_id
 _symmetry_equiv_pos_as_xyz
  1  'x, y, z'
loop_
 _atom_site_type_symbol
 _atom_site_label
 _atom_site_symmetry_multiplicity
 _atom_site_fract_x
 _atom_site_fract_y
 _atom_site_fract_z
 _atom_site_occupancy
  Er  Er0  1  0.500000  0.500000  0.000000  1
  Er  Er1  1  0.000000  0.000000  0.000000  1
  Er  Er2  1  0.519739  0.019739  0.821793  1
  Er  Er3  1  0.197948  0.697948  0.178207  1
  Er  Er4  1  0.019739  0.197948  0.500000  1
  Er  Er5  1  0.697948  0.519739  0.500000  1
  Er  Er6  1  0.480261  0.980261  0.178207  1
  Er  Er7  1  0.802052  0.302052  0.821793  1
  Er  Er8  1  0.980261  0.802052  0.500000  1
  Er  Er9  1  0.302052  0.480261  0.500000  1
  Si  Si10  1  0.867480  0.367480  0.234960  1
  Si  Si11  1  0.132520  0.632520  0.765040  1
  Si  Si12  1  0.367480  0.132520  0.500000  1
  Si  Si13  1  0.632520  0.867480  0.500000  1
  Sn  Sn14  1  0.250000  0.250000  0.000000  1
  Sn  Sn15  1  0.750000  0.750000  0.000000  1
  H  H16  1  0.250000  0.750000  0.500000  1
  H  H17  1  0.750000  0.250000  0.500000  1
