# generated using pymatgen
data_Hf8Ni12(As3P)3
_symmetry_space_group_name_H-M   'P 1'
_cell_length_a   3.70646600
_cell_length_b   10.28582705
_cell_length_c   12.55626474
_cell_angle_alpha   89.88385250
_cell_angle_beta   90.00000000
_cell_angle_gamma   90.00000000
_symmetry_Int_Tables_number   1
_chemical_formula_structural   Hf8Ni12(As3P)3
_chemical_formula_sum   'Hf8 Ni12 As9 P3'
_cell_volume   478.69491031
_cell_formula_units_Z   1
loop_
 _symmetry_equiv_pos_site_id
 _symmetry_equiv_pos_as_xyz
  1  'x, y, z'
loop_
 _atom_site_type_symbol
 _atom_site_label
 _atom_site_symmetry_multiplicity
 _atom_site_fract_x
 _atom_site_fract_y
 _atom_site_fract_z
 _atom_site_occupancy
  Hf  Hf0  1  0.250000  0.325943  0.993885  1
  Hf  Hf1  1  0.250000  0.172103  0.493298  1
  Hf  Hf2  1  0.750000  0.673840  0.007849  1
  Hf  Hf3  1  0.750000  0.832624  0.504971  1
  Hf  Hf4  1  0.250000  0.428435  0.712175  1
  Hf  Hf5  1  0.250000  0.064370  0.205108  1
  Hf  Hf6  1  0.750000  0.565492  0.292724  1
  Hf  Hf7  1  0.750000  0.935646  0.794255  1
  Ni  Ni8  1  0.250000  0.912325  0.987660  1
  Ni  Ni9  1  0.250000  0.588227  0.478755  1
  Ni  Ni10  1  0.750000  0.088217  0.013289  1
  Ni  Ni11  1  0.750000  0.403373  0.508324  1
  Ni  Ni12  1  0.250000  0.137578  0.723479  1
  Ni  Ni13  1  0.250000  0.362218  0.221006  1
  Ni  Ni14  1  0.750000  0.863147  0.277068  1
  Ni  Ni15  1  0.750000  0.640168  0.783974  1
  Ni  Ni16  1  0.250000  0.783388  0.160704  1
  Ni  Ni17  1  0.250000  0.723699  0.663703  1
  Ni  Ni18  1  0.750000  0.216497  0.840343  1
  Ni  Ni19  1  0.750000  0.281688  0.337158  1
  As  As20  1  0.750000  0.598497  0.600981  1
  As  As21  1  0.250000  0.744652  0.857230  1
  As  As22  1  0.250000  0.759617  0.354480  1
  As  As23  1  0.750000  0.256720  0.144328  1
  As  As24  1  0.750000  0.241466  0.645073  1
  As  As25  1  0.250000  0.553196  0.124992  1
  As  As26  1  0.250000  0.949138  0.624988  1
  As  As27  1  0.750000  0.447055  0.877001  1
  As  As28  1  0.750000  0.053567  0.373634  1
  P  P29  1  0.250000  0.101509  0.899890  1
  P  P30  1  0.250000  0.396859  0.396879  1
  P  P31  1  0.750000  0.898743  0.100796  1
