# generated using pymatgen
data_Tb2DySn3IrRuPb
_symmetry_space_group_name_H-M   'P 1'
_cell_length_a   7.62068734
_cell_length_b   7.62349397
_cell_length_c   4.17721100
_cell_angle_alpha   90.00000000
_cell_angle_beta   90.00000000
_cell_angle_gamma   120.02215379
_symmetry_Int_Tables_number   1
_chemical_formula_structural   Tb2DySn3IrRuPb
_chemical_formula_sum   'Tb2 Dy1 Sn3 Ir1 Ru1 Pb1'
_cell_volume   210.12041798
_cell_formula_units_Z   1
loop_
 _symmetry_equiv_pos_site_id
 _symmetry_equiv_pos_as_xyz
  1  'x, y, z'
loop_
 _atom_site_type_symbol
 _atom_site_label
 _atom_site_symmetry_multiplicity
 _atom_site_fract_x
 _atom_site_fract_y
 _atom_site_fract_z
 _atom_site_occupancy
  Tb  Tb0  1  0.417437  0.392215  0.500000  1
  Tb  Tb1  1  0.607897  0.025293  0.500000  1
  Dy  Dy2  1  0.974223  0.582579  0.500000  1
  Sn  Sn3  1  0.768568  0.747099  0.000000  1
  Sn  Sn4  1  0.252726  0.021005  0.000000  1
  Sn  Sn5  1  0.979017  0.231841  0.000000  1
  Ir  Ir6  1  0.667393  0.333900  0.000000  1
  Ru  Ru7  1  0.000091  0.999586  0.500000  1
  Pb  Pb8  1  0.332650  0.666484  0.000000  1
