# generated using pymatgen
data_Ti3VBr12
_symmetry_space_group_name_H-M   'P 1'
_cell_length_a   6.11042864
_cell_length_b   12.77237600
_cell_length_c   7.44312037
_cell_angle_alpha   90.00000000
_cell_angle_beta   90.11710487
_cell_angle_gamma   90.00000000
_symmetry_Int_Tables_number   1
_chemical_formula_structural   Ti3VBr12
_chemical_formula_sum   'Ti3 V1 Br12'
_cell_volume   580.89482473
_cell_formula_units_Z   1
loop_
 _symmetry_equiv_pos_site_id
 _symmetry_equiv_pos_as_xyz
  1  'x, y, z'
loop_
 _atom_site_type_symbol
 _atom_site_label
 _atom_site_symmetry_multiplicity
 _atom_site_fract_x
 _atom_site_fract_y
 _atom_site_fract_z
 _atom_site_occupancy
  Ti  Ti0  1  0.750956  0.000000  0.248317  1
  Ti  Ti1  1  0.269013  0.500000  0.751678  1
  Ti  Ti2  1  0.730675  0.500000  0.751653  1
  V  V3  1  0.249923  0.000000  0.248046  1
  Br  Br4  1  0.000537  0.500000  0.025465  1
  Br  Br5  1  0.997026  0.138769  0.110573  1
  Br  Br6  1  0.997026  0.861232  0.110573  1
  Br  Br7  1  0.502949  0.138523  0.385334  1
  Br  Br8  1  0.502949  0.861477  0.385334  1
  Br  Br9  1  0.499104  0.500000  0.468240  1
  Br  Br10  1  0.998028  0.000000  0.523124  1
  Br  Br11  1  0.999665  0.361998  0.615529  1
  Br  Br12  1  0.999665  0.638003  0.615529  1
  Br  Br13  1  0.500117  0.356966  0.893496  1
  Br  Br14  1  0.500117  0.643035  0.893496  1
  Br  Br15  1  0.502256  0.000000  0.973623  1
