# generated using pymatgen
data_Pr12NiRh3
_symmetry_space_group_name_H-M   'P 1'
_cell_length_a   6.58392790
_cell_length_b   7.34003355
_cell_length_c   10.06776000
_cell_angle_alpha   90.00000000
_cell_angle_beta   90.00000000
_cell_angle_gamma   90.25123297
_symmetry_Int_Tables_number   1
_chemical_formula_structural   Pr12NiRh3
_chemical_formula_sum   'Pr12 Ni1 Rh3'
_cell_volume   486.53242668
_cell_formula_units_Z   1
loop_
 _symmetry_equiv_pos_site_id
 _symmetry_equiv_pos_as_xyz
  1  'x, y, z'
loop_
 _atom_site_type_symbol
 _atom_site_label
 _atom_site_symmetry_multiplicity
 _atom_site_fract_x
 _atom_site_fract_y
 _atom_site_fract_z
 _atom_site_occupancy
  Pr  Pr0  1  0.329560  0.676856  0.067107  1
  Pr  Pr1  1  0.170288  0.175949  0.435147  1
  Pr  Pr2  1  0.668643  0.326792  0.568222  1
  Pr  Pr3  1  0.830076  0.821629  0.932256  1
  Pr  Pr4  1  0.668643  0.326792  0.931778  1
  Pr  Pr5  1  0.830076  0.821629  0.567744  1
  Pr  Pr6  1  0.329560  0.676856  0.432893  1
  Pr  Pr7  1  0.170288  0.175949  0.064853  1
  Pr  Pr8  1  0.856054  0.535686  0.250000  1
  Pr  Pr9  1  0.642754  0.037335  0.250000  1
  Pr  Pr10  1  0.144985  0.464469  0.750000  1
  Pr  Pr11  1  0.357732  0.962143  0.750000  1
  Ni  Ni12  1  0.574081  0.614554  0.750000  1
  Rh  Rh13  1  0.065963  0.884467  0.250000  1
  Rh  Rh14  1  0.429201  0.383522  0.250000  1
  Rh  Rh15  1  0.932096  0.115369  0.750000  1
