# generated using pymatgen
data_LaB(PdPt)2
_symmetry_space_group_name_H-M   'P 1'
_cell_length_a   5.52222108
_cell_length_b   5.52222032
_cell_length_c   7.73234900
_cell_angle_alpha   90.00000000
_cell_angle_beta   90.00000000
_cell_angle_gamma   119.98066028
_symmetry_Int_Tables_number   1
_chemical_formula_structural   LaB(PdPt)2
_chemical_formula_sum   'La2 B2 Pd4 Pt4'
_cell_volume   204.24630115
_cell_formula_units_Z   2
loop_
 _symmetry_equiv_pos_site_id
 _symmetry_equiv_pos_as_xyz
  1  'x, y, z'
loop_
 _atom_site_type_symbol
 _atom_site_label
 _atom_site_symmetry_multiplicity
 _atom_site_fract_x
 _atom_site_fract_y
 _atom_site_fract_z
 _atom_site_occupancy
  La  La0  1  0.000000  0.000000  0.500000  1
  La  La1  1  0.000000  0.000000  0.000000  1
  B  B2  1  0.327878  0.672122  0.000000  1
  B  B3  1  0.672122  0.327878  0.000000  1
  Pd  Pd4  1  0.333147  0.666853  0.500000  1
  Pd  Pd5  1  0.666853  0.333147  0.500000  1
  Pd  Pd6  1  0.500000  0.500000  0.196735  1
  Pd  Pd7  1  0.500000  0.500000  0.803265  1
  Pt  Pt8  1  0.500000  0.000000  0.198882  1
  Pt  Pt9  1  0.500000  0.000000  0.801118  1
  Pt  Pt10  1  0.000000  0.500000  0.198882  1
  Pt  Pt11  1  0.000000  0.500000  0.801118  1
