# generated using pymatgen
data_Dy4Lu4B24IrRu3
_symmetry_space_group_name_H-M   'P 1'
_cell_length_a   3.62613100
_cell_length_b   9.07747510
_cell_length_c   11.44183513
_cell_angle_alpha   90.01712793
_cell_angle_beta   90.00000000
_cell_angle_gamma   90.00000000
_symmetry_Int_Tables_number   1
_chemical_formula_structural   Dy4Lu4B24IrRu3
_chemical_formula_sum   'Dy4 Lu4 B24 Ir1 Ru3'
_cell_volume   376.62073109
_cell_formula_units_Z   1
loop_
 _symmetry_equiv_pos_site_id
 _symmetry_equiv_pos_as_xyz
  1  'x, y, z'
loop_
 _atom_site_type_symbol
 _atom_site_label
 _atom_site_symmetry_multiplicity
 _atom_site_fract_x
 _atom_site_fract_y
 _atom_site_fract_z
 _atom_site_occupancy
  Dy  Dy0  1  0.000000  0.318733  0.414652  1
  Dy  Dy1  1  0.000000  0.679307  0.588405  1
  Dy  Dy2  1  0.000000  0.822550  0.084205  1
  Dy  Dy3  1  0.000000  0.178993  0.913625  1
  Lu  Lu4  1  0.000000  0.946136  0.373370  1
  Lu  Lu5  1  0.000000  0.055889  0.626876  1
  Lu  Lu6  1  0.000000  0.442041  0.125525  1
  Lu  Lu7  1  0.000000  0.555776  0.873263  1
  B  B8  1  0.500000  0.554315  0.433429  1
  B  B9  1  0.500000  0.445350  0.567214  1
  B  B10  1  0.500000  0.054845  0.067288  1
  B  B11  1  0.500000  0.945408  0.932597  1
  B  B12  1  0.500000  0.751325  0.420570  1
  B  B13  1  0.500000  0.249669  0.580579  1
  B  B14  1  0.500000  0.249896  0.080395  1
  B  B15  1  0.500000  0.750084  0.919526  1
  B  B16  1  0.500000  0.792861  0.265249  1
  B  B17  1  0.500000  0.208126  0.734139  1
  B  B18  1  0.500000  0.292178  0.234543  1
  B  B19  1  0.500000  0.707904  0.765763  1
  B  B20  1  0.500000  0.630777  0.182762  1
  B  B21  1  0.500000  0.369487  0.815674  1
  B  B22  1  0.500000  0.130853  0.315945  1
  B  B23  1  0.500000  0.869082  0.684344  1
  B  B24  1  0.500000  0.982854  0.213642  1
  B  B25  1  0.500000  0.017021  0.786331  1
  B  B26  1  0.500000  0.481743  0.286003  1
  B  B27  1  0.500000  0.517149  0.713723  1
  B  B28  1  0.500000  0.604906  0.028996  1
  B  B29  1  0.500000  0.395216  0.971425  1
  B  B30  1  0.500000  0.104707  0.471382  1
  B  B31  1  0.500000  0.894829  0.528250  1
  Ir  Ir32  1  0.000000  0.638405  0.320545  1
  Ru  Ru33  1  0.000000  0.361599  0.679496  1
  Ru  Ru34  1  0.000000  0.138814  0.180262  1
  Ru  Ru35  1  0.000000  0.861172  0.820007  1
