# generated using pymatgen
data_Tm3Pa(Ga10Tc3)2
_symmetry_space_group_name_H-M   'P 1'
_cell_length_a   9.03317098
_cell_length_b   9.03317098
_cell_length_c   6.36084900
_cell_angle_alpha   90.00000000
_cell_angle_beta   90.00000000
_cell_angle_gamma   90.16153900
_symmetry_Int_Tables_number   1
_chemical_formula_structural   Tm3Pa(Ga10Tc3)2
_chemical_formula_sum   'Tm3 Pa1 Ga20 Tc6'
_cell_volume   519.03162524
_cell_formula_units_Z   1
loop_
 _symmetry_equiv_pos_site_id
 _symmetry_equiv_pos_as_xyz
  1  'x, y, z'
loop_
 _atom_site_type_symbol
 _atom_site_label
 _atom_site_symmetry_multiplicity
 _atom_site_fract_x
 _atom_site_fract_y
 _atom_site_fract_z
 _atom_site_occupancy
  Tm  Tm0  1  0.682339  0.183305  0.000000  1
  Tm  Tm1  1  0.816795  0.683205  0.000000  1
  Tm  Tm2  1  0.316695  0.817661  0.000000  1
  Pa  Pa3  1  0.186828  0.313172  0.000000  1
  Ga  Ga4  1  0.500525  0.999475  0.287308  1
  Ga  Ga5  1  0.500525  0.999475  0.712692  1
  Ga  Ga6  1  0.293658  0.562790  0.706486  1
  Ga  Ga7  1  0.998698  0.501302  0.288000  1
  Ga  Ga8  1  0.998698  0.501302  0.712000  1
  Ga  Ga9  1  0.059833  0.795156  0.708648  1
  Ga  Ga10  1  0.207088  0.056645  0.296228  1
  Ga  Ga11  1  0.059833  0.795156  0.291352  1
  Ga  Ga12  1  0.704844  0.440167  0.708648  1
  Ga  Ga13  1  0.207088  0.056645  0.703772  1
  Ga  Ga14  1  0.937210  0.206342  0.706486  1
  Ga  Ga15  1  0.704844  0.440167  0.291352  1
  Ga  Ga16  1  0.559721  0.705440  0.291391  1
  Ga  Ga17  1  0.937210  0.206342  0.293514  1
  Ga  Ga18  1  0.559721  0.705440  0.708609  1
  Ga  Ga19  1  0.794560  0.940279  0.291391  1
  Ga  Ga20  1  0.443355  0.292912  0.703772  1
  Ga  Ga21  1  0.794560  0.940279  0.708609  1
  Ga  Ga22  1  0.443355  0.292912  0.296228  1
  Ga  Ga23  1  0.293658  0.562790  0.293514  1
  Tc  Tc24  1  0.179057  0.320943  0.500000  1
  Tc  Tc25  1  0.321258  0.820871  0.500000  1
  Tc  Tc26  1  0.821257  0.678743  0.500000  1
  Tc  Tc27  1  0.003301  0.005643  0.000000  1
  Tc  Tc28  1  0.679129  0.178742  0.500000  1
  Tc  Tc29  1  0.494357  0.496699  0.000000  1
