# generated using pymatgen
data_Gd3Y3RhI10
_symmetry_space_group_name_H-M   'P 1'
_cell_length_a   7.82875190
_cell_length_b   9.74317956
_cell_length_c   9.89732097
_cell_angle_alpha   107.08801201
_cell_angle_beta   96.79513470
_cell_angle_gamma   104.28866764
_symmetry_Int_Tables_number   1
_chemical_formula_structural   Gd3Y3RhI10
_chemical_formula_sum   'Gd3 Y3 Rh1 I10'
_cell_volume   684.28431938
_cell_formula_units_Z   1
loop_
 _symmetry_equiv_pos_site_id
 _symmetry_equiv_pos_as_xyz
  1  'x, y, z'
loop_
 _atom_site_type_symbol
 _atom_site_label
 _atom_site_symmetry_multiplicity
 _atom_site_fract_x
 _atom_site_fract_y
 _atom_site_fract_z
 _atom_site_occupancy
  Gd  Gd0  1  0.531812  0.222030  0.417818  1
  Gd  Gd1  1  0.468576  0.778092  0.582141  1
  Gd  Gd2  1  0.151483  0.375847  0.333579  1
  Y  Y3  1  0.849232  0.624827  0.666595  1
  Y  Y4  1  0.616162  0.544236  0.258712  1
  Y  Y5  1  0.384205  0.456143  0.741547  1
  Rh  Rh6  1  0.502890  0.498617  0.500343  1
  I  I7  1  0.152381  0.050370  0.228459  1
  I  I8  1  0.846794  0.948736  0.771106  1
  I  I9  1  0.245291  0.413198  0.037576  1
  I  I10  1  0.753954  0.586749  0.961710  1
  I  I11  1  0.723344  0.246302  0.157604  1
  I  I12  1  0.275121  0.753980  0.842441  1
  I  I13  1  0.045572  0.684976  0.409992  1
  I  I14  1  0.953663  0.316047  0.590571  1
  I  I15  1  0.414025  0.126670  0.677222  1
  I  I16  1  0.585494  0.873180  0.322584  1
