# generated using pymatgen
data_HoEr7Ga3Os
_symmetry_space_group_name_H-M   'P 1'
_cell_length_a   9.94012000
_cell_length_b   9.94012099
_cell_length_c   7.00430400
_cell_angle_alpha   90.00000000
_cell_angle_beta   90.00000000
_cell_angle_gamma   120.00000337
_symmetry_Int_Tables_number   1
_chemical_formula_structural   HoEr7Ga3Os
_chemical_formula_sum   'Ho2 Er14 Ga6 Os2'
_cell_volume   599.34778113
_cell_formula_units_Z   2
loop_
 _symmetry_equiv_pos_site_id
 _symmetry_equiv_pos_as_xyz
  1  'x, y, z'
loop_
 _atom_site_type_symbol
 _atom_site_label
 _atom_site_symmetry_multiplicity
 _atom_site_fract_x
 _atom_site_fract_y
 _atom_site_fract_z
 _atom_site_occupancy
  Ho  Ho0  1  0.000000  0.000000  0.267001  1
  Ho  Ho1  1  0.000000  0.000000  0.767001  1
  Er  Er2  1  0.171761  0.828239  0.990821  1
  Er  Er3  1  0.828239  0.171761  0.490821  1
  Er  Er4  1  0.171761  0.343520  0.990821  1
  Er  Er5  1  0.656480  0.828239  0.990821  1
  Er  Er6  1  0.343520  0.171761  0.490821  1
  Er  Er7  1  0.828239  0.656480  0.490821  1
  Er  Er8  1  0.333333  0.666667  0.661533  1
  Er  Er9  1  0.666667  0.333333  0.161533  1
  Er  Er10  1  0.465694  0.534306  0.295636  1
  Er  Er11  1  0.534306  0.465694  0.795636  1
  Er  Er12  1  0.465694  0.931389  0.295636  1
  Er  Er13  1  0.068611  0.534306  0.295636  1
  Er  Er14  1  0.931389  0.465694  0.795636  1
  Er  Er15  1  0.534306  0.068611  0.795636  1
  Ga  Ga16  1  0.163901  0.836099  0.542939  1
  Ga  Ga17  1  0.836099  0.163901  0.042939  1
  Ga  Ga18  1  0.163901  0.327802  0.542939  1
  Ga  Ga19  1  0.672198  0.836099  0.542939  1
  Ga  Ga20  1  0.327802  0.163901  0.042939  1
  Ga  Ga21  1  0.836099  0.672198  0.042939  1
  Os  Os22  1  0.333333  0.666667  0.056339  1
  Os  Os23  1  0.666667  0.333333  0.556339  1
