# generated using pymatgen
data_V4Br11Cl5
_symmetry_space_group_name_H-M   'P 1'
_cell_length_a   7.27373609
_cell_length_b   10.47364827
_cell_length_c   10.93512985
_cell_angle_alpha   77.04230654
_cell_angle_beta   90.05259241
_cell_angle_gamma   90.51006177
_symmetry_Int_Tables_number   1
_chemical_formula_structural   V4Br11Cl5
_chemical_formula_sum   'V4 Br11 Cl5'
_cell_volume   811.82016917
_cell_formula_units_Z   1
loop_
 _symmetry_equiv_pos_site_id
 _symmetry_equiv_pos_as_xyz
  1  'x, y, z'
loop_
 _atom_site_type_symbol
 _atom_site_label
 _atom_site_symmetry_multiplicity
 _atom_site_fract_x
 _atom_site_fract_y
 _atom_site_fract_z
 _atom_site_occupancy
  V  V0  1  0.075673  0.245443  0.638732  1
  V  V1  1  0.575768  0.754775  0.861499  1
  V  V2  1  0.924080  0.754210  0.361134  1
  V  V3  1  0.427440  0.248511  0.139886  1
  Br  Br4  1  0.372447  0.307436  0.581836  1
  Br  Br5  1  0.871851  0.693657  0.917659  1
  Br  Br6  1  0.627345  0.692693  0.417738  1
  Br  Br7  1  0.130331  0.306910  0.083553  1
  Br  Br8  1  0.927626  0.193775  0.470620  1
  Br  Br9  1  0.428545  0.805747  0.029702  1
  Br  Br10  1  0.071995  0.806235  0.528929  1
  Br  Br11  1  0.572782  0.195780  0.971747  1
  Br  Br12  1  0.924811  0.415214  0.695226  1
  Br  Br13  1  0.423573  0.583715  0.805146  1
  Br  Br14  1  0.075182  0.584764  0.304720  1
  Cl  Cl15  1  0.569572  0.409383  0.191720  1
  Cl  Cl16  1  0.073857  0.080129  0.795598  1
  Cl  Cl17  1  0.575047  0.919848  0.704415  1
  Cl  Cl18  1  0.926307  0.919947  0.204561  1
  Cl  Cl19  1  0.425766  0.081829  0.295580  1
