# generated using pymatgen
data_SrLa(CdAu3)3
_symmetry_space_group_name_H-M   'P 1'
_cell_length_a   5.90099455
_cell_length_b   5.90373153
_cell_length_c   10.33333600
_cell_angle_alpha   90.00000000
_cell_angle_beta   90.00000000
_cell_angle_gamma   122.75403095
_symmetry_Int_Tables_number   1
_chemical_formula_structural   SrLa(CdAu3)3
_chemical_formula_sum   'Sr1 La1 Cd3 Au9'
_cell_volume   302.75327605
_cell_formula_units_Z   1
loop_
 _symmetry_equiv_pos_site_id
 _symmetry_equiv_pos_as_xyz
  1  'x, y, z'
loop_
 _atom_site_type_symbol
 _atom_site_label
 _atom_site_symmetry_multiplicity
 _atom_site_fract_x
 _atom_site_fract_y
 _atom_site_fract_z
 _atom_site_occupancy
  Sr  Sr0  1  0.000000  0.500000  0.756359  1
  La  La1  1  0.500000  0.000000  0.242872  1
  Cd  Cd2  1  0.000000  0.000000  0.499794  1
  Cd  Cd3  1  0.000000  0.000000  0.000650  1
  Cd  Cd4  1  0.500000  0.500000  0.499008  1
  Au  Au5  1  0.000000  0.500000  0.060705  1
  Au  Au6  1  0.500000  0.000000  0.549006  1
  Au  Au7  1  0.500000  0.000000  0.945231  1
  Au  Au8  1  0.000000  0.500000  0.445833  1
  Au  Au9  1  0.692781  0.807019  0.748208  1
  Au  Au10  1  0.195608  0.304340  0.252046  1
  Au  Au11  1  0.804392  0.695660  0.252046  1
  Au  Au12  1  0.307219  0.192981  0.748208  1
  Au  Au13  1  0.500000  0.500000  0.000034  1
