# generated using pymatgen
data_Hf(NbSn)5
_symmetry_space_group_name_H-M   'P 1'
_cell_length_a   10.17719209
_cell_length_b   10.17719213
_cell_length_c   10.17719134
_cell_angle_alpha   147.47287102
_cell_angle_beta   125.35809229
_cell_angle_gamma   65.05034481
_symmetry_Int_Tables_number   1
_chemical_formula_structural   Hf(NbSn)5
_chemical_formula_sum   'Hf2 Nb10 Sn10'
_cell_volume   456.96753860
_cell_formula_units_Z   2
loop_
 _symmetry_equiv_pos_site_id
 _symmetry_equiv_pos_as_xyz
  1  'x, y, z'
loop_
 _atom_site_type_symbol
 _atom_site_label
 _atom_site_symmetry_multiplicity
 _atom_site_fract_x
 _atom_site_fract_y
 _atom_site_fract_z
 _atom_site_occupancy
  Hf  Hf0  1  0.654495  0.654495  0.000000  1
  Hf  Hf1  1  0.345505  0.345505  0.000000  1
  Nb  Nb2  1  0.000000  0.763021  0.763021  1
  Nb  Nb3  1  0.000000  0.236979  0.236979  1
  Nb  Nb4  1  0.500000  0.000000  0.000000  1
  Nb  Nb5  1  0.000000  0.500000  0.000000  1
  Nb  Nb6  1  0.000000  0.000000  0.500000  1
  Nb  Nb7  1  0.500000  0.500000  0.500000  1
  Nb  Nb8  1  0.644525  0.916075  0.728450  1
  Nb  Nb9  1  0.187625  0.916075  0.271550  1
  Nb  Nb10  1  0.812375  0.083925  0.728450  1
  Nb  Nb11  1  0.355475  0.083925  0.271550  1
  Sn  Sn12  1  0.832831  0.832831  0.000000  1
  Sn  Sn13  1  0.167169  0.167169  0.000000  1
  Sn  Sn14  1  0.294132  0.794132  0.500000  1
  Sn  Sn15  1  0.705868  0.205868  0.500000  1
  Sn  Sn16  1  0.500000  0.746467  0.246467  1
  Sn  Sn17  1  0.500000  0.253533  0.753533  1
  Sn  Sn18  1  0.295753  0.604005  0.691748  1
  Sn  Sn19  1  0.912256  0.604005  0.308252  1
  Sn  Sn20  1  0.087744  0.395995  0.691748  1
  Sn  Sn21  1  0.704247  0.395995  0.308252  1
