# generated using pymatgen
data_DyLu2Co8TcP6
_symmetry_space_group_name_H-M   'P 1'
_cell_length_a   3.68871600
_cell_length_b   10.48414600
_cell_length_c   12.16304300
_cell_angle_alpha   90.00000000
_cell_angle_beta   90.00000000
_cell_angle_gamma   90.00000000
_symmetry_Int_Tables_number   1
_chemical_formula_structural   DyLu2Co8TcP6
_chemical_formula_sum   'Dy2 Lu4 Co16 Tc2 P12'
_cell_volume   470.38181315
_cell_formula_units_Z   2
loop_
 _symmetry_equiv_pos_site_id
 _symmetry_equiv_pos_as_xyz
  1  'x, y, z'
loop_
 _atom_site_type_symbol
 _atom_site_label
 _atom_site_symmetry_multiplicity
 _atom_site_fract_x
 _atom_site_fract_y
 _atom_site_fract_z
 _atom_site_occupancy
  Dy  Dy0  1  0.000000  0.500000  0.525464  1
  Dy  Dy1  1  0.500000  0.000000  0.474536  1
  Lu  Lu2  1  0.500000  0.818218  0.205430  1
  Lu  Lu3  1  0.500000  0.181782  0.205430  1
  Lu  Lu4  1  0.000000  0.681782  0.794570  1
  Lu  Lu5  1  0.000000  0.318218  0.794570  1
  Co  Co6  1  0.500000  0.500000  0.703800  1
  Co  Co7  1  0.000000  0.000000  0.296200  1
  Co  Co8  1  0.000000  0.500000  0.986775  1
  Co  Co9  1  0.500000  0.000000  0.013225  1
  Co  Co10  1  0.500000  0.332090  0.989163  1
  Co  Co11  1  0.500000  0.667910  0.989163  1
  Co  Co12  1  0.000000  0.167910  0.010837  1
  Co  Co13  1  0.000000  0.832090  0.010837  1
  Co  Co14  1  0.500000  0.296457  0.430778  1
  Co  Co15  1  0.500000  0.703543  0.430778  1
  Co  Co16  1  0.000000  0.203543  0.569222  1
  Co  Co17  1  0.000000  0.796457  0.569222  1
  Co  Co18  1  0.500000  0.878016  0.708301  1
  Co  Co19  1  0.500000  0.121984  0.708301  1
  Co  Co20  1  0.000000  0.621984  0.291699  1
  Co  Co21  1  0.000000  0.378016  0.291699  1
  Tc  Tc22  1  0.500000  0.500000  0.156552  1
  Tc  Tc23  1  0.000000  0.000000  0.843448  1
  P  P24  1  0.500000  0.500000  0.880139  1
  P  P25  1  0.000000  0.000000  0.119861  1
  P  P26  1  0.500000  0.500000  0.349032  1
  P  P27  1  0.000000  0.000000  0.650968  1
  P  P28  1  0.500000  0.311882  0.617704  1
  P  P29  1  0.500000  0.688118  0.617704  1
  P  P30  1  0.000000  0.188118  0.382296  1
  P  P31  1  0.000000  0.811882  0.382296  1
  P  P32  1  0.500000  0.845262  0.891909  1
  P  P33  1  0.500000  0.154738  0.891909  1
  P  P34  1  0.000000  0.654738  0.108091  1
  P  P35  1  0.000000  0.345262  0.108091  1
