# generated using pymatgen
data_ErInNi3Pt
_symmetry_space_group_name_H-M   'P 1'
_cell_length_a   5.17719674
_cell_length_b   5.17719627
_cell_length_c   5.17719758
_cell_angle_alpha   57.86392034
_cell_angle_beta   57.86392121
_cell_angle_gamma   57.86392663
_symmetry_Int_Tables_number   1
_chemical_formula_structural   ErInNi3Pt
_chemical_formula_sum   'Er1 In1 Ni3 Pt1'
_cell_volume   93.31116546
_cell_formula_units_Z   1
loop_
 _symmetry_equiv_pos_site_id
 _symmetry_equiv_pos_as_xyz
  1  'x, y, z'
loop_
 _atom_site_type_symbol
 _atom_site_label
 _atom_site_symmetry_multiplicity
 _atom_site_fract_x
 _atom_site_fract_y
 _atom_site_fract_z
 _atom_site_occupancy
  Er  Er0  1  0.249669  0.249669  0.249669  1
  In  In1  1  0.007842  0.007842  0.007842  1
  Ni  Ni2  1  0.623745  0.623745  0.121483  1
  Ni  Ni3  1  0.623745  0.121483  0.623745  1
  Ni  Ni4  1  0.121483  0.623745  0.623745  1
  Pt  Pt5  1  0.623517  0.623517  0.623517  1
