# generated using pymatgen
data_Zr10Bi4PdPb2Au
_symmetry_space_group_name_H-M   'P 1'
_cell_length_a   8.90416229
_cell_length_b   8.90416311
_cell_length_c   5.99453937
_cell_angle_alpha   90.01033777
_cell_angle_beta   90.01034165
_cell_angle_gamma   119.99613375
_symmetry_Int_Tables_number   1
_chemical_formula_structural   Zr10Bi4PdPb2Au
_chemical_formula_sum   'Zr10 Bi4 Pd1 Pb2 Au1'
_cell_volume   411.61340716
_cell_formula_units_Z   1
loop_
 _symmetry_equiv_pos_site_id
 _symmetry_equiv_pos_as_xyz
  1  'x, y, z'
loop_
 _atom_site_type_symbol
 _atom_site_label
 _atom_site_symmetry_multiplicity
 _atom_site_fract_x
 _atom_site_fract_y
 _atom_site_fract_z
 _atom_site_occupancy
  Zr  Zr0  1  0.666814  0.333025  0.001554  1
  Zr  Zr1  1  0.333025  0.666814  0.001554  1
  Zr  Zr2  1  0.332973  0.666771  0.498533  1
  Zr  Zr3  1  0.666771  0.332973  0.498533  1
  Zr  Zr4  1  0.730546  0.730546  0.746646  1
  Zr  Zr5  1  0.268303  0.999294  0.746036  1
  Zr  Zr6  1  0.999294  0.268303  0.746036  1
  Zr  Zr7  1  0.270215  0.270215  0.253416  1
  Zr  Zr8  1  0.730311  0.001767  0.253805  1
  Zr  Zr9  1  0.001767  0.730311  0.253805  1
  Bi  Bi10  1  0.383957  0.383957  0.750360  1
  Bi  Bi11  1  0.614644  0.000139  0.750128  1
  Bi  Bi12  1  0.000139  0.614644  0.750128  1
  Bi  Bi13  1  0.616742  0.616742  0.250023  1
  Pd  Pd14  1  0.000746  0.000746  0.498251  1
  Pb  Pb15  1  0.383174  0.000263  0.249888  1
  Pb  Pb16  1  0.000263  0.383174  0.249888  1
  Au  Au17  1  0.000320  0.000320  0.001416  1
