# generated using pymatgen
data_La8Tm12Sn9Sb7
_symmetry_space_group_name_H-M   'P 1'
_cell_length_a   8.33678998
_cell_length_b   8.28808869
_cell_length_c   15.68101400
_cell_angle_alpha   90.02047639
_cell_angle_beta   89.97216580
_cell_angle_gamma   89.98870715
_symmetry_Int_Tables_number   1
_chemical_formula_structural   La8Tm12Sn9Sb7
_chemical_formula_sum   'La8 Tm12 Sn9 Sb7'
_cell_volume   1083.49598422
_cell_formula_units_Z   1
loop_
 _symmetry_equiv_pos_site_id
 _symmetry_equiv_pos_as_xyz
  1  'x, y, z'
loop_
 _atom_site_type_symbol
 _atom_site_label
 _atom_site_symmetry_multiplicity
 _atom_site_fract_x
 _atom_site_fract_y
 _atom_site_fract_z
 _atom_site_occupancy
  La  La0  1  0.522111  0.323143  0.901986  1
  La  La1  1  0.021326  0.178547  0.597723  1
  La  La2  1  0.478769  0.678117  0.402016  1
  La  La3  1  0.979136  0.821032  0.098310  1
  La  La4  1  0.480858  0.677486  0.097846  1
  La  La5  1  0.978888  0.821060  0.402318  1
  La  La6  1  0.521078  0.320942  0.597820  1
  La  La7  1  0.020058  0.179194  0.902187  1
  Tm  Tm8  1  0.359944  0.842150  0.874792  1
  Tm  Tm9  1  0.860418  0.657217  0.624922  1
  Tm  Tm10  1  0.639288  0.157072  0.375352  1
  Tm  Tm11  1  0.137894  0.342483  0.125903  1
  Tm  Tm12  1  0.640952  0.159294  0.124821  1
  Tm  Tm13  1  0.139584  0.342283  0.375263  1
  Tm  Tm14  1  0.360167  0.842699  0.625096  1
  Tm  Tm15  1  0.859435  0.657342  0.874809  1
  Tm  Tm16  1  0.192162  0.501868  0.749786  1
  Tm  Tm17  1  0.691891  0.998130  0.749998  1
  Tm  Tm18  1  0.807944  0.497542  0.248192  1
  Tm  Tm19  1  0.308121  0.002275  0.249772  1
  Sn  Sn20  1  0.798151  0.457895  0.044411  1
  Sn  Sn21  1  0.555652  0.630374  0.749395  1
  Sn  Sn22  1  0.055581  0.869773  0.749809  1
  Sn  Sn23  1  0.444064  0.369537  0.250951  1
  Sn  Sn24  1  0.944170  0.129571  0.251181  1
  Sn  Sn25  1  0.330017  0.144503  0.750075  1
  Sn  Sn26  1  0.829993  0.355383  0.749502  1
  Sn  Sn27  1  0.670377  0.856099  0.250487  1
  Sn  Sn28  1  0.170969  0.644426  0.250620  1
  Sb  Sb29  1  0.296526  0.042717  0.045454  1
  Sb  Sb30  1  0.796244  0.457070  0.454579  1
  Sb  Sb31  1  0.703668  0.957306  0.545544  1
  Sb  Sb32  1  0.201466  0.542845  0.954933  1
  Sb  Sb33  1  0.702852  0.957905  0.953973  1
  Sb  Sb34  1  0.203949  0.542597  0.545483  1
  Sb  Sb35  1  0.296300  0.042120  0.454692  1
