# generated using pymatgen
data_DyEr(Ga3Ir)3
_symmetry_space_group_name_H-M   'P 1'
_cell_length_a   7.58176899
_cell_length_b   7.58296662
_cell_length_c   9.50729900
_cell_angle_alpha   90.00000000
_cell_angle_beta   90.00000000
_cell_angle_gamma   119.94310534
_symmetry_Int_Tables_number   1
_chemical_formula_structural   DyEr(Ga3Ir)3
_chemical_formula_sum   'Dy2 Er2 Ga18 Ir6'
_cell_volume   473.63760429
_cell_formula_units_Z   2
loop_
 _symmetry_equiv_pos_site_id
 _symmetry_equiv_pos_as_xyz
  1  'x, y, z'
loop_
 _atom_site_type_symbol
 _atom_site_label
 _atom_site_symmetry_multiplicity
 _atom_site_fract_x
 _atom_site_fract_y
 _atom_site_fract_z
 _atom_site_occupancy
  Dy  Dy0  1  0.997063  0.667732  0.750000  1
  Dy  Dy1  1  0.002937  0.332268  0.250000  1
  Er  Er2  1  0.667754  0.997132  0.750000  1
  Er  Er3  1  0.332246  0.002868  0.250000  1
  Ga  Ga4  1  0.126922  0.127040  0.750000  1
  Ga  Ga5  1  0.873078  0.872960  0.250000  1
  Ga  Ga6  1  0.998988  0.333674  0.580350  1
  Ga  Ga7  1  0.001012  0.666326  0.419650  1
  Ga  Ga8  1  0.001012  0.666326  0.080350  1
  Ga  Ga9  1  0.334175  0.999220  0.919816  1
  Ga  Ga10  1  0.998988  0.333674  0.919650  1
  Ga  Ga11  1  0.665825  0.000780  0.080184  1
  Ga  Ga12  1  0.665825  0.000780  0.419816  1
  Ga  Ga13  1  0.334175  0.999220  0.580184  1
  Ga  Ga14  1  0.332645  0.332443  0.064466  1
  Ga  Ga15  1  0.667355  0.667557  0.935534  1
  Ga  Ga16  1  0.667355  0.667557  0.564466  1
  Ga  Ga17  1  0.332645  0.332443  0.435534  1
  Ga  Ga18  1  0.338570  0.546205  0.750000  1
  Ga  Ga19  1  0.661430  0.453795  0.250000  1
  Ga  Ga20  1  0.546012  0.338275  0.750000  1
  Ga  Ga21  1  0.453988  0.661725  0.250000  1
  Ir  Ir22  1  0.671616  0.328204  0.500003  1
  Ir  Ir23  1  0.328384  0.671796  0.499997  1
  Ir  Ir24  1  0.328384  0.671796  0.000003  1
  Ir  Ir25  1  0.671616  0.328204  0.999997  1
  Ir  Ir26  1  0.000000  0.000000  0.500000  1
  Ir  Ir27  1  0.000000  0.000000  0.000000  1
