# generated using pymatgen
data_TbDy2TmIn4
_symmetry_space_group_name_H-M   'P 1'
_cell_length_a   6.49654095
_cell_length_b   6.49654266
_cell_length_c   10.32673600
_cell_angle_alpha   90.00000000
_cell_angle_beta   90.00000000
_cell_angle_gamma   104.00138690
_symmetry_Int_Tables_number   1
_chemical_formula_structural   TbDy2TmIn4
_chemical_formula_sum   'Tb2 Dy4 Tm2 In8'
_cell_volume   422.89158798
_cell_formula_units_Z   2
loop_
 _symmetry_equiv_pos_site_id
 _symmetry_equiv_pos_as_xyz
  1  'x, y, z'
loop_
 _atom_site_type_symbol
 _atom_site_label
 _atom_site_symmetry_multiplicity
 _atom_site_fract_x
 _atom_site_fract_y
 _atom_site_fract_z
 _atom_site_occupancy
  Tb  Tb0  1  0.752202  0.247798  0.500000  1
  Tb  Tb1  1  0.752202  0.247798  0.000000  1
  Dy  Dy2  1  0.524086  0.524254  0.250000  1
  Dy  Dy3  1  0.475746  0.475914  0.750000  1
  Dy  Dy4  1  0.247799  0.752201  0.500000  1
  Dy  Dy5  1  0.247799  0.752201  0.000000  1
  Tm  Tm6  1  0.982348  0.982175  0.250000  1
  Tm  Tm7  1  0.017825  0.017652  0.750000  1
  In  In8  1  0.250651  0.250644  0.013280  1
  In  In9  1  0.749356  0.749349  0.986720  1
  In  In10  1  0.250651  0.250644  0.486720  1
  In  In11  1  0.749356  0.749349  0.513280  1
  In  In12  1  0.486493  0.014476  0.250000  1
  In  In13  1  0.985524  0.513507  0.750000  1
  In  In14  1  0.513282  0.985321  0.750000  1
  In  In15  1  0.014679  0.486718  0.250000  1
