# generated using pymatgen
data_Lu6Al24ZnRu7
_symmetry_space_group_name_H-M   'P 1'
_cell_length_a   8.77305218
_cell_length_b   8.77305244
_cell_length_c   9.51774548
_cell_angle_alpha   89.98067258
_cell_angle_beta   90.01932731
_cell_angle_gamma   119.84428461
_symmetry_Int_Tables_number   1
_chemical_formula_structural   Lu6Al24ZnRu7
_chemical_formula_sum   'Lu6 Al24 Zn1 Ru7'
_cell_volume   635.39740233
_cell_formula_units_Z   1
loop_
 _symmetry_equiv_pos_site_id
 _symmetry_equiv_pos_as_xyz
  1  'x, y, z'
loop_
 _atom_site_type_symbol
 _atom_site_label
 _atom_site_symmetry_multiplicity
 _atom_site_fract_x
 _atom_site_fract_y
 _atom_site_fract_z
 _atom_site_occupancy
  Lu  Lu0  1  0.803686  0.196314  0.746156  1
  Lu  Lu1  1  0.196314  0.803686  0.253844  1
  Lu  Lu2  1  0.388101  0.192578  0.752392  1
  Lu  Lu3  1  0.611899  0.807422  0.247608  1
  Lu  Lu4  1  0.807422  0.611899  0.752392  1
  Lu  Lu5  1  0.192578  0.388101  0.247608  1
  Al  Al6  1  0.670774  0.329226  0.975694  1
  Al  Al7  1  0.329226  0.670774  0.024306  1
  Al  Al8  1  0.333860  0.666140  0.478628  1
  Al  Al9  1  0.666140  0.333860  0.521372  1
  Al  Al10  1  0.837143  0.162857  0.420638  1
  Al  Al11  1  0.162857  0.837143  0.579362  1
  Al  Al12  1  0.324801  0.162955  0.423655  1
  Al  Al13  1  0.163189  0.836811  0.920404  1
  Al  Al14  1  0.675199  0.837045  0.576345  1
  Al  Al15  1  0.836811  0.163189  0.079596  1
  Al  Al16  1  0.837045  0.675199  0.423655  1
  Al  Al17  1  0.677330  0.848414  0.918137  1
  Al  Al18  1  0.162955  0.324801  0.576345  1
  Al  Al19  1  0.322670  0.151586  0.081863  1
  Al  Al20  1  0.151586  0.322670  0.918137  1
  Al  Al21  1  0.848414  0.677330  0.081863  1
  Al  Al22  1  0.436907  0.563093  0.745551  1
  Al  Al23  1  0.563093  0.436907  0.254449  1
  Al  Al24  1  0.121035  0.561414  0.751045  1
  Al  Al25  1  0.878965  0.438586  0.248955  1
  Al  Al26  1  0.438586  0.878965  0.751045  1
  Al  Al27  1  0.561414  0.121035  0.248955  1
  Al  Al28  1  0.000779  0.999221  0.749659  1
  Al  Al29  1  0.999221  0.000779  0.250341  1
  Zn  Zn30  1  0.500000  0.500000  0.000000  1
  Ru  Ru31  1  0.000000  0.500000  0.000000  1
  Ru  Ru32  1  0.500000  0.500000  0.500000  1
  Ru  Ru33  1  0.500000  0.000000  0.000000  1
  Ru  Ru34  1  0.000000  0.500000  0.500000  1
  Ru  Ru35  1  0.500000  0.000000  0.500000  1
  Ru  Ru36  1  0.000000  0.000000  0.000000  1
  Ru  Ru37  1  0.000000  0.000000  0.500000  1
