# generated using pymatgen
data_NaLa8YbSn8
_symmetry_space_group_name_H-M   'P 1'
_cell_length_a   8.17897900
_cell_length_b   8.66544400
_cell_length_c   16.43909100
_cell_angle_alpha   90.00000000
_cell_angle_beta   90.00000000
_cell_angle_gamma   90.00000000
_symmetry_Int_Tables_number   1
_chemical_formula_structural   NaLa8YbSn8
_chemical_formula_sum   'Na2 La16 Yb2 Sn16'
_cell_volume   1165.11210030
_cell_formula_units_Z   2
loop_
 _symmetry_equiv_pos_site_id
 _symmetry_equiv_pos_as_xyz
  1  'x, y, z'
loop_
 _atom_site_type_symbol
 _atom_site_label
 _atom_site_symmetry_multiplicity
 _atom_site_fract_x
 _atom_site_fract_y
 _atom_site_fract_z
 _atom_site_occupancy
  Na  Na0  1  0.833845  0.509530  0.750000  1
  Na  Na1  1  0.333845  0.990470  0.750000  1
  La  La2  1  0.660683  0.173085  0.627354  1
  La  La3  1  0.160683  0.326915  0.872646  1
  La  La4  1  0.336552  0.826154  0.124406  1
  La  La5  1  0.836552  0.673846  0.375594  1
  La  La6  1  0.336552  0.826154  0.375594  1
  La  La7  1  0.836552  0.673846  0.124406  1
  La  La8  1  0.660683  0.173085  0.872646  1
  La  La9  1  0.160683  0.326915  0.627354  1
  La  La10  1  0.508508  0.687830  0.598330  1
  La  La11  1  0.008508  0.812170  0.901670  1
  La  La12  1  0.493913  0.315965  0.096763  1
  La  La13  1  0.993913  0.184035  0.403237  1
  La  La14  1  0.493913  0.315965  0.403237  1
  La  La15  1  0.993913  0.184035  0.096763  1
  La  La16  1  0.508508  0.687830  0.901670  1
  La  La17  1  0.008508  0.812170  0.598330  1
  Yb  Yb18  1  0.167313  0.493118  0.250000  1
  Yb  Yb19  1  0.667313  0.006882  0.250000  1
  Sn  Sn20  1  0.673711  0.966565  0.463139  1
  Sn  Sn21  1  0.173711  0.533435  0.036861  1
  Sn  Sn22  1  0.323030  0.038852  0.964189  1
  Sn  Sn23  1  0.823030  0.461148  0.535811  1
  Sn  Sn24  1  0.323030  0.038852  0.535811  1
  Sn  Sn25  1  0.823030  0.461148  0.964189  1
  Sn  Sn26  1  0.673711  0.966565  0.036861  1
  Sn  Sn27  1  0.173711  0.533435  0.463139  1
  Sn  Sn28  1  0.467558  0.408276  0.750000  1
  Sn  Sn29  1  0.967558  0.091724  0.750000  1
  Sn  Sn30  1  0.534231  0.600144  0.250000  1
  Sn  Sn31  1  0.034231  0.899856  0.250000  1
  Sn  Sn32  1  0.709757  0.860359  0.750000  1
  Sn  Sn33  1  0.209757  0.639641  0.750000  1
  Sn  Sn34  1  0.294505  0.140876  0.250000  1
  Sn  Sn35  1  0.794505  0.359124  0.250000  1
