# generated using pymatgen
data_YEr(AgO2)4
_symmetry_space_group_name_H-M   'P 1'
_cell_length_a   6.61231936
_cell_length_b   6.61231908
_cell_length_c   6.61231926
_cell_angle_alpha   126.19735294
_cell_angle_beta   126.19734473
_cell_angle_gamma   79.56402426
_symmetry_Int_Tables_number   1
_chemical_formula_structural   YEr(AgO2)4
_chemical_formula_sum   'Y1 Er1 Ag4 O8'
_cell_volume   181.93152104
_cell_formula_units_Z   1
loop_
 _symmetry_equiv_pos_site_id
 _symmetry_equiv_pos_as_xyz
  1  'x, y, z'
loop_
 _atom_site_type_symbol
 _atom_site_label
 _atom_site_symmetry_multiplicity
 _atom_site_fract_x
 _atom_site_fract_y
 _atom_site_fract_z
 _atom_site_occupancy
  Y  Y0  1  0.000000  0.000000  0.000000  1
  Er  Er1  1  0.750000  0.250000  0.500000  1
  Ag  Ag2  1  0.373958  0.125596  0.749436  1
  Ag  Ag3  1  0.376160  0.624523  0.250564  1
  Ag  Ag4  1  0.874404  0.623840  0.248363  1
  Ag  Ag5  1  0.375477  0.626042  0.751637  1
  O  O6  1  0.030287  0.012215  0.656142  1
  O  O7  1  0.625856  0.969713  0.981930  1
  O  O8  1  0.987785  0.643927  0.018070  1
  O  O9  1  0.400449  0.878030  0.162954  1
  O  O10  1  0.762504  0.599551  0.477581  1
  O  O11  1  0.121970  0.284924  0.522419  1
  O  O12  1  0.356073  0.374144  0.343858  1
  O  O13  1  0.715076  0.237496  0.837046  1
