# generated using pymatgen
data_PrHo4In4PdRh
_symmetry_space_group_name_H-M   'P 1'
_cell_length_a   3.63439100
_cell_length_b   8.13866043
_cell_length_c   18.42031605
_cell_angle_alpha   90.01437260
_cell_angle_beta   90.00000000
_cell_angle_gamma   90.00000000
_symmetry_Int_Tables_number   1
_chemical_formula_structural   PrHo4In4PdRh
_chemical_formula_sum   'Pr2 Ho8 In8 Pd2 Rh2'
_cell_volume   544.85587847
_cell_formula_units_Z   2
loop_
 _symmetry_equiv_pos_site_id
 _symmetry_equiv_pos_as_xyz
  1  'x, y, z'
loop_
 _atom_site_type_symbol
 _atom_site_label
 _atom_site_symmetry_multiplicity
 _atom_site_fract_x
 _atom_site_fract_y
 _atom_site_fract_z
 _atom_site_occupancy
  Pr  Pr0  1  0.000000  0.500000  0.500000  1
  Pr  Pr1  1  0.000000  0.000000  0.000000  1
  Ho  Ho2  1  0.000000  0.730574  0.278879  1
  Ho  Ho3  1  0.000000  0.269426  0.721121  1
  Ho  Ho4  1  0.000000  0.747313  0.780323  1
  Ho  Ho5  1  0.000000  0.252687  0.219677  1
  Ho  Ho6  1  0.000000  0.616763  0.088368  1
  Ho  Ho7  1  0.000000  0.383237  0.911632  1
  Ho  Ho8  1  0.000000  0.880597  0.585797  1
  Ho  Ho9  1  0.000000  0.119403  0.414203  1
  In  In10  1  0.500000  0.702465  0.929836  1
  In  In11  1  0.500000  0.297535  0.070164  1
  In  In12  1  0.500000  0.798534  0.430759  1
  In  In13  1  0.500000  0.201466  0.569241  1
  In  In14  1  0.500000  0.578732  0.652430  1
  In  In15  1  0.500000  0.421268  0.347570  1
  In  In16  1  0.500000  0.920808  0.153294  1
  In  In17  1  0.500000  0.079192  0.846706  1
  Pd  Pd18  1  0.500000  0.979029  0.696191  1
  Pd  Pd19  1  0.500000  0.020971  0.303809  1
  Rh  Rh20  1  0.500000  0.521050  0.194965  1
  Rh  Rh21  1  0.500000  0.478950  0.805035  1
