# generated using pymatgen
data_Ho6Lu4InPb5
_symmetry_space_group_name_H-M   'P 1'
_cell_length_a   6.54754400
_cell_length_b   8.95430316
_cell_length_c   8.96154109
_cell_angle_alpha   119.97165111
_cell_angle_beta   90.00016645
_cell_angle_gamma   90.00033032
_symmetry_Int_Tables_number   1
_chemical_formula_structural   Ho6Lu4InPb5
_chemical_formula_sum   'Ho6 Lu4 In1 Pb5'
_cell_volume   455.14265872
_cell_formula_units_Z   1
loop_
 _symmetry_equiv_pos_site_id
 _symmetry_equiv_pos_as_xyz
  1  'x, y, z'
loop_
 _atom_site_type_symbol
 _atom_site_label
 _atom_site_symmetry_multiplicity
 _atom_site_fract_x
 _atom_site_fract_y
 _atom_site_fract_z
 _atom_site_occupancy
  Ho  Ho0  1  0.749996  0.238769  0.999981  1
  Ho  Ho1  1  0.749999  0.761527  0.765029  1
  Ho  Ho2  1  0.750007  0.996492  0.234959  1
  Ho  Ho3  1  0.249993  0.762347  0.000005  1
  Ho  Ho4  1  0.249995  0.237334  0.237085  1
  Ho  Ho5  1  0.249998  0.000253  0.762926  1
  Lu  Lu6  1  0.501853  0.335183  0.668777  1
  Lu  Lu7  1  0.501869  0.666402  0.331211  1
  Lu  Lu8  1  0.998126  0.666436  0.331209  1
  Lu  Lu9  1  0.998132  0.335199  0.668790  1
  In  In10  1  0.749998  0.603192  0.000012  1
  Pb  Pb11  1  0.750007  0.395696  0.395794  1
  Pb  Pb12  1  0.749997  0.999873  0.604180  1
  Pb  Pb13  1  0.250027  0.396488  0.000008  1
  Pb  Pb14  1  0.249995  0.604170  0.603524  1
  Pb  Pb15  1  0.250009  0.000642  0.396511  1
