# generated using pymatgen
data_Ti6Zn6CoIr11
_symmetry_space_group_name_H-M   'P 1'
_cell_length_a   4.33465300
_cell_length_b   6.09204100
_cell_length_c   12.97423400
_cell_angle_alpha   89.99986351
_cell_angle_beta   89.99963389
_cell_angle_gamma   90.00018658
_symmetry_Int_Tables_number   1
_chemical_formula_structural   Ti6Zn6CoIr11
_chemical_formula_sum   'Ti6 Zn6 Co1 Ir11'
_cell_volume   342.60908959
_cell_formula_units_Z   1
loop_
 _symmetry_equiv_pos_site_id
 _symmetry_equiv_pos_as_xyz
  1  'x, y, z'
loop_
 _atom_site_type_symbol
 _atom_site_label
 _atom_site_symmetry_multiplicity
 _atom_site_fract_x
 _atom_site_fract_y
 _atom_site_fract_z
 _atom_site_occupancy
  Ti  Ti0  1  0.000001  0.996477  0.996100  1
  Ti  Ti1  1  0.500083  0.499634  0.166118  1
  Ti  Ti2  1  0.000083  0.999993  0.333336  1
  Ti  Ti3  1  0.500003  0.499636  0.500548  1
  Ti  Ti4  1  0.999904  0.996482  0.670560  1
  Ti  Ti5  1  0.499935  0.506810  0.833334  1
  Zn  Zn6  1  0.000005  0.505515  0.996041  1
  Zn  Zn7  1  0.500084  0.999889  0.166119  1
  Zn  Zn8  1  0.000093  0.499537  0.333328  1
  Zn  Zn9  1  0.500002  0.999891  0.500552  1
  Zn  Zn10  1  0.999910  0.505519  0.670629  1
  Zn  Zn11  1  0.499895  0.990930  0.833330  1
  Co  Co12  1  0.999892  0.751256  0.833339  1
  Ir  Ir13  1  0.500008  0.249956  0.998731  1
  Ir  Ir14  1  0.500005  0.750037  0.999441  1
  Ir  Ir15  1  0.000075  0.249656  0.164900  1
  Ir  Ir16  1  0.000077  0.749333  0.166127  1
  Ir  Ir17  1  0.500080  0.249261  0.333335  1
  Ir  Ir18  1  0.500082  0.750267  0.333335  1
  Ir  Ir19  1  0.000001  0.249669  0.501765  1
  Ir  Ir20  1  0.000002  0.749324  0.500537  1
  Ir  Ir21  1  0.499924  0.249969  0.667936  1
  Ir  Ir22  1  0.499911  0.750025  0.667224  1
  Ir  Ir23  1  0.999946  0.250930  0.833335  1
