# generated using pymatgen
data_Tb4Ga4NiRu3
_symmetry_space_group_name_H-M   'P 1'
_cell_length_a   4.50930800
_cell_length_b   7.16418701
_cell_length_c   7.11119419
_cell_angle_alpha   89.65136275
_cell_angle_beta   90.00000000
_cell_angle_gamma   90.00000000
_symmetry_Int_Tables_number   1
_chemical_formula_structural   Tb4Ga4NiRu3
_chemical_formula_sum   'Tb4 Ga4 Ni1 Ru3'
_cell_volume   229.72661446
_cell_formula_units_Z   1
loop_
 _symmetry_equiv_pos_site_id
 _symmetry_equiv_pos_as_xyz
  1  'x, y, z'
loop_
 _atom_site_type_symbol
 _atom_site_label
 _atom_site_symmetry_multiplicity
 _atom_site_fract_x
 _atom_site_fract_y
 _atom_site_fract_z
 _atom_site_occupancy
  Tb  Tb0  1  0.250000  0.021301  0.803570  1
  Tb  Tb1  1  0.250000  0.522041  0.694510  1
  Tb  Tb2  1  0.750000  0.982756  0.199189  1
  Tb  Tb3  1  0.750000  0.480616  0.303282  1
  Ga  Ga4  1  0.250000  0.199481  0.400158  1
  Ga  Ga5  1  0.250000  0.691525  0.103641  1
  Ga  Ga6  1  0.750000  0.796925  0.604656  1
  Ga  Ga7  1  0.750000  0.310367  0.893404  1
  Ni  Ni8  1  0.750000  0.663470  0.933750  1
  Ru  Ru9  1  0.250000  0.839839  0.433807  1
  Ru  Ru10  1  0.250000  0.334800  0.063755  1
  Ru  Ru11  1  0.750000  0.156879  0.566278  1
