# generated using pymatgen
data_Pr10TlBi3(PbBr)2
_symmetry_space_group_name_H-M   'P 1'
_cell_length_a   9.77557978
_cell_length_b   9.71563090
_cell_length_c   6.83015300
_cell_angle_alpha   90.00000000
_cell_angle_beta   90.00000000
_cell_angle_gamma   120.29792878
_symmetry_Int_Tables_number   1
_chemical_formula_structural   Pr10TlBi3(PbBr)2
_chemical_formula_sum   'Pr10 Tl1 Bi3 Pb2 Br2'
_cell_volume   560.09661013
_cell_formula_units_Z   1
loop_
 _symmetry_equiv_pos_site_id
 _symmetry_equiv_pos_as_xyz
  1  'x, y, z'
loop_
 _atom_site_type_symbol
 _atom_site_label
 _atom_site_symmetry_multiplicity
 _atom_site_fract_x
 _atom_site_fract_y
 _atom_site_fract_z
 _atom_site_occupancy
  Pr  Pr0  1  0.268658  0.996434  0.750000  1
  Pr  Pr1  1  0.730101  0.000358  0.250000  1
  Pr  Pr2  1  0.996522  0.267888  0.750000  1
  Pr  Pr3  1  0.002128  0.733312  0.250000  1
  Pr  Pr4  1  0.732844  0.733019  0.750000  1
  Pr  Pr5  1  0.268649  0.267129  0.250000  1
  Pr  Pr6  1  0.333839  0.668646  0.498269  1
  Pr  Pr7  1  0.666978  0.331724  0.498367  1
  Pr  Pr8  1  0.666978  0.331724  0.001633  1
  Pr  Pr9  1  0.333839  0.668646  0.001731  1
  Tl  Tl10  1  0.613653  0.999448  0.750000  1
  Bi  Bi11  1  0.999598  0.384609  0.250000  1
  Bi  Bi12  1  0.383743  0.383746  0.750000  1
  Bi  Bi13  1  0.616123  0.616352  0.250000  1
  Pb  Pb14  1  0.386927  0.999975  0.250000  1
  Pb  Pb15  1  0.999294  0.614959  0.750000  1
  Br  Br16  1  0.000064  0.001017  0.499819  1
  Br  Br17  1  0.000064  0.001017  0.000181  1
