# generated using pymatgen
data_Er5Tm3B24(IrRh)2
_symmetry_space_group_name_H-M   'P 1'
_cell_length_a   3.61892200
_cell_length_b   9.12570767
_cell_length_c   11.45545610
_cell_angle_alpha   90.09160900
_cell_angle_beta   90.00000000
_cell_angle_gamma   90.00000000
_symmetry_Int_Tables_number   1
_chemical_formula_structural   Er5Tm3B24(IrRh)2
_chemical_formula_sum   'Er5 Tm3 B24 Ir2 Rh2'
_cell_volume   378.31852285
_cell_formula_units_Z   1
loop_
 _symmetry_equiv_pos_site_id
 _symmetry_equiv_pos_as_xyz
  1  'x, y, z'
loop_
 _atom_site_type_symbol
 _atom_site_label
 _atom_site_symmetry_multiplicity
 _atom_site_fract_x
 _atom_site_fract_y
 _atom_site_fract_z
 _atom_site_occupancy
  Er  Er0  1  0.500000  0.322849  0.414118  1
  Er  Er1  1  0.500000  0.677138  0.585940  1
  Er  Er2  1  0.500000  0.179281  0.912583  1
  Er  Er3  1  0.500000  0.820738  0.087333  1
  Er  Er4  1  0.500000  0.445282  0.126587  1
  Tm  Tm5  1  0.500000  0.554853  0.873332  1
  Tm  Tm6  1  0.500000  0.056447  0.625799  1
  Tm  Tm7  1  0.500000  0.943554  0.374229  1
  B  B8  1  0.000000  0.109672  0.470046  1
  B  B9  1  0.000000  0.890310  0.529958  1
  B  B10  1  0.000000  0.390657  0.970009  1
  B  B11  1  0.000000  0.609547  0.029529  1
  B  B12  1  0.000000  0.132441  0.316183  1
  B  B13  1  0.000000  0.867513  0.683861  1
  B  B14  1  0.000000  0.366822  0.816220  1
  B  B15  1  0.000000  0.633419  0.183814  1
  B  B16  1  0.000000  0.053925  0.065612  1
  B  B17  1  0.000000  0.945988  0.934337  1
  B  B18  1  0.000000  0.446697  0.565306  1
  B  B19  1  0.000000  0.553315  0.434763  1
  B  B20  1  0.000000  0.482461  0.287222  1
  B  B21  1  0.000000  0.517639  0.713004  1
  B  B22  1  0.000000  0.017832  0.786363  1
  B  B23  1  0.000000  0.982153  0.213645  1
  B  B24  1  0.000000  0.250007  0.079121  1
  B  B25  1  0.000000  0.749720  0.920790  1
  B  B26  1  0.000000  0.250766  0.579203  1
  B  B27  1  0.000000  0.749251  0.420826  1
  B  B28  1  0.000000  0.294196  0.235315  1
  B  B29  1  0.000000  0.705563  0.764795  1
  B  B30  1  0.000000  0.205563  0.735749  1
  B  B31  1  0.000000  0.794510  0.264257  1
  Ir  Ir32  1  0.500000  0.138527  0.178064  1
  Ir  Ir33  1  0.500000  0.861145  0.821932  1
  Rh  Rh34  1  0.500000  0.360153  0.679866  1
  Rh  Rh35  1  0.500000  0.640067  0.320291  1
