# generated using pymatgen
data_Pr20Si5Ag3Ir4
_symmetry_space_group_name_H-M   'P 1'
_cell_length_a   8.06227399
_cell_length_b   9.07345532
_cell_length_c   12.44841290
_cell_angle_alpha   90.61251660
_cell_angle_beta   89.86318230
_cell_angle_gamma   90.27949269
_symmetry_Int_Tables_number   1
_chemical_formula_structural   Pr20Si5Ag3Ir4
_chemical_formula_sum   'Pr20 Si5 Ag3 Ir4'
_cell_volume   910.56944602
_cell_formula_units_Z   1
loop_
 _symmetry_equiv_pos_site_id
 _symmetry_equiv_pos_as_xyz
  1  'x, y, z'
loop_
 _atom_site_type_symbol
 _atom_site_label
 _atom_site_symmetry_multiplicity
 _atom_site_fract_x
 _atom_site_fract_y
 _atom_site_fract_z
 _atom_site_occupancy
  Pr  Pr0  1  0.673489  0.734135  0.717543  1
  Pr  Pr1  1  0.332095  0.259689  0.281040  1
  Pr  Pr2  1  0.171045  0.265562  0.784392  1
  Pr  Pr3  1  0.828704  0.744735  0.214657  1
  Pr  Pr4  1  0.139685  0.734166  0.804782  1
  Pr  Pr5  1  0.853869  0.259124  0.195834  1
  Pr  Pr6  1  0.637232  0.264777  0.695633  1
  Pr  Pr7  1  0.368036  0.741177  0.299892  1
  Pr  Pr8  1  0.544474  0.740695  0.002510  1
  Pr  Pr9  1  0.461794  0.257565  0.004393  1
  Pr  Pr10  1  0.043913  0.264608  0.500655  1
  Pr  Pr11  1  0.955665  0.735824  0.497589  1
  Pr  Pr12  1  0.818379  0.462091  0.921558  1
  Pr  Pr13  1  0.181609  0.536636  0.078372  1
  Pr  Pr14  1  0.318865  0.541486  0.579839  1
  Pr  Pr15  1  0.184789  0.964418  0.079746  1
  Pr  Pr16  1  0.680381  0.462175  0.419883  1
  Pr  Pr17  1  0.820593  0.036005  0.927934  1
  Pr  Pr18  1  0.670048  0.035159  0.411778  1
  Pr  Pr19  1  0.323440  0.963885  0.579844  1
  Si  Si20  1  0.058358  0.505969  0.327567  1
  Si  Si21  1  0.556168  0.005157  0.167053  1
  Si  Si22  1  0.942193  0.493957  0.671683  1
  Si  Si23  1  0.560054  0.494982  0.171483  1
  Si  Si24  1  0.440983  0.505318  0.829784  1
  Ag  Ag25  1  0.933720  0.008589  0.666964  1
  Ag  Ag26  1  0.064764  0.991950  0.335656  1
  Ag  Ag27  1  0.434420  0.990708  0.831408  1
  Ir  Ir28  1  0.929885  0.748556  0.990834  1
  Ir  Ir29  1  0.070967  0.248982  0.009386  1
  Ir  Ir30  1  0.425970  0.249971  0.508963  1
  Ir  Ir31  1  0.574413  0.751950  0.491343  1
