# generated using pymatgen
data_Y6Ho6ZnNi4Sn
_symmetry_space_group_name_H-M   'P 1'
_cell_length_a   8.32728833
_cell_length_b   8.32728884
_cell_length_c   8.32660900
_cell_angle_alpha   112.09119955
_cell_angle_beta   109.14775939
_cell_angle_gamma   107.21571056
_symmetry_Int_Tables_number   1
_chemical_formula_structural   Y6Ho6ZnNi4Sn
_chemical_formula_sum   'Y6 Ho6 Zn1 Ni4 Sn1'
_cell_volume   443.64198393
_cell_formula_units_Z   1
loop_
 _symmetry_equiv_pos_site_id
 _symmetry_equiv_pos_as_xyz
  1  'x, y, z'
loop_
 _atom_site_type_symbol
 _atom_site_label
 _atom_site_symmetry_multiplicity
 _atom_site_fract_x
 _atom_site_fract_y
 _atom_site_fract_z
 _atom_site_occupancy
  Y  Y0  1  0.427713  0.229855  0.196195  1
  Y  Y1  1  0.572287  0.770145  0.803805  1
  Y  Y2  1  0.033660  0.231517  0.803805  1
  Y  Y3  1  0.966340  0.768483  0.196195  1
  Y  Y4  1  0.180299  0.286038  0.466336  1
  Y  Y5  1  0.819701  0.713962  0.533664  1
  Ho  Ho6  1  0.179090  0.713413  0.892503  1
  Ho  Ho7  1  0.820910  0.286587  0.107497  1
  Ho  Ho8  1  0.323415  0.632816  0.308426  1
  Ho  Ho9  1  0.676585  0.367184  0.691574  1
  Ho  Ho10  1  0.324390  0.014988  0.691574  1
  Ho  Ho11  1  0.675610  0.985012  0.308426  1
  Zn  Zn12  1  0.000000  0.000000  0.000000  1
  Ni  Ni13  1  0.352010  0.999340  0.351350  1
  Ni  Ni14  1  0.647990  0.000660  0.648650  1
  Ni  Ni15  1  0.123247  0.623247  0.500000  1
  Ni  Ni16  1  0.876753  0.376753  0.500000  1
  Sn  Sn17  1  0.500000  0.500000  0.000000  1
