# generated using pymatgen
data_Li4Yb(ThSi2)2
_symmetry_space_group_name_H-M   'P 1'
_cell_length_a   4.38346417
_cell_length_b   6.79442499
_cell_length_c   8.30827924
_cell_angle_alpha   114.13543230
_cell_angle_beta   105.29571946
_cell_angle_gamma   89.99999472
_symmetry_Int_Tables_number   1
_chemical_formula_structural   Li4Yb(ThSi2)2
_chemical_formula_sum   'Li4 Yb1 Th2 Si4'
_cell_volume   216.17448160
_cell_formula_units_Z   1
loop_
 _symmetry_equiv_pos_site_id
 _symmetry_equiv_pos_as_xyz
  1  'x, y, z'
loop_
 _atom_site_type_symbol
 _atom_site_label
 _atom_site_symmetry_multiplicity
 _atom_site_fract_x
 _atom_site_fract_y
 _atom_site_fract_z
 _atom_site_occupancy
  Li  Li0  1  0.672923  0.987929  0.345846  1
  Li  Li1  1  0.330356  0.027262  0.660711  1
  Li  Li2  1  0.330356  0.633450  0.660711  1
  Li  Li3  1  0.672923  0.357916  0.345846  1
  Yb  Yb4  1  0.866852  0.366852  0.733705  1
  Th  Th5  1  0.998366  0.998366  0.996731  1
  Th  Th6  1  0.130421  0.630421  0.260840  1
  Si  Si7  1  0.503527  0.683454  0.007054  1
  Si  Si8  1  0.503527  0.323601  0.007054  1
  Si  Si9  1  0.783158  0.783158  0.566316  1
  Si  Si10  1  0.207592  0.207592  0.415185  1
