# generated using pymatgen
data_HoEr19(Ir5Au)2
_symmetry_space_group_name_H-M   'P 1'
_cell_length_a   10.96007212
_cell_length_b   10.89947627
_cell_length_c   6.29532803
_cell_angle_alpha   90.02391827
_cell_angle_beta   89.84721913
_cell_angle_gamma   89.99081718
_symmetry_Int_Tables_number   1
_chemical_formula_structural   HoEr19(Ir5Au)2
_chemical_formula_sum   'Ho1 Er19 Ir10 Au2'
_cell_volume   752.03113202
_cell_formula_units_Z   1
loop_
 _symmetry_equiv_pos_site_id
 _symmetry_equiv_pos_as_xyz
  1  'x, y, z'
loop_
 _atom_site_type_symbol
 _atom_site_label
 _atom_site_symmetry_multiplicity
 _atom_site_fract_x
 _atom_site_fract_y
 _atom_site_fract_z
 _atom_site_occupancy
  Ho  Ho0  1  0.291232  0.088132  0.369936  1
  Er  Er1  1  0.291626  0.911855  0.870202  1
  Er  Er2  1  0.697597  0.092025  0.864769  1
  Er  Er3  1  0.697509  0.907869  0.364780  1
  Er  Er4  1  0.577472  0.789302  0.875188  1
  Er  Er5  1  0.577645  0.210544  0.375240  1
  Er  Er6  1  0.408538  0.790349  0.374719  1
  Er  Er7  1  0.408628  0.209583  0.874824  1
  Er  Er8  1  0.210073  0.411879  0.623000  1
  Er  Er9  1  0.210054  0.588093  0.122846  1
  Er  Er10  1  0.790119  0.419781  0.125428  1
  Er  Er11  1  0.790133  0.580302  0.625422  1
  Er  Er12  1  0.918145  0.705625  0.139809  1
  Er  Er13  1  0.918163  0.294335  0.639737  1
  Er  Er14  1  0.096029  0.703252  0.625567  1
  Er  Er15  1  0.095750  0.297010  0.125233  1
  Er  Er16  1  0.008322  0.997560  0.499997  1
  Er  Er17  1  0.008596  0.002206  0.999992  1
  Er  Er18  1  0.500558  0.498402  0.001058  1
  Er  Er19  1  0.500494  0.501681  0.501144  1
  Ir  Ir20  1  0.153606  0.154255  0.750880  1
  Ir  Ir21  1  0.153592  0.845485  0.250048  1
  Ir  Ir22  1  0.656616  0.346208  0.747855  1
  Ir  Ir23  1  0.656531  0.653776  0.247968  1
  Ir  Ir24  1  0.347719  0.346462  0.251862  1
  Ir  Ir25  1  0.347697  0.654087  0.752003  1
  Ir  Ir26  1  0.498944  0.999495  0.119908  1
  Ir  Ir27  1  0.498896  0.000244  0.620682  1
  Ir  Ir28  1  0.000470  0.500800  0.879450  1
  Ir  Ir29  1  0.000495  0.499334  0.379809  1
  Au  Au30  1  0.844507  0.154991  0.250171  1
  Au  Au31  1  0.844247  0.845078  0.750476  1
