# generated using pymatgen
data_CeYTh(InPd)3
_symmetry_space_group_name_H-M   'P 1'
_cell_length_a   7.71487267
_cell_length_b   7.66688188
_cell_length_c   4.05923500
_cell_angle_alpha   90.00000000
_cell_angle_beta   90.00000000
_cell_angle_gamma   120.27609158
_symmetry_Int_Tables_number   1
_chemical_formula_structural   CeYTh(InPd)3
_chemical_formula_sum   'Ce1 Y1 Th1 In3 Pd3'
_cell_volume   207.35159623
_cell_formula_units_Z   1
loop_
 _symmetry_equiv_pos_site_id
 _symmetry_equiv_pos_as_xyz
  1  'x, y, z'
loop_
 _atom_site_type_symbol
 _atom_site_label
 _atom_site_symmetry_multiplicity
 _atom_site_fract_x
 _atom_site_fract_y
 _atom_site_fract_z
 _atom_site_occupancy
  Ce  Ce0  1  0.412988  0.412074  0.500000  1
  Y  Y1  1  0.999924  0.589890  0.500000  1
  Th  Th2  1  0.586112  0.999354  0.500000  1
  In  In3  1  0.753891  0.744250  0.000000  1
  In  In4  1  0.243473  0.993292  0.000000  1
  In  In5  1  0.003128  0.261207  0.000000  1
  Pd  Pd6  1  0.660140  0.324885  0.000000  1
  Pd  Pd7  1  0.342464  0.670580  0.000000  1
  Pd  Pd8  1  0.997879  0.004468  0.500000  1
