# generated using pymatgen
data_Ti3BeTc3As2
_symmetry_space_group_name_H-M   'P 1'
_cell_length_a   3.27493700
_cell_length_b   6.72011141
_cell_length_c   6.72011213
_cell_angle_alpha   60.00584994
_cell_angle_beta   90.00000000
_cell_angle_gamma   90.00000000
_symmetry_Int_Tables_number   1
_chemical_formula_structural   Ti3BeTc3As2
_chemical_formula_sum   'Ti3 Be1 Tc3 As2'
_cell_volume   128.08909938
_cell_formula_units_Z   1
loop_
 _symmetry_equiv_pos_site_id
 _symmetry_equiv_pos_as_xyz
  1  'x, y, z'
loop_
 _atom_site_type_symbol
 _atom_site_label
 _atom_site_symmetry_multiplicity
 _atom_site_fract_x
 _atom_site_fract_y
 _atom_site_fract_z
 _atom_site_occupancy
  Ti  Ti0  1  0.500000  0.612934  0.387066  1
  Ti  Ti1  1  0.500000  0.387084  0.999999  1
  Ti  Ti2  1  0.500000  0.000001  0.612916  1
  Be  Be3  1  0.500000  0.999916  0.000084  1
  Tc  Tc4  1  0.000000  0.247403  0.752597  1
  Tc  Tc5  1  0.000000  0.752543  0.000023  1
  Tc  Tc6  1  0.000000  0.999977  0.247457  1
  As  As7  1  0.000000  0.333357  0.333316  1
  As  As8  1  0.000000  0.666684  0.666643  1
