# generated using pymatgen
data_TbNbN2
_symmetry_space_group_name_H-M   'P 1'
_cell_length_a   3.29258400
_cell_length_b   5.70174100
_cell_length_c   10.96756000
_cell_angle_alpha   90.00000000
_cell_angle_beta   90.00000000
_cell_angle_gamma   90.00000000
_symmetry_Int_Tables_number   1
_chemical_formula_structural   TbNbN2
_chemical_formula_sum   'Tb4 Nb4 N8'
_cell_volume   205.89906200
_cell_formula_units_Z   4
loop_
 _symmetry_equiv_pos_site_id
 _symmetry_equiv_pos_as_xyz
  1  'x, y, z'
loop_
 _atom_site_type_symbol
 _atom_site_label
 _atom_site_symmetry_multiplicity
 _atom_site_fract_x
 _atom_site_fract_y
 _atom_site_fract_z
 _atom_site_occupancy
  Tb  Tb0  1  0.250000  0.586003  0.860706  1
  Tb  Tb1  1  0.750000  0.413997  0.139294  1
  Tb  Tb2  1  0.750000  0.913997  0.360706  1
  Tb  Tb3  1  0.250000  0.086003  0.639294  1
  Nb  Nb4  1  0.250000  0.915703  0.107349  1
  Nb  Nb5  1  0.750000  0.084297  0.892651  1
  Nb  Nb6  1  0.750000  0.584297  0.607349  1
  Nb  Nb7  1  0.250000  0.415703  0.392651  1
  N  N8  1  0.250000  0.660845  0.245652  1
  N  N9  1  0.750000  0.339155  0.754348  1
  N  N10  1  0.750000  0.839155  0.745652  1
  N  N11  1  0.250000  0.160845  0.254348  1
  N  N12  1  0.250000  0.746198  0.507580  1
  N  N13  1  0.750000  0.253802  0.492420  1
  N  N14  1  0.750000  0.753802  0.007580  1
  N  N15  1  0.250000  0.246198  0.992420  1
