# generated using pymatgen
data_Y3Ni8Ir
_symmetry_space_group_name_H-M   'P 1'
_cell_length_a   4.98789485
_cell_length_b   4.98789440
_cell_length_c   8.80262323
_cell_angle_alpha   73.54163139
_cell_angle_beta   73.54163024
_cell_angle_gamma   59.99999661
_symmetry_Int_Tables_number   1
_chemical_formula_structural   Y3Ni8Ir
_chemical_formula_sum   'Y3 Ni8 Ir1'
_cell_volume   179.22422135
_cell_formula_units_Z   1
loop_
 _symmetry_equiv_pos_site_id
 _symmetry_equiv_pos_as_xyz
  1  'x, y, z'
loop_
 _atom_site_type_symbol
 _atom_site_label
 _atom_site_symmetry_multiplicity
 _atom_site_fract_x
 _atom_site_fract_y
 _atom_site_fract_z
 _atom_site_occupancy
  Y  Y0  1  0.000000  0.000000  0.000000  1
  Y  Y1  1  0.138355  0.138355  0.584936  1
  Y  Y2  1  0.861645  0.861645  0.415064  1
  Ni  Ni3  1  0.333191  0.333191  0.000430  1
  Ni  Ni4  1  0.666809  0.666809  0.999570  1
  Ni  Ni5  1  0.077960  0.580940  0.760159  1
  Ni  Ni6  1  0.580940  0.580940  0.760159  1
  Ni  Ni7  1  0.580940  0.077960  0.760159  1
  Ni  Ni8  1  0.922040  0.419060  0.239841  1
  Ni  Ni9  1  0.419060  0.419060  0.239841  1
  Ni  Ni10  1  0.419060  0.922040  0.239841  1
  Ir  Ir11  1  0.500000  0.500000  0.500000  1
