# generated using pymatgen
data_Er(PaH4)3
_symmetry_space_group_name_H-M   'P 1'
_cell_length_a   6.55390200
_cell_length_b   6.55390200
_cell_length_c   6.55390200
_cell_angle_alpha   90.00000000
_cell_angle_beta   90.00000000
_cell_angle_gamma   90.00000000
_symmetry_Int_Tables_number   1
_chemical_formula_structural   Er(PaH4)3
_chemical_formula_sum   'Er2 Pa6 H24'
_cell_volume   281.51389091
_cell_formula_units_Z   2
loop_
 _symmetry_equiv_pos_site_id
 _symmetry_equiv_pos_as_xyz
  1  'x, y, z'
loop_
 _atom_site_type_symbol
 _atom_site_label
 _atom_site_symmetry_multiplicity
 _atom_site_fract_x
 _atom_site_fract_y
 _atom_site_fract_z
 _atom_site_occupancy
  Er  Er0  1  0.000000  0.000000  0.000000  1
  Er  Er1  1  0.500000  0.500000  0.500000  1
  Pa  Pa2  1  0.250000  0.000000  0.500000  1
  Pa  Pa3  1  0.750000  0.000000  0.500000  1
  Pa  Pa4  1  0.000000  0.500000  0.250000  1
  Pa  Pa5  1  0.000000  0.500000  0.750000  1
  Pa  Pa6  1  0.500000  0.750000  0.000000  1
  Pa  Pa7  1  0.500000  0.250000  0.000000  1
  H  H8  1  0.000000  0.154578  0.304920  1
  H  H9  1  0.500000  0.195080  0.654578  1
  H  H10  1  0.500000  0.804920  0.345422  1
  H  H11  1  0.804920  0.654578  0.500000  1
  H  H12  1  0.195080  0.654578  0.500000  1
  H  H13  1  0.345422  0.500000  0.804920  1
  H  H14  1  0.654578  0.500000  0.804920  1
  H  H15  1  0.304920  0.000000  0.154578  1
  H  H16  1  0.154578  0.304920  0.000000  1
  H  H17  1  0.845422  0.695080  0.000000  1
  H  H18  1  0.304920  0.000000  0.845422  1
  H  H19  1  0.845422  0.304920  0.000000  1
  H  H20  1  0.695080  0.000000  0.154578  1
  H  H21  1  0.695080  0.000000  0.845422  1
  H  H22  1  0.154578  0.695080  0.000000  1
  H  H23  1  0.000000  0.845422  0.695080  1
  H  H24  1  0.000000  0.154578  0.695080  1
  H  H25  1  0.000000  0.845422  0.304920  1
  H  H26  1  0.654578  0.500000  0.195080  1
  H  H27  1  0.345422  0.500000  0.195080  1
  H  H28  1  0.804920  0.345422  0.500000  1
  H  H29  1  0.195080  0.345422  0.500000  1
  H  H30  1  0.500000  0.804920  0.654578  1
  H  H31  1  0.500000  0.195080  0.345422  1
