# generated using pymatgen
data_Tb6Fe3Co14P12W
_symmetry_space_group_name_H-M   'P 1'
_cell_length_a   3.72841100
_cell_length_b   10.60161100
_cell_length_c   12.20710400
_cell_angle_alpha   90.00000000
_cell_angle_beta   90.00000000
_cell_angle_gamma   90.00000000
_symmetry_Int_Tables_number   1
_chemical_formula_structural   Tb6Fe3Co14P12W
_chemical_formula_sum   'Tb6 Fe3 Co14 P12 W1'
_cell_volume   482.51219042
_cell_formula_units_Z   1
loop_
 _symmetry_equiv_pos_site_id
 _symmetry_equiv_pos_as_xyz
  1  'x, y, z'
loop_
 _atom_site_type_symbol
 _atom_site_label
 _atom_site_symmetry_multiplicity
 _atom_site_fract_x
 _atom_site_fract_y
 _atom_site_fract_z
 _atom_site_occupancy
  Tb  Tb0  1  0.000000  0.500000  0.524788  1
  Tb  Tb1  1  0.500000  0.000000  0.478400  1
  Tb  Tb2  1  0.500000  0.819587  0.204431  1
  Tb  Tb3  1  0.500000  0.180413  0.204431  1
  Tb  Tb4  1  0.000000  0.681487  0.796865  1
  Tb  Tb5  1  0.000000  0.318513  0.796865  1
  Fe  Fe6  1  0.000000  0.000000  0.845176  1
  Fe  Fe7  1  0.000000  0.500000  0.986272  1
  Fe  Fe8  1  0.500000  0.000000  0.011200  1
  Co  Co9  1  0.500000  0.500000  0.699180  1
  Co  Co10  1  0.000000  0.000000  0.299177  1
  Co  Co11  1  0.500000  0.330570  0.991177  1
  Co  Co12  1  0.500000  0.669430  0.991177  1
  Co  Co13  1  0.000000  0.167029  0.005672  1
  Co  Co14  1  0.000000  0.832971  0.005672  1
  Co  Co15  1  0.500000  0.295298  0.431578  1
  Co  Co16  1  0.500000  0.704702  0.431578  1
  Co  Co17  1  0.000000  0.203311  0.569831  1
  Co  Co18  1  0.000000  0.796689  0.569831  1
  Co  Co19  1  0.500000  0.879682  0.708886  1
  Co  Co20  1  0.500000  0.120318  0.708886  1
  Co  Co21  1  0.000000  0.621611  0.291377  1
  Co  Co22  1  0.000000  0.378389  0.291377  1
  P  P23  1  0.500000  0.500000  0.882589  1
  P  P24  1  0.000000  0.000000  0.115237  1
  P  P25  1  0.500000  0.500000  0.349269  1
  P  P26  1  0.000000  0.000000  0.659692  1
  P  P27  1  0.500000  0.308372  0.616829  1
  P  P28  1  0.500000  0.691628  0.616829  1
  P  P29  1  0.000000  0.190031  0.384711  1
  P  P30  1  0.000000  0.809969  0.384711  1
  P  P31  1  0.500000  0.849035  0.892449  1
  P  P32  1  0.500000  0.150965  0.892449  1
  P  P33  1  0.000000  0.655604  0.103447  1
  P  P34  1  0.000000  0.344396  0.103447  1
  W  W35  1  0.500000  0.500000  0.154510  1
