# generated using pymatgen
data_La8Ho2Tl5InBr2
_symmetry_space_group_name_H-M   'P 1'
_cell_length_a   9.70160541
_cell_length_b   9.70160549
_cell_length_c   6.90057401
_cell_angle_alpha   90.00229195
_cell_angle_beta   90.00229212
_cell_angle_gamma   119.96689153
_symmetry_Int_Tables_number   1
_chemical_formula_structural   La8Ho2Tl5InBr2
_chemical_formula_sum   'La8 Ho2 Tl5 In1 Br2'
_cell_volume   562.66235416
_cell_formula_units_Z   1
loop_
 _symmetry_equiv_pos_site_id
 _symmetry_equiv_pos_as_xyz
  1  'x, y, z'
loop_
 _atom_site_type_symbol
 _atom_site_label
 _atom_site_symmetry_multiplicity
 _atom_site_fract_x
 _atom_site_fract_y
 _atom_site_fract_z
 _atom_site_occupancy
  La  La0  1  0.732521  0.732521  0.252841  1
  La  La1  1  0.999834  0.732602  0.747029  1
  La  La2  1  0.732602  0.999834  0.747029  1
  La  La3  1  0.267345  0.267345  0.747101  1
  La  La4  1  0.999972  0.267321  0.252967  1
  La  La5  1  0.267321  0.999972  0.252967  1
  La  La6  1  0.333479  0.666640  0.999833  1
  La  La7  1  0.666640  0.333479  0.999833  1
  Ho  Ho8  1  0.333592  0.666671  0.500309  1
  Ho  Ho9  1  0.666671  0.333592  0.500309  1
  Tl  Tl10  1  0.392586  0.000027  0.745164  1
  Tl  Tl11  1  0.999975  0.607334  0.254816  1
  Tl  Tl12  1  0.607334  0.999975  0.254816  1
  Tl  Tl13  1  0.000027  0.392586  0.745164  1
  Tl  Tl14  1  0.392681  0.392681  0.254788  1
  In  In15  1  0.607363  0.607363  0.745060  1
  Br  Br16  1  0.000013  0.000013  0.499948  1
  Br  Br17  1  0.000042  0.000042  0.000028  1
