# generated using pymatgen
data_Rb3Ti2Br9
_symmetry_space_group_name_H-M   'P 1'
_cell_length_a   7.63816300
_cell_length_b   7.63816308
_cell_length_c   19.03358400
_cell_angle_alpha   90.00000000
_cell_angle_beta   90.00000000
_cell_angle_gamma   120.00000398
_symmetry_Int_Tables_number   1
_chemical_formula_structural   Rb3Ti2Br9
_chemical_formula_sum   'Rb6 Ti4 Br18'
_cell_volume   961.67657198
_cell_formula_units_Z   2
loop_
 _symmetry_equiv_pos_site_id
 _symmetry_equiv_pos_as_xyz
  1  'x, y, z'
loop_
 _atom_site_type_symbol
 _atom_site_label
 _atom_site_symmetry_multiplicity
 _atom_site_fract_x
 _atom_site_fract_y
 _atom_site_fract_z
 _atom_site_occupancy
  Rb  Rb0  1  0.666667  0.333333  0.931137  1
  Rb  Rb1  1  0.333333  0.666667  0.431137  1
  Rb  Rb2  1  0.000000  0.000000  0.250000  1
  Rb  Rb3  1  0.333333  0.666667  0.068863  1
  Rb  Rb4  1  0.000000  0.000000  0.750000  1
  Rb  Rb5  1  0.666667  0.333333  0.568863  1
  Ti  Ti6  1  0.333333  0.666667  0.664901  1
  Ti  Ti7  1  0.666667  0.333333  0.164901  1
  Ti  Ti8  1  0.333333  0.666667  0.835099  1
  Ti  Ti9  1  0.666667  0.333333  0.335099  1
  Br  Br10  1  0.493655  0.506345  0.750000  1
  Br  Br11  1  0.506345  0.493655  0.250000  1
  Br  Br12  1  0.173590  0.347180  0.907691  1
  Br  Br13  1  0.347180  0.173590  0.407691  1
  Br  Br14  1  0.652820  0.826410  0.907691  1
  Br  Br15  1  0.987311  0.493655  0.250000  1
  Br  Br16  1  0.493655  0.987311  0.750000  1
  Br  Br17  1  0.012689  0.506345  0.750000  1
  Br  Br18  1  0.826410  0.173590  0.407691  1
  Br  Br19  1  0.826410  0.652820  0.407691  1
  Br  Br20  1  0.173590  0.347180  0.592309  1
  Br  Br21  1  0.173590  0.826410  0.592309  1
  Br  Br22  1  0.347180  0.173590  0.092309  1
  Br  Br23  1  0.652820  0.826410  0.592309  1
  Br  Br24  1  0.506345  0.012689  0.250000  1
  Br  Br25  1  0.173590  0.826410  0.907691  1
  Br  Br26  1  0.826410  0.652820  0.092309  1
  Br  Br27  1  0.826410  0.173590  0.092309  1
