# generated using pymatgen
data_Li(LaB8)3
_symmetry_space_group_name_H-M   'P 1'
_cell_length_a   7.17575063
_cell_length_b   7.17574940
_cell_length_c   5.88969500
_cell_angle_alpha   90.00000000
_cell_angle_beta   90.00000000
_cell_angle_gamma   109.30338105
_symmetry_Int_Tables_number   1
_chemical_formula_structural   Li(LaB8)3
_chemical_formula_sum   'Li1 La3 B24'
_cell_volume   286.21925137
_cell_formula_units_Z   1
loop_
 _symmetry_equiv_pos_site_id
 _symmetry_equiv_pos_as_xyz
  1  'x, y, z'
loop_
 _atom_site_type_symbol
 _atom_site_label
 _atom_site_symmetry_multiplicity
 _atom_site_fract_x
 _atom_site_fract_y
 _atom_site_fract_z
 _atom_site_occupancy
  Li  Li0  1  0.748109  0.251888  0.500000  1
  La  La1  1  0.997867  0.002131  0.000000  1
  La  La2  1  0.502101  0.497892  0.000000  1
  La  La3  1  0.250175  0.749833  0.500000  1
  B  B4  1  0.174529  0.324873  0.648832  1
  B  B5  1  0.924601  0.574141  0.149671  1
  B  B6  1  0.675127  0.825474  0.648832  1
  B  B7  1  0.425858  0.075399  0.149671  1
  B  B8  1  0.174529  0.324873  0.351168  1
  B  B9  1  0.924601  0.574141  0.850329  1
  B  B10  1  0.675127  0.825474  0.351168  1
  B  B11  1  0.425858  0.075399  0.850329  1
  B  B12  1  0.400840  0.398574  0.500000  1
  B  B13  1  0.149477  0.649751  0.000000  1
  B  B14  1  0.898741  0.900655  0.500000  1
  B  B15  1  0.650029  0.149560  0.000000  1
  B  B16  1  0.325531  0.174816  0.648801  1
  B  B17  1  0.074529  0.424758  0.149713  1
  B  B18  1  0.825183  0.674470  0.648802  1
  B  B19  1  0.575242  0.925472  0.149712  1
  B  B20  1  0.099347  0.101258  0.500000  1
  B  B21  1  0.850440  0.349969  0.000000  1
  B  B22  1  0.601424  0.599161  0.500000  1
  B  B23  1  0.350249  0.850524  0.000000  1
  B  B24  1  0.325531  0.174816  0.351199  1
  B  B25  1  0.074529  0.424758  0.850287  1
  B  B26  1  0.825183  0.674470  0.351198  1
  B  B27  1  0.575242  0.925472  0.850288  1
