# generated using pymatgen
data_Dy3Tm9Rh4
_symmetry_space_group_name_H-M   'P 1'
_cell_length_a   6.26055685
_cell_length_b   7.13635742
_cell_length_c   9.29263600
_cell_angle_alpha   90.00000000
_cell_angle_beta   90.00000000
_cell_angle_gamma   90.12727691
_symmetry_Int_Tables_number   1
_chemical_formula_structural   Dy3Tm9Rh4
_chemical_formula_sum   'Dy3 Tm9 Rh4'
_cell_volume   415.17138310
_cell_formula_units_Z   1
loop_
 _symmetry_equiv_pos_site_id
 _symmetry_equiv_pos_as_xyz
  1  'x, y, z'
loop_
 _atom_site_type_symbol
 _atom_site_label
 _atom_site_symmetry_multiplicity
 _atom_site_fract_x
 _atom_site_fract_y
 _atom_site_fract_z
 _atom_site_occupancy
  Dy  Dy0  1  0.632154  0.032988  0.250000  1
  Dy  Dy1  1  0.131815  0.467473  0.750000  1
  Dy  Dy2  1  0.368732  0.967378  0.750000  1
  Tm  Tm3  1  0.327597  0.677108  0.063419  1
  Tm  Tm4  1  0.170391  0.177755  0.436490  1
  Tm  Tm5  1  0.671917  0.323051  0.562488  1
  Tm  Tm6  1  0.829451  0.821922  0.937309  1
  Tm  Tm7  1  0.671917  0.323051  0.937512  1
  Tm  Tm8  1  0.829451  0.821922  0.562691  1
  Tm  Tm9  1  0.327597  0.677108  0.436581  1
  Tm  Tm10  1  0.170391  0.177755  0.063510  1
  Tm  Tm11  1  0.867383  0.533614  0.250000  1
  Rh  Rh12  1  0.054239  0.880741  0.250000  1
  Rh  Rh13  1  0.446915  0.384339  0.250000  1
  Rh  Rh14  1  0.942828  0.117176  0.750000  1
  Rh  Rh15  1  0.557222  0.616618  0.750000  1
