# generated using pymatgen
data_Pr4NdSmCoBr10
_symmetry_space_group_name_H-M   'P 1'
_cell_length_a   7.64857132
_cell_length_b   9.46917305
_cell_length_c   9.56082482
_cell_angle_alpha   108.76430328
_cell_angle_beta   106.55140418
_cell_angle_gamma   96.88537614
_symmetry_Int_Tables_number   1
_chemical_formula_structural   Pr4NdSmCoBr10
_chemical_formula_sum   'Pr4 Nd1 Sm1 Co1 Br10'
_cell_volume   611.17273307
_cell_formula_units_Z   1
loop_
 _symmetry_equiv_pos_site_id
 _symmetry_equiv_pos_as_xyz
  1  'x, y, z'
loop_
 _atom_site_type_symbol
 _atom_site_label
 _atom_site_symmetry_multiplicity
 _atom_site_fract_x
 _atom_site_fract_y
 _atom_site_fract_z
 _atom_site_occupancy
  Pr  Pr0  1  0.123409  0.763253  0.047034  1
  Pr  Pr1  1  0.634166  0.812627  0.858882  1
  Pr  Pr2  1  0.876685  0.236488  0.954861  1
  Pr  Pr3  1  0.977357  0.101496  0.304801  1
  Nd  Nd4  1  0.363170  0.183378  0.135382  1
  Sm  Sm5  1  0.025842  0.902587  0.702444  1
  Co  Co6  1  0.999235  0.999231  0.000135  1
  Br  Br7  1  0.446393  0.079423  0.823238  1
  Br  Br8  1  0.747928  0.541412  0.917680  1
  Br  Br9  1  0.254653  0.456280  0.083477  1
  Br  Br10  1  0.914904  0.166348  0.634587  1
  Br  Br11  1  0.645709  0.728273  0.539788  1
  Br  Br12  1  0.548723  0.921048  0.174791  1
  Br  Br13  1  0.086430  0.830788  0.371684  1
  Br  Br14  1  0.790856  0.351926  0.257822  1
  Br  Br15  1  0.195449  0.648022  0.736733  1
  Br  Br16  1  0.369090  0.277422  0.456664  1
