# generated using pymatgen
data_CeNd5(CI5)2
_symmetry_space_group_name_H-M   'P 1'
_cell_length_a   7.94777156
_cell_length_b   9.75054316
_cell_length_c   9.82968954
_cell_angle_alpha   107.14070605
_cell_angle_beta   96.99139382
_cell_angle_gamma   104.63238808
_symmetry_Int_Tables_number   1
_chemical_formula_structural   CeNd5(CI5)2
_chemical_formula_sum   'Ce1 Nd5 C2 I10'
_cell_volume   688.27434522
_cell_formula_units_Z   1
loop_
 _symmetry_equiv_pos_site_id
 _symmetry_equiv_pos_as_xyz
  1  'x, y, z'
loop_
 _atom_site_type_symbol
 _atom_site_label
 _atom_site_symmetry_multiplicity
 _atom_site_fract_x
 _atom_site_fract_y
 _atom_site_fract_z
 _atom_site_occupancy
  Ce  Ce0  1  0.622479  0.864630  0.817362  1
  Nd  Nd1  1  0.107282  0.040244  0.777357  1
  Nd  Nd2  1  0.375392  0.134400  0.180876  1
  Nd  Nd3  1  0.893334  0.959680  0.222790  1
  Nd  Nd4  1  0.031419  0.736077  0.923938  1
  Nd  Nd5  1  0.969503  0.263973  0.076200  1
  C  C6  1  0.910619  0.969160  0.957793  1
  C  C7  1  0.086350  0.029428  0.040522  1
  I  I8  1  0.186178  0.732776  0.642919  1
  I  I9  1  0.088186  0.369257  0.820768  1
  I  I10  1  0.455732  0.809260  0.094927  1
  I  I11  1  0.255905  0.085826  0.462075  1
  I  I12  1  0.543548  0.193626  0.909056  1
  I  I13  1  0.813357  0.267006  0.356628  1
  I  I14  1  0.347194  0.457112  0.274545  1
  I  I15  1  0.912841  0.630984  0.179650  1
  I  I16  1  0.654410  0.541494  0.725959  1
  I  I17  1  0.746271  0.915067  0.536633  1
