# generated using pymatgen
data_Tb4Ga8PdAu3
_symmetry_space_group_name_H-M   'P 1'
_cell_length_a   4.38191700
_cell_length_b   6.86354932
_cell_length_c   10.28959847
_cell_angle_alpha   90.50307098
_cell_angle_beta   90.00000000
_cell_angle_gamma   90.00000000
_symmetry_Int_Tables_number   1
_chemical_formula_structural   Tb4Ga8PdAu3
_chemical_formula_sum   'Tb4 Ga8 Pd1 Au3'
_cell_volume   309.45292580
_cell_formula_units_Z   1
loop_
 _symmetry_equiv_pos_site_id
 _symmetry_equiv_pos_as_xyz
  1  'x, y, z'
loop_
 _atom_site_type_symbol
 _atom_site_label
 _atom_site_symmetry_multiplicity
 _atom_site_fract_x
 _atom_site_fract_y
 _atom_site_fract_z
 _atom_site_occupancy
  Tb  Tb0  1  0.250000  0.769803  0.829036  1
  Tb  Tb1  1  0.750000  0.230280  0.169407  1
  Tb  Tb2  1  0.750000  0.734472  0.329452  1
  Tb  Tb3  1  0.250000  0.268604  0.669368  1
  Ga  Ga4  1  0.250000  0.932139  0.160311  1
  Ga  Ga5  1  0.750000  0.070826  0.847574  1
  Ga  Ga6  1  0.750000  0.565844  0.648218  1
  Ga  Ga7  1  0.250000  0.424989  0.349145  1
  Ga  Ga8  1  0.250000  0.714821  0.534218  1
  Ga  Ga9  1  0.750000  0.279764  0.459875  1
  Ga  Ga10  1  0.750000  0.795045  0.038353  1
  Ga  Ga11  1  0.250000  0.205760  0.962665  1
  Pd  Pd12  1  0.250000  0.052242  0.401149  1
  Au  Au13  1  0.250000  0.545767  0.103030  1
  Au  Au14  1  0.750000  0.457888  0.896001  1
  Au  Au15  1  0.750000  0.951755  0.602195  1
