# generated using pymatgen
data_Tb3DyMn4F28
_symmetry_space_group_name_H-M   'P 1'
_cell_length_a   5.43720607
_cell_length_b   8.75114112
_cell_length_c   11.74917237
_cell_angle_alpha   62.27287216
_cell_angle_beta   90.01820360
_cell_angle_gamma   90.00763654
_symmetry_Int_Tables_number   1
_chemical_formula_structural   Tb3DyMn4F28
_chemical_formula_sum   'Tb3 Dy1 Mn4 F28'
_cell_volume   494.85288522
_cell_formula_units_Z   1
loop_
 _symmetry_equiv_pos_site_id
 _symmetry_equiv_pos_as_xyz
  1  'x, y, z'
loop_
 _atom_site_type_symbol
 _atom_site_label
 _atom_site_symmetry_multiplicity
 _atom_site_fract_x
 _atom_site_fract_y
 _atom_site_fract_z
 _atom_site_occupancy
  Tb  Tb0  1  0.738772  0.189463  0.735903  1
  Tb  Tb1  1  0.761381  0.188530  0.236059  1
  Tb  Tb2  1  0.238712  0.810470  0.764064  1
  Dy  Dy3  1  0.261435  0.810358  0.263949  1
  Mn  Mn4  1  0.758742  0.725956  0.043222  1
  Mn  Mn5  1  0.241528  0.273791  0.957460  1
  Mn  Mn6  1  0.258585  0.274613  0.457001  1
  Mn  Mn7  1  0.741319  0.725976  0.542300  1
  F  F8  1  0.931219  0.707370  0.420277  1
  F  F9  1  0.069545  0.293110  0.579360  1
  F  F10  1  0.430740  0.292852  0.079583  1
  F  F11  1  0.569562  0.707093  0.920979  1
  F  F12  1  0.479374  0.728517  0.131452  1
  F  F13  1  0.520812  0.271830  0.869244  1
  F  F14  1  0.979232  0.271926  0.368974  1
  F  F15  1  0.020443  0.728082  0.630717  1
  F  F16  1  0.947006  0.740861  0.169577  1
  F  F17  1  0.054467  0.259507  0.830702  1
  F  F18  1  0.445721  0.259790  0.330500  1
  F  F19  1  0.554352  0.740386  0.669080  1
  F  F20  1  0.770003  0.488479  0.137126  1
  F  F21  1  0.229949  0.511343  0.863182  1
  F  F22  1  0.269924  0.512327  0.362880  1
  F  F23  1  0.729765  0.488643  0.636683  1
  F  F24  1  0.955080  0.281593  0.039882  1
  F  F25  1  0.044597  0.718272  0.960441  1
  F  F26  1  0.454828  0.718685  0.459441  1
  F  F27  1  0.544991  0.281977  0.539621  1
  F  F28  1  0.739485  0.962397  0.452725  1
  F  F29  1  0.260610  0.038273  0.546878  1
  F  F30  1  0.239349  0.037524  0.047457  1
  F  F31  1  0.760642  0.962261  0.953083  1
  F  F32  1  0.594718  0.966947  0.227994  1
  F  F33  1  0.403057  0.032417  0.772390  1
  F  F34  1  0.096925  0.030825  0.272185  1
  F  F35  1  0.903134  0.967560  0.727625  1
