# generated using pymatgen
data_ErTmReB6
_symmetry_space_group_name_H-M   'P 1'
_cell_length_a   3.64977300
_cell_length_b   9.11460900
_cell_length_c   11.48597700
_cell_angle_alpha   90.00000000
_cell_angle_beta   90.00000000
_cell_angle_gamma   90.00000000
_symmetry_Int_Tables_number   1
_chemical_formula_structural   ErTmReB6
_chemical_formula_sum   'Er4 Tm4 Re4 B24'
_cell_volume   382.09542641
_cell_formula_units_Z   4
loop_
 _symmetry_equiv_pos_site_id
 _symmetry_equiv_pos_as_xyz
  1  'x, y, z'
loop_
 _atom_site_type_symbol
 _atom_site_label
 _atom_site_symmetry_multiplicity
 _atom_site_fract_x
 _atom_site_fract_y
 _atom_site_fract_z
 _atom_site_occupancy
  Er  Er0  1  0.000000  0.323626  0.413880  1
  Er  Er1  1  0.000000  0.676374  0.586120  1
  Er  Er2  1  0.000000  0.823626  0.086120  1
  Er  Er3  1  0.000000  0.176374  0.913880  1
  Tm  Tm4  1  0.000000  0.943765  0.370512  1
  Tm  Tm5  1  0.000000  0.056235  0.629488  1
  Tm  Tm6  1  0.000000  0.443765  0.129488  1
  Tm  Tm7  1  0.000000  0.556235  0.870512  1
  Re  Re8  1  0.000000  0.639187  0.320725  1
  Re  Re9  1  0.000000  0.360813  0.679275  1
  Re  Re10  1  0.000000  0.139187  0.179275  1
  Re  Re11  1  0.000000  0.860813  0.820725  1
  B  B12  1  0.500000  0.553544  0.433184  1
  B  B13  1  0.500000  0.446456  0.566816  1
  B  B14  1  0.500000  0.053544  0.066816  1
  B  B15  1  0.500000  0.946456  0.933184  1
  B  B16  1  0.500000  0.750191  0.419296  1
  B  B17  1  0.500000  0.249809  0.580704  1
  B  B18  1  0.500000  0.250191  0.080704  1
  B  B19  1  0.500000  0.749809  0.919296  1
  B  B20  1  0.500000  0.793175  0.265617  1
  B  B21  1  0.500000  0.206825  0.734383  1
  B  B22  1  0.500000  0.293175  0.234383  1
  B  B23  1  0.500000  0.706825  0.765617  1
  B  B24  1  0.500000  0.631140  0.185182  1
  B  B25  1  0.500000  0.368860  0.814818  1
  B  B26  1  0.500000  0.131140  0.314818  1
  B  B27  1  0.500000  0.868860  0.685182  1
  B  B28  1  0.500000  0.982103  0.212187  1
  B  B29  1  0.500000  0.017897  0.787813  1
  B  B30  1  0.500000  0.482103  0.287813  1
  B  B31  1  0.500000  0.517897  0.712187  1
  B  B32  1  0.500000  0.599701  0.027879  1
  B  B33  1  0.500000  0.400299  0.972121  1
  B  B34  1  0.500000  0.099701  0.472121  1
  B  B35  1  0.500000  0.900299  0.527879  1
