# generated using pymatgen
data_Ca3Yb(PrSn)16
_symmetry_space_group_name_H-M   'P 1'
_cell_length_a   8.15538202
_cell_length_b   8.51437902
_cell_length_c   16.26629400
_cell_angle_alpha   90.00000000
_cell_angle_beta   90.00000000
_cell_angle_gamma   90.00761661
_symmetry_Int_Tables_number   1
_chemical_formula_structural   Ca3Yb(PrSn)16
_chemical_formula_sum   'Ca3 Yb1 Pr16 Sn16'
_cell_volume   1129.49913311
_cell_formula_units_Z   1
loop_
 _symmetry_equiv_pos_site_id
 _symmetry_equiv_pos_as_xyz
  1  'x, y, z'
loop_
 _atom_site_type_symbol
 _atom_site_label
 _atom_site_symmetry_multiplicity
 _atom_site_fract_x
 _atom_site_fract_y
 _atom_site_fract_z
 _atom_site_occupancy
  Ca  Ca0  1  0.823186  0.503898  0.750000  1
  Ca  Ca1  1  0.323139  0.996101  0.750000  1
  Ca  Ca2  1  0.176840  0.496129  0.250000  1
  Yb  Yb3  1  0.676883  0.003422  0.250000  1
  Pr  Pr4  1  0.652625  0.171817  0.623862  1
  Pr  Pr5  1  0.152630  0.328055  0.876098  1
  Pr  Pr6  1  0.347694  0.828219  0.124010  1
  Pr  Pr7  1  0.847241  0.672167  0.376009  1
  Pr  Pr8  1  0.347694  0.828219  0.375990  1
  Pr  Pr9  1  0.847241  0.672167  0.123991  1
  Pr  Pr10  1  0.652625  0.171817  0.876138  1
  Pr  Pr11  1  0.152630  0.328055  0.623902  1
  Pr  Pr12  1  0.500006  0.682518  0.595854  1
  Pr  Pr13  1  0.999866  0.817533  0.904142  1
  Pr  Pr14  1  0.500093  0.317387  0.095941  1
  Pr  Pr15  1  0.999906  0.182483  0.404073  1
  Pr  Pr16  1  0.500093  0.317387  0.404059  1
  Pr  Pr17  1  0.999906  0.182483  0.095927  1
  Pr  Pr18  1  0.500006  0.682518  0.904146  1
  Pr  Pr19  1  0.999866  0.817533  0.595858  1
  Sn  Sn20  1  0.684753  0.962848  0.462827  1
  Sn  Sn21  1  0.184709  0.537282  0.037057  1
  Sn  Sn22  1  0.315254  0.037223  0.962965  1
  Sn  Sn23  1  0.815306  0.462801  0.537028  1
  Sn  Sn24  1  0.315254  0.037223  0.537035  1
  Sn  Sn25  1  0.815306  0.462801  0.962972  1
  Sn  Sn26  1  0.684753  0.962848  0.037173  1
  Sn  Sn27  1  0.184709  0.537282  0.462943  1
  Sn  Sn28  1  0.453707  0.396527  0.750000  1
  Sn  Sn29  1  0.953688  0.103571  0.750000  1
  Sn  Sn30  1  0.546380  0.603607  0.250000  1
  Sn  Sn31  1  0.046000  0.896752  0.250000  1
  Sn  Sn32  1  0.695309  0.858822  0.750000  1
  Sn  Sn33  1  0.195281  0.641134  0.750000  1
  Sn  Sn34  1  0.304994  0.140938  0.250000  1
  Sn  Sn35  1  0.804427  0.358432  0.250000  1
