# generated using pymatgen
data_Sc22Fe2(RuPt)3
_symmetry_space_group_name_H-M   'P 1'
_cell_length_a   9.50623182
_cell_length_b   9.45116049
_cell_length_c   9.49059967
_cell_angle_alpha   60.24667589
_cell_angle_beta   59.67104716
_cell_angle_gamma   59.90399395
_symmetry_Int_Tables_number   1
_chemical_formula_structural   Sc22Fe2(RuPt)3
_chemical_formula_sum   'Sc22 Fe2 Ru3 Pt3'
_cell_volume   602.09383101
_cell_formula_units_Z   1
loop_
 _symmetry_equiv_pos_site_id
 _symmetry_equiv_pos_as_xyz
  1  'x, y, z'
loop_
 _atom_site_type_symbol
 _atom_site_label
 _atom_site_symmetry_multiplicity
 _atom_site_fract_x
 _atom_site_fract_y
 _atom_site_fract_z
 _atom_site_occupancy
  Sc  Sc0  1  0.809011  0.809011  0.190989  1
  Sc  Sc1  1  0.190695  0.809305  0.190448  1
  Sc  Sc2  1  0.808886  0.191114  0.190976  1
  Sc  Sc3  1  0.190989  0.190989  0.809011  1
  Sc  Sc4  1  0.809305  0.190695  0.809552  1
  Sc  Sc5  1  0.191114  0.808886  0.809024  1
  Sc  Sc6  1  0.614365  0.616524  0.158406  1
  Sc  Sc7  1  0.617595  0.157080  0.613718  1
  Sc  Sc8  1  0.157080  0.617595  0.611607  1
  Sc  Sc9  1  0.616524  0.614365  0.610706  1
  Sc  Sc10  1  0.385635  0.383476  0.841594  1
  Sc  Sc11  1  0.382405  0.842920  0.386282  1
  Sc  Sc12  1  0.842920  0.382405  0.388393  1
  Sc  Sc13  1  0.383476  0.385635  0.389294  1
  Sc  Sc14  1  0.847061  0.838441  0.474394  1
  Sc  Sc15  1  0.844296  0.475634  0.836023  1
  Sc  Sc16  1  0.475634  0.844296  0.844047  1
  Sc  Sc17  1  0.838441  0.847061  0.840103  1
  Sc  Sc18  1  0.152939  0.161559  0.525606  1
  Sc  Sc19  1  0.155704  0.524366  0.163977  1
  Sc  Sc20  1  0.524366  0.155704  0.155953  1
  Sc  Sc21  1  0.161559  0.152939  0.159897  1
  Fe  Fe22  1  0.000000  0.000000  0.000000  1
  Fe  Fe23  1  0.500000  0.500000  0.500000  1
  Ru  Ru24  1  0.000000  0.000000  0.500000  1
  Ru  Ru25  1  0.000000  0.500000  0.500000  1
  Ru  Ru26  1  0.500000  0.000000  0.000000  1
  Pt  Pt27  1  0.500000  0.000000  0.500000  1
  Pt  Pt28  1  0.500000  0.500000  0.000000  1
  Pt  Pt29  1  0.000000  0.500000  0.000000  1
