# generated using pymatgen
data_Sc3SiSb3Au4
_symmetry_space_group_name_H-M   'P 1'
_cell_length_a   7.84912669
_cell_length_b   7.84912599
_cell_length_c   7.84722902
_cell_angle_alpha   131.77639837
_cell_angle_beta   131.77639646
_cell_angle_gamma   70.60197393
_symmetry_Int_Tables_number   1
_chemical_formula_structural   Sc3SiSb3Au4
_chemical_formula_sum   'Sc3 Si1 Sb3 Au4'
_cell_volume   263.39065302
_cell_formula_units_Z   1
loop_
 _symmetry_equiv_pos_site_id
 _symmetry_equiv_pos_as_xyz
  1  'x, y, z'
loop_
 _atom_site_type_symbol
 _atom_site_label
 _atom_site_symmetry_multiplicity
 _atom_site_fract_x
 _atom_site_fract_y
 _atom_site_fract_z
 _atom_site_occupancy
  Sc  Sc0  1  0.995033  0.995033  0.000000  1
  Sc  Sc1  1  0.750438  0.250437  0.500001  1
  Sc  Sc2  1  0.250437  0.750438  0.500001  1
  Si  Si3  1  0.252585  0.252585  0.000000  1
  Sb  Sb4  1  0.749157  0.749157  0.000000  1
  Sb  Sb5  1  0.498682  0.998681  0.500001  1
  Sb  Sb6  1  0.998681  0.498682  0.500001  1
  Au  Au7  1  0.594639  0.146259  0.000000  1
  Au  Au8  1  0.146259  0.594639  0.000000  1
  Au  Au9  1  0.901562  0.901562  0.539034  1
  Au  Au10  1  0.362529  0.362529  0.460967  1
