# generated using pymatgen
data_Dy2HoAl12Ru3Au
_symmetry_space_group_name_H-M   'P 1'
_cell_length_a   8.86760946
_cell_length_b   8.83216157
_cell_length_c   9.55658674
_cell_angle_alpha   90.07861585
_cell_angle_beta   89.95232410
_cell_angle_gamma   119.68553486
_symmetry_Int_Tables_number   1
_chemical_formula_structural   Dy2HoAl12Ru3Au
_chemical_formula_sum   'Dy4 Ho2 Al24 Ru6 Au2'
_cell_volume   650.24056105
_cell_formula_units_Z   2
loop_
 _symmetry_equiv_pos_site_id
 _symmetry_equiv_pos_as_xyz
  1  'x, y, z'
loop_
 _atom_site_type_symbol
 _atom_site_label
 _atom_site_symmetry_multiplicity
 _atom_site_fract_x
 _atom_site_fract_y
 _atom_site_fract_z
 _atom_site_occupancy
  Dy  Dy0  1  0.190293  0.385889  0.253351  1
  Dy  Dy1  1  0.809707  0.614111  0.746649  1
  Dy  Dy2  1  0.615449  0.808024  0.248292  1
  Dy  Dy3  1  0.384551  0.191976  0.751708  1
  Ho  Ho4  1  0.191605  0.805280  0.253626  1
  Ho  Ho5  1  0.808395  0.194720  0.746374  1
  Al  Al6  1  0.321088  0.661181  0.030547  1
  Al  Al7  1  0.678912  0.338819  0.969453  1
  Al  Al8  1  0.666343  0.333305  0.525766  1
  Al  Al9  1  0.333657  0.666695  0.474234  1
  Al  Al10  1  0.164072  0.327561  0.575327  1
  Al  Al11  1  0.835928  0.672439  0.424673  1
  Al  Al12  1  0.673980  0.836951  0.572304  1
  Al  Al13  1  0.848076  0.676682  0.080578  1
  Al  Al14  1  0.326020  0.163049  0.427696  1
  Al  Al15  1  0.151924  0.323318  0.919422  1
  Al  Al16  1  0.163751  0.836967  0.576338  1
  Al  Al17  1  0.318010  0.159201  0.084126  1
  Al  Al18  1  0.836249  0.163033  0.423662  1
  Al  Al19  1  0.681990  0.840799  0.915874  1
  Al  Al20  1  0.847669  0.171171  0.081012  1
  Al  Al21  1  0.152331  0.828829  0.918988  1
  Al  Al22  1  0.563802  0.127419  0.256691  1
  Al  Al23  1  0.436198  0.872581  0.743309  1
  Al  Al24  1  0.878167  0.439340  0.249520  1
  Al  Al25  1  0.121833  0.560660  0.750480  1
  Al  Al26  1  0.564002  0.436432  0.257129  1
  Al  Al27  1  0.435998  0.563568  0.742871  1
  Al  Al28  1  0.996905  0.998504  0.250889  1
  Al  Al29  1  0.003095  0.001496  0.749111  1
  Ru  Ru30  1  0.000000  0.500000  0.000000  1
  Ru  Ru31  1  0.500000  0.000000  0.500000  1
  Ru  Ru32  1  0.000000  0.500000  0.500000  1
  Ru  Ru33  1  0.500000  0.500000  0.500000  1
  Ru  Ru34  1  0.000000  0.000000  0.000000  1
  Ru  Ru35  1  0.000000  0.000000  0.500000  1
  Au  Au36  1  0.500000  0.000000  0.000000  1
  Au  Au37  1  0.500000  0.500000  0.000000  1
