# generated using pymatgen
data_Ti8Zn2CoAg
_symmetry_space_group_name_H-M   'P 1'
_cell_length_a   2.98121400
_cell_length_b   2.98121400
_cell_length_c   21.85095400
_cell_angle_alpha   90.00000000
_cell_angle_beta   90.00000000
_cell_angle_gamma   90.00000000
_symmetry_Int_Tables_number   1
_chemical_formula_structural   Ti8Zn2CoAg
_chemical_formula_sum   'Ti8 Zn2 Co1 Ag1'
_cell_volume   194.20334537
_cell_formula_units_Z   1
loop_
 _symmetry_equiv_pos_site_id
 _symmetry_equiv_pos_as_xyz
  1  'x, y, z'
loop_
 _atom_site_type_symbol
 _atom_site_label
 _atom_site_symmetry_multiplicity
 _atom_site_fract_x
 _atom_site_fract_y
 _atom_site_fract_z
 _atom_site_occupancy
  Ti  Ti0  1  0.500000  0.500000  0.065339  1
  Ti  Ti1  1  0.000000  0.000000  0.336161  1
  Ti  Ti2  1  0.500000  0.500000  0.585916  1
  Ti  Ti3  1  0.000000  0.000000  0.841435  1
  Ti  Ti4  1  0.000000  0.000000  0.149653  1
  Ti  Ti5  1  0.500000  0.500000  0.421465  1
  Ti  Ti6  1  0.000000  0.000000  0.673071  1
  Ti  Ti7  1  0.500000  0.500000  0.927117  1
  Zn  Zn8  1  0.000000  0.000000  0.504200  1
  Zn  Zn9  1  0.500000  0.500000  0.757195  1
  Co  Co10  1  0.000000  0.000000  0.995567  1
  Ag  Ag11  1  0.500000  0.500000  0.242881  1
