# generated using pymatgen
data_Sc6Ti4Al12IrRu5Pt
_symmetry_space_group_name_H-M   'P 1'
_cell_length_a   8.82741593
_cell_length_b   8.82741566
_cell_length_c   8.82741600
_cell_angle_alpha   60.00000621
_cell_angle_beta   60.00000723
_cell_angle_gamma   60.00000164
_symmetry_Int_Tables_number   1
_chemical_formula_structural   Sc6Ti4Al12IrRu5Pt
_chemical_formula_sum   'Sc6 Ti4 Al12 Ir1 Ru5 Pt1'
_cell_volume   486.39131556
_cell_formula_units_Z   1
loop_
 _symmetry_equiv_pos_site_id
 _symmetry_equiv_pos_as_xyz
  1  'x, y, z'
loop_
 _atom_site_type_symbol
 _atom_site_label
 _atom_site_symmetry_multiplicity
 _atom_site_fract_x
 _atom_site_fract_y
 _atom_site_fract_z
 _atom_site_occupancy
  Sc  Sc0  1  0.707717  0.707717  0.292283  1
  Sc  Sc1  1  0.292449  0.707684  0.287679  1
  Sc  Sc2  1  0.707684  0.292449  0.287679  1
  Sc  Sc3  1  0.290751  0.290751  0.709249  1
  Sc  Sc4  1  0.707684  0.292449  0.712188  1
  Sc  Sc5  1  0.292449  0.707684  0.712188  1
  Ti  Ti6  1  0.878282  0.878282  0.359342  1
  Ti  Ti7  1  0.880181  0.359312  0.880253  1
  Ti  Ti8  1  0.359312  0.880181  0.880253  1
  Ti  Ti9  1  0.878282  0.878282  0.884093  1
  Al  Al10  1  0.121970  0.121970  0.639485  1
  Al  Al11  1  0.120803  0.639305  0.119945  1
  Al  Al12  1  0.639305  0.120803  0.119945  1
  Al  Al13  1  0.121970  0.121970  0.116574  1
  Al  Al14  1  0.666533  0.666533  0.000212  1
  Al  Al15  1  0.662788  0.002825  0.667194  1
  Al  Al16  1  0.002825  0.662788  0.667194  1
  Al  Al17  1  0.666533  0.666533  0.666723  1
  Al  Al18  1  0.333710  0.333710  0.998370  1
  Al  Al19  1  0.338988  0.994434  0.333288  1
  Al  Al20  1  0.994434  0.338988  0.333288  1
  Al  Al21  1  0.333710  0.333710  0.334207  1
  Ir  Ir22  1  0.999816  0.999816  0.000184  1
  Ru  Ru23  1  0.501898  0.998479  0.500789  1
  Ru  Ru24  1  0.998479  0.501898  0.500789  1
  Ru  Ru25  1  0.501445  0.501445  0.998555  1
  Ru  Ru26  1  0.998479  0.501898  0.998833  1
  Ru  Ru27  1  0.501898  0.998479  0.998833  1
  Pt  Pt28  1  0.999621  0.999621  0.500379  1
