# generated using pymatgen
data_Tc4BiSb3F28
_symmetry_space_group_name_H-M   'P 1'
_cell_length_a   5.73600131
_cell_length_b   9.24510710
_cell_length_c   12.39996500
_cell_angle_alpha   61.94555298
_cell_angle_beta   90.09753071
_cell_angle_gamma   89.97133966
_symmetry_Int_Tables_number   1
_chemical_formula_structural   Tc4BiSb3F28
_chemical_formula_sum   'Tc4 Bi1 Sb3 F28'
_cell_volume   580.30429519
_cell_formula_units_Z   1
loop_
 _symmetry_equiv_pos_site_id
 _symmetry_equiv_pos_as_xyz
  1  'x, y, z'
loop_
 _atom_site_type_symbol
 _atom_site_label
 _atom_site_symmetry_multiplicity
 _atom_site_fract_x
 _atom_site_fract_y
 _atom_site_fract_z
 _atom_site_occupancy
  Tc  Tc0  1  0.762458  0.274636  0.956876  1
  Tc  Tc1  1  0.263493  0.726633  0.541505  1
  Tc  Tc2  1  0.240926  0.727172  0.043794  1
  Tc  Tc3  1  0.731925  0.269957  0.456538  1
  Bi  Bi4  1  0.762367  0.811250  0.759827  1
  Sb  Sb5  1  0.269759  0.165133  0.755354  1
  Sb  Sb6  1  0.231918  0.175169  0.256043  1
  Sb  Sb7  1  0.731053  0.834960  0.250046  1
  F  F8  1  0.444617  0.706393  0.924744  1
  F  F9  1  0.934473  0.295415  0.568760  1
  F  F10  1  0.564059  0.301202  0.071242  1
  F  F11  1  0.068725  0.705462  0.423323  1
  F  F12  1  0.455427  0.275564  0.543421  1
  F  F13  1  0.962144  0.715870  0.954843  1
  F  F14  1  0.546290  0.725106  0.453580  1
  F  F15  1  0.038092  0.284658  0.043607  1
  F  F16  1  0.772227  0.511694  0.850968  1
  F  F17  1  0.279484  0.495757  0.642237  1
  F  F18  1  0.232985  0.493938  0.146141  1
  F  F19  1  0.719513  0.501943  0.351110  1
  F  F20  1  0.756522  0.026726  0.062334  1
  F  F21  1  0.251268  0.978440  0.437717  1
  F  F22  1  0.243327  0.976365  0.941312  1
  F  F23  1  0.742463  0.024899  0.559261  1
  F  F24  1  0.987977  0.738308  0.635826  1
  F  F25  1  0.485773  0.257248  0.864986  1
  F  F26  1  0.010346  0.256481  0.358037  1
  F  F27  1  0.513228  0.747124  0.134156  1
  F  F28  1  0.042051  0.760061  0.160828  1
  F  F29  1  0.527332  0.238130  0.332995  1
  F  F30  1  0.960177  0.239738  0.837915  1
  F  F31  1  0.454779  0.755704  0.666562  1
  F  F32  1  0.435755  0.979300  0.234429  1
  F  F33  1  0.916425  0.018753  0.269958  1
  F  F34  1  0.571177  0.025531  0.773099  1
  F  F35  1  0.089465  0.979277  0.736624  1
