# generated using pymatgen
data_Dy2Al2(SiPt)3
_symmetry_space_group_name_H-M   'P 1'
_cell_length_a   8.30340152
_cell_length_b   8.30340147
_cell_length_c   8.30340075
_cell_angle_alpha   138.08700758
_cell_angle_beta   103.15670064
_cell_angle_gamma   91.61738414
_symmetry_Int_Tables_number   1
_chemical_formula_structural   Dy2Al2(SiPt)3
_chemical_formula_sum   'Dy4 Al4 Si6 Pt6'
_cell_volume   354.78642690
_cell_formula_units_Z   2
loop_
 _symmetry_equiv_pos_site_id
 _symmetry_equiv_pos_as_xyz
  1  'x, y, z'
loop_
 _atom_site_type_symbol
 _atom_site_label
 _atom_site_symmetry_multiplicity
 _atom_site_fract_x
 _atom_site_fract_y
 _atom_site_fract_z
 _atom_site_occupancy
  Dy  Dy0  1  0.636498  0.369566  0.266932  1
  Dy  Dy1  1  0.363502  0.630434  0.733068  1
  Dy  Dy2  1  0.102633  0.869566  0.233068  1
  Dy  Dy3  1  0.897367  0.130434  0.766932  1
  Al  Al4  1  0.267186  0.517186  0.250000  1
  Al  Al5  1  0.732814  0.482814  0.750000  1
  Al  Al6  1  0.732814  0.982814  0.250000  1
  Al  Al7  1  0.267186  0.017186  0.750000  1
  Si  Si8  1  0.457854  0.108907  0.348946  1
  Si  Si9  1  0.542146  0.891093  0.651054  1
  Si  Si10  1  0.759961  0.608907  0.151054  1
  Si  Si11  1  0.240039  0.391093  0.848946  1
  Si  Si12  1  0.000000  0.250000  0.250000  1
  Si  Si13  1  0.000000  0.750000  0.750000  1
  Pt  Pt14  1  0.250234  0.129406  0.120827  1
  Pt  Pt15  1  0.749766  0.870594  0.879173  1
  Pt  Pt16  1  0.008578  0.629406  0.379173  1
  Pt  Pt17  1  0.991422  0.370594  0.620827  1
  Pt  Pt18  1  0.500000  0.250000  0.750000  1
  Pt  Pt19  1  0.500000  0.750000  0.250000  1
