# generated using pymatgen
data_Ho2Er7Tm3Ir4
_symmetry_space_group_name_H-M   'P 1'
_cell_length_a   6.36333129
_cell_length_b   7.19958535
_cell_length_c   9.06820028
_cell_angle_alpha   89.97883167
_cell_angle_beta   89.98113053
_cell_angle_gamma   89.97121234
_symmetry_Int_Tables_number   1
_chemical_formula_structural   Ho2Er7Tm3Ir4
_chemical_formula_sum   'Ho2 Er7 Tm3 Ir4'
_cell_volume   415.44450007
_cell_formula_units_Z   1
loop_
 _symmetry_equiv_pos_site_id
 _symmetry_equiv_pos_as_xyz
  1  'x, y, z'
loop_
 _atom_site_type_symbol
 _atom_site_label
 _atom_site_symmetry_multiplicity
 _atom_site_fract_x
 _atom_site_fract_y
 _atom_site_fract_z
 _atom_site_occupancy
  Ho  Ho0  1  0.872564  0.533811  0.250078  1
  Ho  Ho1  1  0.627437  0.034001  0.250179  1
  Er  Er2  1  0.827363  0.822506  0.937926  1
  Er  Er3  1  0.672584  0.322593  0.937700  1
  Er  Er4  1  0.827412  0.822586  0.562026  1
  Er  Er5  1  0.327825  0.677243  0.438478  1
  Er  Er6  1  0.172408  0.177310  0.061677  1
  Er  Er7  1  0.127236  0.466192  0.749934  1
  Er  Er8  1  0.372827  0.966347  0.749884  1
  Tm  Tm9  1  0.327788  0.677088  0.061715  1
  Tm  Tm10  1  0.172218  0.177247  0.438523  1
  Tm  Tm11  1  0.672591  0.322492  0.562151  1
  Ir  Ir12  1  0.043532  0.884535  0.249895  1
  Ir  Ir13  1  0.456577  0.384510  0.250261  1
  Ir  Ir14  1  0.958375  0.115971  0.749495  1
  Ir  Ir15  1  0.541264  0.615566  0.750078  1
