# generated using pymatgen
data_ZrNi4Te6Mo
_symmetry_space_group_name_H-M   'P 1'
_cell_length_a   3.79102700
_cell_length_b   7.68641768
_cell_length_c   10.50346428
_cell_angle_alpha   71.38551128
_cell_angle_beta   90.00000000
_cell_angle_gamma   90.00000000
_symmetry_Int_Tables_number   1
_chemical_formula_structural   ZrNi4Te6Mo
_chemical_formula_sum   'Zr1 Ni4 Te6 Mo1'
_cell_volume   290.05387709
_cell_formula_units_Z   1
loop_
 _symmetry_equiv_pos_site_id
 _symmetry_equiv_pos_as_xyz
  1  'x, y, z'
loop_
 _atom_site_type_symbol
 _atom_site_label
 _atom_site_symmetry_multiplicity
 _atom_site_fract_x
 _atom_site_fract_y
 _atom_site_fract_z
 _atom_site_occupancy
  Zr  Zr0  1  0.750000  0.216127  0.297653  1
  Ni  Ni1  1  0.250000  0.414165  0.085730  1
  Ni  Ni2  1  0.750000  0.596086  0.904354  1
  Ni  Ni3  1  0.750000  0.033343  0.571694  1
  Ni  Ni4  1  0.250000  0.952366  0.440202  1
  Te  Te5  1  0.750000  0.938181  0.825982  1
  Te  Te6  1  0.250000  0.047599  0.172818  1
  Te  Te7  1  0.750000  0.593677  0.148424  1
  Te  Te8  1  0.250000  0.430371  0.837007  1
  Te  Te9  1  0.250000  0.267143  0.505348  1
  Te  Te10  1  0.750000  0.721121  0.512356  1
  Mo  Mo11  1  0.250000  0.789820  0.698431  1
