# generated using pymatgen
data_V11ReSi8(RuC)4
_symmetry_space_group_name_H-M   'P 1'
_cell_length_a   7.81620300
_cell_length_b   7.81620359
_cell_length_c   7.78776100
_cell_angle_alpha   60.12029764
_cell_angle_beta   60.12029520
_cell_angle_gamma   59.87975889
_symmetry_Int_Tables_number   1
_chemical_formula_structural   V11ReSi8(RuC)4
_chemical_formula_sum   'V11 Re1 Si8 Ru4 C4'
_cell_volume   336.72778874
_cell_formula_units_Z   1
loop_
 _symmetry_equiv_pos_site_id
 _symmetry_equiv_pos_as_xyz
  1  'x, y, z'
loop_
 _atom_site_type_symbol
 _atom_site_label
 _atom_site_symmetry_multiplicity
 _atom_site_fract_x
 _atom_site_fract_y
 _atom_site_fract_z
 _atom_site_occupancy
  V  V0  1  0.185457  0.185457  0.814543  1
  V  V1  1  0.817397  0.185239  0.813263  1
  V  V2  1  0.185239  0.817397  0.184101  1
  V  V3  1  0.185239  0.817397  0.813263  1
  V  V4  1  0.817397  0.185239  0.184101  1
  V  V5  1  0.434043  0.434043  0.065957  1
  V  V6  1  0.063682  0.063682  0.436318  1
  V  V7  1  0.433764  0.065128  0.436147  1
  V  V8  1  0.065128  0.433764  0.064959  1
  V  V9  1  0.065128  0.433764  0.436147  1
  V  V10  1  0.433764  0.065128  0.064959  1
  Re  Re11  1  0.817271  0.817271  0.182729  1
  Si  Si12  1  0.769370  0.408384  0.411124  1
  Si  Si13  1  0.408384  0.769370  0.411124  1
  Si  Si14  1  0.409935  0.409935  0.768818  1
  Si  Si15  1  0.409935  0.409935  0.411315  1
  Si  Si16  1  0.480459  0.840508  0.839516  1
  Si  Si17  1  0.840508  0.480459  0.839516  1
  Si  Si18  1  0.838835  0.838835  0.482115  1
  Si  Si19  1  0.838835  0.838835  0.840213  1
  Ru  Ru20  1  0.123932  0.625267  0.625400  1
  Ru  Ru21  1  0.625267  0.123932  0.625400  1
  Ru  Ru22  1  0.623636  0.623636  0.126126  1
  Ru  Ru23  1  0.623636  0.623636  0.626602  1
  C  C24  1  0.621631  0.130509  0.123930  1
  C  C25  1  0.130509  0.621631  0.123930  1
  C  C26  1  0.125810  0.125810  0.623676  1
  C  C27  1  0.125810  0.125810  0.124706  1
