# generated using pymatgen
data_Ti8Al15Ir2PdRh4
_symmetry_space_group_name_H-M   'P 1'
_cell_length_a   8.67683990
_cell_length_b   8.66060667
_cell_length_c   8.66019354
_cell_angle_alpha   120.06112784
_cell_angle_beta   119.85397413
_cell_angle_gamma   90.08688562
_symmetry_Int_Tables_number   1
_chemical_formula_structural   Ti8Al15Ir2PdRh4
_chemical_formula_sum   'Ti8 Al15 Ir2 Pd1 Rh4'
_cell_volume   460.41406321
_cell_formula_units_Z   1
loop_
 _symmetry_equiv_pos_site_id
 _symmetry_equiv_pos_as_xyz
  1  'x, y, z'
loop_
 _atom_site_type_symbol
 _atom_site_label
 _atom_site_symmetry_multiplicity
 _atom_site_fract_x
 _atom_site_fract_y
 _atom_site_fract_z
 _atom_site_occupancy
  Ti  Ti0  1  0.788985  0.289884  0.073412  1
  Ti  Ti1  1  0.217594  0.289976  0.500508  1
  Ti  Ti2  1  0.210591  0.710009  0.501390  1
  Ti  Ti3  1  0.217164  0.717148  0.926083  1
  Ti  Ti4  1  0.788897  0.715505  0.499910  1
  Ti  Ti5  1  0.781355  0.283328  0.498209  1
  Ti  Ti6  1  0.385564  0.125385  0.749404  1
  Ti  Ti7  1  0.379475  0.635341  0.256432  1
  Al  Al8  1  0.997369  0.497078  0.499875  1
  Al  Al9  1  0.153590  0.344652  0.191663  1
  Al  Al10  1  0.153233  0.962558  0.810044  1
  Al  Al11  1  0.149858  0.348070  0.804429  1
  Al  Al12  1  0.542797  0.347647  0.198043  1
  Al  Al13  1  0.845893  0.652569  0.806993  1
  Al  Al14  1  0.846156  0.039666  0.191197  1
  Al  Al15  1  0.843952  0.652253  0.187712  1
  Al  Al16  1  0.465205  0.653445  0.809042  1
  Al  Al17  1  0.378646  0.121784  0.257525  1
  Al  Al18  1  0.862774  0.123357  0.745987  1
  Al  Al19  1  0.617514  0.876174  0.253330  1
  Al  Al20  1  0.621094  0.365278  0.743208  1
  Al  Al21  1  0.620673  0.877159  0.742144  1
  Al  Al22  1  0.136802  0.876981  0.254670  1
  Ir  Ir23  1  0.498619  0.000245  0.998843  1
  Ir  Ir24  1  0.497260  0.497604  0.000644  1
  Pd  Pd25  1  0.000043  0.999603  0.500319  1
  Rh  Rh26  1  0.498547  0.499464  0.498361  1
  Rh  Rh27  1  0.001095  0.499016  0.000827  1
  Rh  Rh28  1  0.999235  0.999305  0.999460  1
  Rh  Rh29  1  0.500020  0.999514  0.500335  1
