# generated using pymatgen
data_Pr4Zr3NbF28
_symmetry_space_group_name_H-M   'P 1'
_cell_length_a   5.85454608
_cell_length_b   9.38994192
_cell_length_c   12.62311719
_cell_angle_alpha   62.25593940
_cell_angle_beta   90.00977814
_cell_angle_gamma   89.92969803
_symmetry_Int_Tables_number   1
_chemical_formula_structural   Pr4Zr3NbF28
_chemical_formula_sum   'Pr4 Zr3 Nb1 F28'
_cell_volume   614.16230410
_cell_formula_units_Z   1
loop_
 _symmetry_equiv_pos_site_id
 _symmetry_equiv_pos_as_xyz
  1  'x, y, z'
loop_
 _atom_site_type_symbol
 _atom_site_label
 _atom_site_symmetry_multiplicity
 _atom_site_fract_x
 _atom_site_fract_y
 _atom_site_fract_z
 _atom_site_occupancy
  Pr  Pr0  1  0.757951  0.811703  0.766203  1
  Pr  Pr1  1  0.255455  0.188000  0.731811  1
  Pr  Pr2  1  0.242257  0.188847  0.236982  1
  Pr  Pr3  1  0.743390  0.814249  0.265204  1
  Zr  Zr4  1  0.753940  0.273652  0.957094  1
  Zr  Zr5  1  0.255064  0.725791  0.542815  1
  Zr  Zr6  1  0.245899  0.726474  0.043196  1
  Nb  Nb7  1  0.744466  0.274685  0.456202  1
  F  F8  1  0.454481  0.710536  0.919871  1
  F  F9  1  0.943481  0.287519  0.583970  1
  F  F10  1  0.543193  0.288118  0.080202  1
  F  F11  1  0.047217  0.711193  0.418748  1
  F  F12  1  0.454154  0.278788  0.545537  1
  F  F13  1  0.955357  0.720346  0.953851  1
  F  F14  1  0.545431  0.717116  0.454238  1
  F  F15  1  0.041539  0.279118  0.048288  1
  F  F16  1  0.771496  0.518692  0.861861  1
  F  F17  1  0.268617  0.481508  0.638124  1
  F  F18  1  0.226669  0.482222  0.138538  1
  F  F19  1  0.734332  0.510981  0.362423  1
  F  F20  1  0.760181  0.029001  0.056982  1
  F  F21  1  0.262694  0.969915  0.445251  1
  F  F22  1  0.238734  0.969916  0.942211  1
  F  F23  1  0.738607  0.039025  0.550598  1
  F  F24  1  0.977401  0.733573  0.638181  1
  F  F25  1  0.481087  0.267976  0.858493  1
  F  F26  1  0.025150  0.270431  0.362779  1
  F  F27  1  0.521666  0.730347  0.141092  1
  F  F28  1  0.046706  0.746283  0.169629  1
  F  F29  1  0.548879  0.257375  0.328334  1
  F  F30  1  0.957312  0.254418  0.832120  1
  F  F31  1  0.455730  0.745771  0.668827  1
  F  F32  1  0.415698  0.968280  0.234138  1
  F  F33  1  0.915743  0.030598  0.269682  1
  F  F34  1  0.584700  0.030843  0.766744  1
  F  F35  1  0.085323  0.966711  0.729785  1
