# generated using pymatgen
data_Nb6CrCo6
_symmetry_space_group_name_H-M   'P 1'
_cell_length_a   9.14677098
_cell_length_b   9.14677109
_cell_length_c   9.14677057
_cell_angle_alpha   31.07739675
_cell_angle_beta   31.07739363
_cell_angle_gamma   31.07740184
_symmetry_Int_Tables_number   1
_chemical_formula_structural   Nb6CrCo6
_chemical_formula_sum   'Nb6 Cr1 Co6'
_cell_volume   180.91056535
_cell_formula_units_Z   1
loop_
 _symmetry_equiv_pos_site_id
 _symmetry_equiv_pos_as_xyz
  1  'x, y, z'
loop_
 _atom_site_type_symbol
 _atom_site_label
 _atom_site_symmetry_multiplicity
 _atom_site_fract_x
 _atom_site_fract_y
 _atom_site_fract_z
 _atom_site_occupancy
  Nb  Nb0  1  0.833833  0.833833  0.833833  1
  Nb  Nb1  1  0.166167  0.166167  0.166167  1
  Nb  Nb2  1  0.652921  0.652921  0.652921  1
  Nb  Nb3  1  0.347079  0.347079  0.347079  1
  Nb  Nb4  1  0.549804  0.549804  0.549804  1
  Nb  Nb5  1  0.450196  0.450196  0.450196  1
  Cr  Cr6  1  0.000000  0.000000  0.000000  1
  Co  Co7  1  0.906982  0.409898  0.906982  1
  Co  Co8  1  0.906982  0.906982  0.409898  1
  Co  Co9  1  0.409898  0.906982  0.906982  1
  Co  Co10  1  0.093018  0.590102  0.093018  1
  Co  Co11  1  0.093018  0.093018  0.590102  1
  Co  Co12  1  0.590102  0.093018  0.093018  1
