# generated using pymatgen
data_ErLu3Si4(IrRu)2
_symmetry_space_group_name_H-M   'P 1'
_cell_length_a   4.22778800
_cell_length_b   6.80518622
_cell_length_c   7.26363738
_cell_angle_alpha   89.90732048
_cell_angle_beta   90.00000000
_cell_angle_gamma   90.00000000
_symmetry_Int_Tables_number   1
_chemical_formula_structural   ErLu3Si4(IrRu)2
_chemical_formula_sum   'Er1 Lu3 Si4 Ir2 Ru2'
_cell_volume   208.98099977
_cell_formula_units_Z   1
loop_
 _symmetry_equiv_pos_site_id
 _symmetry_equiv_pos_as_xyz
  1  'x, y, z'
loop_
 _atom_site_type_symbol
 _atom_site_label
 _atom_site_symmetry_multiplicity
 _atom_site_fract_x
 _atom_site_fract_y
 _atom_site_fract_z
 _atom_site_occupancy
  Er  Er0  1  0.250000  0.002502  0.314324  1
  Lu  Lu1  1  0.750000  0.497425  0.812295  1
  Lu  Lu2  1  0.750000  0.997417  0.688281  1
  Lu  Lu3  1  0.250000  0.502735  0.186371  1
  Si  Si4  1  0.250000  0.700365  0.614159  1
  Si  Si5  1  0.250000  0.201261  0.886313  1
  Si  Si6  1  0.750000  0.298166  0.392278  1
  Si  Si7  1  0.750000  0.796395  0.107043  1
  Ir  Ir8  1  0.750000  0.658294  0.435648  1
  Ir  Ir9  1  0.750000  0.159131  0.063641  1
  Ru  Ru10  1  0.250000  0.842412  0.936607  1
  Ru  Ru11  1  0.250000  0.343900  0.563037  1
