# generated using pymatgen
data_Y2Co9Si7Mo3
_symmetry_space_group_name_H-M   'P 1'
_cell_length_a   3.72460400
_cell_length_b   9.35887295
_cell_length_c   9.35887300
_cell_angle_alpha   119.99999664
_cell_angle_beta   90.00000000
_cell_angle_gamma   90.00000000
_symmetry_Int_Tables_number   1
_chemical_formula_structural   Y2Co9Si7Mo3
_chemical_formula_sum   'Y2 Co9 Si7 Mo3'
_cell_volume   282.52563343
_cell_formula_units_Z   1
loop_
 _symmetry_equiv_pos_site_id
 _symmetry_equiv_pos_as_xyz
  1  'x, y, z'
loop_
 _atom_site_type_symbol
 _atom_site_label
 _atom_site_symmetry_multiplicity
 _atom_site_fract_x
 _atom_site_fract_y
 _atom_site_fract_z
 _atom_site_occupancy
  Y  Y0  1  0.000000  0.666667  0.333333  1
  Y  Y1  1  0.500000  0.333333  0.666667  1
  Co  Co2  1  0.000000  0.572593  0.946025  1
  Co  Co3  1  0.000000  0.373433  0.427407  1
  Co  Co4  1  0.000000  0.053975  0.626567  1
  Co  Co5  1  0.000000  0.876855  0.156811  1
  Co  Co6  1  0.000000  0.279956  0.123145  1
  Co  Co7  1  0.000000  0.843189  0.720044  1
  Co  Co8  1  0.500000  0.948935  0.384619  1
  Co  Co9  1  0.500000  0.435683  0.051065  1
  Co  Co10  1  0.500000  0.615381  0.564317  1
  Si  Si11  1  0.000000  0.000000  0.000000  1
  Si  Si12  1  0.500000  0.709665  0.117037  1
  Si  Si13  1  0.500000  0.407373  0.290335  1
  Si  Si14  1  0.500000  0.882963  0.592627  1
  Si  Si15  1  0.000000  0.586215  0.695432  1
  Si  Si16  1  0.000000  0.109218  0.413785  1
  Si  Si17  1  0.000000  0.304568  0.890782  1
  Mo  Mo18  1  0.500000  0.781019  0.892903  1
  Mo  Mo19  1  0.500000  0.111884  0.218981  1
  Mo  Mo20  1  0.500000  0.107097  0.888116  1
