# generated using pymatgen
data_YbPr(Ga3Pd)2
_symmetry_space_group_name_H-M   'P 1'
_cell_length_a   6.13827144
_cell_length_b   6.13827226
_cell_length_c   5.84973400
_cell_angle_alpha   90.00000000
_cell_angle_beta   90.00000000
_cell_angle_gamma   116.76836390
_symmetry_Int_Tables_number   1
_chemical_formula_structural   YbPr(Ga3Pd)2
_chemical_formula_sum   'Yb1 Pr1 Ga6 Pd2'
_cell_volume   196.78835029
_cell_formula_units_Z   1
loop_
 _symmetry_equiv_pos_site_id
 _symmetry_equiv_pos_as_xyz
  1  'x, y, z'
loop_
 _atom_site_type_symbol
 _atom_site_label
 _atom_site_symmetry_multiplicity
 _atom_site_fract_x
 _atom_site_fract_y
 _atom_site_fract_z
 _atom_site_occupancy
  Yb  Yb0  1  0.227613  0.772387  0.750000  1
  Pr  Pr1  1  0.769659  0.230341  0.250000  1
  Ga  Ga2  1  0.666380  0.333620  0.750000  1
  Ga  Ga3  1  0.332656  0.667344  0.250000  1
  Ga  Ga4  1  0.714929  0.714253  0.001664  1
  Ga  Ga5  1  0.714929  0.714253  0.498336  1
  Ga  Ga6  1  0.285747  0.285071  0.001664  1
  Ga  Ga7  1  0.285747  0.285071  0.498336  1
  Pd  Pd8  1  0.905121  0.094879  0.750000  1
  Pd  Pd9  1  0.097216  0.902784  0.250000  1
