# generated using pymatgen
data_Lu24TlIn2AgTe8
_symmetry_space_group_name_H-M   'P 1'
_cell_length_a   4.08513300
_cell_length_b   11.36788685
_cell_length_c   21.30977381
_cell_angle_alpha   89.73756293
_cell_angle_beta   90.00000000
_cell_angle_gamma   90.00000000
_symmetry_Int_Tables_number   1
_chemical_formula_structural   Lu24TlIn2AgTe8
_chemical_formula_sum   'Lu24 Tl1 In2 Ag1 Te8'
_cell_volume   989.60123122
_cell_formula_units_Z   1
loop_
 _symmetry_equiv_pos_site_id
 _symmetry_equiv_pos_as_xyz
  1  'x, y, z'
loop_
 _atom_site_type_symbol
 _atom_site_label
 _atom_site_symmetry_multiplicity
 _atom_site_fract_x
 _atom_site_fract_y
 _atom_site_fract_z
 _atom_site_occupancy
  Lu  Lu0  1  0.750000  0.666739  0.891115  1
  Lu  Lu1  1  0.250000  0.369820  0.474074  1
  Lu  Lu2  1  0.750000  0.872034  0.030757  1
  Lu  Lu3  1  0.750000  0.969292  0.835656  1
  Lu  Lu4  1  0.250000  0.176429  0.606429  1
  Lu  Lu5  1  0.250000  0.748746  0.270995  1
  Lu  Lu6  1  0.750000  0.107126  0.489950  1
  Lu  Lu7  1  0.750000  0.567826  0.139545  1
  Lu  Lu8  1  0.250000  0.333976  0.108324  1
  Lu  Lu9  1  0.250000  0.031773  0.163338  1
  Lu  Lu10  1  0.250000  0.465434  0.658443  1
  Lu  Lu11  1  0.250000  0.750750  0.770071  1
  Lu  Lu12  1  0.750000  0.530855  0.336686  1
  Lu  Lu13  1  0.750000  0.933908  0.639664  1
  Lu  Lu14  1  0.250000  0.608640  0.010290  1
  Lu  Lu15  1  0.750000  0.254529  0.730037  1
  Lu  Lu16  1  0.750000  0.249055  0.229807  1
  Lu  Lu17  1  0.750000  0.618319  0.533037  1
  Lu  Lu18  1  0.750000  0.832307  0.391551  1
  Lu  Lu19  1  0.250000  0.130374  0.969485  1
  Lu  Lu20  1  0.250000  0.888818  0.509762  1
  Lu  Lu21  1  0.750000  0.390574  0.989760  1
  Lu  Lu22  1  0.250000  0.433464  0.860153  1
  Lu  Lu23  1  0.250000  0.067666  0.359370  1
  Tl  Tl24  1  0.250000  0.867174  0.924505  1
  In  In25  1  0.750000  0.135080  0.075891  1
  In  In26  1  0.250000  0.633908  0.425217  1
  Ag  Ag27  1  0.750000  0.361024  0.576792  1
  Te  Te28  1  0.250000  0.774399  0.127754  1
  Te  Te29  1  0.250000  0.728879  0.628350  1
  Te  Te30  1  0.250000  0.039729  0.735463  1
  Te  Te31  1  0.750000  0.273979  0.373049  1
  Te  Te32  1  0.750000  0.535795  0.762531  1
  Te  Te33  1  0.250000  0.462791  0.236429  1
  Te  Te34  1  0.750000  0.962292  0.263557  1
  Te  Te35  1  0.750000  0.226490  0.872161  1
