# generated using pymatgen
data_NdDy3Zr4F28
_symmetry_space_group_name_H-M   'P 1'
_cell_length_a   5.79507400
_cell_length_b   9.17346321
_cell_length_c   12.32352998
_cell_angle_alpha   62.35827414
_cell_angle_beta   89.98237947
_cell_angle_gamma   90.01625773
_symmetry_Int_Tables_number   1
_chemical_formula_structural   NdDy3Zr4F28
_chemical_formula_sum   'Nd1 Dy3 Zr4 F28'
_cell_volume   580.35719412
_cell_formula_units_Z   1
loop_
 _symmetry_equiv_pos_site_id
 _symmetry_equiv_pos_as_xyz
  1  'x, y, z'
loop_
 _atom_site_type_symbol
 _atom_site_label
 _atom_site_symmetry_multiplicity
 _atom_site_fract_x
 _atom_site_fract_y
 _atom_site_fract_z
 _atom_site_occupancy
  Nd  Nd0  1  0.756590  0.816289  0.766644  1
  Dy  Dy1  1  0.743828  0.817227  0.266279  1
  Dy  Dy2  1  0.243747  0.184496  0.233818  1
  Dy  Dy3  1  0.257124  0.188177  0.733292  1
  Zr  Zr4  1  0.743858  0.277413  0.453016  1
  Zr  Zr5  1  0.244642  0.725517  0.048961  1
  Zr  Zr6  1  0.254922  0.725431  0.541155  1
  Zr  Zr7  1  0.755337  0.270509  0.956685  1
  F  F8  1  0.461878  0.709277  0.925332  1
  F  F9  1  0.966612  0.288992  0.577065  1
  F  F10  1  0.532021  0.286929  0.078575  1
  F  F11  1  0.031462  0.710760  0.419121  1
  F  F12  1  0.455369  0.281260  0.549264  1
  F  F13  1  0.955938  0.716474  0.956536  1
  F  F14  1  0.546604  0.719453  0.448164  1
  F  F15  1  0.044233  0.278436  0.051523  1
  F  F16  1  0.769396  0.519454  0.860172  1
  F  F17  1  0.267676  0.474901  0.639756  1
  F  F18  1  0.234723  0.474455  0.143471  1
  F  F19  1  0.732893  0.527046  0.356791  1
  F  F20  1  0.759217  0.021211  0.059240  1
  F  F21  1  0.259025  0.975473  0.440329  1
  F  F22  1  0.240473  0.974618  0.942925  1
  F  F23  1  0.739588  0.027870  0.553917  1
  F  F24  1  0.986073  0.731826  0.645007  1
  F  F25  1  0.486060  0.265705  0.851123  1
  F  F26  1  0.010881  0.265358  0.348593  1
  F  F27  1  0.513142  0.735196  0.152724  1
  F  F28  1  0.032660  0.747181  0.174613  1
  F  F29  1  0.530846  0.254212  0.327531  1
  F  F30  1  0.967289  0.251124  0.829300  1
  F  F31  1  0.459409  0.743722  0.669878  1
  F  F32  1  0.433318  0.975669  0.235778  1
  F  F33  1  0.933802  0.025306  0.264326  1
  F  F34  1  0.567765  0.035204  0.765445  1
  F  F35  1  0.081600  0.977829  0.733650  1
