# generated using pymatgen
data_Zr3Np(NiAs2)2
_symmetry_space_group_name_H-M   'P 1'
_cell_length_a   4.00963600
_cell_length_b   4.00963532
_cell_length_c   13.41066800
_cell_angle_alpha   90.00000000
_cell_angle_beta   90.00000000
_cell_angle_gamma   119.99997265
_symmetry_Int_Tables_number   1
_chemical_formula_structural   Zr3Np(NiAs2)2
_chemical_formula_sum   'Zr3 Np1 Ni2 As4'
_cell_volume   186.72006311
_cell_formula_units_Z   1
loop_
 _symmetry_equiv_pos_site_id
 _symmetry_equiv_pos_as_xyz
  1  'x, y, z'
loop_
 _atom_site_type_symbol
 _atom_site_label
 _atom_site_symmetry_multiplicity
 _atom_site_fract_x
 _atom_site_fract_y
 _atom_site_fract_z
 _atom_site_occupancy
  Zr  Zr0  1  0.333333  0.666667  0.891183  1
  Zr  Zr1  1  0.333333  0.666667  0.628221  1
  Zr  Zr2  1  0.666667  0.333333  0.105482  1
  Np  Np3  1  0.666667  0.333333  0.384366  1
  Ni  Ni4  1  0.000000  0.000000  0.770928  1
  Ni  Ni5  1  0.000000  0.000000  0.203438  1
  As  As6  1  0.333333  0.666667  0.246835  1
  As  As7  1  0.000000  0.000000  0.999800  1
  As  As8  1  0.000000  0.000000  0.514046  1
  As  As9  1  0.666667  0.333333  0.755701  1
