# generated using pymatgen
data_Tb3Ho2Tm3In3Co
_symmetry_space_group_name_H-M   'P 1'
_cell_length_a   10.30320400
_cell_length_b   10.30320365
_cell_length_c   7.01118400
_cell_angle_alpha   90.00000000
_cell_angle_beta   90.00000000
_cell_angle_gamma   120.00000112
_symmetry_Int_Tables_number   1
_chemical_formula_structural   Tb3Ho2Tm3In3Co
_chemical_formula_sum   'Tb6 Ho4 Tm6 In6 Co2'
_cell_volume   644.56478458
_cell_formula_units_Z   2
loop_
 _symmetry_equiv_pos_site_id
 _symmetry_equiv_pos_as_xyz
  1  'x, y, z'
loop_
 _atom_site_type_symbol
 _atom_site_label
 _atom_site_symmetry_multiplicity
 _atom_site_fract_x
 _atom_site_fract_y
 _atom_site_fract_z
 _atom_site_occupancy
  Tb  Tb0  1  0.534651  0.069301  0.504150  1
  Tb  Tb1  1  0.930699  0.465349  0.504150  1
  Tb  Tb2  1  0.534651  0.465349  0.504150  1
  Tb  Tb3  1  0.465349  0.930699  0.004150  1
  Tb  Tb4  1  0.069301  0.534651  0.004150  1
  Tb  Tb5  1  0.465349  0.534651  0.004150  1
  Ho  Ho6  1  0.666667  0.333333  0.897286  1
  Ho  Ho7  1  0.333333  0.666667  0.397286  1
  Ho  Ho8  1  0.000000  0.000000  0.493634  1
  Ho  Ho9  1  0.000000  0.000000  0.993634  1
  Tm  Tm10  1  0.178221  0.356440  0.712019  1
  Tm  Tm11  1  0.643560  0.821779  0.712019  1
  Tm  Tm12  1  0.178221  0.821779  0.712019  1
  Tm  Tm13  1  0.821779  0.643560  0.212019  1
  Tm  Tm14  1  0.356440  0.178221  0.212019  1
  Tm  Tm15  1  0.821779  0.178221  0.212019  1
  In  In16  1  0.837650  0.675301  0.753177  1
  In  In17  1  0.324699  0.162350  0.753177  1
  In  In18  1  0.837650  0.162350  0.753177  1
  In  In19  1  0.162350  0.324699  0.253177  1
  In  In20  1  0.675301  0.837650  0.253177  1
  In  In21  1  0.162350  0.837650  0.253177  1
  Co  Co22  1  0.666667  0.333333  0.280067  1
  Co  Co23  1  0.333333  0.666667  0.780067  1
