# generated using pymatgen
data_Mn2Nb2SiP
_symmetry_space_group_name_H-M   'P 1'
_cell_length_a   3.54051500
_cell_length_b   6.30540751
_cell_length_c   7.37015378
_cell_angle_alpha   90.18745450
_cell_angle_beta   90.00000000
_cell_angle_gamma   90.00000000
_symmetry_Int_Tables_number   1
_chemical_formula_structural   Mn2Nb2SiP
_chemical_formula_sum   'Mn4 Nb4 Si2 P2'
_cell_volume   164.53330571
_cell_formula_units_Z   2
loop_
 _symmetry_equiv_pos_site_id
 _symmetry_equiv_pos_as_xyz
  1  'x, y, z'
loop_
 _atom_site_type_symbol
 _atom_site_label
 _atom_site_symmetry_multiplicity
 _atom_site_fract_x
 _atom_site_fract_y
 _atom_site_fract_z
 _atom_site_occupancy
  Mn  Mn0  1  0.750000  0.863222  0.556068  1
  Mn  Mn1  1  0.250000  0.136778  0.443932  1
  Mn  Mn2  1  0.750000  0.360700  0.936020  1
  Mn  Mn3  1  0.250000  0.639300  0.063980  1
  Nb  Nb4  1  0.250000  0.528181  0.669648  1
  Nb  Nb5  1  0.750000  0.471819  0.330352  1
  Nb  Nb6  1  0.250000  0.034855  0.825704  1
  Nb  Nb7  1  0.750000  0.965145  0.174296  1
  Si  Si8  1  0.250000  0.266915  0.131998  1
  Si  Si9  1  0.750000  0.733085  0.868002  1
  P  P10  1  0.250000  0.769826  0.372143  1
  P  P11  1  0.750000  0.230174  0.627857  1
