# generated using pymatgen
data_La20Si15Pb
_symmetry_space_group_name_H-M   'P 1'
_cell_length_a   8.07104245
_cell_length_b   8.04329050
_cell_length_c   15.75608211
_cell_angle_alpha   90.14388292
_cell_angle_beta   90.03618620
_cell_angle_gamma   89.98345180
_symmetry_Int_Tables_number   1
_chemical_formula_structural   La20Si15Pb
_chemical_formula_sum   'La20 Si15 Pb1'
_cell_volume   1022.84575700
_cell_formula_units_Z   1
loop_
 _symmetry_equiv_pos_site_id
 _symmetry_equiv_pos_as_xyz
  1  'x, y, z'
loop_
 _atom_site_type_symbol
 _atom_site_label
 _atom_site_symmetry_multiplicity
 _atom_site_fract_x
 _atom_site_fract_y
 _atom_site_fract_z
 _atom_site_occupancy
  La  La0  1  0.383146  0.474907  0.371826  1
  La  La1  1  0.862118  0.035891  0.370709  1
  La  La2  1  0.977962  0.126852  0.123069  1
  La  La3  1  0.020240  0.874638  0.628300  1
  La  La4  1  0.626665  0.520246  0.873833  1
  La  La5  1  0.481255  0.370162  0.630156  1
  La  La6  1  0.520796  0.625446  0.125708  1
  La  La7  1  0.126294  0.979136  0.877151  1
  La  La8  1  0.988968  0.617629  0.052367  1
  La  La9  1  0.009173  0.372515  0.558809  1
  La  La10  1  0.619571  0.990062  0.945656  1
  La  La11  1  0.118679  0.511802  0.804171  1
  La  La12  1  0.870965  0.479524  0.293895  1
  La  La13  1  0.512392  0.117647  0.194679  1
  La  La14  1  0.490885  0.883363  0.698564  1
  La  La15  1  0.387563  0.013641  0.445941  1
  La  La16  1  0.677373  0.692419  0.503151  1
  La  La17  1  0.810295  0.191672  0.751301  1
  La  La18  1  0.196914  0.810803  0.239825  1
  La  La19  1  0.308381  0.307742  0.999916  1
  Si  Si20  1  0.920017  0.289346  0.940786  1
  Si  Si21  1  0.714751  0.079621  0.559806  1
  Si  Si22  1  0.211728  0.420061  0.190796  1
  Si  Si23  1  0.790032  0.580485  0.691621  1
  Si  Si24  1  0.419043  0.212430  0.811516  1
  Si  Si25  1  0.581753  0.788266  0.309282  1
  Si  Si26  1  0.289013  0.920713  0.056410  1
  Si  Si27  1  0.829044  0.805745  0.796109  1
  Si  Si28  1  0.172924  0.194289  0.293491  1
  Si  Si29  1  0.806170  0.828181  0.204626  1
  Si  Si30  1  0.313142  0.666731  0.555207  1
  Si  Si31  1  0.695816  0.331378  0.044682  1
  Si  Si32  1  0.670775  0.308110  0.459461  1
  Si  Si33  1  0.330920  0.694383  0.954763  1
  Si  Si34  1  0.194576  0.170339  0.707862  1
  Pb  Pb35  1  0.070662  0.713829  0.434555  1
