# generated using pymatgen
data_Er8Si16Tc11Os
_symmetry_space_group_name_H-M   'P 1'
_cell_length_a   6.77563351
_cell_length_b   6.76827120
_cell_length_c   12.64341163
_cell_angle_alpha   90.04592201
_cell_angle_beta   89.79954809
_cell_angle_gamma   90.32911675
_symmetry_Int_Tables_number   1
_chemical_formula_structural   Er8Si16Tc11Os
_chemical_formula_sum   'Er8 Si16 Tc11 Os1'
_cell_volume   579.80503424
_cell_formula_units_Z   1
loop_
 _symmetry_equiv_pos_site_id
 _symmetry_equiv_pos_as_xyz
  1  'x, y, z'
loop_
 _atom_site_type_symbol
 _atom_site_label
 _atom_site_symmetry_multiplicity
 _atom_site_fract_x
 _atom_site_fract_y
 _atom_site_fract_z
 _atom_site_occupancy
  Er  Er0  1  0.340627  0.997946  0.469708  1
  Er  Er1  1  0.505130  0.837388  0.719486  1
  Er  Er2  1  0.493464  0.163582  0.218962  1
  Er  Er3  1  0.838436  0.507222  0.281470  1
  Er  Er4  1  0.161844  0.491875  0.780670  1
  Er  Er5  1  0.660604  0.002850  0.969718  1
  Er  Er6  1  0.997570  0.340180  0.529095  1
  Er  Er7  1  0.003516  0.660653  0.029937  1
  Si  Si8  1  0.192836  0.112473  0.685312  1
  Si  Si9  1  0.385561  0.689915  0.937063  1
  Si  Si10  1  0.613721  0.310689  0.437680  1
  Si  Si11  1  0.690981  0.385132  0.062482  1
  Si  Si12  1  0.311358  0.612701  0.562266  1
  Si  Si13  1  0.804376  0.884115  0.185210  1
  Si  Si14  1  0.115810  0.196058  0.314653  1
  Si  Si15  1  0.884945  0.804886  0.814106  1
  Si  Si16  1  0.271020  0.978777  0.063223  1
  Si  Si17  1  0.522305  0.780459  0.312858  1
  Si  Si18  1  0.476918  0.221123  0.813728  1
  Si  Si19  1  0.775800  0.518786  0.686319  1
  Si  Si20  1  0.220131  0.478216  0.186468  1
  Si  Si21  1  0.734364  0.019688  0.562619  1
  Si  Si22  1  0.978457  0.270789  0.937618  1
  Si  Si23  1  0.018485  0.736851  0.438203  1
  Tc  Tc24  1  0.332794  0.332734  0.000002  1
  Tc  Tc25  1  0.164532  0.837602  0.250068  1
  Tc  Tc26  1  0.835635  0.163218  0.747779  1
  Tc  Tc27  1  0.668847  0.668442  0.502323  1
  Tc  Tc28  1  0.185558  0.974105  0.870740  1
  Tc  Tc29  1  0.515800  0.680931  0.123340  1
  Tc  Tc30  1  0.478250  0.315696  0.623555  1
  Tc  Tc31  1  0.682679  0.516572  0.876244  1
  Tc  Tc32  1  0.318902  0.487014  0.377071  1
  Tc  Tc33  1  0.811091  0.029450  0.368744  1
  Tc  Tc34  1  0.973004  0.186070  0.130325  1
  Os  Os35  1  0.034654  0.805813  0.630955  1
