# generated using pymatgen
data_Sc2SiB2IrRh4
_symmetry_space_group_name_H-M   'P 1'
_cell_length_a   9.19767300
_cell_length_b   9.19767300
_cell_length_c   3.15169200
_cell_angle_alpha   90.00000000
_cell_angle_beta   90.00000000
_cell_angle_gamma   90.00000000
_symmetry_Int_Tables_number   1
_chemical_formula_structural   Sc2SiB2IrRh4
_chemical_formula_sum   'Sc4 Si2 B4 Ir2 Rh8'
_cell_volume   266.62428258
_cell_formula_units_Z   2
loop_
 _symmetry_equiv_pos_site_id
 _symmetry_equiv_pos_as_xyz
  1  'x, y, z'
loop_
 _atom_site_type_symbol
 _atom_site_label
 _atom_site_symmetry_multiplicity
 _atom_site_fract_x
 _atom_site_fract_y
 _atom_site_fract_z
 _atom_site_occupancy
  Sc  Sc0  1  0.176021  0.676021  0.000000  1
  Sc  Sc1  1  0.676021  0.823979  0.000000  1
  Sc  Sc2  1  0.323979  0.176021  0.000000  1
  Sc  Sc3  1  0.823979  0.323979  0.000000  1
  Si  Si4  1  0.000000  0.000000  0.000000  1
  Si  Si5  1  0.500000  0.500000  0.000000  1
  B  B6  1  0.377407  0.877407  0.000000  1
  B  B7  1  0.877407  0.622593  0.000000  1
  B  B8  1  0.122593  0.377407  0.000000  1
  B  B9  1  0.622593  0.122593  0.000000  1
  Ir  Ir10  1  0.000000  0.500000  0.500000  1
  Ir  Ir11  1  0.500000  0.000000  0.500000  1
  Rh  Rh12  1  0.287768  0.429142  0.500000  1
  Rh  Rh13  1  0.712233  0.570858  0.500000  1
  Rh  Rh14  1  0.570858  0.287768  0.500000  1
  Rh  Rh15  1  0.429142  0.712233  0.500000  1
  Rh  Rh16  1  0.929142  0.787767  0.500000  1
  Rh  Rh17  1  0.787767  0.070858  0.500000  1
  Rh  Rh18  1  0.212232  0.929142  0.500000  1
  Rh  Rh19  1  0.070858  0.212232  0.500000  1
