# generated using pymatgen
data_NdEr4(In2Rh)2
_symmetry_space_group_name_H-M   'P 1'
_cell_length_a   3.63346300
_cell_length_b   8.00351800
_cell_length_c   18.38045600
_cell_angle_alpha   90.00000000
_cell_angle_beta   90.00000000
_cell_angle_gamma   90.00000000
_symmetry_Int_Tables_number   1
_chemical_formula_structural   NdEr4(In2Rh)2
_chemical_formula_sum   'Nd2 Er8 In8 Rh4'
_cell_volume   534.51260299
_cell_formula_units_Z   2
loop_
 _symmetry_equiv_pos_site_id
 _symmetry_equiv_pos_as_xyz
  1  'x, y, z'
loop_
 _atom_site_type_symbol
 _atom_site_label
 _atom_site_symmetry_multiplicity
 _atom_site_fract_x
 _atom_site_fract_y
 _atom_site_fract_z
 _atom_site_occupancy
  Nd  Nd0  1  0.000000  0.000000  0.000000  1
  Nd  Nd1  1  0.000000  0.500000  0.500000  1
  Er  Er2  1  0.000000  0.119261  0.410327  1
  Er  Er3  1  0.000000  0.880739  0.589673  1
  Er  Er4  1  0.000000  0.380739  0.910327  1
  Er  Er5  1  0.000000  0.619261  0.089673  1
  Er  Er6  1  0.000000  0.244495  0.220049  1
  Er  Er7  1  0.000000  0.755505  0.779951  1
  Er  Er8  1  0.000000  0.255505  0.720049  1
  Er  Er9  1  0.000000  0.744495  0.279951  1
  In  In10  1  0.500000  0.424355  0.346801  1
  In  In11  1  0.500000  0.575645  0.653199  1
  In  In12  1  0.500000  0.075645  0.846801  1
  In  In13  1  0.500000  0.924355  0.153199  1
  In  In14  1  0.500000  0.300728  0.068607  1
  In  In15  1  0.500000  0.699272  0.931393  1
  In  In16  1  0.500000  0.199272  0.568607  1
  In  In17  1  0.500000  0.800728  0.431393  1
  Rh  Rh18  1  0.500000  0.024190  0.305108  1
  Rh  Rh19  1  0.500000  0.975810  0.694892  1
  Rh  Rh20  1  0.500000  0.475810  0.805108  1
  Rh  Rh21  1  0.500000  0.524190  0.194892  1
