# generated using pymatgen
data_Ca2PrEr(Pt2O7)2
_symmetry_space_group_name_H-M   'P 1'
_cell_length_a   7.33677523
_cell_length_b   7.37740951
_cell_length_c   7.33677300
_cell_angle_alpha   59.92988932
_cell_angle_beta   59.74449823
_cell_angle_gamma   59.92989358
_symmetry_Int_Tables_number   1
_chemical_formula_structural   Ca2PrEr(Pt2O7)2
_chemical_formula_sum   'Ca2 Pr1 Er1 Pt4 O14'
_cell_volume   279.95891827
_cell_formula_units_Z   1
loop_
 _symmetry_equiv_pos_site_id
 _symmetry_equiv_pos_as_xyz
  1  'x, y, z'
loop_
 _atom_site_type_symbol
 _atom_site_label
 _atom_site_symmetry_multiplicity
 _atom_site_fract_x
 _atom_site_fract_y
 _atom_site_fract_z
 _atom_site_occupancy
  Ca  Ca0  1  0.125000  0.125000  0.625000  1
  Ca  Ca1  1  0.625000  0.125000  0.125000  1
  Pr  Pr2  1  0.125000  0.625000  0.125000  1
  Er  Er3  1  0.125000  0.125000  0.125000  1
  Pt  Pt4  1  0.625000  0.625000  0.125000  1
  Pt  Pt5  1  0.625000  0.125000  0.625000  1
  Pt  Pt6  1  0.125000  0.625000  0.625000  1
  Pt  Pt7  1  0.625000  0.625000  0.625000  1
  O  O8  1  0.247368  0.241828  0.247368  1
  O  O9  1  0.002632  0.008172  0.002632  1
  O  O10  1  0.289501  0.718875  0.289501  1
  O  O11  1  0.545682  0.955337  0.545682  1
  O  O12  1  0.291514  0.292686  0.718326  1
  O  O13  1  0.718326  0.292686  0.291514  1
  O  O14  1  0.292081  0.708555  0.705289  1
  O  O15  1  0.705289  0.708555  0.292081  1
  O  O16  1  0.704318  0.294663  0.704318  1
  O  O17  1  0.957919  0.541445  0.544711  1
  O  O18  1  0.531674  0.957314  0.958486  1
  O  O19  1  0.960499  0.531125  0.960499  1
  O  O20  1  0.544711  0.541445  0.957919  1
  O  O21  1  0.958486  0.957314  0.531674  1
