# generated using pymatgen
data_In11GaI24
_symmetry_space_group_name_H-M   'P 1'
_cell_length_a   16.13597350
_cell_length_b   16.15508030
_cell_length_c   16.14480533
_cell_angle_alpha   117.02770880
_cell_angle_beta   117.14395113
_cell_angle_gamma   117.04853382
_symmetry_Int_Tables_number   1
_chemical_formula_structural   In11GaI24
_chemical_formula_sum   'In11 Ga1 I24'
_cell_volume   1834.52908082
_cell_formula_units_Z   1
loop_
 _symmetry_equiv_pos_site_id
 _symmetry_equiv_pos_as_xyz
  1  'x, y, z'
loop_
 _atom_site_type_symbol
 _atom_site_label
 _atom_site_symmetry_multiplicity
 _atom_site_fract_x
 _atom_site_fract_y
 _atom_site_fract_z
 _atom_site_occupancy
  In  In0  1  0.748586  0.054934  0.896251  1
  In  In1  1  0.702630  0.894373  0.086014  1
  In  In2  1  0.202077  0.585820  0.394314  1
  In  In3  1  0.894433  0.085878  0.702333  1
  In  In4  1  0.554016  0.246769  0.394800  1
  In  In5  1  0.248732  0.396910  0.555318  1
  In  In6  1  0.395880  0.555017  0.248130  1
  In  In7  1  0.586202  0.394510  0.202515  1
  In  In8  1  0.056259  0.896077  0.749334  1
  In  In9  1  0.394236  0.201914  0.585762  1
  In  In10  1  0.896610  0.747872  0.054878  1
  Ga  Ga11  1  0.079980  0.700387  0.890037  1
  I  I12  1  0.867402  0.465724  0.796511  1
  I  I13  1  0.965923  0.565117  0.630424  1
  I  I14  1  0.408232  0.599434  0.504473  1
  I  I15  1  0.785740  0.851037  0.447528  1
  I  I16  1  0.654355  0.396914  0.904324  1
  I  I17  1  0.004335  0.099188  0.908231  1
  I  I18  1  0.612151  0.955216  0.552555  1
  I  I19  1  0.052539  0.454826  0.112116  1
  I  I20  1  0.350865  0.285575  0.947019  1
  I  I21  1  0.503257  0.406486  0.597769  1
  I  I22  1  0.905220  0.652551  0.397955  1
  I  I23  1  0.151175  0.402883  0.894979  1
  I  I24  1  0.446775  0.785094  0.850324  1
  I  I25  1  0.553467  0.612898  0.955573  1
  I  I26  1  0.094875  0.895081  0.995725  1
  I  I27  1  0.598418  0.502731  0.407305  1
  I  I28  1  0.894907  0.151366  0.402874  1
  I  I29  1  0.394639  0.902678  0.651015  1
  I  I30  1  0.908174  0.004142  0.099073  1
  I  I31  1  0.947119  0.350888  0.285721  1
  I  I32  1  0.458443  0.115113  0.056346  1
  I  I33  1  0.375682  0.876203  0.128106  1
  I  I34  1  0.112553  0.053114  0.455558  1
  I  I35  1  0.288112  0.949276  0.352811  1
