# generated using pymatgen
data_Er3Tm3(Si2Ni)2
_symmetry_space_group_name_H-M   'P 1'
_cell_length_a   4.08866600
_cell_length_b   11.07558650
_cell_length_c   11.12809755
_cell_angle_alpha   90.09135300
_cell_angle_beta   90.00000000
_cell_angle_gamma   90.00000000
_symmetry_Int_Tables_number   1
_chemical_formula_structural   Er3Tm3(Si2Ni)2
_chemical_formula_sum   'Er6 Tm6 Si8 Ni4'
_cell_volume   503.92829057
_cell_formula_units_Z   2
loop_
 _symmetry_equiv_pos_site_id
 _symmetry_equiv_pos_as_xyz
  1  'x, y, z'
loop_
 _atom_site_type_symbol
 _atom_site_label
 _atom_site_symmetry_multiplicity
 _atom_site_fract_x
 _atom_site_fract_y
 _atom_site_fract_z
 _atom_site_occupancy
  Er  Er0  1  0.250000  0.375158  0.057233  1
  Er  Er1  1  0.750000  0.624842  0.942767  1
  Er  Er2  1  0.750000  0.875089  0.443152  1
  Er  Er3  1  0.250000  0.124911  0.556848  1
  Er  Er4  1  0.250000  0.696552  0.215786  1
  Er  Er5  1  0.750000  0.303448  0.784214  1
  Tm  Tm6  1  0.750000  0.195984  0.284147  1
  Tm  Tm7  1  0.250000  0.804016  0.715853  1
  Tm  Tm8  1  0.250000  0.440219  0.382085  1
  Tm  Tm9  1  0.750000  0.559781  0.617915  1
  Tm  Tm10  1  0.750000  0.940697  0.117502  1
  Tm  Tm11  1  0.250000  0.059303  0.882498  1
  Si  Si12  1  0.250000  0.686357  0.477518  1
  Si  Si13  1  0.750000  0.313643  0.522482  1
  Si  Si14  1  0.750000  0.186457  0.023364  1
  Si  Si15  1  0.250000  0.813543  0.976636  1
  Si  Si16  1  0.250000  0.003075  0.303204  1
  Si  Si17  1  0.750000  0.996925  0.696796  1
  Si  Si18  1  0.750000  0.502886  0.196780  1
  Si  Si19  1  0.250000  0.497114  0.803220  1
  Ni  Ni20  1  0.250000  0.132784  0.129232  1
  Ni  Ni21  1  0.750000  0.867216  0.870768  1
  Ni  Ni22  1  0.750000  0.632707  0.372107  1
  Ni  Ni23  1  0.250000  0.367293  0.627893  1
