# generated using pymatgen
data_LuHfAgS4
_symmetry_space_group_name_H-M   'P 1'
_cell_length_a   7.70974126
_cell_length_b   7.70974280
_cell_length_c   7.70974161
_cell_angle_alpha   119.05217303
_cell_angle_beta   120.99895428
_cell_angle_gamma   89.96400330
_symmetry_Int_Tables_number   1
_chemical_formula_structural   LuHfAgS4
_chemical_formula_sum   'Lu2 Hf2 Ag2 S8'
_cell_volume   323.80215680
_cell_formula_units_Z   2
loop_
 _symmetry_equiv_pos_site_id
 _symmetry_equiv_pos_as_xyz
  1  'x, y, z'
loop_
 _atom_site_type_symbol
 _atom_site_label
 _atom_site_symmetry_multiplicity
 _atom_site_fract_x
 _atom_site_fract_y
 _atom_site_fract_z
 _atom_site_occupancy
  Lu  Lu0  1  0.000000  0.000000  0.500000  1
  Lu  Lu1  1  0.000000  0.500000  0.000000  1
  Hf  Hf2  1  0.000000  0.000000  0.000000  1
  Hf  Hf3  1  0.500000  0.000000  0.500000  1
  Ag  Ag4  1  0.376210  0.626210  0.750000  1
  Ag  Ag5  1  0.623790  0.373790  0.250000  1
  S  S6  1  0.247670  0.773849  0.026178  1
  S  S7  1  0.752330  0.778508  0.526178  1
  S  S8  1  0.219249  0.232933  0.986315  1
  S  S9  1  0.746618  0.232933  0.513685  1
  S  S10  1  0.780751  0.767067  0.013685  1
  S  S11  1  0.253382  0.767067  0.486315  1
  S  S12  1  0.752330  0.226151  0.973822  1
  S  S13  1  0.247670  0.221492  0.473822  1
