# generated using pymatgen
data_La3Yb3(DySn2)4
_symmetry_space_group_name_H-M   'P 1'
_cell_length_a   7.99652600
_cell_length_b   8.44910769
_cell_length_c   15.91100600
_cell_angle_alpha   90.11041290
_cell_angle_beta   90.00000000
_cell_angle_gamma   90.00000000
_symmetry_Int_Tables_number   1
_chemical_formula_structural   La3Yb3(DySn2)4
_chemical_formula_sum   'La6 Yb6 Dy8 Sn16'
_cell_volume   1075.00140589
_cell_formula_units_Z   2
loop_
 _symmetry_equiv_pos_site_id
 _symmetry_equiv_pos_as_xyz
  1  'x, y, z'
loop_
 _atom_site_type_symbol
 _atom_site_label
 _atom_site_symmetry_multiplicity
 _atom_site_fract_x
 _atom_site_fract_y
 _atom_site_fract_z
 _atom_site_occupancy
  La  La0  1  0.503636  0.682093  0.593847  1
  La  La1  1  0.003636  0.817907  0.906153  1
  La  La2  1  0.497210  0.317753  0.095656  1
  La  La3  1  0.997210  0.182247  0.404344  1
  La  La4  1  0.496178  0.319152  0.404182  1
  La  La5  1  0.996178  0.180848  0.095818  1
  Yb  Yb6  1  0.501307  0.684766  0.905672  1
  Yb  Yb7  1  0.001307  0.815234  0.594328  1
  Yb  Yb8  1  0.829164  0.508081  0.750465  1
  Yb  Yb9  1  0.329164  0.991919  0.749535  1
  Yb  Yb10  1  0.171201  0.494995  0.250001  1
  Yb  Yb11  1  0.671201  0.005005  0.249999  1
  Dy  Dy12  1  0.666768  0.169559  0.623749  1
  Dy  Dy13  1  0.166768  0.330441  0.876251  1
  Dy  Dy14  1  0.335401  0.829613  0.123045  1
  Dy  Dy15  1  0.835401  0.670387  0.376955  1
  Dy  Dy16  1  0.333704  0.829276  0.376633  1
  Dy  Dy17  1  0.833704  0.670724  0.123367  1
  Dy  Dy18  1  0.664991  0.168805  0.875781  1
  Dy  Dy19  1  0.164991  0.331195  0.624219  1
  Sn  Sn20  1  0.672896  0.962576  0.461220  1
  Sn  Sn21  1  0.172896  0.537424  0.038780  1
  Sn  Sn22  1  0.325595  0.039208  0.961451  1
  Sn  Sn23  1  0.825595  0.460792  0.538549  1
  Sn  Sn24  1  0.324921  0.036991  0.539466  1
  Sn  Sn25  1  0.824921  0.463009  0.960534  1
  Sn  Sn26  1  0.674348  0.961829  0.039018  1
  Sn  Sn27  1  0.174348  0.538171  0.460982  1
  Sn  Sn28  1  0.464643  0.377632  0.749985  1
  Sn  Sn29  1  0.964643  0.122368  0.750015  1
  Sn  Sn30  1  0.535403  0.623778  0.249467  1
  Sn  Sn31  1  0.035403  0.876222  0.250533  1
  Sn  Sn32  1  0.707677  0.869978  0.750191  1
  Sn  Sn33  1  0.207677  0.630022  0.749809  1
  Sn  Sn34  1  0.294959  0.131118  0.249461  1
  Sn  Sn35  1  0.794959  0.368882  0.250539  1
