# generated using pymatgen
data_Ti(S4Cl)4
_symmetry_space_group_name_H-M   'P 1'
_cell_length_a   11.88517977
_cell_length_b   12.50997485
_cell_length_c   12.91329458
_cell_angle_alpha   102.62705502
_cell_angle_beta   62.60052662
_cell_angle_gamma   118.36118362
_symmetry_Int_Tables_number   1
_chemical_formula_structural   Ti(S4Cl)4
_chemical_formula_sum   'Ti2 S32 Cl8'
_cell_volume   1500.00306218
_cell_formula_units_Z   2
loop_
 _symmetry_equiv_pos_site_id
 _symmetry_equiv_pos_as_xyz
  1  'x, y, z'
loop_
 _atom_site_type_symbol
 _atom_site_label
 _atom_site_symmetry_multiplicity
 _atom_site_fract_x
 _atom_site_fract_y
 _atom_site_fract_z
 _atom_site_occupancy
  Ti  Ti0  1  0.001579  0.000000  0.000000  1
  Ti  Ti1  1  0.251578  0.500000  0.500001  1
  S  S2  1  0.469409  0.213307  0.006528  1
  S  S3  1  0.386849  0.327146  0.009472  1
  S  S4  1  0.657954  0.315736  0.021421  1
  S  S5  1  0.331321  0.652767  0.142518  1
  S  S6  1  0.916349  0.639715  0.159480  1
  S  S7  1  0.544898  0.007477  0.190264  1
  S  S8  1  0.165254  0.484810  0.201787  1
  S  S9  1  0.871155  0.475861  0.215780  1
  S  S10  1  0.336935  0.975861  0.284220  1
  S  S11  1  0.617041  0.984810  0.298213  1
  S  S12  1  0.985164  0.507478  0.309736  1
  S  S13  1  0.325827  0.139714  0.340520  1
  S  S14  1  0.723841  0.152768  0.357482  1
  S  S15  1  0.929376  0.815737  0.478579  1
  S  S16  1  0.646321  0.827145  0.490529  1
  S  S17  1  0.725937  0.713307  0.493472  1
  S  S18  1  0.506103  0.286693  0.506528  1
  S  S19  1  0.309703  0.172854  0.509471  1
  S  S20  1  0.592218  0.184263  0.521421  1
  S  S21  1  0.928555  0.847233  0.642518  1
  S  S22  1  0.526634  0.860285  0.659479  1
  S  S23  1  0.787421  0.492523  0.690264  1
  S  S24  1  0.930446  0.015190  0.701786  1
  S  S25  1  0.645293  0.024138  0.715781  1
  S  S26  1  0.611074  0.524139  0.784220  1
  S  S27  1  0.882231  0.515190  0.798213  1
  S  S28  1  0.727684  0.992523  0.809736  1
  S  S29  1  0.436113  0.360286  0.840520  1
  S  S30  1  0.821074  0.347232  0.857482  1
  S  S31  1  0.363639  0.684263  0.978579  1
  S  S32  1  0.069176  0.672854  0.990529  1
  S  S33  1  0.262629  0.786693  0.993472  1
  Cl  Cl34  1  0.815562  0.836013  0.000141  1
  Cl  Cl35  1  0.029562  0.999921  0.155754  1
  Cl  Cl36  1  0.435315  0.499921  0.344247  1
  Cl  Cl37  1  0.065703  0.336013  0.499860  1
  Cl  Cl38  1  0.229548  0.663987  0.500141  1
  Cl  Cl39  1  0.279641  0.500079  0.655753  1
  Cl  Cl40  1  0.185396  0.000079  0.844247  1
  Cl  Cl41  1  0.979690  0.163987  0.999859  1
