# generated using pymatgen
data_Tb2DyHf(Al3Ir)6
_symmetry_space_group_name_H-M   'P 1'
_cell_length_a   7.53839604
_cell_length_b   7.52940273
_cell_length_c   9.41239300
_cell_angle_alpha   90.00000000
_cell_angle_beta   90.00000000
_cell_angle_gamma   119.57001585
_symmetry_Int_Tables_number   1
_chemical_formula_structural   Tb2DyHf(Al3Ir)6
_chemical_formula_sum   'Tb2 Dy1 Hf1 Al18 Ir6'
_cell_volume   464.66034973
_cell_formula_units_Z   1
loop_
 _symmetry_equiv_pos_site_id
 _symmetry_equiv_pos_as_xyz
  1  'x, y, z'
loop_
 _atom_site_type_symbol
 _atom_site_label
 _atom_site_symmetry_multiplicity
 _atom_site_fract_x
 _atom_site_fract_y
 _atom_site_fract_z
 _atom_site_occupancy
  Tb  Tb0  1  0.005579  0.327409  0.250000  1
  Tb  Tb1  1  0.329075  0.006440  0.250000  1
  Dy  Dy2  1  0.671223  0.995700  0.750000  1
  Hf  Hf3  1  0.997664  0.673464  0.750000  1
  Al  Al4  1  0.126218  0.123621  0.750000  1
  Al  Al5  1  0.870571  0.869161  0.250000  1
  Al  Al6  1  0.000205  0.338096  0.579571  1
  Al  Al7  1  0.999029  0.664833  0.429433  1
  Al  Al8  1  0.999029  0.664833  0.070567  1
  Al  Al9  1  0.332586  0.998227  0.920325  1
  Al  Al10  1  0.000205  0.338096  0.920429  1
  Al  Al11  1  0.664471  0.997972  0.074438  1
  Al  Al12  1  0.664471  0.997972  0.425562  1
  Al  Al13  1  0.332586  0.998227  0.579675  1
  Al  Al14  1  0.333794  0.333898  0.050118  1
  Al  Al15  1  0.668939  0.666813  0.942970  1
  Al  Al16  1  0.668939  0.666813  0.557030  1
  Al  Al17  1  0.333794  0.333898  0.449882  1
  Al  Al18  1  0.335948  0.549262  0.750000  1
  Al  Al19  1  0.660840  0.452442  0.250000  1
  Al  Al20  1  0.555284  0.344865  0.750000  1
  Al  Al21  1  0.450974  0.659470  0.250000  1
  Ir  Ir22  1  0.672692  0.328553  0.501390  1
  Ir  Ir23  1  0.327492  0.672240  0.502148  1
  Ir  Ir24  1  0.327492  0.672240  0.997852  1
  Ir  Ir25  1  0.672692  0.328553  0.998610  1
  Ir  Ir26  1  0.999106  0.998451  0.501676  1
  Ir  Ir27  1  0.999106  0.998451  0.998324  1
