# generated using pymatgen
data_Nb4SiAs3Rh4
_symmetry_space_group_name_H-M   'P 1'
_cell_length_a   3.87858700
_cell_length_b   6.48789018
_cell_length_c   7.43713398
_cell_angle_alpha   90.24636043
_cell_angle_beta   90.00000000
_cell_angle_gamma   90.00000000
_symmetry_Int_Tables_number   1
_chemical_formula_structural   Nb4SiAs3Rh4
_chemical_formula_sum   'Nb4 Si1 As3 Rh4'
_cell_volume   187.14516781
_cell_formula_units_Z   1
loop_
 _symmetry_equiv_pos_site_id
 _symmetry_equiv_pos_as_xyz
  1  'x, y, z'
loop_
 _atom_site_type_symbol
 _atom_site_label
 _atom_site_symmetry_multiplicity
 _atom_site_fract_x
 _atom_site_fract_y
 _atom_site_fract_z
 _atom_site_occupancy
  Nb  Nb0  1  0.750000  0.467313  0.331709  1
  Nb  Nb1  1  0.250000  0.031783  0.829147  1
  Nb  Nb2  1  0.750000  0.973879  0.169979  1
  Nb  Nb3  1  0.250000  0.524988  0.667956  1
  Si  Si4  1  0.750000  0.233453  0.623753  1
  As  As5  1  0.250000  0.263685  0.128571  1
  As  As6  1  0.250000  0.763769  0.375128  1
  As  As7  1  0.750000  0.736817  0.873179  1
  Rh  Rh8  1  0.250000  0.647379  0.061248  1
  Rh  Rh9  1  0.250000  0.148717  0.448116  1
  Rh  Rh10  1  0.750000  0.859129  0.562667  1
  Rh  Rh11  1  0.750000  0.349088  0.928549  1
