# generated using pymatgen
data_Hf2As2H
_symmetry_space_group_name_H-M   'P 1'
_cell_length_a   5.09459774
_cell_length_b   5.09582473
_cell_length_c   6.29677184
_cell_angle_alpha   128.16460932
_cell_angle_beta   128.15048023
_cell_angle_gamma   89.03021610
_symmetry_Int_Tables_number   1
_chemical_formula_structural   Hf2As2H
_chemical_formula_sum   'Hf2 As2 H1'
_cell_volume   81.60766236
_cell_formula_units_Z   1
loop_
 _symmetry_equiv_pos_site_id
 _symmetry_equiv_pos_as_xyz
  1  'x, y, z'
loop_
 _atom_site_type_symbol
 _atom_site_label
 _atom_site_symmetry_multiplicity
 _atom_site_fract_x
 _atom_site_fract_y
 _atom_site_fract_z
 _atom_site_occupancy
  Hf  Hf0  1  0.396662  0.829298  0.656290  1
  Hf  Hf1  1  0.897373  0.330619  0.675259  1
  As  As2  1  0.653111  0.572979  0.332442  1
  As  As3  1  0.140087  0.086143  0.332965  1
  H  H4  1  0.898244  0.327574  0.999058  1
