# generated using pymatgen
data_La4Si2Pd25Au3
_symmetry_space_group_name_H-M   'P 1'
_cell_length_a   9.12969342
_cell_length_b   9.12969342
_cell_length_c   7.12173345
_cell_angle_alpha   90.05058941
_cell_angle_beta   90.05058941
_cell_angle_gamma   90.39616626
_symmetry_Int_Tables_number   1
_chemical_formula_structural   La4Si2Pd25Au3
_chemical_formula_sum   'La4 Si2 Pd25 Au3'
_cell_volume   593.59109938
_cell_formula_units_Z   1
loop_
 _symmetry_equiv_pos_site_id
 _symmetry_equiv_pos_as_xyz
  1  'x, y, z'
loop_
 _atom_site_type_symbol
 _atom_site_label
 _atom_site_symmetry_multiplicity
 _atom_site_fract_x
 _atom_site_fract_y
 _atom_site_fract_z
 _atom_site_occupancy
  La  La0  1  0.502901  0.002901  0.934772  1
  La  La1  1  0.997099  0.497099  0.065228  1
  La  La2  1  0.999799  0.000201  0.500000  1
  La  La3  1  0.500201  0.499799  0.500000  1
  Si  Si4  1  0.500679  0.000679  0.448411  1
  Si  Si5  1  0.999321  0.499321  0.551589  1
  Pd  Pd6  1  0.336445  0.836445  0.612474  1
  Pd  Pd7  1  0.336729  0.163867  0.611905  1
  Pd  Pd8  1  0.663867  0.836729  0.611905  1
  Pd  Pd9  1  0.664913  0.164913  0.614452  1
  Pd  Pd10  1  0.163555  0.663555  0.387526  1
  Pd  Pd11  1  0.163271  0.336133  0.388095  1
  Pd  Pd12  1  0.836133  0.663271  0.388095  1
  Pd  Pd13  1  0.835087  0.335087  0.385548  1
  Pd  Pd14  1  0.499849  0.771097  0.260094  1
  Pd  Pd15  1  0.501913  0.228716  0.258610  1
  Pd  Pd16  1  0.271097  0.999849  0.260094  1
  Pd  Pd17  1  0.728716  0.001913  0.258610  1
  Pd  Pd18  1  0.000151  0.728903  0.739906  1
  Pd  Pd19  1  0.998087  0.271284  0.741390  1
  Pd  Pd20  1  0.228903  0.500151  0.739906  1
  Pd  Pd21  1  0.771284  0.498087  0.741390  1
  Pd  Pd22  1  0.502134  0.349427  0.853788  1
  Pd  Pd23  1  0.499705  0.649276  0.852102  1
  Pd  Pd24  1  0.849427  0.002134  0.853788  1
  Pd  Pd25  1  0.149276  0.999705  0.852102  1
  Pd  Pd26  1  0.997866  0.150573  0.146212  1
  Pd  Pd27  1  0.000295  0.850724  0.147898  1
  Pd  Pd28  1  0.650573  0.497866  0.146212  1
  Pd  Pd29  1  0.350724  0.500295  0.147898  1
  Pd  Pd30  1  0.750000  0.250000  0.000000  1
  Au  Au31  1  0.250000  0.750000  0.000000  1
  Au  Au32  1  0.250000  0.250000  0.000000  1
  Au  Au33  1  0.750000  0.750000  0.000000  1
