# generated using pymatgen
data_Dy3Er7(InSb)4
_symmetry_space_group_name_H-M   'P 1'
_cell_length_a   8.79267554
_cell_length_b   8.73733537
_cell_length_c   8.06286669
_cell_angle_alpha   89.96732796
_cell_angle_beta   89.99078674
_cell_angle_gamma   125.13708040
_symmetry_Int_Tables_number   1
_chemical_formula_structural   Dy3Er7(InSb)4
_chemical_formula_sum   'Dy3 Er7 In4 Sb4'
_cell_volume   506.55254017
_cell_formula_units_Z   1
loop_
 _symmetry_equiv_pos_site_id
 _symmetry_equiv_pos_as_xyz
  1  'x, y, z'
loop_
 _atom_site_type_symbol
 _atom_site_label
 _atom_site_symmetry_multiplicity
 _atom_site_fract_x
 _atom_site_fract_y
 _atom_site_fract_z
 _atom_site_occupancy
  Dy  Dy0  1  0.033433  0.310550  0.333166  1
  Dy  Dy1  1  0.966730  0.689936  0.666722  1
  Dy  Dy2  1  0.466393  0.190119  0.833058  1
  Er  Er3  1  0.804974  0.531481  0.165705  1
  Er  Er4  1  0.533412  0.808604  0.166178  1
  Er  Er5  1  0.194939  0.468557  0.834552  1
  Er  Er6  1  0.695050  0.969112  0.665642  1
  Er  Er7  1  0.305231  0.031467  0.334214  1
  Er  Er8  1  0.999825  0.999842  0.000229  1
  Er  Er9  1  0.500149  0.500422  0.499712  1
  In  In10  1  0.370163  0.370475  0.129338  1
  In  In11  1  0.629654  0.629995  0.870692  1
  In  In12  1  0.129433  0.129401  0.629181  1
  In  In13  1  0.869990  0.870359  0.370358  1
  Sb  Sb14  1  0.798112  0.204437  0.997746  1
  Sb  Sb15  1  0.201433  0.793996  0.004076  1
  Sb  Sb16  1  0.700494  0.294720  0.497003  1
  Sb  Sb17  1  0.300585  0.706527  0.502427  1
