# generated using pymatgen
data_La7Pr3Ru3Rh
_symmetry_space_group_name_H-M   'P 1'
_cell_length_a   9.17348639
_cell_length_b   9.18630782
_cell_length_c   7.36915355
_cell_angle_alpha   85.46755562
_cell_angle_beta   85.57266167
_cell_angle_gamma   42.85171771
_symmetry_Int_Tables_number   1
_chemical_formula_structural   La7Pr3Ru3Rh
_chemical_formula_sum   'La7 Pr3 Ru3 Rh1'
_cell_volume   420.85481997
_cell_formula_units_Z   1
loop_
 _symmetry_equiv_pos_site_id
 _symmetry_equiv_pos_as_xyz
  1  'x, y, z'
loop_
 _atom_site_type_symbol
 _atom_site_label
 _atom_site_symmetry_multiplicity
 _atom_site_fract_x
 _atom_site_fract_y
 _atom_site_fract_z
 _atom_site_occupancy
  La  La0  1  0.012333  0.803508  0.911713  1
  La  La1  1  0.197429  0.987997  0.594139  1
  La  La2  1  0.986088  0.198373  0.093734  1
  La  La3  1  0.796803  0.018367  0.402935  1
  La  La4  1  0.363351  0.209563  0.820631  1
  La  La5  1  0.784953  0.638733  0.679426  1
  La  La6  1  0.640129  0.787407  0.180693  1
  Pr  Pr7  1  0.209527  0.358306  0.316157  1
  Pr  Pr8  1  0.574614  0.426879  0.751147  1
  Pr  Pr9  1  0.426510  0.573129  0.248899  1
  Ru  Ru10  1  0.395734  0.832330  0.917101  1
  Ru  Ru11  1  0.832596  0.394542  0.419242  1
  Ru  Ru12  1  0.608068  0.166303  0.080231  1
  Rh  Rh13  1  0.171865  0.604565  0.583954  1
