# generated using pymatgen
data_Tb5DyB14OsW
_symmetry_space_group_name_H-M   'P 1'
_cell_length_a   8.14540442
_cell_length_b   8.14540377
_cell_length_c   9.42371850
_cell_angle_alpha   89.96356112
_cell_angle_beta   90.03643980
_cell_angle_gamma   155.10579749
_symmetry_Int_Tables_number   1
_chemical_formula_structural   Tb5DyB14OsW
_chemical_formula_sum   'Tb5 Dy1 B14 Os1 W1'
_cell_volume   263.19148731
_cell_formula_units_Z   1
loop_
 _symmetry_equiv_pos_site_id
 _symmetry_equiv_pos_as_xyz
  1  'x, y, z'
loop_
 _atom_site_type_symbol
 _atom_site_label
 _atom_site_symmetry_multiplicity
 _atom_site_fract_x
 _atom_site_fract_y
 _atom_site_fract_z
 _atom_site_occupancy
  Tb  Tb0  1  0.894107  0.105893  0.437403  1
  Tb  Tb1  1  0.107080  0.892920  0.558815  1
  Tb  Tb2  1  0.894084  0.105916  0.062560  1
  Tb  Tb3  1  0.243431  0.756569  0.249960  1
  Tb  Tb4  1  0.754818  0.245182  0.750042  1
  Dy  Dy5  1  0.106913  0.893087  0.941604  1
  B  B6  1  0.726487  0.273513  0.465433  1
  B  B7  1  0.272113  0.727887  0.531797  1
  B  B8  1  0.726303  0.273697  0.034433  1
  B  B9  1  0.271888  0.728112  0.968104  1
  B  B10  1  0.631647  0.368353  0.151288  1
  B  B11  1  0.365339  0.634661  0.852488  1
  B  B12  1  0.631662  0.368338  0.348378  1
  B  B13  1  0.365351  0.634649  0.647513  1
  B  B14  1  0.521498  0.478502  0.096816  1
  B  B15  1  0.480266  0.519734  0.908701  1
  B  B16  1  0.521448  0.478552  0.402955  1
  B  B17  1  0.480137  0.519863  0.591532  1
  B  B18  1  0.458998  0.541002  0.249926  1
  B  B19  1  0.544660  0.455340  0.750323  1
  Os  Os20  1  0.054393  0.945607  0.249812  1
  W  W21  1  0.947378  0.052622  0.750116  1
