# generated using pymatgen
data_Th2V3Co9P7
_symmetry_space_group_name_H-M   'P 1'
_cell_length_a   9.11976176
_cell_length_b   9.12093396
_cell_length_c   3.72260100
_cell_angle_alpha   90.00000000
_cell_angle_beta   90.00000000
_cell_angle_gamma   120.03449637
_symmetry_Int_Tables_number   1
_chemical_formula_structural   Th2V3Co9P7
_chemical_formula_sum   'Th2 V3 Co9 P7'
_cell_volume   268.07039637
_cell_formula_units_Z   1
loop_
 _symmetry_equiv_pos_site_id
 _symmetry_equiv_pos_as_xyz
  1  'x, y, z'
loop_
 _atom_site_type_symbol
 _atom_site_label
 _atom_site_symmetry_multiplicity
 _atom_site_fract_x
 _atom_site_fract_y
 _atom_site_fract_z
 _atom_site_occupancy
  Th  Th0  1  0.333576  0.667062  0.000000  1
  Th  Th1  1  0.999876  0.999852  0.500000  1
  V  V2  1  0.782945  0.234348  0.500000  1
  V  V3  1  0.765501  0.548505  0.500000  1
  V  V4  1  0.451396  0.217168  0.500000  1
  Co  Co5  1  0.036150  0.269306  0.000000  1
  Co  Co6  1  0.730448  0.766705  0.000000  1
  Co  Co7  1  0.233132  0.963729  0.000000  1
  Co  Co8  1  0.543160  0.056708  0.000000  1
  Co  Co9  1  0.943291  0.486505  0.000000  1
  Co  Co10  1  0.513877  0.456992  0.000000  1
  Co  Co11  1  0.615843  0.900423  0.500000  1
  Co  Co12  1  0.099519  0.715328  0.500000  1
  Co  Co13  1  0.284665  0.384415  0.500000  1
  P  P14  1  0.770159  0.034185  0.000000  1
  P  P15  1  0.965639  0.735999  0.000000  1
  P  P16  1  0.263891  0.229726  0.000000  1
  P  P17  1  0.373865  0.935121  0.500000  1
  P  P18  1  0.064575  0.438682  0.500000  1
  P  P19  1  0.561703  0.625864  0.500000  1
  P  P20  1  0.666788  0.333376  0.000000  1
