# generated using pymatgen
data_TmHf(Ni2P)4
_symmetry_space_group_name_H-M   'P 1'
_cell_length_a   3.58477700
_cell_length_b   6.98292946
_cell_length_c   6.98292946
_cell_angle_alpha   89.51532207
_cell_angle_beta   90.00000000
_cell_angle_gamma   90.00000000
_symmetry_Int_Tables_number   1
_chemical_formula_structural   TmHf(Ni2P)4
_chemical_formula_sum   'Tm1 Hf1 Ni8 P4'
_cell_volume   174.79214643
_cell_formula_units_Z   1
loop_
 _symmetry_equiv_pos_site_id
 _symmetry_equiv_pos_as_xyz
  1  'x, y, z'
loop_
 _atom_site_type_symbol
 _atom_site_label
 _atom_site_symmetry_multiplicity
 _atom_site_fract_x
 _atom_site_fract_y
 _atom_site_fract_z
 _atom_site_occupancy
  Tm  Tm0  1  0.000000  0.500000  0.500000  1
  Hf  Hf1  1  0.500000  0.000000  0.000000  1
  Ni  Ni2  1  0.500000  0.164361  0.585230  1
  Ni  Ni3  1  0.500000  0.835639  0.414770  1
  Ni  Ni4  1  0.000000  0.333619  0.083743  1
  Ni  Ni5  1  0.000000  0.666381  0.916257  1
  Ni  Ni6  1  0.500000  0.585230  0.164361  1
  Ni  Ni7  1  0.500000  0.414770  0.835639  1
  Ni  Ni8  1  0.000000  0.083743  0.333619  1
  Ni  Ni9  1  0.000000  0.916257  0.666381  1
  P  P10  1  0.500000  0.726136  0.726136  1
  P  P11  1  0.500000  0.273864  0.273864  1
  P  P12  1  0.000000  0.786626  0.213374  1
  P  P13  1  0.000000  0.213374  0.786626  1
