# generated using pymatgen
data_Dy2ErCd3Ga2Ag
_symmetry_space_group_name_H-M   'P 1'
_cell_length_a   7.36536908
_cell_length_b   7.36536830
_cell_length_c   4.33297100
_cell_angle_alpha   90.00000000
_cell_angle_beta   90.00000000
_cell_angle_gamma   119.94816848
_symmetry_Int_Tables_number   1
_chemical_formula_structural   Dy2ErCd3Ga2Ag
_chemical_formula_sum   'Dy2 Er1 Cd3 Ga2 Ag1'
_cell_volume   203.67230885
_cell_formula_units_Z   1
loop_
 _symmetry_equiv_pos_site_id
 _symmetry_equiv_pos_as_xyz
  1  'x, y, z'
loop_
 _atom_site_type_symbol
 _atom_site_label
 _atom_site_symmetry_multiplicity
 _atom_site_fract_x
 _atom_site_fract_y
 _atom_site_fract_z
 _atom_site_occupancy
  Dy  Dy0  1  0.578378  0.999568  0.500000  1
  Dy  Dy1  1  0.999568  0.578378  0.500000  1
  Er  Er2  1  0.420729  0.420729  0.500000  1
  Cd  Cd3  1  0.748087  0.748087  0.000000  1
  Cd  Cd4  1  0.252144  0.999718  0.000000  1
  Cd  Cd5  1  0.999718  0.252144  0.000000  1
  Ga  Ga6  1  0.665982  0.333302  0.000000  1
  Ga  Ga7  1  0.333302  0.665982  0.000000  1
  Ag  Ag8  1  0.002092  0.002092  0.500000  1
