# generated using pymatgen
data_Lu9Sc3Sn10
_symmetry_space_group_name_H-M   'P 1'
_cell_length_a   6.25913737
_cell_length_b   9.14944255
_cell_length_c   11.26562133
_cell_angle_alpha   113.93344631
_cell_angle_beta   106.09370618
_cell_angle_gamma   90.08310615
_symmetry_Int_Tables_number   1
_chemical_formula_structural   Lu9Sc3Sn10
_chemical_formula_sum   'Lu9 Sc3 Sn10'
_cell_volume   561.78706406
_cell_formula_units_Z   1
loop_
 _symmetry_equiv_pos_site_id
 _symmetry_equiv_pos_as_xyz
  1  'x, y, z'
loop_
 _atom_site_type_symbol
 _atom_site_label
 _atom_site_symmetry_multiplicity
 _atom_site_fract_x
 _atom_site_fract_y
 _atom_site_fract_z
 _atom_site_occupancy
  Lu  Lu0  1  0.055667  0.305667  0.611333  1
  Lu  Lu1  1  0.438645  0.677724  0.877107  1
  Lu  Lu2  1  0.561734  0.322540  0.123345  1
  Lu  Lu3  1  0.938462  0.199383  0.877107  1
  Lu  Lu4  1  0.061611  0.800805  0.123345  1
  Lu  Lu5  1  0.141179  0.256295  0.281439  1
  Lu  Lu6  1  0.858577  0.743683  0.718054  1
  Lu  Lu7  1  0.640260  0.025145  0.281439  1
  Lu  Lu8  1  0.359477  0.974371  0.718054  1
  Sc  Sc9  1  0.556802  0.306802  0.613603  1
  Sc  Sc10  1  0.443242  0.693242  0.386484  1
  Sc  Sc11  1  0.943344  0.693344  0.386688  1
  Sn  Sn12  1  0.291783  0.595103  0.580140  1
  Sn  Sn13  1  0.705659  0.407801  0.418155  1
  Sn  Sn14  1  0.788357  0.985037  0.580140  1
  Sn  Sn15  1  0.212496  0.010354  0.418155  1
  Sn  Sn16  1  0.249993  0.999993  0.999986  1
  Sn  Sn17  1  0.750062  0.000062  0.000125  1
  Sn  Sn18  1  0.073713  0.481039  0.147707  1
  Sn  Sn19  1  0.923675  0.521187  0.854943  1
  Sn  Sn20  1  0.573993  0.666667  0.147707  1
  Sn  Sn21  1  0.431269  0.333756  0.854943  1
