# generated using pymatgen
data_Zr4Al7Cu
_symmetry_space_group_name_H-M   'P 1'
_cell_length_a   5.30028700
_cell_length_b   5.24865543
_cell_length_c   8.68809700
_cell_angle_alpha   90.00000000
_cell_angle_beta   90.00000000
_cell_angle_gamma   120.32592683
_symmetry_Int_Tables_number   1
_chemical_formula_structural   Zr4Al7Cu
_chemical_formula_sum   'Zr4 Al7 Cu1'
_cell_volume   208.62532143
_cell_formula_units_Z   1
loop_
 _symmetry_equiv_pos_site_id
 _symmetry_equiv_pos_as_xyz
  1  'x, y, z'
loop_
 _atom_site_type_symbol
 _atom_site_label
 _atom_site_symmetry_multiplicity
 _atom_site_fract_x
 _atom_site_fract_y
 _atom_site_fract_z
 _atom_site_occupancy
  Zr  Zr0  1  0.334979  0.669959  0.433080  1
  Zr  Zr1  1  0.666024  0.332047  0.933263  1
  Zr  Zr2  1  0.666024  0.332047  0.566737  1
  Zr  Zr3  1  0.334979  0.669959  0.066920  1
  Al  Al4  1  0.830448  0.171805  0.250000  1
  Al  Al5  1  0.341355  0.171805  0.250000  1
  Al  Al6  1  0.646458  0.813650  0.750000  1
  Al  Al7  1  0.007316  0.014633  0.990576  1
  Al  Al8  1  0.007316  0.014633  0.509424  1
  Al  Al9  1  0.831053  0.662107  0.250000  1
  Al  Al10  1  0.167193  0.813650  0.750000  1
  Cu  Cu11  1  0.166854  0.333707  0.750000  1
