# generated using pymatgen
data_Zr6Ga6NiRh5
_symmetry_space_group_name_H-M   'P 1'
_cell_length_a   7.15279700
_cell_length_b   7.15279733
_cell_length_c   6.94888900
_cell_angle_alpha   90.00000000
_cell_angle_beta   90.00000000
_cell_angle_gamma   119.99999510
_symmetry_Int_Tables_number   1
_chemical_formula_structural   Zr6Ga6NiRh5
_chemical_formula_sum   'Zr6 Ga6 Ni1 Rh5'
_cell_volume   307.89160454
_cell_formula_units_Z   1
loop_
 _symmetry_equiv_pos_site_id
 _symmetry_equiv_pos_as_xyz
  1  'x, y, z'
loop_
 _atom_site_type_symbol
 _atom_site_label
 _atom_site_symmetry_multiplicity
 _atom_site_fract_x
 _atom_site_fract_y
 _atom_site_fract_z
 _atom_site_occupancy
  Zr  Zr0  1  0.396628  0.401182  0.748709  1
  Zr  Zr1  1  0.004554  0.603372  0.748709  1
  Zr  Zr2  1  0.598818  0.995446  0.748709  1
  Zr  Zr3  1  0.604051  0.005203  0.250971  1
  Zr  Zr4  1  0.994797  0.598848  0.250971  1
  Zr  Zr5  1  0.401152  0.395949  0.250971  1
  Ga  Ga6  1  0.277555  0.992239  0.000236  1
  Ga  Ga7  1  0.714684  0.722445  0.000236  1
  Ga  Ga8  1  0.007761  0.285316  0.000236  1
  Ga  Ga9  1  0.745609  0.745880  0.499989  1
  Ga  Ga10  1  0.254120  0.999729  0.499989  1
  Ga  Ga11  1  0.000271  0.254391  0.499989  1
  Ni  Ni12  1  0.333333  0.666667  0.008481  1
  Rh  Rh13  1  0.666667  0.333333  0.992201  1
  Rh  Rh14  1  0.000000  0.000000  0.776138  1
  Rh  Rh15  1  0.666667  0.333333  0.507002  1
  Rh  Rh16  1  0.333333  0.666667  0.492480  1
  Rh  Rh17  1  0.000000  0.000000  0.223981  1
