# generated using pymatgen
data_Ba8LiZn(CoO6)2
_symmetry_space_group_name_H-M   'P 1'
_cell_length_a   6.47906300
_cell_length_b   6.51263763
_cell_length_c   12.70396367
_cell_angle_alpha   88.89647639
_cell_angle_beta   88.28346927
_cell_angle_gamma   126.15736661
_symmetry_Int_Tables_number   1
_chemical_formula_structural   Ba8LiZn(CoO6)2
_chemical_formula_sum   'Ba8 Li1 Zn1 Co2 O12'
_cell_volume   432.16212400
_cell_formula_units_Z   1
loop_
 _symmetry_equiv_pos_site_id
 _symmetry_equiv_pos_as_xyz
  1  'x, y, z'
loop_
 _atom_site_type_symbol
 _atom_site_label
 _atom_site_symmetry_multiplicity
 _atom_site_fract_x
 _atom_site_fract_y
 _atom_site_fract_z
 _atom_site_occupancy
  Ba  Ba0  1  0.440674  0.025274  0.154281  1
  Ba  Ba1  1  0.030622  0.455045  0.646309  1
  Ba  Ba2  1  0.567832  0.964143  0.839466  1
  Ba  Ba3  1  0.969012  0.562323  0.350039  1
  Ba  Ba4  1  0.862573  0.651421  0.926156  1
  Ba  Ba5  1  0.343147  0.144139  0.574409  1
  Ba  Ba6  1  0.136274  0.342243  0.077962  1
  Ba  Ba7  1  0.657087  0.863187  0.435238  1
  Li  Li8  1  0.735434  0.737469  0.665874  1
  Zn  Zn9  1  0.729718  0.724131  0.164787  1
  Co  Co10  1  0.272125  0.268829  0.335885  1
  Co  Co11  1  0.265925  0.264150  0.832769  1
  O  O12  1  0.326338  0.138083  0.957307  1
  O  O13  1  0.875138  0.678288  0.536300  1
  O  O14  1  0.669674  0.860833  0.033511  1
  O  O15  1  0.127308  0.328838  0.463283  1
  O  O16  1  0.999257  0.007334  0.756397  1
  O  O17  1  0.019372  0.001020  0.243730  1
  O  O18  1  0.576944  0.403979  0.757384  1
  O  O19  1  0.486639  0.147582  0.366147  1
  O  O20  1  0.146304  0.466372  0.866236  1
  O  O21  1  0.503669  0.860930  0.634128  1
  O  O22  1  0.851614  0.507775  0.130153  1
  O  O23  1  0.407319  0.596614  0.252250  1
