# generated using pymatgen
data_Nd16Ag4RuRh3
_symmetry_space_group_name_H-M   'P 1'
_cell_length_a   9.89554896
_cell_length_b   9.89554840
_cell_length_c   9.89554892
_cell_angle_alpha   59.60540853
_cell_angle_beta   59.60541235
_cell_angle_gamma   59.60540525
_symmetry_Int_Tables_number   1
_chemical_formula_structural   Nd16Ag4RuRh3
_chemical_formula_sum   'Nd16 Ag4 Ru1 Rh3'
_cell_volume   679.03505560
_cell_formula_units_Z   1
loop_
 _symmetry_equiv_pos_site_id
 _symmetry_equiv_pos_as_xyz
  1  'x, y, z'
loop_
 _atom_site_type_symbol
 _atom_site_label
 _atom_site_symmetry_multiplicity
 _atom_site_fract_x
 _atom_site_fract_y
 _atom_site_fract_z
 _atom_site_occupancy
  Nd  Nd0  1  0.601050  0.601050  0.601050  1
  Nd  Nd1  1  0.600836  0.600836  0.195945  1
  Nd  Nd2  1  0.600836  0.195945  0.600836  1
  Nd  Nd3  1  0.195945  0.600836  0.600836  1
  Nd  Nd4  1  0.062498  0.438470  0.438470  1
  Nd  Nd5  1  0.438498  0.060971  0.060971  1
  Nd  Nd6  1  0.438470  0.062498  0.438470  1
  Nd  Nd7  1  0.060971  0.438498  0.060971  1
  Nd  Nd8  1  0.438470  0.438470  0.062498  1
  Nd  Nd9  1  0.060971  0.060971  0.438498  1
  Nd  Nd10  1  0.187579  0.812968  0.812968  1
  Nd  Nd11  1  0.811294  0.187966  0.187966  1
  Nd  Nd12  1  0.812968  0.187579  0.812968  1
  Nd  Nd13  1  0.187966  0.811294  0.187966  1
  Nd  Nd14  1  0.812968  0.812968  0.187579  1
  Nd  Nd15  1  0.187966  0.187966  0.811294  1
  Ag  Ag16  1  0.831448  0.831448  0.831448  1
  Ag  Ag17  1  0.830961  0.830961  0.506979  1
  Ag  Ag18  1  0.830961  0.506979  0.830961  1
  Ag  Ag19  1  0.506979  0.830961  0.830961  1
  Ru  Ru20  1  0.391382  0.391382  0.391382  1
  Rh  Rh21  1  0.393374  0.393374  0.822234  1
  Rh  Rh22  1  0.393374  0.822234  0.393374  1
  Rh  Rh23  1  0.822234  0.393374  0.393374  1
