# generated using pymatgen
data_Hf7Ti5(VSi2)8
_symmetry_space_group_name_H-M   'P 1'
_cell_length_a   6.64816207
_cell_length_b   6.65008320
_cell_length_c   12.27635971
_cell_angle_alpha   90.01079467
_cell_angle_beta   90.05959089
_cell_angle_gamma   89.97434425
_symmetry_Int_Tables_number   1
_chemical_formula_structural   Hf7Ti5(VSi2)8
_chemical_formula_sum   'Hf7 Ti5 V8 Si16'
_cell_volume   542.74770507
_cell_formula_units_Z   1
loop_
 _symmetry_equiv_pos_site_id
 _symmetry_equiv_pos_as_xyz
  1  'x, y, z'
loop_
 _atom_site_type_symbol
 _atom_site_label
 _atom_site_symmetry_multiplicity
 _atom_site_fract_x
 _atom_site_fract_y
 _atom_site_fract_z
 _atom_site_occupancy
  Hf  Hf0  1  0.001113  0.338142  0.220827  1
  Hf  Hf1  1  0.160598  0.501457  0.469079  1
  Hf  Hf2  1  0.838799  0.497765  0.970876  1
  Hf  Hf3  1  0.501713  0.160930  0.529683  1
  Hf  Hf4  1  0.497953  0.838912  0.029867  1
  Hf  Hf5  1  0.997971  0.660744  0.720095  1
  Hf  Hf6  1  0.339077  0.002109  0.779781  1
  Ti  Ti7  1  0.658355  0.994724  0.279845  1
  Ti  Ti8  1  0.166282  0.166050  0.000949  1
  Ti  Ti9  1  0.334414  0.666621  0.250173  1
  Ti  Ti10  1  0.666267  0.333738  0.749873  1
  Ti  Ti11  1  0.832886  0.833762  0.499315  1
  V  V12  1  0.994838  0.158758  0.621609  1
  V  V13  1  0.341093  0.494958  0.872553  1
  V  V14  1  0.658751  0.506501  0.372163  1
  V  V15  1  0.496314  0.342223  0.128380  1
  V  V16  1  0.505461  0.658904  0.626939  1
  V  V17  1  0.006458  0.842404  0.123154  1
  V  V18  1  0.158763  0.996156  0.377518  1
  V  V19  1  0.840785  0.004743  0.878214  1
  Si  Si20  1  0.040991  0.290980  0.812930  1
  Si  Si21  1  0.208501  0.540593  0.063247  1
  Si  Si22  1  0.791557  0.457993  0.561837  1
  Si  Si23  1  0.541397  0.208851  0.937844  1
  Si  Si24  1  0.460405  0.794164  0.435339  1
  Si  Si25  1  0.956741  0.712094  0.312419  1
  Si  Si26  1  0.297036  0.041059  0.188561  1
  Si  Si27  1  0.708783  0.958868  0.687225  1
  Si  Si28  1  0.292752  0.372308  0.676853  1
  Si  Si29  1  0.127829  0.792799  0.927330  1
  Si  Si30  1  0.867010  0.203554  0.423913  1
  Si  Si31  1  0.790916  0.126379  0.075484  1
  Si  Si32  1  0.207206  0.871442  0.572283  1
  Si  Si33  1  0.707045  0.632185  0.178094  1
  Si  Si34  1  0.375960  0.290411  0.322919  1
  Si  Si35  1  0.627979  0.706718  0.822830  1
