# generated using pymatgen
data_Yb5Pr4HoPb8
_symmetry_space_group_name_H-M   'P 1'
_cell_length_a   8.08152800
_cell_length_b   8.61048134
_cell_length_c   16.20277098
_cell_angle_alpha   90.13920993
_cell_angle_beta   90.00000000
_cell_angle_gamma   90.00000000
_symmetry_Int_Tables_number   1
_chemical_formula_structural   Yb5Pr4HoPb8
_chemical_formula_sum   'Yb10 Pr8 Ho2 Pb16'
_cell_volume   1127.48019910
_cell_formula_units_Z   2
loop_
 _symmetry_equiv_pos_site_id
 _symmetry_equiv_pos_as_xyz
  1  'x, y, z'
loop_
 _atom_site_type_symbol
 _atom_site_label
 _atom_site_symmetry_multiplicity
 _atom_site_fract_x
 _atom_site_fract_y
 _atom_site_fract_z
 _atom_site_occupancy
  Yb  Yb0  1  0.334292  0.834591  0.122563  1
  Yb  Yb1  1  0.834292  0.665409  0.377437  1
  Yb  Yb2  1  0.333188  0.834256  0.377217  1
  Yb  Yb3  1  0.833188  0.665744  0.122783  1
  Yb  Yb4  1  0.666697  0.165328  0.877590  1
  Yb  Yb5  1  0.166697  0.334672  0.622410  1
  Yb  Yb6  1  0.833950  0.496388  0.749707  1
  Yb  Yb7  1  0.333950  0.003612  0.750293  1
  Yb  Yb8  1  0.164426  0.505114  0.249571  1
  Yb  Yb9  1  0.664426  0.994886  0.250429  1
  Pr  Pr10  1  0.501301  0.683951  0.594791  1
  Pr  Pr11  1  0.001301  0.816049  0.905209  1
  Pr  Pr12  1  0.499329  0.312814  0.095696  1
  Pr  Pr13  1  0.999329  0.187186  0.404304  1
  Pr  Pr14  1  0.497726  0.313994  0.404604  1
  Pr  Pr15  1  0.997726  0.186006  0.095396  1
  Pr  Pr16  1  0.501693  0.685423  0.905299  1
  Pr  Pr17  1  0.001693  0.814577  0.594701  1
  Ho  Ho18  1  0.666484  0.166847  0.623633  1
  Ho  Ho19  1  0.166484  0.333153  0.876367  1
  Pb  Pb20  1  0.680625  0.962736  0.460813  1
  Pb  Pb21  1  0.180625  0.537264  0.039187  1
  Pb  Pb22  1  0.318374  0.040629  0.958745  1
  Pb  Pb23  1  0.818374  0.459371  0.541255  1
  Pb  Pb24  1  0.325283  0.039490  0.542565  1
  Pb  Pb25  1  0.825283  0.460510  0.957435  1
  Pb  Pb26  1  0.679499  0.961108  0.040858  1
  Pb  Pb27  1  0.179499  0.538892  0.459142  1
  Pb  Pb28  1  0.467296  0.384248  0.752658  1
  Pb  Pb29  1  0.967296  0.115752  0.747342  1
  Pb  Pb30  1  0.531201  0.609337  0.250231  1
  Pb  Pb31  1  0.031201  0.890663  0.249769  1
  Pb  Pb32  1  0.703528  0.855158  0.749286  1
  Pb  Pb33  1  0.203528  0.644842  0.750714  1
  Pb  Pb34  1  0.295108  0.146668  0.249954  1
  Pb  Pb35  1  0.795108  0.353332  0.250046  1
