# generated using pymatgen
data_LiHo6Tm2InRh2
_symmetry_space_group_name_H-M   'P 1'
_cell_length_a   9.59612608
_cell_length_b   9.59113910
_cell_length_c   9.60660417
_cell_angle_alpha   59.85179431
_cell_angle_beta   59.83521693
_cell_angle_gamma   59.78796662
_symmetry_Int_Tables_number   1
_chemical_formula_structural   LiHo6Tm2InRh2
_chemical_formula_sum   'Li2 Ho12 Tm4 In2 Rh4'
_cell_volume   622.71912076
_cell_formula_units_Z   2
loop_
 _symmetry_equiv_pos_site_id
 _symmetry_equiv_pos_as_xyz
  1  'x, y, z'
loop_
 _atom_site_type_symbol
 _atom_site_label
 _atom_site_symmetry_multiplicity
 _atom_site_fract_x
 _atom_site_fract_y
 _atom_site_fract_z
 _atom_site_occupancy
  Li  Li0  1  0.823088  0.823093  0.825686  1
  Li  Li1  1  0.823339  0.823505  0.527106  1
  Ho  Ho2  1  0.813692  0.186565  0.814237  1
  Ho  Ho3  1  0.186309  0.813469  0.186522  1
  Ho  Ho4  1  0.438229  0.062348  0.060627  1
  Ho  Ho5  1  0.186683  0.813914  0.814019  1
  Ho  Ho6  1  0.062370  0.438238  0.060245  1
  Ho  Ho7  1  0.811913  0.812355  0.188301  1
  Ho  Ho8  1  0.206816  0.596954  0.598678  1
  Ho  Ho9  1  0.061887  0.438367  0.438968  1
  Ho  Ho10  1  0.066343  0.066027  0.433010  1
  Ho  Ho11  1  0.813197  0.186269  0.186730  1
  Ho  Ho12  1  0.596935  0.206544  0.598656  1
  Ho  Ho13  1  0.598799  0.599295  0.601279  1
  Tm  Tm14  1  0.185782  0.185464  0.814407  1
  Tm  Tm15  1  0.599028  0.599045  0.200870  1
  Tm  Tm16  1  0.438479  0.061647  0.438914  1
  Tm  Tm17  1  0.441789  0.441485  0.058039  1
  In  In18  1  0.506047  0.834352  0.829466  1
  In  In19  1  0.834266  0.506084  0.829557  1
  Rh  Rh20  1  0.395313  0.822901  0.391087  1
  Rh  Rh21  1  0.393934  0.393302  0.389179  1
  Rh  Rh22  1  0.822377  0.395363  0.390966  1
  Rh  Rh23  1  0.393390  0.393418  0.823453  1
