# generated using pymatgen
data_DyS23
_symmetry_space_group_name_H-M   'P 1'
_cell_length_a   5.59544714
_cell_length_b   9.59366147
_cell_length_c   16.29899500
_cell_angle_alpha   82.42591977
_cell_angle_beta   85.98404499
_cell_angle_gamma   91.36398319
_symmetry_Int_Tables_number   1
_chemical_formula_structural   DyS23
_chemical_formula_sum   'Dy1 S23'
_cell_volume   864.69732289
_cell_formula_units_Z   1
loop_
 _symmetry_equiv_pos_site_id
 _symmetry_equiv_pos_as_xyz
  1  'x, y, z'
loop_
 _atom_site_type_symbol
 _atom_site_label
 _atom_site_symmetry_multiplicity
 _atom_site_fract_x
 _atom_site_fract_y
 _atom_site_fract_z
 _atom_site_occupancy
  Dy  Dy0  1  0.622291  0.171981  0.430637  1
  S  S1  1  0.737347  0.920436  0.395851  1
  S  S2  1  0.018153  0.302524  0.100052  1
  S  S3  1  0.784417  0.225971  0.570024  1
  S  S4  1  0.468150  0.889333  0.489154  1
  S  S5  1  0.172375  0.280020  0.983943  1
  S  S6  1  0.815340  0.742424  0.026560  1
  S  S7  1  0.139051  0.198140  0.382277  1
  S  S8  1  0.599636  0.407989  0.310507  1
  S  S9  1  0.854074  0.112847  0.152088  1
  S  S10  1  0.266718  0.875212  0.119157  1
  S  S11  1  0.700880  0.648375  0.629166  1
  S  S12  1  0.304507  0.436954  0.564762  1
  S  S13  1  0.148883  0.901761  0.860540  1
  S  S14  1  0.733888  0.139651  0.887295  1
  S  S15  1  0.062190  0.694912  0.113681  1
  S  S16  1  0.610189  0.854146  0.606701  1
  S  S17  1  0.418883  0.227921  0.588513  1
  S  S18  1  0.967558  0.716491  0.910603  1
  S  S19  1  0.924247  0.323366  0.896810  1
  S  S20  1  0.244949  0.380258  0.308237  1
  S  S21  1  0.107634  0.986200  0.207381  1
  S  S22  1  0.386633  0.529157  0.665902  1
  S  S23  1  0.912008  0.033928  0.800160  1
