# generated using pymatgen
data_Li8La3Pb4
_symmetry_space_group_name_H-M   'P 1'
_cell_length_a   9.97537912
_cell_length_b   9.97489928
_cell_length_c   8.06748400
_cell_angle_alpha   90.00000000
_cell_angle_beta   90.00000000
_cell_angle_gamma   119.99625259
_symmetry_Int_Tables_number   1
_chemical_formula_structural   Li8La3Pb4
_chemical_formula_sum   'Li16 La6 Pb8'
_cell_volume   695.22130451
_cell_formula_units_Z   2
loop_
 _symmetry_equiv_pos_site_id
 _symmetry_equiv_pos_as_xyz
  1  'x, y, z'
loop_
 _atom_site_type_symbol
 _atom_site_label
 _atom_site_symmetry_multiplicity
 _atom_site_fract_x
 _atom_site_fract_y
 _atom_site_fract_z
 _atom_site_occupancy
  Li  Li0  1  0.833931  0.667822  0.658087  1
  Li  Li1  1  0.332230  0.166092  0.658142  1
  Li  Li2  1  0.833914  0.166096  0.658045  1
  Li  Li3  1  0.166069  0.332178  0.158087  1
  Li  Li4  1  0.667770  0.833908  0.158142  1
  Li  Li5  1  0.166086  0.833904  0.158045  1
  Li  Li6  1  0.891605  0.783343  0.962945  1
  Li  Li7  1  0.216625  0.108347  0.962956  1
  Li  Li8  1  0.891657  0.108298  0.962921  1
  Li  Li9  1  0.108395  0.216657  0.462945  1
  Li  Li10  1  0.783375  0.891653  0.462956  1
  Li  Li11  1  0.108343  0.891702  0.462921  1
  Li  Li12  1  0.666687  0.333340  0.363275  1
  Li  Li13  1  0.333313  0.666660  0.863275  1
  Li  Li14  1  0.999991  0.000004  0.222571  1
  Li  Li15  1  0.000009  0.999996  0.722571  1
  La  La16  1  0.482444  0.964850  0.511206  1
  La  La17  1  0.035140  0.517554  0.511211  1
  La  La18  1  0.482440  0.517573  0.511332  1
  La  La19  1  0.517556  0.035150  0.011206  1
  La  La20  1  0.964860  0.482446  0.011211  1
  La  La21  1  0.517560  0.482427  0.011332  1
  Pb  Pb22  1  0.829994  0.659967  0.285577  1
  Pb  Pb23  1  0.340079  0.170030  0.285590  1
  Pb  Pb24  1  0.829986  0.169995  0.285587  1
  Pb  Pb25  1  0.170006  0.340033  0.785577  1
  Pb  Pb26  1  0.659921  0.829970  0.785590  1
  Pb  Pb27  1  0.170014  0.830005  0.785587  1
  Pb  Pb28  1  0.666770  0.333379  0.743272  1
  Pb  Pb29  1  0.333230  0.666621  0.243272  1
