# generated using pymatgen
data_BaGa2Au5
_symmetry_space_group_name_H-M   'P 1'
_cell_length_a   7.33694300
_cell_length_b   9.16156200
_cell_length_c   10.30611000
_cell_angle_alpha   90.00000000
_cell_angle_beta   90.00000000
_cell_angle_gamma   90.00000000
_symmetry_Int_Tables_number   1
_chemical_formula_structural   BaGa2Au5
_chemical_formula_sum   'Ba4 Ga8 Au20'
_cell_volume   692.75464042
_cell_formula_units_Z   4
loop_
 _symmetry_equiv_pos_site_id
 _symmetry_equiv_pos_as_xyz
  1  'x, y, z'
loop_
 _atom_site_type_symbol
 _atom_site_label
 _atom_site_symmetry_multiplicity
 _atom_site_fract_x
 _atom_site_fract_y
 _atom_site_fract_z
 _atom_site_occupancy
  Ba  Ba0  1  0.250000  0.247061  0.119216  1
  Ba  Ba1  1  0.250000  0.747061  0.380784  1
  Ba  Ba2  1  0.750000  0.752939  0.880784  1
  Ba  Ba3  1  0.750000  0.252939  0.619216  1
  Ga  Ga4  1  0.250000  0.054371  0.615751  1
  Ga  Ga5  1  0.250000  0.554371  0.884249  1
  Ga  Ga6  1  0.750000  0.945629  0.384249  1
  Ga  Ga7  1  0.750000  0.445629  0.115751  1
  Ga  Ga8  1  0.250000  0.355206  0.473466  1
  Ga  Ga9  1  0.250000  0.855206  0.026534  1
  Ga  Ga10  1  0.750000  0.644794  0.526534  1
  Ga  Ga11  1  0.750000  0.144794  0.973466  1
  Au  Au12  1  0.054696  0.104718  0.394024  1
  Au  Au13  1  0.445304  0.604718  0.105976  1
  Au  Au14  1  0.554696  0.895282  0.605976  1
  Au  Au15  1  0.945304  0.395282  0.894024  1
  Au  Au16  1  0.945304  0.895282  0.605976  1
  Au  Au17  1  0.554696  0.395282  0.894024  1
  Au  Au18  1  0.445304  0.104718  0.394024  1
  Au  Au19  1  0.054696  0.604718  0.105976  1
  Au  Au20  1  0.040843  0.067925  0.854644  1
  Au  Au21  1  0.459157  0.567925  0.645356  1
  Au  Au22  1  0.540843  0.932075  0.145356  1
  Au  Au23  1  0.959157  0.432075  0.354644  1
  Au  Au24  1  0.959157  0.932075  0.145356  1
  Au  Au25  1  0.540843  0.432075  0.354644  1
  Au  Au26  1  0.459157  0.067925  0.854644  1
  Au  Au27  1  0.040843  0.567925  0.645356  1
  Au  Au28  1  0.250000  0.309783  0.724742  1
  Au  Au29  1  0.250000  0.809783  0.775258  1
  Au  Au30  1  0.750000  0.690217  0.275258  1
  Au  Au31  1  0.750000  0.190217  0.224742  1
