# generated using pymatgen
data_HoTa8MnS16
_symmetry_space_group_name_H-M   'P 1'
_cell_length_a   6.70577500
_cell_length_b   6.70577395
_cell_length_c   13.09947300
_cell_angle_alpha   90.00000000
_cell_angle_beta   90.00000000
_cell_angle_gamma   120.00001012
_symmetry_Int_Tables_number   1
_chemical_formula_structural   HoTa8MnS16
_chemical_formula_sum   'Ho1 Ta8 Mn1 S16'
_cell_volume   510.13168404
_cell_formula_units_Z   1
loop_
 _symmetry_equiv_pos_site_id
 _symmetry_equiv_pos_as_xyz
  1  'x, y, z'
loop_
 _atom_site_type_symbol
 _atom_site_label
 _atom_site_symmetry_multiplicity
 _atom_site_fract_x
 _atom_site_fract_y
 _atom_site_fract_z
 _atom_site_occupancy
  Ho  Ho0  1  0.000000  0.000000  0.500000  1
  Ta  Ta1  1  0.505435  0.494565  0.761618  1
  Ta  Ta2  1  0.010871  0.505435  0.238382  1
  Ta  Ta3  1  0.494565  0.989129  0.238382  1
  Ta  Ta4  1  0.505435  0.010871  0.761618  1
  Ta  Ta5  1  0.989129  0.494565  0.761618  1
  Ta  Ta6  1  0.494565  0.505435  0.238382  1
  Ta  Ta7  1  0.000000  0.000000  0.761617  1
  Ta  Ta8  1  0.000000  0.000000  0.238383  1
  Mn  Mn9  1  0.000000  0.000000  0.000000  1
  S  S10  1  0.831282  0.168718  0.357714  1
  S  S11  1  0.831282  0.662565  0.357714  1
  S  S12  1  0.337435  0.168718  0.357714  1
  S  S13  1  0.662894  0.831447  0.879701  1
  S  S14  1  0.168718  0.337435  0.642286  1
  S  S15  1  0.168553  0.831447  0.879701  1
  S  S16  1  0.168553  0.337106  0.879701  1
  S  S17  1  0.831447  0.168553  0.120299  1
  S  S18  1  0.337106  0.168553  0.120299  1
  S  S19  1  0.662565  0.831282  0.642286  1
  S  S20  1  0.333333  0.666667  0.117396  1
  S  S21  1  0.666667  0.333333  0.638618  1
  S  S22  1  0.666667  0.333333  0.882604  1
  S  S23  1  0.333333  0.666667  0.361382  1
  S  S24  1  0.831447  0.662894  0.120299  1
  S  S25  1  0.168718  0.831282  0.642286  1
