# generated using pymatgen
data_Ir2RuS8
_symmetry_space_group_name_H-M   'P 1'
_cell_length_a   5.69607677
_cell_length_b   5.67573111
_cell_length_c   5.67015539
_cell_angle_alpha   89.68413450
_cell_angle_beta   89.73278316
_cell_angle_gamma   89.60057687
_symmetry_Int_Tables_number   1
_chemical_formula_structural   Ir2RuS8
_chemical_formula_sum   'Ir2 Ru1 S8'
_cell_volume   183.30352169
_cell_formula_units_Z   1
loop_
 _symmetry_equiv_pos_site_id
 _symmetry_equiv_pos_as_xyz
  1  'x, y, z'
loop_
 _atom_site_type_symbol
 _atom_site_label
 _atom_site_symmetry_multiplicity
 _atom_site_fract_x
 _atom_site_fract_y
 _atom_site_fract_z
 _atom_site_occupancy
  Ir  Ir0  1  0.500000  0.000000  0.500000  1
  Ir  Ir1  1  0.500000  0.500000  0.000000  1
  Ru  Ru2  1  0.000000  0.500000  0.500000  1
  S  S3  1  0.392072  0.891594  0.108395  1
  S  S4  1  0.106275  0.393109  0.890295  1
  S  S5  1  0.892621  0.110497  0.394494  1
  S  S6  1  0.607928  0.108406  0.891605  1
  S  S7  1  0.893725  0.606891  0.109705  1
  S  S8  1  0.107379  0.889503  0.605506  1
  S  S9  1  0.618375  0.612200  0.612385  1
  S  S10  1  0.381625  0.387800  0.387615  1
