# generated using pymatgen
data_Ca2AcPr(AsPd)4
_symmetry_space_group_name_H-M   'P 1'
_cell_length_a   4.35179300
_cell_length_b   8.30925669
_cell_length_c   7.54013007
_cell_angle_alpha   89.90748630
_cell_angle_beta   90.00000000
_cell_angle_gamma   90.00000000
_symmetry_Int_Tables_number   1
_chemical_formula_structural   Ca2AcPr(AsPd)4
_chemical_formula_sum   'Ca2 Ac1 Pr1 As4 Pd4'
_cell_volume   272.65199265
_cell_formula_units_Z   1
loop_
 _symmetry_equiv_pos_site_id
 _symmetry_equiv_pos_as_xyz
  1  'x, y, z'
loop_
 _atom_site_type_symbol
 _atom_site_label
 _atom_site_symmetry_multiplicity
 _atom_site_fract_x
 _atom_site_fract_y
 _atom_site_fract_z
 _atom_site_occupancy
  Ca  Ca0  1  0.250000  0.999099  0.249749  1
  Ca  Ca1  1  0.750000  0.500369  0.747084  1
  Ac  Ac2  1  0.750000  0.000081  0.750404  1
  Pr  Pr3  1  0.250000  0.499892  0.251541  1
  As  As4  1  0.250000  0.265172  0.918998  1
  As  As5  1  0.250000  0.739981  0.581614  1
  As  As6  1  0.750000  0.749239  0.086362  1
  As  As7  1  0.750000  0.249928  0.413243  1
  Pd  Pd8  1  0.250000  0.739500  0.918855  1
  Pd  Pd9  1  0.250000  0.257354  0.582876  1
  Pd  Pd10  1  0.750000  0.250960  0.082314  1
  Pd  Pd11  1  0.750000  0.748424  0.416960  1
