# generated using pymatgen
data_CaYbTh(MgIr)3
_symmetry_space_group_name_H-M   'P 1'
_cell_length_a   7.23395890
_cell_length_b   7.20700384
_cell_length_c   4.21223700
_cell_angle_alpha   90.00000000
_cell_angle_beta   90.00000000
_cell_angle_gamma   118.65125220
_symmetry_Int_Tables_number   1
_chemical_formula_structural   CaYbTh(MgIr)3
_chemical_formula_sum   'Ca1 Yb1 Th1 Mg3 Ir3'
_cell_volume   192.71594510
_cell_formula_units_Z   1
loop_
 _symmetry_equiv_pos_site_id
 _symmetry_equiv_pos_as_xyz
  1  'x, y, z'
loop_
 _atom_site_type_symbol
 _atom_site_label
 _atom_site_symmetry_multiplicity
 _atom_site_fract_x
 _atom_site_fract_y
 _atom_site_fract_z
 _atom_site_occupancy
  Ca  Ca0  1  0.999241  0.413293  0.500000  1
  Yb  Yb1  1  0.412284  0.998443  0.500000  1
  Th  Th2  1  0.590061  0.590405  0.500000  1
  Mg  Mg3  1  0.010941  0.755075  0.000000  1
  Mg  Mg4  1  0.231055  0.231447  0.000000  1
  Mg  Mg5  1  0.757268  0.011836  0.000000  1
  Ir  Ir6  1  0.355268  0.666929  0.000000  1
  Ir  Ir7  1  0.657165  0.349473  0.000000  1
  Ir  Ir8  1  0.986718  0.983101  0.500000  1
