# generated using pymatgen
data_Mg2Fe6Co6P7
_symmetry_space_group_name_H-M   'P 1'
_cell_length_a   8.88774011
_cell_length_b   8.92058416
_cell_length_c   3.54730100
_cell_angle_alpha   90.00000000
_cell_angle_beta   90.00000000
_cell_angle_gamma   120.05099492
_symmetry_Int_Tables_number   1
_chemical_formula_structural   Mg2Fe6Co6P7
_chemical_formula_sum   'Mg2 Fe6 Co6 P7'
_cell_volume   243.43886751
_cell_formula_units_Z   1
loop_
 _symmetry_equiv_pos_site_id
 _symmetry_equiv_pos_as_xyz
  1  'x, y, z'
loop_
 _atom_site_type_symbol
 _atom_site_label
 _atom_site_symmetry_multiplicity
 _atom_site_fract_x
 _atom_site_fract_y
 _atom_site_fract_z
 _atom_site_occupancy
  Mg  Mg0  1  0.000714  0.999848  0.000000  1
  Mg  Mg1  1  0.334418  0.667781  0.500000  1
  Fe  Fe2  1  0.053933  0.769883  0.500000  1
  Fe  Fe3  1  0.718929  0.946581  0.500000  1
  Fe  Fe4  1  0.885084  0.426740  0.500000  1
  Fe  Fe5  1  0.541570  0.112418  0.500000  1
  Fe  Fe6  1  0.570356  0.461045  0.500000  1
  Fe  Fe7  1  0.387406  0.212565  0.000000  1
  Co  Co8  1  0.786550  0.177928  0.000000  1
  Co  Co9  1  0.821582  0.606759  0.000000  1
  Co  Co10  1  0.603483  0.705533  0.000000  1
  Co  Co11  1  0.296467  0.898058  0.000000  1
  Co  Co12  1  0.103793  0.398231  0.000000  1
  Co  Co13  1  0.227400  0.283664  0.500000  1
  P  P14  1  0.259814  0.044165  0.500000  1
  P  P15  1  0.954056  0.214679  0.500000  1
  P  P16  1  0.787331  0.741497  0.500000  1
  P  P17  1  0.373754  0.449844  0.000000  1
  P  P18  1  0.552695  0.923302  0.000000  1
  P  P19  1  0.077395  0.628175  0.000000  1
  P  P20  1  0.663273  0.331303  0.000000  1
