# generated using pymatgen
data_CsRb11(MoSe4)4
_symmetry_space_group_name_H-M   'P 1'
_cell_length_a   10.12654111
_cell_length_b   10.19053946
_cell_length_c   11.49675200
_cell_angle_alpha   90.00000000
_cell_angle_beta   90.00000000
_cell_angle_gamma   90.22899433
_symmetry_Int_Tables_number   1
_chemical_formula_structural   CsRb11(MoSe4)4
_chemical_formula_sum   'Cs1 Rb11 Mo4 Se16'
_cell_volume   1186.39689000
_cell_formula_units_Z   1
loop_
 _symmetry_equiv_pos_site_id
 _symmetry_equiv_pos_as_xyz
  1  'x, y, z'
loop_
 _atom_site_type_symbol
 _atom_site_label
 _atom_site_symmetry_multiplicity
 _atom_site_fract_x
 _atom_site_fract_y
 _atom_site_fract_z
 _atom_site_occupancy
  Cs  Cs0  1  0.852801  0.910884  0.250000  1
  Rb  Rb1  1  0.948710  0.706003  0.954127  1
  Rb  Rb2  1  0.448098  0.794134  0.954696  1
  Rb  Rb3  1  0.551400  0.206282  0.455682  1
  Rb  Rb4  1  0.052360  0.294052  0.045147  1
  Rb  Rb5  1  0.139741  0.081831  0.750000  1
  Rb  Rb6  1  0.639255  0.418443  0.750000  1
  Rb  Rb7  1  0.360934  0.581857  0.250000  1
  Rb  Rb8  1  0.052360  0.294052  0.454853  1
  Rb  Rb9  1  0.448098  0.794134  0.545304  1
  Rb  Rb10  1  0.551400  0.206282  0.044318  1
  Rb  Rb11  1  0.948710  0.706003  0.545873  1
  Mo  Mo12  1  0.780057  0.486488  0.250000  1
  Mo  Mo13  1  0.278824  0.015235  0.250000  1
  Mo  Mo14  1  0.720686  0.986130  0.750000  1
  Mo  Mo15  1  0.220518  0.514206  0.750000  1
  Se  Se16  1  0.200860  0.747408  0.750000  1
  Se  Se17  1  0.700477  0.752810  0.750000  1
  Se  Se18  1  0.300217  0.248234  0.250000  1
  Se  Se19  1  0.797027  0.253949  0.250000  1
  Se  Se20  1  0.003892  0.419071  0.750000  1
  Se  Se21  1  0.504320  0.080401  0.750000  1
  Se  Se22  1  0.493538  0.919208  0.250000  1
  Se  Se23  1  0.999165  0.575129  0.250000  1
  Se  Se24  1  0.665501  0.552000  0.421048  1
  Se  Se25  1  0.166116  0.950959  0.077662  1
  Se  Se26  1  0.835940  0.050721  0.578921  1
  Se  Se27  1  0.335718  0.450204  0.921249  1
  Se  Se28  1  0.335718  0.450204  0.578751  1
  Se  Se29  1  0.665501  0.552000  0.078952  1
  Se  Se30  1  0.166116  0.950959  0.422338  1
  Se  Se31  1  0.835940  0.050721  0.921079  1
