# generated using pymatgen
data_Y5Zr3Rh4
_symmetry_space_group_name_H-M   'P 1'
_cell_length_a   4.57933300
_cell_length_b   7.15151257
_cell_length_c   8.47262900
_cell_angle_alpha   90.40828774
_cell_angle_beta   90.00000000
_cell_angle_gamma   90.00000000
_symmetry_Int_Tables_number   1
_chemical_formula_structural   Y5Zr3Rh4
_chemical_formula_sum   'Y5 Zr3 Rh4'
_cell_volume   277.46441693
_cell_formula_units_Z   1
loop_
 _symmetry_equiv_pos_site_id
 _symmetry_equiv_pos_as_xyz
  1  'x, y, z'
loop_
 _atom_site_type_symbol
 _atom_site_label
 _atom_site_symmetry_multiplicity
 _atom_site_fract_x
 _atom_site_fract_y
 _atom_site_fract_z
 _atom_site_occupancy
  Y  Y0  1  0.250000  0.007038  0.325524  1
  Y  Y1  1  0.250000  0.518328  0.166996  1
  Y  Y2  1  0.750000  0.984193  0.682911  1
  Y  Y3  1  0.750000  0.482527  0.822548  1
  Y  Y4  1  0.750000  0.355833  0.419908  1
  Zr  Zr5  1  0.250000  0.137739  0.926426  1
  Zr  Zr6  1  0.250000  0.647265  0.574114  1
  Zr  Zr7  1  0.750000  0.853902  0.075101  1
  Rh  Rh8  1  0.250000  0.268816  0.608224  1
  Rh  Rh9  1  0.250000  0.768856  0.908320  1
  Rh  Rh10  1  0.750000  0.748778  0.411603  1
  Rh  Rh11  1  0.750000  0.226727  0.078326  1
