# generated using pymatgen
data_DyHo(Si7Rh3)2
_symmetry_space_group_name_H-M   'P 1'
_cell_length_a   7.98678431
_cell_length_b   7.98678536
_cell_length_c   7.98678506
_cell_angle_alpha   57.13054581
_cell_angle_beta   57.13054048
_cell_angle_gamma   57.13053952
_symmetry_Int_Tables_number   1
_chemical_formula_structural   DyHo(Si7Rh3)2
_chemical_formula_sum   'Dy1 Ho1 Si14 Rh6'
_cell_volume   336.42787763
_cell_formula_units_Z   1
loop_
 _symmetry_equiv_pos_site_id
 _symmetry_equiv_pos_as_xyz
  1  'x, y, z'
loop_
 _atom_site_type_symbol
 _atom_site_label
 _atom_site_symmetry_multiplicity
 _atom_site_fract_x
 _atom_site_fract_y
 _atom_site_fract_z
 _atom_site_occupancy
  Dy  Dy0  1  0.500000  0.500000  0.500000  1
  Ho  Ho1  1  0.000000  0.000000  0.000000  1
  Si  Si2  1  0.749810  0.749810  0.749810  1
  Si  Si3  1  0.250190  0.250190  0.250190  1
  Si  Si4  1  0.852078  0.064967  0.672270  1
  Si  Si5  1  0.672270  0.852078  0.064967  1
  Si  Si6  1  0.064967  0.672270  0.852078  1
  Si  Si7  1  0.648662  0.828110  0.434095  1
  Si  Si8  1  0.434095  0.648662  0.828110  1
  Si  Si9  1  0.828110  0.434095  0.648662  1
  Si  Si10  1  0.171890  0.565905  0.351338  1
  Si  Si11  1  0.565905  0.351338  0.171890  1
  Si  Si12  1  0.351338  0.171890  0.565905  1
  Si  Si13  1  0.935033  0.327730  0.147922  1
  Si  Si14  1  0.327730  0.147922  0.935033  1
  Si  Si15  1  0.147922  0.935033  0.327730  1
  Rh  Rh16  1  0.069735  0.429946  0.750363  1
  Rh  Rh17  1  0.249637  0.930265  0.570054  1
  Rh  Rh18  1  0.570054  0.249637  0.930265  1
  Rh  Rh19  1  0.930265  0.570054  0.249637  1
  Rh  Rh20  1  0.429946  0.750363  0.069735  1
  Rh  Rh21  1  0.750363  0.069735  0.429946  1
