# generated using pymatgen
data_DyHo2Tm5(CdPt)2
_symmetry_space_group_name_H-M   'P 1'
_cell_length_a   9.59222224
_cell_length_b   9.59222152
_cell_length_c   9.59095800
_cell_angle_alpha   60.00435728
_cell_angle_beta   60.00435977
_cell_angle_gamma   59.99128387
_symmetry_Int_Tables_number   1
_chemical_formula_structural   DyHo2Tm5(CdPt)2
_chemical_formula_sum   'Dy2 Ho4 Tm10 Cd4 Pt4'
_cell_volume   624.00118054
_cell_formula_units_Z   2
loop_
 _symmetry_equiv_pos_site_id
 _symmetry_equiv_pos_as_xyz
  1  'x, y, z'
loop_
 _atom_site_type_symbol
 _atom_site_label
 _atom_site_symmetry_multiplicity
 _atom_site_fract_x
 _atom_site_fract_y
 _atom_site_fract_z
 _atom_site_occupancy
  Dy  Dy0  1  0.564377  0.564377  0.935623  1
  Dy  Dy1  1  0.935623  0.935623  0.564376  1
  Ho  Ho2  1  0.935785  0.564215  0.564215  1
  Ho  Ho3  1  0.564215  0.935785  0.935785  1
  Ho  Ho4  1  0.564215  0.935785  0.564215  1
  Ho  Ho5  1  0.935785  0.564214  0.935785  1
  Tm  Tm6  1  0.352008  0.352008  0.352129  1
  Tm  Tm7  1  0.352008  0.352008  0.943856  1
  Tm  Tm8  1  0.352129  0.943856  0.352008  1
  Tm  Tm9  1  0.943856  0.352129  0.352008  1
  Tm  Tm10  1  0.810796  0.189204  0.189204  1
  Tm  Tm11  1  0.189204  0.810796  0.810796  1
  Tm  Tm12  1  0.189204  0.810796  0.189204  1
  Tm  Tm13  1  0.810796  0.189204  0.810796  1
  Tm  Tm14  1  0.189206  0.189206  0.810794  1
  Tm  Tm15  1  0.810794  0.810794  0.189206  1
  Cd  Cd16  1  0.581650  0.581650  0.581532  1
  Cd  Cd17  1  0.581650  0.581650  0.255167  1
  Cd  Cd18  1  0.581532  0.255167  0.581650  1
  Cd  Cd19  1  0.255167  0.581532  0.581650  1
  Pt  Pt20  1  0.143163  0.143163  0.143030  1
  Pt  Pt21  1  0.143163  0.143163  0.570647  1
  Pt  Pt22  1  0.143030  0.570647  0.143163  1
  Pt  Pt23  1  0.570647  0.143030  0.143163  1
