# generated using pymatgen
data_Dy3TmFe4(CoO5)4
_symmetry_space_group_name_H-M   'P 1'
_cell_length_a   5.76717400
_cell_length_b   7.26047021
_cell_length_c   8.50050230
_cell_angle_alpha   89.92302541
_cell_angle_beta   90.00000000
_cell_angle_gamma   90.00000000
_symmetry_Int_Tables_number   1
_chemical_formula_structural   Dy3TmFe4(CoO5)4
_chemical_formula_sum   'Dy3 Tm1 Fe4 Co4 O20'
_cell_volume   355.93606900
_cell_formula_units_Z   1
loop_
 _symmetry_equiv_pos_site_id
 _symmetry_equiv_pos_as_xyz
  1  'x, y, z'
loop_
 _atom_site_type_symbol
 _atom_site_label
 _atom_site_symmetry_multiplicity
 _atom_site_fract_x
 _atom_site_fract_y
 _atom_site_fract_z
 _atom_site_occupancy
  Dy  Dy0  1  0.500000  0.633199  0.669178  1
  Dy  Dy1  1  0.500000  0.134085  0.830195  1
  Dy  Dy2  1  0.500000  0.865925  0.169874  1
  Tm  Tm3  1  0.500000  0.365156  0.330406  1
  Fe  Fe4  1  0.000000  0.109594  0.147858  1
  Fe  Fe5  1  0.000000  0.890754  0.852777  1
  Fe  Fe6  1  0.000000  0.390790  0.646862  1
  Fe  Fe7  1  0.000000  0.608364  0.352397  1
  Co  Co8  1  0.250728  0.000862  0.499629  1
  Co  Co9  1  0.749272  0.000862  0.499629  1
  Co  Co10  1  0.749132  0.499684  0.000520  1
  Co  Co11  1  0.250868  0.499684  0.000520  1
  O  O12  1  0.234076  0.999840  0.000466  1
  O  O13  1  0.765924  0.999840  0.000466  1
  O  O14  1  0.764073  0.497858  0.498392  1
  O  O15  1  0.235927  0.497858  0.498392  1
  O  O16  1  0.000000  0.353525  0.068701  1
  O  O17  1  0.000000  0.646647  0.931352  1
  O  O18  1  0.000000  0.146318  0.568869  1
  O  O19  1  0.000000  0.853613  0.429837  1
  O  O20  1  0.260783  0.109290  0.298226  1
  O  O21  1  0.740176  0.894348  0.701959  1
  O  O22  1  0.259824  0.894348  0.701959  1
  O  O23  1  0.740443  0.394254  0.797898  1
  O  O24  1  0.739217  0.109290  0.298226  1
  O  O25  1  0.261056  0.603978  0.202943  1
  O  O26  1  0.738944  0.603978  0.202943  1
  O  O27  1  0.259557  0.394254  0.797898  1
  O  O28  1  0.500000  0.340997  0.058674  1
  O  O29  1  0.500000  0.658166  0.943942  1
  O  O30  1  0.500000  0.160246  0.555453  1
  O  O31  1  0.500000  0.842396  0.443564  1
