# generated using pymatgen
data_Ac8Dy11LuPb16
_symmetry_space_group_name_H-M   'P 1'
_cell_length_a   8.51584800
_cell_length_b   8.57509854
_cell_length_c   16.26156400
_cell_angle_alpha   90.00000000
_cell_angle_beta   90.00000000
_cell_angle_gamma   90.04409219
_symmetry_Int_Tables_number   1
_chemical_formula_structural   Ac8Dy11LuPb16
_chemical_formula_sum   'Ac8 Dy11 Lu1 Pb16'
_cell_volume   1187.48793148
_cell_formula_units_Z   1
loop_
 _symmetry_equiv_pos_site_id
 _symmetry_equiv_pos_as_xyz
  1  'x, y, z'
loop_
 _atom_site_type_symbol
 _atom_site_label
 _atom_site_symmetry_multiplicity
 _atom_site_fract_x
 _atom_site_fract_y
 _atom_site_fract_z
 _atom_site_occupancy
  Ac  Ac0  1  0.478261  0.676950  0.596063  1
  Ac  Ac1  1  0.978329  0.823079  0.904145  1
  Ac  Ac2  1  0.521770  0.322530  0.096324  1
  Ac  Ac3  1  0.021174  0.176498  0.404027  1
  Ac  Ac4  1  0.521770  0.322530  0.403676  1
  Ac  Ac5  1  0.021174  0.176498  0.095973  1
  Ac  Ac6  1  0.478261  0.676950  0.903937  1
  Ac  Ac7  1  0.978329  0.823079  0.595855  1
  Dy  Dy8  1  0.637148  0.157246  0.623298  1
  Dy  Dy9  1  0.137167  0.343377  0.876623  1
  Dy  Dy10  1  0.363534  0.843253  0.123579  1
  Dy  Dy11  1  0.862424  0.657168  0.376443  1
  Dy  Dy12  1  0.363534  0.843253  0.376421  1
  Dy  Dy13  1  0.862424  0.657168  0.123557  1
  Dy  Dy14  1  0.637148  0.157246  0.876702  1
  Dy  Dy15  1  0.137167  0.343377  0.623377  1
  Dy  Dy16  1  0.802613  0.494431  0.750000  1
  Dy  Dy17  1  0.302740  0.005755  0.750000  1
  Dy  Dy18  1  0.197330  0.505856  0.250000  1
  Lu  Lu19  1  0.697474  0.993183  0.250000  1
  Pb  Pb20  1  0.697267  0.954495  0.453705  1
  Pb  Pb21  1  0.197107  0.545474  0.045977  1
  Pb  Pb22  1  0.302886  0.045724  0.954359  1
  Pb  Pb23  1  0.802488  0.454609  0.545696  1
  Pb  Pb24  1  0.302886  0.045724  0.545641  1
  Pb  Pb25  1  0.802488  0.454609  0.954304  1
  Pb  Pb26  1  0.697267  0.954495  0.046295  1
  Pb  Pb27  1  0.197107  0.545474  0.454023  1
  Pb  Pb28  1  0.442519  0.365020  0.750000  1
  Pb  Pb29  1  0.942687  0.134753  0.750000  1
  Pb  Pb30  1  0.558535  0.635569  0.250000  1
  Pb  Pb31  1  0.056294  0.865942  0.250000  1
  Pb  Pb32  1  0.666904  0.855254  0.750000  1
  Pb  Pb33  1  0.166807  0.645282  0.750000  1
  Pb  Pb34  1  0.333446  0.144726  0.250000  1
  Pb  Pb35  1  0.833546  0.353426  0.250000  1
