# generated using pymatgen
data_Pa3(SiRh)4
_symmetry_space_group_name_H-M   'P 1'
_cell_length_a   3.87729163
_cell_length_b   4.14041266
_cell_length_c   12.61158899
_cell_angle_alpha   80.55207676
_cell_angle_beta   81.15746915
_cell_angle_gamma   89.99999745
_symmetry_Int_Tables_number   1
_chemical_formula_structural   Pa3(SiRh)4
_chemical_formula_sum   'Pa3 Si4 Rh4'
_cell_volume   197.27506055
_cell_formula_units_Z   1
loop_
 _symmetry_equiv_pos_site_id
 _symmetry_equiv_pos_as_xyz
  1  'x, y, z'
loop_
 _atom_site_type_symbol
 _atom_site_label
 _atom_site_symmetry_multiplicity
 _atom_site_fract_x
 _atom_site_fract_y
 _atom_site_fract_z
 _atom_site_occupancy
  Pa  Pa0  1  0.000000  0.000000  0.000000  1
  Pa  Pa1  1  0.854729  0.354729  0.290543  1
  Pa  Pa2  1  0.145271  0.645271  0.709457  1
  Si  Si3  1  0.694719  0.194719  0.610563  1
  Si  Si4  1  0.305281  0.805281  0.389437  1
  Si  Si5  1  0.452367  0.452367  0.095267  1
  Si  Si6  1  0.547633  0.547633  0.904733  1
  Rh  Rh7  1  0.596505  0.096505  0.806990  1
  Rh  Rh8  1  0.403495  0.903495  0.193010  1
  Rh  Rh9  1  0.251275  0.251275  0.497450  1
  Rh  Rh10  1  0.748725  0.748725  0.502550  1
