# generated using pymatgen
data_Pr4Co12P12Ru5Rh3
_symmetry_space_group_name_H-M   'P 1'
_cell_length_a   3.79063800
_cell_length_b   10.59556745
_cell_length_c   12.09846451
_cell_angle_alpha   90.03334477
_cell_angle_beta   90.00000000
_cell_angle_gamma   90.00000000
_symmetry_Int_Tables_number   1
_chemical_formula_structural   Pr4Co12P12Ru5Rh3
_chemical_formula_sum   'Pr4 Co12 P12 Ru5 Rh3'
_cell_volume   485.92216973
_cell_formula_units_Z   1
loop_
 _symmetry_equiv_pos_site_id
 _symmetry_equiv_pos_as_xyz
  1  'x, y, z'
loop_
 _atom_site_type_symbol
 _atom_site_label
 _atom_site_symmetry_multiplicity
 _atom_site_fract_x
 _atom_site_fract_y
 _atom_site_fract_z
 _atom_site_occupancy
  Pr  Pr0  1  0.250000  0.585797  0.708119  1
  Pr  Pr1  1  0.250000  0.914191  0.208160  1
  Pr  Pr2  1  0.750000  0.414249  0.291800  1
  Pr  Pr3  1  0.750000  0.085693  0.791900  1
  Co  Co4  1  0.250000  0.223059  0.178736  1
  Co  Co5  1  0.250000  0.275437  0.677451  1
  Co  Co6  1  0.750000  0.776895  0.821891  1
  Co  Co7  1  0.750000  0.723332  0.322001  1
  Co  Co8  1  0.250000  0.884212  0.697896  1
  Co  Co9  1  0.250000  0.616379  0.198449  1
  Co  Co10  1  0.750000  0.116163  0.302079  1
  Co  Co11  1  0.750000  0.384231  0.800531  1
  Co  Co12  1  0.250000  0.464154  0.933389  1
  Co  Co13  1  0.250000  0.035954  0.433371  1
  Co  Co14  1  0.750000  0.535749  0.066049  1
  Co  Co15  1  0.750000  0.964079  0.566271  1
  P  P16  1  0.250000  0.421645  0.108998  1
  P  P17  1  0.250000  0.077731  0.608965  1
  P  P18  1  0.750000  0.578188  0.890815  1
  P  P19  1  0.750000  0.921475  0.390879  1
  P  P20  1  0.250000  0.279492  0.863321  1
  P  P21  1  0.250000  0.223197  0.366913  1
  P  P22  1  0.750000  0.720311  0.136428  1
  P  P23  1  0.750000  0.779334  0.635634  1
  P  P24  1  0.250000  0.604919  0.384902  1
  P  P25  1  0.250000  0.891243  0.882819  1
  P  P26  1  0.750000  0.392954  0.613049  1
  P  P27  1  0.750000  0.109231  0.117605  1
  Ru  Ru28  1  0.250000  0.707417  0.985310  1
  Ru  Ru29  1  0.250000  0.792561  0.484768  1
  Ru  Ru30  1  0.750000  0.292504  0.014465  1
  Ru  Ru31  1  0.750000  0.206434  0.514603  1
  Ru  Ru32  1  0.250000  0.403556  0.489234  1
  Rh  Rh33  1  0.250000  0.096453  0.987802  1
  Rh  Rh34  1  0.750000  0.598227  0.513173  1
  Rh  Rh35  1  0.750000  0.903552  0.012225  1
