# generated using pymatgen
data_Tm5Sc3Os4
_symmetry_space_group_name_H-M   'P 1'
_cell_length_a   4.21128700
_cell_length_b   7.19865864
_cell_length_c   8.57177465
_cell_angle_alpha   89.62769806
_cell_angle_beta   90.00000000
_cell_angle_gamma   90.00000000
_symmetry_Int_Tables_number   1
_chemical_formula_structural   Tm5Sc3Os4
_chemical_formula_sum   'Tm5 Sc3 Os4'
_cell_volume   259.85315609
_cell_formula_units_Z   1
loop_
 _symmetry_equiv_pos_site_id
 _symmetry_equiv_pos_as_xyz
  1  'x, y, z'
loop_
 _atom_site_type_symbol
 _atom_site_label
 _atom_site_symmetry_multiplicity
 _atom_site_fract_x
 _atom_site_fract_y
 _atom_site_fract_z
 _atom_site_occupancy
  Tm  Tm0  1  0.250000  0.980943  0.328942  1
  Tm  Tm1  1  0.750000  0.028055  0.674642  1
  Tm  Tm2  1  0.250000  0.468691  0.163804  1
  Tm  Tm3  1  0.750000  0.530890  0.829626  1
  Tm  Tm4  1  0.750000  0.646539  0.436452  1
  Sc  Sc5  1  0.250000  0.353076  0.563178  1
  Sc  Sc6  1  0.750000  0.141604  0.059243  1
  Sc  Sc7  1  0.250000  0.857870  0.939985  1
  Os  Os8  1  0.250000  0.237097  0.875448  1
  Os  Os9  1  0.750000  0.763444  0.119043  1
  Os  Os10  1  0.250000  0.735141  0.633788  1
  Os  Os11  1  0.750000  0.256650  0.375849  1
