# generated using pymatgen
data_Nd8Ag2OsPt
_symmetry_space_group_name_H-M   'P 1'
_cell_length_a   9.92018951
_cell_length_b   9.92018882
_cell_length_c   10.04241700
_cell_angle_alpha   59.59157225
_cell_angle_beta   59.59157459
_cell_angle_gamma   59.20264093
_symmetry_Int_Tables_number   1
_chemical_formula_structural   Nd8Ag2OsPt
_chemical_formula_sum   'Nd16 Ag4 Os2 Pt2'
_cell_volume   690.24150837
_cell_formula_units_Z   2
loop_
 _symmetry_equiv_pos_site_id
 _symmetry_equiv_pos_as_xyz
  1  'x, y, z'
loop_
 _atom_site_type_symbol
 _atom_site_label
 _atom_site_symmetry_multiplicity
 _atom_site_fract_x
 _atom_site_fract_y
 _atom_site_fract_z
 _atom_site_occupancy
  Nd  Nd0  1  0.351721  0.351721  0.355358  1
  Nd  Nd1  1  0.351721  0.351721  0.941199  1
  Nd  Nd2  1  0.346735  0.951471  0.350897  1
  Nd  Nd3  1  0.951471  0.346735  0.350897  1
  Nd  Nd4  1  0.814547  0.188650  0.191279  1
  Nd  Nd5  1  0.188650  0.814547  0.805526  1
  Nd  Nd6  1  0.188650  0.814547  0.191279  1
  Nd  Nd7  1  0.814547  0.188650  0.805526  1
  Nd  Nd8  1  0.187995  0.187995  0.812005  1
  Nd  Nd9  1  0.806527  0.806527  0.193473  1
  Nd  Nd10  1  0.937365  0.556966  0.565654  1
  Nd  Nd11  1  0.556966  0.937365  0.940015  1
  Nd  Nd12  1  0.556966  0.937365  0.565654  1
  Nd  Nd13  1  0.937365  0.556966  0.940015  1
  Nd  Nd14  1  0.561702  0.561702  0.938298  1
  Nd  Nd15  1  0.937874  0.937874  0.562126  1
  Ag  Ag16  1  0.581539  0.581539  0.581204  1
  Ag  Ag17  1  0.581539  0.581539  0.255718  1
  Ag  Ag18  1  0.581380  0.256397  0.581112  1
  Ag  Ag19  1  0.256397  0.581380  0.581112  1
  Os  Os20  1  0.144740  0.144740  0.136080  1
  Os  Os21  1  0.144740  0.144740  0.574438  1
  Pt  Pt22  1  0.147200  0.571665  0.140568  1
  Pt  Pt23  1  0.571665  0.147200  0.140568  1
