# generated using pymatgen
data_Ta2Fe6Co6P7
_symmetry_space_group_name_H-M   'P 1'
_cell_length_a   8.84927900
_cell_length_b   8.84927975
_cell_length_c   3.54484300
_cell_angle_alpha   90.00000000
_cell_angle_beta   90.00000000
_cell_angle_gamma   120.00000092
_symmetry_Int_Tables_number   1
_chemical_formula_structural   Ta2Fe6Co6P7
_chemical_formula_sum   'Ta2 Fe6 Co6 P7'
_cell_volume   240.40497194
_cell_formula_units_Z   1
loop_
 _symmetry_equiv_pos_site_id
 _symmetry_equiv_pos_as_xyz
  1  'x, y, z'
loop_
 _atom_site_type_symbol
 _atom_site_label
 _atom_site_symmetry_multiplicity
 _atom_site_fract_x
 _atom_site_fract_y
 _atom_site_fract_z
 _atom_site_occupancy
  Ta  Ta0  1  0.666667  0.333333  0.500000  1
  Ta  Ta1  1  0.333333  0.666667  0.000000  1
  Fe  Fe2  1  0.389575  0.442312  0.500000  1
  Fe  Fe3  1  0.557688  0.947263  0.500000  1
  Fe  Fe4  1  0.218930  0.092239  0.500000  1
  Fe  Fe5  1  0.873311  0.781070  0.500000  1
  Fe  Fe6  1  0.907761  0.126689  0.500000  1
  Fe  Fe7  1  0.052737  0.610425  0.500000  1
  Co  Co8  1  0.118031  0.838299  0.000000  1
  Co  Co9  1  0.720268  0.881969  0.000000  1
  Co  Co10  1  0.931938  0.367892  0.000000  1
  Co  Co11  1  0.632108  0.564046  0.000000  1
  Co  Co12  1  0.435954  0.068062  0.000000  1
  Co  Co13  1  0.161701  0.279732  0.000000  1
  P  P14  1  0.000000  0.000000  0.000000  1
  P  P15  1  0.591436  0.713203  0.500000  1
  P  P16  1  0.701701  0.117412  0.000000  1
  P  P17  1  0.882588  0.584289  0.000000  1
  P  P18  1  0.415711  0.298299  0.000000  1
  P  P19  1  0.286797  0.878233  0.500000  1
  P  P20  1  0.121767  0.408564  0.500000  1
