# generated using pymatgen
data_MgZn3(SiPd5)2
_symmetry_space_group_name_H-M   'P 1'
_cell_length_a   4.07247800
_cell_length_b   5.49250658
_cell_length_c   10.52589532
_cell_angle_alpha   90.29953971
_cell_angle_beta   90.00000000
_cell_angle_gamma   90.00000000
_symmetry_Int_Tables_number   1
_chemical_formula_structural   MgZn3(SiPd5)2
_chemical_formula_sum   'Mg1 Zn3 Si2 Pd10'
_cell_volume   235.44119006
_cell_formula_units_Z   1
loop_
 _symmetry_equiv_pos_site_id
 _symmetry_equiv_pos_as_xyz
  1  'x, y, z'
loop_
 _atom_site_type_symbol
 _atom_site_label
 _atom_site_symmetry_multiplicity
 _atom_site_fract_x
 _atom_site_fract_y
 _atom_site_fract_z
 _atom_site_occupancy
  Mg  Mg0  1  0.500000  0.654512  0.356468  1
  Zn  Zn1  1  0.500000  0.152754  0.145837  1
  Zn  Zn2  1  0.500000  0.851133  0.854367  1
  Zn  Zn3  1  0.500000  0.349549  0.646981  1
  Si  Si4  1  0.000000  0.989383  0.498376  1
  Si  Si5  1  0.000000  0.498745  0.000060  1
  Pd  Pd6  1  0.500000  0.173361  0.400964  1
  Pd  Pd7  1  0.500000  0.820398  0.602932  1
  Pd  Pd8  1  0.500000  0.321138  0.899729  1
  Pd  Pd9  1  0.500000  0.681064  0.097439  1
  Pd  Pd10  1  0.000000  0.412121  0.227226  1
  Pd  Pd11  1  0.000000  0.594160  0.774229  1
  Pd  Pd12  1  0.000000  0.093757  0.726560  1
  Pd  Pd13  1  0.000000  0.915483  0.266914  1
  Pd  Pd14  1  0.000000  0.002013  0.998217  1
  Pd  Pd15  1  0.000000  0.490429  0.503699  1
