# generated using pymatgen
data_Na4Li2(PdAu)3
_symmetry_space_group_name_H-M   'P 1'
_cell_length_a   5.54343700
_cell_length_b   5.56359676
_cell_length_c   8.52553400
_cell_angle_alpha   90.00000000
_cell_angle_beta   90.00000000
_cell_angle_gamma   119.88020145
_symmetry_Int_Tables_number   1
_chemical_formula_structural   Na4Li2(PdAu)3
_chemical_formula_sum   'Na4 Li2 Pd3 Au3'
_cell_volume   227.98694897
_cell_formula_units_Z   1
loop_
 _symmetry_equiv_pos_site_id
 _symmetry_equiv_pos_as_xyz
  1  'x, y, z'
loop_
 _atom_site_type_symbol
 _atom_site_label
 _atom_site_symmetry_multiplicity
 _atom_site_fract_x
 _atom_site_fract_y
 _atom_site_fract_z
 _atom_site_occupancy
  Na  Na0  1  0.668095  0.336189  0.071831  1
  Na  Na1  1  0.334631  0.669262  0.933832  1
  Na  Na2  1  0.334631  0.669262  0.566168  1
  Na  Na3  1  0.668095  0.336189  0.428169  1
  Li  Li4  1  0.995225  0.990449  0.002891  1
  Li  Li5  1  0.995225  0.990449  0.497109  1
  Pd  Pd6  1  0.833117  0.666232  0.750000  1
  Pd  Pd7  1  0.168030  0.833985  0.250000  1
  Pd  Pd8  1  0.665954  0.833985  0.250000  1
  Au  Au9  1  0.335633  0.168408  0.750000  1
  Au  Au10  1  0.832776  0.168408  0.750000  1
  Au  Au11  1  0.168589  0.337178  0.250000  1
