# generated using pymatgen
data_NdZnCu3Ag
_symmetry_space_group_name_H-M   'P 1'
_cell_length_a   5.18472563
_cell_length_b   5.18472611
_cell_length_c   5.17951431
_cell_angle_alpha   59.96671464
_cell_angle_beta   59.96671487
_cell_angle_gamma   59.99999411
_symmetry_Int_Tables_number   1
_chemical_formula_structural   NdZnCu3Ag
_chemical_formula_sum   'Nd1 Zn1 Cu3 Ag1'
_cell_volume   98.40268272
_cell_formula_units_Z   1
loop_
 _symmetry_equiv_pos_site_id
 _symmetry_equiv_pos_as_xyz
  1  'x, y, z'
loop_
 _atom_site_type_symbol
 _atom_site_label
 _atom_site_symmetry_multiplicity
 _atom_site_fract_x
 _atom_site_fract_y
 _atom_site_fract_z
 _atom_site_occupancy
  Nd  Nd0  1  0.002385  0.002385  0.992845  1
  Zn  Zn1  1  0.621157  0.621157  0.136529  1
  Cu  Cu2  1  0.623571  0.128277  0.624580  1
  Cu  Cu3  1  0.128277  0.623571  0.624580  1
  Cu  Cu4  1  0.623571  0.623571  0.624580  1
  Ag  Ag5  1  0.251038  0.251038  0.246885  1
