# generated using pymatgen
data_Tm3Zr(Co5P3)4
_symmetry_space_group_name_H-M   'P 1'
_cell_length_a   3.63059800
_cell_length_b   10.22701635
_cell_length_c   11.69125765
_cell_angle_alpha   90.00421820
_cell_angle_beta   90.00000000
_cell_angle_gamma   90.00000000
_symmetry_Int_Tables_number   1
_chemical_formula_structural   Tm3Zr(Co5P3)4
_chemical_formula_sum   'Tm3 Zr1 Co20 P12'
_cell_volume   434.09855943
_cell_formula_units_Z   1
loop_
 _symmetry_equiv_pos_site_id
 _symmetry_equiv_pos_as_xyz
  1  'x, y, z'
loop_
 _atom_site_type_symbol
 _atom_site_label
 _atom_site_symmetry_multiplicity
 _atom_site_fract_x
 _atom_site_fract_y
 _atom_site_fract_z
 _atom_site_occupancy
  Tm  Tm0  1  0.250000  0.917353  0.202589  1
  Tm  Tm1  1  0.750000  0.417633  0.297192  1
  Tm  Tm2  1  0.750000  0.082543  0.797356  1
  Zr  Zr3  1  0.250000  0.581823  0.701198  1
  Co  Co4  1  0.250000  0.717692  0.992746  1
  Co  Co5  1  0.250000  0.781530  0.492928  1
  Co  Co6  1  0.750000  0.282847  0.006796  1
  Co  Co7  1  0.750000  0.217802  0.509471  1
  Co  Co8  1  0.250000  0.409351  0.489177  1
  Co  Co9  1  0.250000  0.092798  0.987380  1
  Co  Co10  1  0.750000  0.593099  0.515111  1
  Co  Co11  1  0.750000  0.907299  0.012547  1
  Co  Co12  1  0.250000  0.222157  0.177344  1
  Co  Co13  1  0.250000  0.278445  0.677526  1
  Co  Co14  1  0.750000  0.776360  0.822390  1
  Co  Co15  1  0.750000  0.720892  0.323361  1
  Co  Co16  1  0.250000  0.881419  0.699920  1
  Co  Co17  1  0.250000  0.616495  0.198860  1
  Co  Co18  1  0.750000  0.117314  0.301385  1
  Co  Co19  1  0.750000  0.385374  0.798838  1
  Co  Co20  1  0.250000  0.469124  0.928565  1
  Co  Co21  1  0.250000  0.032172  0.431930  1
  Co  Co22  1  0.750000  0.532941  0.066733  1
  Co  Co23  1  0.750000  0.966137  0.569114  1
  P  P24  1  0.250000  0.418849  0.111295  1
  P  P25  1  0.250000  0.080639  0.613236  1
  P  P26  1  0.750000  0.581235  0.884479  1
  P  P27  1  0.750000  0.918415  0.387433  1
  P  P28  1  0.250000  0.269459  0.870088  1
  P  P29  1  0.250000  0.231124  0.371211  1
  P  P30  1  0.750000  0.730393  0.129887  1
  P  P31  1  0.750000  0.767449  0.631248  1
  P  P32  1  0.250000  0.600828  0.390409  1
  P  P33  1  0.250000  0.899113  0.890970  1
  P  P34  1  0.750000  0.400584  0.609806  1
  P  P35  1  0.750000  0.101309  0.109483  1
