# generated using pymatgen
data_Tb9Nd(Tl2Pt)4
_symmetry_space_group_name_H-M   'P 1'
_cell_length_a   3.65991500
_cell_length_b   8.20033826
_cell_length_c   18.43601200
_cell_angle_alpha   89.91869223
_cell_angle_beta   90.00000000
_cell_angle_gamma   90.00000000
_symmetry_Int_Tables_number   1
_chemical_formula_structural   Tb9Nd(Tl2Pt)4
_chemical_formula_sum   'Tb9 Nd1 Tl8 Pt4'
_cell_volume   553.31100874
_cell_formula_units_Z   1
loop_
 _symmetry_equiv_pos_site_id
 _symmetry_equiv_pos_as_xyz
  1  'x, y, z'
loop_
 _atom_site_type_symbol
 _atom_site_label
 _atom_site_symmetry_multiplicity
 _atom_site_fract_x
 _atom_site_fract_y
 _atom_site_fract_z
 _atom_site_occupancy
  Tb  Tb0  1  0.000000  0.116385  0.414098  1
  Tb  Tb1  1  0.000000  0.883615  0.585902  1
  Tb  Tb2  1  0.000000  0.381682  0.913650  1
  Tb  Tb3  1  0.000000  0.618318  0.086350  1
  Tb  Tb4  1  0.000000  0.242909  0.220357  1
  Tb  Tb5  1  0.000000  0.757091  0.779643  1
  Tb  Tb6  1  0.000000  0.257556  0.719400  1
  Tb  Tb7  1  0.000000  0.742444  0.280600  1
  Tb  Tb8  1  0.000000  0.500000  0.500000  1
  Nd  Nd9  1  0.000000  0.000000  0.000000  1
  Tl  Tl10  1  0.500000  0.422171  0.352141  1
  Tl  Tl11  1  0.500000  0.577829  0.647859  1
  Tl  Tl12  1  0.500000  0.078494  0.849854  1
  Tl  Tl13  1  0.500000  0.921506  0.150146  1
  Tl  Tl14  1  0.500000  0.296922  0.067200  1
  Tl  Tl15  1  0.500000  0.703078  0.932800  1
  Tl  Tl16  1  0.500000  0.207456  0.565874  1
  Tl  Tl17  1  0.500000  0.792544  0.434126  1
  Pt  Pt18  1  0.500000  0.025771  0.304105  1
  Pt  Pt19  1  0.500000  0.974229  0.695895  1
  Pt  Pt20  1  0.500000  0.474105  0.803120  1
  Pt  Pt21  1  0.500000  0.525895  0.196880  1
