# generated using pymatgen
data_LuZr2(TcP)3
_symmetry_space_group_name_H-M   'P 1'
_cell_length_a   6.85282745
_cell_length_b   6.85282928
_cell_length_c   3.53584700
_cell_angle_alpha   90.00000000
_cell_angle_beta   90.00000000
_cell_angle_gamma   120.35802711
_symmetry_Int_Tables_number   1
_chemical_formula_structural   LuZr2(TcP)3
_chemical_formula_sum   'Lu1 Zr2 Tc3 P3'
_cell_volume   143.28002887
_cell_formula_units_Z   1
loop_
 _symmetry_equiv_pos_site_id
 _symmetry_equiv_pos_as_xyz
  1  'x, y, z'
loop_
 _atom_site_type_symbol
 _atom_site_label
 _atom_site_symmetry_multiplicity
 _atom_site_fract_x
 _atom_site_fract_y
 _atom_site_fract_z
 _atom_site_occupancy
  Lu  Lu0  1  0.406143  0.406143  0.500000  1
  Zr  Zr1  1  0.594915  0.001967  0.500000  1
  Zr  Zr2  1  0.001967  0.594915  0.500000  1
  Tc  Tc3  1  0.996419  0.244017  0.000000  1
  Tc  Tc4  1  0.244017  0.996419  0.000000  1
  Tc  Tc5  1  0.756615  0.756615  0.000000  1
  P  P6  1  0.668962  0.332941  0.000000  1
  P  P7  1  0.332941  0.668962  0.000000  1
  P  P8  1  0.998022  0.998022  0.500000  1
