# generated using pymatgen
data_Tb2YbTh(Al8Pt3)3
_symmetry_space_group_name_H-M   'P 1'
_cell_length_a   7.55698657
_cell_length_b   7.57583877
_cell_length_c   13.22284173
_cell_angle_alpha   84.55846163
_cell_angle_beta   79.10743884
_cell_angle_gamma   59.97727870
_symmetry_Int_Tables_number   1
_chemical_formula_structural   Tb2YbTh(Al8Pt3)3
_chemical_formula_sum   'Tb2 Yb1 Th1 Al24 Pt9'
_cell_volume   643.63460246
_cell_formula_units_Z   1
loop_
 _symmetry_equiv_pos_site_id
 _symmetry_equiv_pos_as_xyz
  1  'x, y, z'
loop_
 _atom_site_type_symbol
 _atom_site_label
 _atom_site_symmetry_multiplicity
 _atom_site_fract_x
 _atom_site_fract_y
 _atom_site_fract_z
 _atom_site_occupancy
  Tb  Tb0  1  0.733366  0.499195  0.808164  1
  Tb  Tb1  1  0.265906  0.501598  0.193061  1
  Yb  Yb2  1  0.605919  0.831459  0.193625  1
  Th  Th3  1  0.394428  0.167408  0.807448  1
  Al  Al4  1  0.686982  0.830991  0.947957  1
  Al  Al5  1  0.315247  0.165687  0.057544  1
  Al  Al6  1  0.147087  0.832542  0.560274  1
  Al  Al7  1  0.854059  0.167479  0.438232  1
  Al  Al8  1  0.480421  0.166618  0.556583  1
  Al  Al9  1  0.520654  0.832449  0.440565  1
  Al  Al10  1  0.217493  0.164464  0.330568  1
  Al  Al11  1  0.787689  0.831165  0.666927  1
  Al  Al12  1  0.438322  0.510200  0.667119  1
  Al  Al13  1  0.562224  0.494664  0.330212  1
  Al  Al14  1  0.107149  0.159680  0.665673  1
  Al  Al15  1  0.889212  0.840281  0.331358  1
  Al  Al16  1  0.351495  0.502620  0.946776  1
  Al  Al17  1  0.647146  0.501113  0.055830  1
  Al  Al18  1  0.011961  0.167158  0.956488  1
  Al  Al19  1  0.983863  0.832577  0.047755  1
  Al  Al20  1  0.186443  0.499649  0.441183  1
  Al  Al21  1  0.813211  0.500975  0.558152  1
  Al  Al22  1  0.734076  0.165157  0.183473  1
  Al  Al23  1  0.264546  0.832654  0.816462  1
  Al  Al24  1  0.058355  0.634969  0.815283  1
  Al  Al25  1  0.939153  0.368413  0.184758  1
  Al  Al26  1  0.859356  0.040878  0.816183  1
  Al  Al27  1  0.143290  0.957673  0.184129  1
  Pt  Pt28  1  0.121038  0.491398  0.638512  1
  Pt  Pt29  1  0.880575  0.506888  0.361829  1
  Pt  Pt30  1  0.657314  0.171857  0.999158  1
  Pt  Pt31  1  0.342609  0.829403  0.999182  1
  Pt  Pt32  1  0.538387  0.166895  0.361535  1
  Pt  Pt33  1  0.461633  0.834522  0.638478  1
  Pt  Pt34  1  0.777755  0.174941  0.637132  1
  Pt  Pt35  1  0.220073  0.825516  0.363302  1
  Pt  Pt36  1  0.001562  0.498866  0.999093  1
