# generated using pymatgen
data_Ho5Er5In8(PdRh)2
_symmetry_space_group_name_H-M   'P 1'
_cell_length_a   3.59136800
_cell_length_b   8.10199565
_cell_length_c   18.22835200
_cell_angle_alpha   90.02316333
_cell_angle_beta   90.00000000
_cell_angle_gamma   90.00000000
_symmetry_Int_Tables_number   1
_chemical_formula_structural   Ho5Er5In8(PdRh)2
_chemical_formula_sum   'Ho5 Er5 In8 Pd2 Rh2'
_cell_volume   530.39483411
_cell_formula_units_Z   1
loop_
 _symmetry_equiv_pos_site_id
 _symmetry_equiv_pos_as_xyz
  1  'x, y, z'
loop_
 _atom_site_type_symbol
 _atom_site_label
 _atom_site_symmetry_multiplicity
 _atom_site_fract_x
 _atom_site_fract_y
 _atom_site_fract_z
 _atom_site_occupancy
  Ho  Ho0  1  0.000000  0.500011  0.499995  1
  Ho  Ho1  1  0.000000  0.999994  0.000049  1
  Ho  Ho2  1  0.000000  0.385542  0.913297  1
  Ho  Ho3  1  0.000000  0.883639  0.584288  1
  Ho  Ho4  1  0.000000  0.116340  0.415701  1
  Er  Er5  1  0.000000  0.731201  0.277938  1
  Er  Er6  1  0.000000  0.268686  0.721968  1
  Er  Er7  1  0.000000  0.747812  0.780002  1
  Er  Er8  1  0.000000  0.252210  0.219947  1
  Er  Er9  1  0.000000  0.614269  0.087027  1
  In  In10  1  0.500000  0.709328  0.931703  1
  In  In11  1  0.500000  0.291152  0.068448  1
  In  In12  1  0.500000  0.790662  0.431777  1
  In  In13  1  0.500000  0.209385  0.568206  1
  In  In14  1  0.500000  0.577309  0.649518  1
  In  In15  1  0.500000  0.422677  0.350428  1
  In  In16  1  0.500000  0.921462  0.149960  1
  In  In17  1  0.500000  0.077938  0.849996  1
  Pd  Pd18  1  0.500000  0.979227  0.696589  1
  Pd  Pd19  1  0.500000  0.020772  0.303409  1
  Rh  Rh20  1  0.500000  0.521418  0.195205  1
  Rh  Rh21  1  0.500000  0.478965  0.804549  1
