# generated using pymatgen
data_Li(PaPt4)3
_symmetry_space_group_name_H-M   'P 1'
_cell_length_a   5.80767800
_cell_length_b   5.80767877
_cell_length_c   9.58535900
_cell_angle_alpha   90.00000000
_cell_angle_beta   90.00000000
_cell_angle_gamma   120.00000699
_symmetry_Int_Tables_number   1
_chemical_formula_structural   Li(PaPt4)3
_chemical_formula_sum   'Li1 Pa3 Pt12'
_cell_volume   279.99101881
_cell_formula_units_Z   1
loop_
 _symmetry_equiv_pos_site_id
 _symmetry_equiv_pos_as_xyz
  1  'x, y, z'
loop_
 _atom_site_type_symbol
 _atom_site_label
 _atom_site_symmetry_multiplicity
 _atom_site_fract_x
 _atom_site_fract_y
 _atom_site_fract_z
 _atom_site_occupancy
  Li  Li0  1  0.333333  0.666667  0.250000  1
  Pa  Pa1  1  0.000000  0.000000  0.489000  1
  Pa  Pa2  1  0.000000  0.000000  0.011000  1
  Pa  Pa3  1  0.666667  0.333333  0.750000  1
  Pt  Pt4  1  0.499095  0.500905  0.496873  1
  Pt  Pt5  1  0.499095  0.998189  0.496873  1
  Pt  Pt6  1  0.001811  0.500905  0.496873  1
  Pt  Pt7  1  0.499095  0.500905  0.003127  1
  Pt  Pt8  1  0.499095  0.998189  0.003127  1
  Pt  Pt9  1  0.001811  0.500905  0.003127  1
  Pt  Pt10  1  0.828136  0.656274  0.250000  1
  Pt  Pt11  1  0.343726  0.171864  0.250000  1
  Pt  Pt12  1  0.828136  0.171864  0.250000  1
  Pt  Pt13  1  0.169067  0.338134  0.750000  1
  Pt  Pt14  1  0.661866  0.830933  0.750000  1
  Pt  Pt15  1  0.169067  0.830933  0.750000  1
