# generated using pymatgen
data_NdEr2Pa(ReB6)2
_symmetry_space_group_name_H-M   'P 1'
_cell_length_a   3.71497100
_cell_length_b   9.18554937
_cell_length_c   11.58672704
_cell_angle_alpha   90.31844816
_cell_angle_beta   90.00000000
_cell_angle_gamma   90.00000000
_symmetry_Int_Tables_number   1
_chemical_formula_structural   NdEr2Pa(ReB6)2
_chemical_formula_sum   'Nd2 Er4 Pa2 Re4 B24'
_cell_volume   395.37994057
_cell_formula_units_Z   2
loop_
 _symmetry_equiv_pos_site_id
 _symmetry_equiv_pos_as_xyz
  1  'x, y, z'
loop_
 _atom_site_type_symbol
 _atom_site_label
 _atom_site_symmetry_multiplicity
 _atom_site_fract_x
 _atom_site_fract_y
 _atom_site_fract_z
 _atom_site_occupancy
  Nd  Nd0  1  0.000000  0.823355  0.086146  1
  Nd  Nd1  1  0.000000  0.176645  0.913854  1
  Er  Er2  1  0.000000  0.944886  0.373424  1
  Er  Er3  1  0.000000  0.055114  0.626576  1
  Er  Er4  1  0.000000  0.444101  0.127752  1
  Er  Er5  1  0.000000  0.555899  0.872248  1
  Pa  Pa6  1  0.000000  0.321653  0.413542  1
  Pa  Pa7  1  0.000000  0.678347  0.586458  1
  Re  Re8  1  0.000000  0.634583  0.325578  1
  Re  Re9  1  0.000000  0.365417  0.674422  1
  Re  Re10  1  0.000000  0.142659  0.184521  1
  Re  Re11  1  0.000000  0.857341  0.815479  1
  B  B12  1  0.500000  0.553563  0.433334  1
  B  B13  1  0.500000  0.446437  0.566666  1
  B  B14  1  0.500000  0.055442  0.070310  1
  B  B15  1  0.500000  0.944558  0.929690  1
  B  B16  1  0.500000  0.748315  0.420158  1
  B  B17  1  0.500000  0.251685  0.579842  1
  B  B18  1  0.500000  0.249744  0.083441  1
  B  B19  1  0.500000  0.750256  0.916559  1
  B  B20  1  0.500000  0.790506  0.268097  1
  B  B21  1  0.500000  0.209494  0.731903  1
  B  B22  1  0.500000  0.293061  0.235602  1
  B  B23  1  0.500000  0.706939  0.764398  1
  B  B24  1  0.500000  0.629636  0.187239  1
  B  B25  1  0.500000  0.370364  0.812761  1
  B  B26  1  0.500000  0.132793  0.315784  1
  B  B27  1  0.500000  0.867207  0.684216  1
  B  B28  1  0.500000  0.984430  0.214926  1
  B  B29  1  0.500000  0.015570  0.785074  1
  B  B30  1  0.500000  0.482747  0.287706  1
  B  B31  1  0.500000  0.517253  0.712294  1
  B  B32  1  0.500000  0.599658  0.027872  1
  B  B33  1  0.500000  0.400342  0.972128  1
  B  B34  1  0.500000  0.110313  0.469893  1
  B  B35  1  0.500000  0.889687  0.530107  1
