# generated using pymatgen
data_Gd3Ag2Hg3Pt
_symmetry_space_group_name_H-M   'P 1'
_cell_length_a   8.12701700
_cell_length_b   8.12701486
_cell_length_c   3.79354300
_cell_angle_alpha   90.00000000
_cell_angle_beta   90.00000000
_cell_angle_gamma   120.00000463
_symmetry_Int_Tables_number   1
_chemical_formula_structural   Gd3Ag2Hg3Pt
_chemical_formula_sum   'Gd3 Ag2 Hg3 Pt1'
_cell_volume   216.98906319
_cell_formula_units_Z   1
loop_
 _symmetry_equiv_pos_site_id
 _symmetry_equiv_pos_as_xyz
  1  'x, y, z'
loop_
 _atom_site_type_symbol
 _atom_site_label
 _atom_site_symmetry_multiplicity
 _atom_site_fract_x
 _atom_site_fract_y
 _atom_site_fract_z
 _atom_site_occupancy
  Gd  Gd0  1  0.383484  0.413879  0.500000  1
  Gd  Gd1  1  0.586121  0.969604  0.500000  1
  Gd  Gd2  1  0.030396  0.616516  0.500000  1
  Ag  Ag3  1  0.666667  0.333333  0.000000  1
  Ag  Ag4  1  0.000000  0.000000  0.500000  1
  Hg  Hg5  1  0.986413  0.269126  0.000000  1
  Hg  Hg6  1  0.730874  0.717287  0.000000  1
  Hg  Hg7  1  0.282713  0.013587  0.000000  1
  Pt  Pt8  1  0.333333  0.666667  0.000000  1
