# generated using pymatgen
data_TbB2OsRu
_symmetry_space_group_name_H-M   'P 1'
_cell_length_a   6.64899535
_cell_length_b   5.93405940
_cell_length_c   5.59345982
_cell_angle_alpha   70.37970512
_cell_angle_beta   57.20948448
_cell_angle_gamma   52.41079631
_symmetry_Int_Tables_number   1
_chemical_formula_structural   TbB2OsRu
_chemical_formula_sum   'Tb2 B4 Os2 Ru2'
_cell_volume   147.00748614
_cell_formula_units_Z   2
loop_
 _symmetry_equiv_pos_site_id
 _symmetry_equiv_pos_as_xyz
  1  'x, y, z'
loop_
 _atom_site_type_symbol
 _atom_site_label
 _atom_site_symmetry_multiplicity
 _atom_site_fract_x
 _atom_site_fract_y
 _atom_site_fract_z
 _atom_site_occupancy
  Tb  Tb0  1  0.000000  0.000000  0.000000  1
  Tb  Tb1  1  0.250000  0.250000  0.250000  1
  B  B2  1  0.307979  0.692021  0.307979  1
  B  B3  1  0.692021  0.307979  0.692021  1
  B  B4  1  0.562537  0.937463  0.562537  1
  B  B5  1  0.937463  0.562537  0.937463  1
  Os  Os6  1  0.611460  0.611460  0.888540  1
  Os  Os7  1  0.888540  0.888540  0.611460  1
  Ru  Ru8  1  0.638084  0.638084  0.361916  1
  Ru  Ru9  1  0.361916  0.361916  0.638084  1
