# generated using pymatgen
data_Dy7Tm3Si5Sn
_symmetry_space_group_name_H-M   'P 1'
_cell_length_a   8.49487911
_cell_length_b   8.51778058
_cell_length_c   6.34420709
_cell_angle_alpha   90.01482137
_cell_angle_beta   90.00333820
_cell_angle_gamma   119.89331242
_symmetry_Int_Tables_number   1
_chemical_formula_structural   Dy7Tm3Si5Sn
_chemical_formula_sum   'Dy7 Tm3 Si5 Sn1'
_cell_volume   397.97656204
_cell_formula_units_Z   1
loop_
 _symmetry_equiv_pos_site_id
 _symmetry_equiv_pos_as_xyz
  1  'x, y, z'
loop_
 _atom_site_type_symbol
 _atom_site_label
 _atom_site_symmetry_multiplicity
 _atom_site_fract_x
 _atom_site_fract_y
 _atom_site_fract_z
 _atom_site_occupancy
  Dy  Dy0  1  0.989847  0.748359  0.750460  1
  Dy  Dy1  1  0.998913  0.243477  0.249623  1
  Dy  Dy2  1  0.755161  0.756849  0.249549  1
  Dy  Dy3  1  0.764576  0.999766  0.750342  1
  Dy  Dy4  1  0.241271  0.251890  0.750292  1
  Dy  Dy5  1  0.241904  0.999764  0.249667  1
  Dy  Dy6  1  0.673554  0.342159  0.496944  1
  Tm  Tm7  1  0.673611  0.342261  0.002940  1
  Tm  Tm8  1  0.331353  0.657749  0.497063  1
  Tm  Tm9  1  0.331443  0.657827  0.002942  1
  Si  Si10  1  0.393646  0.393313  0.249055  1
  Si  Si11  1  0.002310  0.607630  0.248907  1
  Si  Si12  1  0.999473  0.395349  0.751009  1
  Si  Si13  1  0.603164  0.605560  0.751000  1
  Si  Si14  1  0.604570  0.999177  0.249167  1
  Sn  Sn15  1  0.395202  0.998871  0.751041  1
