# generated using pymatgen
data_LaPr3Al5Br2
_symmetry_space_group_name_H-M   'P 1'
_cell_length_a   11.76307599
_cell_length_b   11.80221702
_cell_length_c   4.32307000
_cell_angle_alpha   90.00000000
_cell_angle_beta   90.00000000
_cell_angle_gamma   93.62591399
_symmetry_Int_Tables_number   1
_chemical_formula_structural   LaPr3Al5Br2
_chemical_formula_sum   'La2 Pr6 Al10 Br4'
_cell_volume   598.97202120
_cell_formula_units_Z   2
loop_
 _symmetry_equiv_pos_site_id
 _symmetry_equiv_pos_as_xyz
  1  'x, y, z'
loop_
 _atom_site_type_symbol
 _atom_site_label
 _atom_site_symmetry_multiplicity
 _atom_site_fract_x
 _atom_site_fract_y
 _atom_site_fract_z
 _atom_site_occupancy
  La  La0  1  0.677920  0.039757  0.500000  1
  La  La1  1  0.322080  0.960243  0.500000  1
  Pr  Pr2  1  0.733655  0.732187  0.000000  1
  Pr  Pr3  1  0.038264  0.673632  0.500000  1
  Pr  Pr4  1  0.364596  0.634018  0.000000  1
  Pr  Pr5  1  0.961736  0.326368  0.500000  1
  Pr  Pr6  1  0.266345  0.267813  0.000000  1
  Pr  Pr7  1  0.635404  0.365982  0.000000  1
  Al  Al8  1  0.579535  0.579391  0.500000  1
  Al  Al9  1  0.420465  0.420609  0.500000  1
  Al  Al10  1  0.216433  0.480855  0.500000  1
  Al  Al11  1  0.783567  0.519145  0.500000  1
  Al  Al12  1  0.529192  0.896985  0.000000  1
  Al  Al13  1  0.519084  0.782715  0.500000  1
  Al  Al14  1  0.470808  0.103015  0.000000  1
  Al  Al15  1  0.102671  0.471440  0.000000  1
  Al  Al16  1  0.480916  0.217285  0.500000  1
  Al  Al17  1  0.897329  0.528560  0.000000  1
  Br  Br18  1  0.877237  0.875020  0.500000  1
  Br  Br19  1  0.171537  0.824659  0.000000  1
  Br  Br20  1  0.122763  0.124980  0.500000  1
  Br  Br21  1  0.828463  0.175341  0.000000  1
