# generated using pymatgen
data_Tb6Lu4(InSb)3
_symmetry_space_group_name_H-M   'P 1'
_cell_length_a   8.93271400
_cell_length_b   8.91016161
_cell_length_c   6.50572600
_cell_angle_alpha   90.00000000
_cell_angle_beta   90.00000000
_cell_angle_gamma   120.08376304
_symmetry_Int_Tables_number   1
_chemical_formula_structural   Tb6Lu4(InSb)3
_chemical_formula_sum   'Tb6 Lu4 In3 Sb3'
_cell_volume   448.05179793
_cell_formula_units_Z   1
loop_
 _symmetry_equiv_pos_site_id
 _symmetry_equiv_pos_as_xyz
  1  'x, y, z'
loop_
 _atom_site_type_symbol
 _atom_site_label
 _atom_site_symmetry_multiplicity
 _atom_site_fract_x
 _atom_site_fract_y
 _atom_site_fract_z
 _atom_site_occupancy
  Tb  Tb0  1  0.002214  0.760347  0.750000  1
  Tb  Tb1  1  0.003256  0.243137  0.250000  1
  Tb  Tb2  1  0.760120  0.756863  0.250000  1
  Tb  Tb3  1  0.758263  0.000000  0.750000  1
  Tb  Tb4  1  0.241867  0.239653  0.750000  1
  Tb  Tb5  1  0.239944  0.000000  0.250000  1
  Lu  Lu6  1  0.331644  0.666041  0.498367  1
  Lu  Lu7  1  0.665605  0.333959  0.001633  1
  Lu  Lu8  1  0.665605  0.333959  0.498367  1
  Lu  Lu9  1  0.331644  0.666041  0.001633  1
  In  In10  1  0.397857  0.000000  0.750000  1
  In  In11  1  0.396123  0.397499  0.250000  1
  In  In12  1  0.998624  0.602501  0.250000  1
  Sb  Sb13  1  0.997880  0.393655  0.750000  1
  Sb  Sb14  1  0.604225  0.606345  0.750000  1
  Sb  Sb15  1  0.605129  0.000000  0.250000  1
