# generated using pymatgen
data_Ca7Nd(MnN3)4
_symmetry_space_group_name_H-M   'P 1'
_cell_length_a   5.93187199
_cell_length_b   5.93187174
_cell_length_c   11.64493008
_cell_angle_alpha   90.18869479
_cell_angle_beta   89.81130323
_cell_angle_gamma   125.15278603
_symmetry_Int_Tables_number   1
_chemical_formula_structural   Ca7Nd(MnN3)4
_chemical_formula_sum   'Ca7 Nd1 Mn4 N12'
_cell_volume   335.01845008
_cell_formula_units_Z   1
loop_
 _symmetry_equiv_pos_site_id
 _symmetry_equiv_pos_as_xyz
  1  'x, y, z'
loop_
 _atom_site_type_symbol
 _atom_site_label
 _atom_site_symmetry_multiplicity
 _atom_site_fract_x
 _atom_site_fract_y
 _atom_site_fract_z
 _atom_site_occupancy
  Ca  Ca0  1  0.550789  0.449211  0.647179  1
  Ca  Ca1  1  0.050509  0.949491  0.854409  1
  Ca  Ca2  1  0.947121  0.052879  0.142052  1
  Ca  Ca3  1  0.140377  0.859623  0.426705  1
  Ca  Ca4  1  0.860607  0.139393  0.577452  1
  Ca  Ca5  1  0.360597  0.639403  0.922973  1
  Ca  Ca6  1  0.639443  0.360557  0.075001  1
  Nd  Nd7  1  0.450037  0.549963  0.355403  1
  Mn  Mn8  1  0.251638  0.748362  0.159601  1
  Mn  Mn9  1  0.745750  0.254250  0.838734  1
  Mn  Mn10  1  0.245606  0.754394  0.661657  1
  Mn  Mn11  1  0.754878  0.245122  0.339487  1
  N  N12  1  0.156194  0.843806  0.037679  1
  N  N13  1  0.842563  0.157437  0.961433  1
  N  N14  1  0.344578  0.655422  0.535400  1
  N  N15  1  0.652612  0.347388  0.461959  1
  N  N16  1  0.421576  0.578424  0.137501  1
  N  N17  1  0.579192  0.420808  0.865269  1
  N  N18  1  0.078774  0.921226  0.636642  1
  N  N19  1  0.925101  0.074899  0.363410  1
  N  N20  1  0.965523  0.536055  0.251003  1
  N  N21  1  0.537113  0.964524  0.749023  1
  N  N22  1  0.035476  0.462887  0.749023  1
  N  N23  1  0.463945  0.034477  0.251003  1
