# generated using pymatgen
data_InSn4B2Ir5Rh
_symmetry_space_group_name_H-M   'P 1'
_cell_length_a   6.71163312
_cell_length_b   6.71457890
_cell_length_c   5.64540801
_cell_angle_alpha   90.11139865
_cell_angle_beta   89.97845392
_cell_angle_gamma   119.98796507
_symmetry_Int_Tables_number   1
_chemical_formula_structural   InSn4B2Ir5Rh
_chemical_formula_sum   'In1 Sn4 B2 Ir5 Rh1'
_cell_volume   220.35590271
_cell_formula_units_Z   1
loop_
 _symmetry_equiv_pos_site_id
 _symmetry_equiv_pos_as_xyz
  1  'x, y, z'
loop_
 _atom_site_type_symbol
 _atom_site_label
 _atom_site_symmetry_multiplicity
 _atom_site_fract_x
 _atom_site_fract_y
 _atom_site_fract_z
 _atom_site_occupancy
  In  In0  1  0.666934  0.333204  0.497938  1
  Sn  Sn1  1  0.406751  0.403275  0.001083  1
  Sn  Sn2  1  0.597467  0.004987  0.001276  1
  Sn  Sn3  1  0.995803  0.591740  0.001038  1
  Sn  Sn4  1  0.332822  0.666103  0.497151  1
  B  B5  1  0.000111  0.999660  0.498990  1
  B  B6  1  0.999898  0.999251  0.001555  1
  Ir  Ir7  1  0.248407  0.995692  0.747603  1
  Ir  Ir8  1  0.745129  0.750077  0.253336  1
  Ir  Ir9  1  0.004918  0.254110  0.251988  1
  Ir  Ir10  1  0.250107  0.995060  0.253385  1
  Ir  Ir11  1  0.746660  0.752067  0.747287  1
  Rh  Rh12  1  0.004993  0.254773  0.747370  1
