# generated using pymatgen
data_LaPr(Hg2O)2
_symmetry_space_group_name_H-M   'P 1'
_cell_length_a   5.95757573
_cell_length_b   5.86317496
_cell_length_c   10.93876931
_cell_angle_alpha   90.04616234
_cell_angle_beta   98.04717248
_cell_angle_gamma   89.97819088
_symmetry_Int_Tables_number   1
_chemical_formula_structural   LaPr(Hg2O)2
_chemical_formula_sum   'La2 Pr2 Hg8 O4'
_cell_volume   378.33202567
_cell_formula_units_Z   2
loop_
 _symmetry_equiv_pos_site_id
 _symmetry_equiv_pos_as_xyz
  1  'x, y, z'
loop_
 _atom_site_type_symbol
 _atom_site_label
 _atom_site_symmetry_multiplicity
 _atom_site_fract_x
 _atom_site_fract_y
 _atom_site_fract_z
 _atom_site_occupancy
  La  La0  1  0.975495  0.183932  0.896077  1
  La  La1  1  0.475495  0.683829  0.895998  1
  Pr  Pr2  1  0.526092  0.184303  0.108020  1
  Pr  Pr3  1  0.026108  0.684421  0.107947  1
  Hg  Hg4  1  0.530847  0.164966  0.416794  1
  Hg  Hg5  1  0.026717  0.654680  0.416785  1
  Hg  Hg6  1  0.971904  0.154414  0.579823  1
  Hg  Hg7  1  0.467669  0.664735  0.579865  1
  Hg  Hg8  1  0.546436  0.675252  0.292122  1
  Hg  Hg9  1  0.049709  0.168742  0.291827  1
  Hg  Hg10  1  0.948756  0.668560  0.704294  1
  Hg  Hg11  1  0.452089  0.174969  0.703877  1
  O  O12  1  0.750618  0.932963  0.001442  1
  O  O13  1  0.250674  0.935615  0.001475  1
  O  O14  1  0.750655  0.435632  0.002016  1
  O  O15  1  0.250746  0.432948  0.001639  1
