# generated using pymatgen
data_Dy8Al2RuPt
_symmetry_space_group_name_H-M   'P 1'
_cell_length_a   9.55996921
_cell_length_b   9.55996934
_cell_length_c   9.58624000
_cell_angle_alpha   59.90904873
_cell_angle_beta   59.90904826
_cell_angle_gamma   59.73854965
_symmetry_Int_Tables_number   1
_chemical_formula_structural   Dy8Al2RuPt
_chemical_formula_sum   'Dy16 Al4 Ru2 Pt2'
_cell_volume   617.42578073
_cell_formula_units_Z   2
loop_
 _symmetry_equiv_pos_site_id
 _symmetry_equiv_pos_as_xyz
  1  'x, y, z'
loop_
 _atom_site_type_symbol
 _atom_site_label
 _atom_site_symmetry_multiplicity
 _atom_site_fract_x
 _atom_site_fract_y
 _atom_site_fract_z
 _atom_site_occupancy
  Dy  Dy0  1  0.352068  0.352068  0.355503  1
  Dy  Dy1  1  0.352068  0.352068  0.940361  1
  Dy  Dy2  1  0.349614  0.945108  0.352640  1
  Dy  Dy3  1  0.945108  0.349614  0.352640  1
  Dy  Dy4  1  0.811024  0.191844  0.194274  1
  Dy  Dy5  1  0.191844  0.811024  0.802859  1
  Dy  Dy6  1  0.191844  0.811024  0.194274  1
  Dy  Dy7  1  0.811024  0.191844  0.802859  1
  Dy  Dy8  1  0.192146  0.192146  0.807854  1
  Dy  Dy9  1  0.804938  0.804938  0.195062  1
  Dy  Dy10  1  0.936524  0.560000  0.565722  1
  Dy  Dy11  1  0.560000  0.936524  0.937754  1
  Dy  Dy12  1  0.560000  0.936524  0.565722  1
  Dy  Dy13  1  0.936524  0.559999  0.937754  1
  Dy  Dy14  1  0.562686  0.562686  0.937314  1
  Dy  Dy15  1  0.937767  0.937767  0.562232  1
  Al  Al16  1  0.577543  0.577543  0.577098  1
  Al  Al17  1  0.577543  0.577543  0.267814  1
  Al  Al18  1  0.578151  0.266800  0.577524  1
  Al  Al19  1  0.266800  0.578151  0.577524  1
  Ru  Ru20  1  0.143631  0.143631  0.139376  1
  Ru  Ru21  1  0.143631  0.143631  0.573363  1
  Pt  Pt22  1  0.144976  0.572547  0.141239  1
  Pt  Pt23  1  0.572547  0.144976  0.141239  1
