# generated using pymatgen
data_Er4AlGa3Rh4
_symmetry_space_group_name_H-M   'P 1'
_cell_length_a   4.23055900
_cell_length_b   6.82532923
_cell_length_c   7.84935971
_cell_angle_alpha   89.88857597
_cell_angle_beta   90.00000000
_cell_angle_gamma   90.00000000
_symmetry_Int_Tables_number   1
_chemical_formula_structural   Er4AlGa3Rh4
_chemical_formula_sum   'Er4 Al1 Ga3 Rh4'
_cell_volume   226.64950329
_cell_formula_units_Z   1
loop_
 _symmetry_equiv_pos_site_id
 _symmetry_equiv_pos_as_xyz
  1  'x, y, z'
loop_
 _atom_site_type_symbol
 _atom_site_label
 _atom_site_symmetry_multiplicity
 _atom_site_fract_x
 _atom_site_fract_y
 _atom_site_fract_z
 _atom_site_occupancy
  Er  Er0  1  0.250000  0.965982  0.314393  1
  Er  Er1  1  0.250000  0.469350  0.183506  1
  Er  Er2  1  0.750000  0.030858  0.687288  1
  Er  Er3  1  0.750000  0.532438  0.815906  1
  Al  Al4  1  0.250000  0.356699  0.563903  1
  Ga  Ga5  1  0.250000  0.852602  0.933719  1
  Ga  Ga6  1  0.750000  0.643954  0.434570  1
  Ga  Ga7  1  0.750000  0.148665  0.066319  1
  Rh  Rh8  1  0.250000  0.238198  0.881505  1
  Rh  Rh9  1  0.250000  0.734739  0.615944  1
  Rh  Rh10  1  0.750000  0.764383  0.115601  1
  Rh  Rh11  1  0.750000  0.262132  0.387348  1
