# generated using pymatgen
data_Mn4Zn2CuPd9
_symmetry_space_group_name_H-M   'P 1'
_cell_length_a   6.78589633
_cell_length_b   6.78589635
_cell_length_c   6.78589570
_cell_angle_alpha   106.02912712
_cell_angle_beta   105.81204301
_cell_angle_gamma   116.83299422
_symmetry_Int_Tables_number   1
_chemical_formula_structural   Mn4Zn2CuPd9
_chemical_formula_sum   'Mn4 Zn2 Cu1 Pd9'
_cell_volume   237.53144798
_cell_formula_units_Z   1
loop_
 _symmetry_equiv_pos_site_id
 _symmetry_equiv_pos_as_xyz
  1  'x, y, z'
loop_
 _atom_site_type_symbol
 _atom_site_label
 _atom_site_symmetry_multiplicity
 _atom_site_fract_x
 _atom_site_fract_y
 _atom_site_fract_z
 _atom_site_occupancy
  Mn  Mn0  1  0.235566  0.243273  0.478841  1
  Mn  Mn1  1  0.764434  0.756727  0.521159  1
  Mn  Mn2  1  0.235566  0.756727  0.992292  1
  Mn  Mn3  1  0.764434  0.243273  0.007708  1
  Zn  Zn4  1  0.500000  0.000000  0.500000  1
  Zn  Zn5  1  0.500000  0.500000  0.000000  1
  Cu  Cu6  1  0.000000  0.500000  0.500000  1
  Pd  Pd7  1  0.513398  0.261007  0.252391  1
  Pd  Pd8  1  0.486602  0.738993  0.747609  1
  Pd  Pd9  1  0.008616  0.261007  0.747609  1
  Pd  Pd10  1  0.265801  0.013255  0.747454  1
  Pd  Pd11  1  0.991384  0.738993  0.252391  1
  Pd  Pd12  1  0.734199  0.986745  0.252546  1
  Pd  Pd13  1  0.265801  0.518347  0.252546  1
  Pd  Pd14  1  0.734199  0.481653  0.747454  1
  Pd  Pd15  1  0.000000  0.000000  0.000000  1
