# generated using pymatgen
data_Pr3In3HgIr2
_symmetry_space_group_name_H-M   'P 1'
_cell_length_a   7.84422700
_cell_length_b   7.84422824
_cell_length_c   4.14883400
_cell_angle_alpha   90.00000000
_cell_angle_beta   90.00000000
_cell_angle_gamma   119.99999898
_symmetry_Int_Tables_number   1
_chemical_formula_structural   Pr3In3HgIr2
_chemical_formula_sum   'Pr3 In3 Hg1 Ir2'
_cell_volume   221.08387573
_cell_formula_units_Z   1
loop_
 _symmetry_equiv_pos_site_id
 _symmetry_equiv_pos_as_xyz
  1  'x, y, z'
loop_
 _atom_site_type_symbol
 _atom_site_label
 _atom_site_symmetry_multiplicity
 _atom_site_fract_x
 _atom_site_fract_y
 _atom_site_fract_z
 _atom_site_occupancy
  Pr  Pr0  1  0.389126  0.414867  0.500000  1
  Pr  Pr1  1  0.585133  0.974259  0.500000  1
  Pr  Pr2  1  0.025741  0.610874  0.500000  1
  In  In3  1  0.752498  0.757181  0.000000  1
  In  In4  1  0.242819  0.995317  0.000000  1
  In  In5  1  0.004683  0.247502  0.000000  1
  Hg  Hg6  1  0.666667  0.333333  0.000000  1
  Ir  Ir7  1  0.000000  0.000000  0.500000  1
  Ir  Ir8  1  0.333333  0.666667  0.000000  1
