# generated using pymatgen
data_La2Dy2CoI5
_symmetry_space_group_name_H-M   'P 1'
_cell_length_a   9.77390129
_cell_length_b   9.77390054
_cell_length_c   9.16271280
_cell_angle_alpha   76.55902966
_cell_angle_beta   76.55903089
_cell_angle_gamma   25.16644454
_symmetry_Int_Tables_number   1
_chemical_formula_structural   La2Dy2CoI5
_chemical_formula_sum   'La2 Dy2 Co1 I5'
_cell_volume   361.51255305
_cell_formula_units_Z   1
loop_
 _symmetry_equiv_pos_site_id
 _symmetry_equiv_pos_as_xyz
  1  'x, y, z'
loop_
 _atom_site_type_symbol
 _atom_site_label
 _atom_site_symmetry_multiplicity
 _atom_site_fract_x
 _atom_site_fract_y
 _atom_site_fract_z
 _atom_site_occupancy
  La  La0  1  0.866923  0.866923  0.068674  1
  La  La1  1  0.133077  0.133077  0.931326  1
  Dy  Dy2  1  0.500208  0.500208  0.210120  1
  Dy  Dy3  1  0.499792  0.499792  0.789880  1
  Co  Co4  1  0.000000  0.000000  0.000000  1
  I  I5  1  0.670077  0.670077  0.180826  1
  I  I6  1  0.329923  0.329923  0.819174  1
  I  I7  1  0.664684  0.664684  0.650934  1
  I  I8  1  0.335316  0.335316  0.349066  1
  I  I9  1  0.000000  0.000000  0.500000  1
