# generated using pymatgen
data_MnCr4Ag3O16
_symmetry_space_group_name_H-M   'P 1'
_cell_length_a   5.31806984
_cell_length_b   7.25204001
_cell_length_c   9.27270924
_cell_angle_alpha   90.59675647
_cell_angle_beta   91.02870185
_cell_angle_gamma   88.21219700
_symmetry_Int_Tables_number   1
_chemical_formula_structural   MnCr4Ag3O16
_chemical_formula_sum   'Mn1 Cr4 Ag3 O16'
_cell_volume   357.37016606
_cell_formula_units_Z   1
loop_
 _symmetry_equiv_pos_site_id
 _symmetry_equiv_pos_as_xyz
  1  'x, y, z'
loop_
 _atom_site_type_symbol
 _atom_site_label
 _atom_site_symmetry_multiplicity
 _atom_site_fract_x
 _atom_site_fract_y
 _atom_site_fract_z
 _atom_site_occupancy
  Mn  Mn0  1  0.500000  0.500000  0.500000  1
  Cr  Cr1  1  0.542343  0.748332  0.807394  1
  Cr  Cr2  1  0.043994  0.273682  0.683845  1
  Cr  Cr3  1  0.457657  0.251668  0.192606  1
  Cr  Cr4  1  0.956006  0.726318  0.316155  1
  Ag  Ag5  1  0.000000  0.000000  0.000000  1
  Ag  Ag6  1  0.500000  0.000000  0.500000  1
  Ag  Ag7  1  0.000000  0.500000  0.000000  1
  O  O8  1  0.217707  0.446810  0.626322  1
  O  O9  1  0.671836  0.559866  0.884507  1
  O  O10  1  0.845995  0.924268  0.376919  1
  O  O11  1  0.315970  0.061105  0.142091  1
  O  O12  1  0.782293  0.553190  0.373678  1
  O  O13  1  0.328164  0.440134  0.115493  1
  O  O14  1  0.154005  0.075732  0.623081  1
  O  O15  1  0.684030  0.938895  0.857909  1
  O  O16  1  0.248056  0.764302  0.854631  1
  O  O17  1  0.749694  0.307821  0.627114  1
  O  O18  1  0.751944  0.235698  0.145369  1
  O  O19  1  0.250306  0.692179  0.372886  1
  O  O20  1  0.565890  0.721710  0.620443  1
  O  O21  1  0.061441  0.261408  0.872186  1
  O  O22  1  0.434110  0.278290  0.379557  1
  O  O23  1  0.938559  0.738592  0.127814  1
