# generated using pymatgen
data_K4Al3Zn5Au12
_symmetry_space_group_name_H-M   'P 1'
_cell_length_a   5.64143204
_cell_length_b   7.13694930
_cell_length_c   13.35010689
_cell_angle_alpha   90.10628618
_cell_angle_beta   90.34820545
_cell_angle_gamma   89.96917572
_symmetry_Int_Tables_number   1
_chemical_formula_structural   K4Al3Zn5Au12
_chemical_formula_sum   'K4 Al3 Zn5 Au12'
_cell_volume   537.49928127
_cell_formula_units_Z   1
loop_
 _symmetry_equiv_pos_site_id
 _symmetry_equiv_pos_as_xyz
  1  'x, y, z'
loop_
 _atom_site_type_symbol
 _atom_site_label
 _atom_site_symmetry_multiplicity
 _atom_site_fract_x
 _atom_site_fract_y
 _atom_site_fract_z
 _atom_site_occupancy
  K  K0  1  0.251541  0.107673  0.077847  1
  K  K1  1  0.246749  0.390786  0.576726  1
  K  K2  1  0.752625  0.892497  0.922861  1
  K  K3  1  0.749538  0.608992  0.422873  1
  Al  Al4  1  0.496789  0.399208  0.844360  1
  Al  Al5  1  0.502908  0.898382  0.655408  1
  Al  Al6  1  0.996803  0.602399  0.154529  1
  Zn  Zn7  1  0.998737  0.893569  0.654809  1
  Zn  Zn8  1  0.502018  0.605253  0.153449  1
  Zn  Zn9  1  0.500108  0.104127  0.345157  1
  Zn  Zn10  1  0.001344  0.394609  0.844839  1
  Zn  Zn11  1  0.003664  0.103612  0.347700  1
  Au  Au12  1  0.259586  0.105899  0.790249  1
  Au  Au13  1  0.247924  0.395794  0.286832  1
  Au  Au14  1  0.757241  0.894492  0.208498  1
  Au  Au15  1  0.740819  0.606190  0.709904  1
  Au  Au16  1  0.255296  0.703115  0.790266  1
  Au  Au17  1  0.249836  0.796351  0.289649  1
  Au  Au18  1  0.754937  0.298540  0.210150  1
  Au  Au19  1  0.744090  0.202520  0.711459  1
  Au  Au20  1  0.238992  0.584842  0.993243  1
  Au  Au21  1  0.257812  0.913353  0.493930  1
  Au  Au22  1  0.740234  0.416030  0.005915  1
  Au  Au23  1  0.750408  0.081765  0.509348  1
