# generated using pymatgen
data_CeHo7(AlRu)8
_symmetry_space_group_name_H-M   'P 1'
_cell_length_a   4.07868600
_cell_length_b   7.00038194
_cell_length_c   15.91769183
_cell_angle_alpha   90.46673053
_cell_angle_beta   90.00000000
_cell_angle_gamma   90.00000000
_symmetry_Int_Tables_number   1
_chemical_formula_structural   CeHo7(AlRu)8
_chemical_formula_sum   'Ce1 Ho7 Al8 Ru8'
_cell_volume   454.47258558
_cell_formula_units_Z   1
loop_
 _symmetry_equiv_pos_site_id
 _symmetry_equiv_pos_as_xyz
  1  'x, y, z'
loop_
 _atom_site_type_symbol
 _atom_site_label
 _atom_site_symmetry_multiplicity
 _atom_site_fract_x
 _atom_site_fract_y
 _atom_site_fract_z
 _atom_site_occupancy
  Ce  Ce0  1  0.250000  0.537037  0.719091  1
  Ho  Ho1  1  0.750000  0.963715  0.219105  1
  Ho  Ho2  1  0.250000  0.160977  0.561092  1
  Ho  Ho3  1  0.750000  0.840487  0.436711  1
  Ho  Ho4  1  0.750000  0.463631  0.281284  1
  Ho  Ho5  1  0.750000  0.339791  0.064131  1
  Ho  Ho6  1  0.250000  0.659267  0.938030  1
  Ho  Ho7  1  0.250000  0.038274  0.781487  1
  Al  Al8  1  0.750000  0.504483  0.562290  1
  Al  Al9  1  0.750000  0.361105  0.852767  1
  Al  Al10  1  0.750000  0.997103  0.935095  1
  Al  Al11  1  0.750000  0.873527  0.649909  1
  Al  Al12  1  0.250000  0.500290  0.434065  1
  Al  Al13  1  0.250000  0.996263  0.066252  1
  Al  Al14  1  0.250000  0.633603  0.150877  1
  Al  Al15  1  0.250000  0.133453  0.349086  1
  Ru  Ru16  1  0.750000  0.737097  0.807858  1
  Ru  Ru17  1  0.250000  0.230569  0.937642  1
  Ru  Ru18  1  0.750000  0.264051  0.436163  1
  Ru  Ru19  1  0.250000  0.754562  0.312531  1
  Ru  Ru20  1  0.750000  0.762498  0.063711  1
  Ru  Ru21  1  0.750000  0.259090  0.686669  1
  Ru  Ru22  1  0.250000  0.252992  0.187355  1
  Ru  Ru23  1  0.250000  0.736135  0.566800  1
