# generated using pymatgen
data_DyYHoTaO7
_symmetry_space_group_name_H-M   'P 1'
_cell_length_a   6.50334053
_cell_length_b   6.50333956
_cell_length_c   7.46496400
_cell_angle_alpha   89.98004035
_cell_angle_beta   89.98004135
_cell_angle_gamma   108.43064491
_symmetry_Int_Tables_number   1
_chemical_formula_structural   DyYHoTaO7
_chemical_formula_sum   'Dy2 Y2 Ho2 Ta2 O14'
_cell_volume   299.52473630
_cell_formula_units_Z   2
loop_
 _symmetry_equiv_pos_site_id
 _symmetry_equiv_pos_as_xyz
  1  'x, y, z'
loop_
 _atom_site_type_symbol
 _atom_site_label
 _atom_site_symmetry_multiplicity
 _atom_site_fract_x
 _atom_site_fract_y
 _atom_site_fract_z
 _atom_site_occupancy
  Dy  Dy0  1  0.999941  0.464773  0.740904  1
  Dy  Dy1  1  0.535227  0.000059  0.759096  1
  Y  Y2  1  0.461166  0.460677  0.000441  1
  Y  Y3  1  0.539323  0.538834  0.499559  1
  Ho  Ho4  1  0.000295  0.535320  0.240688  1
  Ho  Ho5  1  0.464680  0.999705  0.259312  1
  Ta  Ta6  1  0.002354  0.002457  0.499358  1
  Ta  Ta7  1  0.997543  0.997646  0.000642  1
  O  O8  1  0.932001  0.067999  0.750000  1
  O  O9  1  0.640186  0.359814  0.750000  1
  O  O10  1  0.306656  0.048068  0.544412  1
  O  O11  1  0.951932  0.693344  0.955588  1
  O  O12  1  0.629598  0.370402  0.250000  1
  O  O13  1  0.918030  0.671786  0.523448  1
  O  O14  1  0.328214  0.081970  0.976552  1
  O  O15  1  0.081677  0.328045  0.025104  1
  O  O16  1  0.671955  0.918323  0.474896  1
  O  O17  1  0.370939  0.629061  0.750000  1
  O  O18  1  0.694381  0.954490  0.046715  1
  O  O19  1  0.045510  0.305619  0.453285  1
  O  O20  1  0.358709  0.641291  0.250000  1
  O  O21  1  0.069682  0.930318  0.250000  1
