# generated using pymatgen
data_Ac2Mn2S2O3
_symmetry_space_group_name_H-M   'P 1'
_cell_length_a   9.79737961
_cell_length_b   4.22698975
_cell_length_c   4.22699600
_cell_angle_alpha   89.99929701
_cell_angle_beta   102.45933537
_cell_angle_gamma   102.45870499
_symmetry_Int_Tables_number   1
_chemical_formula_structural   Ac2Mn2S2O3
_chemical_formula_sum   'Ac2 Mn2 S2 O3'
_cell_volume   166.70770428
_cell_formula_units_Z   1
loop_
 _symmetry_equiv_pos_site_id
 _symmetry_equiv_pos_as_xyz
  1  'x, y, z'
loop_
 _atom_site_type_symbol
 _atom_site_label
 _atom_site_symmetry_multiplicity
 _atom_site_fract_x
 _atom_site_fract_y
 _atom_site_fract_z
 _atom_site_occupancy
  Ac  Ac0  1  0.637102  0.318553  0.318577  1
  Ac  Ac1  1  0.362894  0.681448  0.681457  1
  Mn  Mn2  1  0.999990  0.499955  0.000067  1
  Mn  Mn3  1  0.000021  0.000053  0.499896  1
  S  S4  1  0.189016  0.094578  0.094591  1
  S  S5  1  0.810980  0.905417  0.905440  1
  O  O6  1  0.499999  0.750000  0.250017  1
  O  O7  1  0.999998  0.499990  0.499943  1
  O  O8  1  0.500000  0.250010  0.750018  1
