# generated using pymatgen
data_Tb9Tm(SnBi)4
_symmetry_space_group_name_H-M   'P 1'
_cell_length_a   8.18607900
_cell_length_b   8.21743500
_cell_length_c   15.69213200
_cell_angle_alpha   90.00000000
_cell_angle_beta   90.00000000
_cell_angle_gamma   90.00000000
_symmetry_Int_Tables_number   1
_chemical_formula_structural   Tb9Tm(SnBi)4
_chemical_formula_sum   'Tb18 Tm2 Sn8 Bi8'
_cell_volume   1055.58731265
_cell_formula_units_Z   2
loop_
 _symmetry_equiv_pos_site_id
 _symmetry_equiv_pos_as_xyz
  1  'x, y, z'
loop_
 _atom_site_type_symbol
 _atom_site_label
 _atom_site_symmetry_multiplicity
 _atom_site_fract_x
 _atom_site_fract_y
 _atom_site_fract_z
 _atom_site_occupancy
  Tb  Tb0  1  0.386668  0.838271  0.876474  1
  Tb  Tb1  1  0.886668  0.661729  0.623526  1
  Tb  Tb2  1  0.612965  0.162134  0.376911  1
  Tb  Tb3  1  0.112965  0.337866  0.123089  1
  Tb  Tb4  1  0.612965  0.162134  0.123089  1
  Tb  Tb5  1  0.112965  0.337866  0.376911  1
  Tb  Tb6  1  0.386668  0.838271  0.623526  1
  Tb  Tb7  1  0.886668  0.661729  0.876474  1
  Tb  Tb8  1  0.553416  0.327951  0.889738  1
  Tb  Tb9  1  0.053416  0.172049  0.610262  1
  Tb  Tb10  1  0.446960  0.672398  0.389866  1
  Tb  Tb11  1  0.946960  0.827602  0.110134  1
  Tb  Tb12  1  0.446960  0.672398  0.110134  1
  Tb  Tb13  1  0.946960  0.827602  0.389866  1
  Tb  Tb14  1  0.553416  0.327951  0.610262  1
  Tb  Tb15  1  0.053416  0.172049  0.889738  1
  Tb  Tb16  1  0.782391  0.501933  0.250000  1
  Tb  Tb17  1  0.282391  0.998067  0.250000  1
  Tm  Tm18  1  0.218419  0.498221  0.750000  1
  Tm  Tm19  1  0.718419  0.001779  0.750000  1
  Sn  Sn20  1  0.582245  0.626375  0.750000  1
  Sn  Sn21  1  0.082245  0.873625  0.750000  1
  Sn  Sn22  1  0.416518  0.374182  0.250000  1
  Sn  Sn23  1  0.916518  0.125818  0.250000  1
  Sn  Sn24  1  0.357455  0.144647  0.750000  1
  Sn  Sn25  1  0.857455  0.355353  0.750000  1
  Sn  Sn26  1  0.643782  0.856618  0.250000  1
  Sn  Sn27  1  0.143782  0.643382  0.250000  1
  Bi  Bi28  1  0.270526  0.020651  0.044217  1
  Bi  Bi29  1  0.770526  0.479349  0.455783  1
  Bi  Bi30  1  0.729060  0.979513  0.545511  1
  Bi  Bi31  1  0.229060  0.520487  0.954489  1
  Bi  Bi32  1  0.729060  0.979513  0.954489  1
  Bi  Bi33  1  0.229060  0.520487  0.545511  1
  Bi  Bi34  1  0.270526  0.020651  0.455783  1
  Bi  Bi35  1  0.770526  0.479349  0.044217  1
