# generated using pymatgen
data_Pu4B16IrRuW2
_symmetry_space_group_name_H-M   'P 1'
_cell_length_a   6.02179205
_cell_length_b   11.67260446
_cell_length_c   3.57545200
_cell_angle_alpha   90.00000000
_cell_angle_beta   90.00000000
_cell_angle_gamma   90.09085693
_symmetry_Int_Tables_number   1
_chemical_formula_structural   Pu4B16IrRuW2
_chemical_formula_sum   'Pu4 B16 Ir1 Ru1 W2'
_cell_volume   251.31819338
_cell_formula_units_Z   1
loop_
 _symmetry_equiv_pos_site_id
 _symmetry_equiv_pos_as_xyz
  1  'x, y, z'
loop_
 _atom_site_type_symbol
 _atom_site_label
 _atom_site_symmetry_multiplicity
 _atom_site_fract_x
 _atom_site_fract_y
 _atom_site_fract_z
 _atom_site_occupancy
  Pu  Pu0  1  0.628634  0.352545  0.000000  1
  Pu  Pu1  1  0.372837  0.648217  0.000000  1
  Pu  Pu2  1  0.125720  0.150939  0.000000  1
  Pu  Pu3  1  0.873623  0.847477  0.000000  1
  B  B4  1  0.788970  0.189251  0.500000  1
  B  B5  1  0.211131  0.810790  0.500000  1
  B  B6  1  0.286660  0.314032  0.500000  1
  B  B7  1  0.714605  0.685225  0.500000  1
  B  B8  1  0.867393  0.032260  0.500000  1
  B  B9  1  0.132645  0.967552  0.500000  1
  B  B10  1  0.365144  0.469383  0.500000  1
  B  B11  1  0.634892  0.531943  0.500000  1
  B  B12  1  0.884579  0.454351  0.500000  1
  B  B13  1  0.112861  0.547747  0.500000  1
  B  B14  1  0.383755  0.046923  0.500000  1
  B  B15  1  0.616362  0.952970  0.500000  1
  B  B16  1  0.972890  0.309028  0.500000  1
  B  B17  1  0.025056  0.691070  0.500000  1
  B  B18  1  0.472702  0.193836  0.500000  1
  B  B19  1  0.527190  0.806143  0.500000  1
  Ir  Ir20  1  0.140182  0.407088  0.000000  1
  Ru  Ru21  1  0.862144  0.591116  0.000000  1
  W  W22  1  0.630928  0.088320  0.000000  1
  W  W23  1  0.369096  0.911793  0.000000  1
