# generated using pymatgen
data_ErPu4Mo2C7
_symmetry_space_group_name_H-M   'P 1'
_cell_length_a   8.44624583
_cell_length_b   8.44624521
_cell_length_c   3.41476200
_cell_angle_alpha   90.00000000
_cell_angle_beta   90.00000000
_cell_angle_gamma   124.60905939
_symmetry_Int_Tables_number   1
_chemical_formula_structural   ErPu4Mo2C7
_chemical_formula_sum   'Er1 Pu4 Mo2 C7'
_cell_volume   200.49901998
_cell_formula_units_Z   1
loop_
 _symmetry_equiv_pos_site_id
 _symmetry_equiv_pos_as_xyz
  1  'x, y, z'
loop_
 _atom_site_type_symbol
 _atom_site_label
 _atom_site_symmetry_multiplicity
 _atom_site_fract_x
 _atom_site_fract_y
 _atom_site_fract_z
 _atom_site_occupancy
  Er  Er0  1  0.500000  0.500000  0.000000  1
  Pu  Pu1  1  0.060346  0.320164  0.500000  1
  Pu  Pu2  1  0.939654  0.679836  0.500000  1
  Pu  Pu3  1  0.679836  0.939654  0.500000  1
  Pu  Pu4  1  0.320164  0.060346  0.500000  1
  Mo  Mo5  1  0.710389  0.289611  0.000000  1
  Mo  Mo6  1  0.289611  0.710389  0.000000  1
  C  C7  1  0.622854  0.377146  0.500000  1
  C  C8  1  0.377146  0.622854  0.500000  1
  C  C9  1  0.000000  0.000000  0.000000  1
  C  C10  1  0.173798  0.173798  0.000000  1
  C  C11  1  0.826202  0.826202  0.000000  1
  C  C12  1  0.000000  0.500000  0.000000  1
  C  C13  1  0.500000  0.000000  0.000000  1
