# generated using pymatgen
data_ZrPa5(AlIr)6
_symmetry_space_group_name_H-M   'P 1'
_cell_length_a   7.04096405
_cell_length_b   7.04013970
_cell_length_c   8.03167000
_cell_angle_alpha   90.00000000
_cell_angle_beta   90.00000000
_cell_angle_gamma   120.00635248
_symmetry_Int_Tables_number   1
_chemical_formula_structural   ZrPa5(AlIr)6
_chemical_formula_sum   'Zr1 Pa5 Al6 Ir6'
_cell_volume   344.76414104
_cell_formula_units_Z   1
loop_
 _symmetry_equiv_pos_site_id
 _symmetry_equiv_pos_as_xyz
  1  'x, y, z'
loop_
 _atom_site_type_symbol
 _atom_site_label
 _atom_site_symmetry_multiplicity
 _atom_site_fract_x
 _atom_site_fract_y
 _atom_site_fract_z
 _atom_site_occupancy
  Zr  Zr0  1  0.403503  0.403604  0.250000  1
  Pa  Pa1  1  0.004337  0.585629  0.750000  1
  Pa  Pa2  1  0.994960  0.576745  0.250000  1
  Pa  Pa3  1  0.576895  0.995355  0.250000  1
  Pa  Pa4  1  0.585526  0.004105  0.750000  1
  Pa  Pa5  1  0.421694  0.421861  0.750000  1
  Al  Al6  1  0.005423  0.238572  0.498619  1
  Al  Al7  1  0.756953  0.757028  0.006128  1
  Al  Al8  1  0.005423  0.238572  0.001381  1
  Al  Al9  1  0.238898  0.005567  0.498550  1
  Al  Al10  1  0.238898  0.005567  0.001450  1
  Al  Al11  1  0.756953  0.757028  0.493872  1
  Ir  Ir12  1  0.333577  0.671878  0.497781  1
  Ir  Ir13  1  0.671939  0.333716  0.498130  1
  Ir  Ir14  1  0.671939  0.333716  0.001870  1
  Ir  Ir15  1  0.999763  0.999667  0.250000  1
  Ir  Ir16  1  0.999745  0.999512  0.750000  1
  Ir  Ir17  1  0.333577  0.671878  0.002219  1
