# generated using pymatgen
data_Er2Ni9P7Ir3
_symmetry_space_group_name_H-M   'P 1'
_cell_length_a   9.15942500
_cell_length_b   9.15942535
_cell_length_c   3.81342400
_cell_angle_alpha   90.00000000
_cell_angle_beta   90.00000000
_cell_angle_gamma   119.99999417
_symmetry_Int_Tables_number   1
_chemical_formula_structural   Er2Ni9P7Ir3
_chemical_formula_sum   'Er2 Ni9 P7 Ir3'
_cell_volume   277.06533399
_cell_formula_units_Z   1
loop_
 _symmetry_equiv_pos_site_id
 _symmetry_equiv_pos_as_xyz
  1  'x, y, z'
loop_
 _atom_site_type_symbol
 _atom_site_label
 _atom_site_symmetry_multiplicity
 _atom_site_fract_x
 _atom_site_fract_y
 _atom_site_fract_z
 _atom_site_occupancy
  Er  Er0  1  0.000000  0.000000  0.000000  1
  Er  Er1  1  0.333333  0.666667  0.500000  1
  Ni  Ni2  1  0.099378  0.396259  0.000000  1
  Ni  Ni3  1  0.296881  0.900622  0.000000  1
  Ni  Ni4  1  0.603741  0.703119  0.000000  1
  Ni  Ni5  1  0.821320  0.606451  0.000000  1
  Ni  Ni6  1  0.785131  0.178680  0.000000  1
  Ni  Ni7  1  0.393549  0.214869  0.000000  1
  Ni  Ni8  1  0.861680  0.407805  0.500000  1
  Ni  Ni9  1  0.546125  0.138320  0.500000  1
  Ni  Ni10  1  0.592195  0.453875  0.500000  1
  P  P11  1  0.079699  0.626353  0.000000  1
  P  P12  1  0.546654  0.920301  0.000000  1
  P  P13  1  0.373647  0.453346  0.000000  1
  P  P14  1  0.774609  0.732104  0.500000  1
  P  P15  1  0.957495  0.225391  0.500000  1
  P  P16  1  0.267896  0.042505  0.500000  1
  P  P17  1  0.666667  0.333333  0.000000  1
  Ir  Ir18  1  0.050516  0.762072  0.500000  1
  Ir  Ir19  1  0.711556  0.949484  0.500000  1
  Ir  Ir20  1  0.237928  0.288444  0.500000  1
