# generated using pymatgen
data_TmLu9(InSb2)2
_symmetry_space_group_name_H-M   'P 1'
_cell_length_a   8.78274358
_cell_length_b   8.81414025
_cell_length_c   6.31011100
_cell_angle_alpha   90.00000000
_cell_angle_beta   90.00000000
_cell_angle_gamma   119.95104138
_symmetry_Int_Tables_number   1
_chemical_formula_structural   TmLu9(InSb2)2
_chemical_formula_sum   'Tm1 Lu9 In2 Sb4'
_cell_volume   423.24499746
_cell_formula_units_Z   1
loop_
 _symmetry_equiv_pos_site_id
 _symmetry_equiv_pos_as_xyz
  1  'x, y, z'
loop_
 _atom_site_type_symbol
 _atom_site_label
 _atom_site_symmetry_multiplicity
 _atom_site_fract_x
 _atom_site_fract_y
 _atom_site_fract_z
 _atom_site_occupancy
  Tm  Tm0  1  0.007021  0.762787  0.750000  1
  Lu  Lu1  1  0.335003  0.670117  0.000283  1
  Lu  Lu2  1  0.665042  0.330004  0.500298  1
  Lu  Lu3  1  0.665042  0.330004  0.999702  1
  Lu  Lu4  1  0.335003  0.670117  0.499717  1
  Lu  Lu5  1  0.236300  0.000065  0.250000  1
  Lu  Lu6  1  0.763861  0.000049  0.750000  1
  Lu  Lu7  1  0.992710  0.236465  0.250000  1
  Lu  Lu8  1  0.756028  0.763497  0.250000  1
  Lu  Lu9  1  0.243977  0.236627  0.750000  1
  In  In10  1  0.600219  0.999581  0.250000  1
  In  In11  1  0.400440  0.000970  0.750000  1
  Sb  Sb12  1  0.997225  0.608159  0.250000  1
  Sb  Sb13  1  0.389829  0.392881  0.250000  1
  Sb  Sb14  1  0.609429  0.606954  0.750000  1
  Sb  Sb15  1  0.002871  0.391721  0.750000  1
