# generated using pymatgen
data_Ta4Fe(RhS6)2
_symmetry_space_group_name_H-M   'P 1'
_cell_length_a   7.09310428
_cell_length_b   7.09310308
_cell_length_c   18.82906862
_cell_angle_alpha   68.08701337
_cell_angle_beta   68.08701735
_cell_angle_gamma   27.73739937
_symmetry_Int_Tables_number   1
_chemical_formula_structural   Ta4Fe(RhS6)2
_chemical_formula_sum   'Ta4 Fe1 Rh2 S12'
_cell_volume   407.02925995
_cell_formula_units_Z   1
loop_
 _symmetry_equiv_pos_site_id
 _symmetry_equiv_pos_as_xyz
  1  'x, y, z'
loop_
 _atom_site_type_symbol
 _atom_site_label
 _atom_site_symmetry_multiplicity
 _atom_site_fract_x
 _atom_site_fract_y
 _atom_site_fract_z
 _atom_site_occupancy
  Ta  Ta0  1  0.621472  0.621472  0.854779  1
  Ta  Ta1  1  0.378528  0.378528  0.145221  1
  Ta  Ta2  1  0.745525  0.745525  0.592477  1
  Ta  Ta3  1  0.254475  0.254475  0.407523  1
  Fe  Fe4  1  0.000000  0.000000  0.000000  1
  Rh  Rh5  1  0.231176  0.231176  0.719597  1
  Rh  Rh6  1  0.768824  0.768824  0.280403  1
  S  S7  1  0.978010  0.978010  0.887397  1
  S  S8  1  0.021990  0.021990  0.112603  1
  S  S9  1  0.628149  0.628149  0.406226  1
  S  S10  1  0.371851  0.371851  0.593774  1
  S  S11  1  0.143449  0.143449  0.553669  1
  S  S12  1  0.856551  0.856551  0.446331  1
  S  S13  1  0.805513  0.805513  0.769079  1
  S  S14  1  0.194487  0.194487  0.230921  1
  S  S15  1  0.174869  0.174869  0.930234  1
  S  S16  1  0.825131  0.825131  0.069766  1
  S  S17  1  0.607255  0.607255  0.722035  1
  S  S18  1  0.392745  0.392745  0.277965  1
