# generated using pymatgen
data_Sr12Y3Tm5(GeO4)12
_symmetry_space_group_name_H-M   'P 1'
_cell_length_a   11.42992364
_cell_length_b   11.43681659
_cell_length_c   11.43616370
_cell_angle_alpha   109.50455208
_cell_angle_beta   109.48280451
_cell_angle_gamma   109.48563086
_symmetry_Int_Tables_number   1
_chemical_formula_structural   Sr12Y3Tm5(GeO4)12
_chemical_formula_sum   'Sr12 Y3 Tm5 Ge12 O48'
_cell_volume   1149.97543869
_cell_formula_units_Z   1
loop_
 _symmetry_equiv_pos_site_id
 _symmetry_equiv_pos_as_xyz
  1  'x, y, z'
loop_
 _atom_site_type_symbol
 _atom_site_label
 _atom_site_symmetry_multiplicity
 _atom_site_fract_x
 _atom_site_fract_y
 _atom_site_fract_z
 _atom_site_occupancy
  Sr  Sr0  1  0.749905  0.125071  0.375065  1
  Sr  Sr1  1  0.249154  0.375087  0.124453  1
  Sr  Sr2  1  0.124217  0.250010  0.375571  1
  Sr  Sr3  1  0.374698  0.750618  0.125550  1
  Sr  Sr4  1  0.750846  0.624913  0.875547  1
  Sr  Sr5  1  0.124095  0.374915  0.749381  1
  Sr  Sr6  1  0.624535  0.875694  0.750009  1
  Sr  Sr7  1  0.250095  0.874929  0.624935  1
  Sr  Sr8  1  0.875905  0.625085  0.250619  1
  Sr  Sr9  1  0.625302  0.249382  0.874450  1
  Sr  Sr10  1  0.875783  0.749990  0.624429  1
  Sr  Sr11  1  0.375465  0.124306  0.249991  1
  Y  Y12  1  0.000000  0.000000  0.000000  1
  Y  Y13  1  0.500000  0.500000  0.000000  1
  Y  Y14  1  0.500000  0.500000  0.500000  1
  Tm  Tm15  1  0.500000  0.000000  0.000000  1
  Tm  Tm16  1  0.000000  0.500000  0.000000  1
  Tm  Tm17  1  0.000000  0.500000  0.500000  1
  Tm  Tm18  1  0.500000  0.000000  0.500000  1
  Tm  Tm19  1  0.000000  0.000000  0.500000  1
  Ge  Ge20  1  0.125543  0.874696  0.251018  1
  Ge  Ge21  1  0.874457  0.125304  0.748982  1
  Ge  Ge22  1  0.248909  0.625307  0.374364  1
  Ge  Ge23  1  0.374083  0.247926  0.623841  1
  Ge  Ge24  1  0.749968  0.875787  0.125744  1
  Ge  Ge25  1  0.125237  0.748809  0.874349  1
  Ge  Ge26  1  0.374102  0.626079  0.750180  1
  Ge  Ge27  1  0.625917  0.752074  0.376159  1
  Ge  Ge28  1  0.874763  0.251191  0.125651  1
  Ge  Ge29  1  0.250032  0.124213  0.874256  1
  Ge  Ge30  1  0.751091  0.374693  0.625636  1
  Ge  Ge31  1  0.625898  0.373921  0.249820  1
  O  O32  1  0.410665  0.805025  0.792298  1
  O  O33  1  0.881415  0.393487  0.088743  1
  O  O34  1  0.106787  0.987579  0.695282  1
  O  O35  1  0.511872  0.620242  0.710426  1
  O  O36  1  0.695558  0.089236  0.707135  1
  O  O37  1  0.620708  0.711086  0.513344  1
  O  O38  1  0.620681  0.409424  0.107287  1
  O  O39  1  0.710449  0.511983  0.620090  1
  O  O40  1  0.804370  0.511467  0.393424  1
  O  O41  1  0.987826  0.789495  0.879765  1
  O  O42  1  0.789505  0.880438  0.987619  1
  O  O43  1  0.710753  0.698200  0.091045  1
  O  O44  1  0.410582  0.105562  0.618188  1
  O  O45  1  0.392561  0.803980  0.510970  1
  O  O46  1  0.089410  0.706978  0.695699  1
  O  O47  1  0.106462  0.618871  0.411225  1
  O  O48  1  0.512219  0.391681  0.801471  1
  O  O49  1  0.088865  0.881274  0.393494  1
  O  O50  1  0.989072  0.695885  0.107521  1
  O  O51  1  0.195630  0.488533  0.606576  1
  O  O52  1  0.696010  0.107519  0.988932  1
  O  O53  1  0.793176  0.410793  0.804421  1
  O  O54  1  0.393249  0.088683  0.881117  1
  O  O55  1  0.880092  0.988129  0.789655  1
  O  O56  1  0.589335  0.194975  0.207702  1
  O  O57  1  0.118585  0.606513  0.911257  1
  O  O58  1  0.893213  0.012421  0.304718  1
  O  O59  1  0.488128  0.379758  0.289574  1
  O  O60  1  0.304442  0.910764  0.292865  1
  O  O61  1  0.379292  0.288914  0.486656  1
  O  O62  1  0.379319  0.590576  0.892713  1
  O  O63  1  0.289551  0.488017  0.379910  1
  O  O64  1  0.119908  0.011871  0.210345  1
  O  O65  1  0.606751  0.911317  0.118883  1
  O  O66  1  0.206824  0.589207  0.195579  1
  O  O67  1  0.195781  0.207052  0.589153  1
  O  O68  1  0.303990  0.892481  0.011068  1
  O  O69  1  0.010928  0.304115  0.892479  1
  O  O70  1  0.911135  0.118726  0.606506  1
  O  O71  1  0.487781  0.608319  0.198529  1
  O  O72  1  0.893538  0.381129  0.588775  1
  O  O73  1  0.910590  0.293022  0.304301  1
  O  O74  1  0.607439  0.196020  0.489030  1
  O  O75  1  0.589418  0.894438  0.381812  1
  O  O76  1  0.289247  0.301800  0.908955  1
  O  O77  1  0.210495  0.119562  0.012381  1
  O  O78  1  0.012174  0.210505  0.120235  1
  O  O79  1  0.804219  0.792948  0.410847  1
