# generated using pymatgen
data_Zr6Zn21Ni2C
_symmetry_space_group_name_H-M   'P 1'
_cell_length_a   8.64690211
_cell_length_b   8.66130676
_cell_length_c   8.64690098
_cell_angle_alpha   59.94403507
_cell_angle_beta   59.70363357
_cell_angle_gamma   59.94407234
_symmetry_Int_Tables_number   1
_chemical_formula_structural   Zr6Zn21Ni2C
_chemical_formula_sum   'Zr6 Zn21 Ni2 C1'
_cell_volume   456.50037846
_cell_formula_units_Z   1
loop_
 _symmetry_equiv_pos_site_id
 _symmetry_equiv_pos_as_xyz
  1  'x, y, z'
loop_
 _atom_site_type_symbol
 _atom_site_label
 _atom_site_symmetry_multiplicity
 _atom_site_fract_x
 _atom_site_fract_y
 _atom_site_fract_z
 _atom_site_occupancy
  Zr  Zr0  1  0.688633  0.307594  0.311367  1
  Zr  Zr1  1  0.311367  0.692406  0.688633  1
  Zr  Zr2  1  0.310608  0.689396  0.310608  1
  Zr  Zr3  1  0.689392  0.310604  0.689392  1
  Zr  Zr4  1  0.311367  0.307594  0.688633  1
  Zr  Zr5  1  0.688633  0.692406  0.311367  1
  Zn  Zn6  1  0.117618  0.114187  0.117618  1
  Zn  Zn7  1  0.882382  0.885813  0.882382  1
  Zn  Zn8  1  0.126835  0.112744  0.647664  1
  Zn  Zn9  1  0.117620  0.650592  0.117620  1
  Zn  Zn10  1  0.873165  0.887256  0.352336  1
  Zn  Zn11  1  0.882380  0.349408  0.882380  1
  Zn  Zn12  1  0.647664  0.112744  0.126835  1
  Zn  Zn13  1  0.352336  0.887256  0.873165  1
  Zn  Zn14  1  0.500000  0.000000  0.000000  1
  Zn  Zn15  1  0.000000  0.500000  0.500000  1
  Zn  Zn16  1  0.000000  0.500000  0.000000  1
  Zn  Zn17  1  0.000000  0.000000  0.500000  1
  Zn  Zn18  1  0.500000  0.500000  0.000000  1
  Zn  Zn19  1  0.334529  0.323078  0.334530  1
  Zn  Zn20  1  0.665471  0.676922  0.665470  1
  Zn  Zn21  1  0.330267  0.331041  0.007655  1
  Zn  Zn22  1  0.334529  0.007868  0.334529  1
  Zn  Zn23  1  0.669733  0.668959  0.992345  1
  Zn  Zn24  1  0.665471  0.992132  0.665471  1
  Zn  Zn25  1  0.007655  0.331041  0.330267  1
  Zn  Zn26  1  0.992345  0.668959  0.669733  1
  Ni  Ni27  1  0.500000  0.000000  0.500000  1
  Ni  Ni28  1  0.000000  0.000000  0.000000  1
  C  C29  1  0.500000  0.500000  0.500000  1
