# generated using pymatgen
data_SrYIr2O7
_symmetry_space_group_name_H-M   'P 1'
_cell_length_a   7.36257748
_cell_length_b   7.33950932
_cell_length_c   7.36257706
_cell_angle_alpha   60.10358763
_cell_angle_beta   59.81665631
_cell_angle_gamma   60.10358860
_symmetry_Int_Tables_number   1
_chemical_formula_structural   SrYIr2O7
_chemical_formula_sum   'Sr2 Y2 Ir4 O14'
_cell_volume   281.37319778
_cell_formula_units_Z   2
loop_
 _symmetry_equiv_pos_site_id
 _symmetry_equiv_pos_as_xyz
  1  'x, y, z'
loop_
 _atom_site_type_symbol
 _atom_site_label
 _atom_site_symmetry_multiplicity
 _atom_site_fract_x
 _atom_site_fract_y
 _atom_site_fract_z
 _atom_site_occupancy
  Sr  Sr0  1  0.125000  0.625000  0.125000  1
  Sr  Sr1  1  0.125000  0.125000  0.125000  1
  Y  Y2  1  0.625000  0.125000  0.125000  1
  Y  Y3  1  0.125000  0.125000  0.625000  1
  Ir  Ir4  1  0.125000  0.625000  0.625000  1
  Ir  Ir5  1  0.625000  0.125000  0.625000  1
  Ir  Ir6  1  0.625000  0.625000  0.125000  1
  Ir  Ir7  1  0.625000  0.625000  0.625000  1
  O  O8  1  0.689999  0.715138  0.299035  1
  O  O9  1  0.299035  0.295828  0.689999  1
  O  O10  1  0.702562  0.297438  0.702562  1
  O  O11  1  0.301747  0.698253  0.301747  1
  O  O12  1  0.299035  0.715138  0.689999  1
  O  O13  1  0.689999  0.295828  0.299035  1
  O  O14  1  0.560001  0.534862  0.950965  1
  O  O15  1  0.950965  0.954172  0.560001  1
  O  O16  1  0.547438  0.952562  0.547438  1
  O  O17  1  0.948253  0.551747  0.948253  1
  O  O18  1  0.950965  0.534862  0.560001  1
  O  O19  1  0.560001  0.954172  0.950965  1
  O  O20  1  0.266385  0.233615  0.266385  1
  O  O21  1  0.983615  0.016385  0.983615  1
