# generated using pymatgen
data_Rb3Tc2(P3Rh2)2
_symmetry_space_group_name_H-M   'P 1'
_cell_length_a   9.35026658
_cell_length_b   9.34979054
_cell_length_c   9.34979024
_cell_angle_alpha   155.00545091
_cell_angle_beta   85.39831024
_cell_angle_gamma   100.01323442
_symmetry_Int_Tables_number   1
_chemical_formula_structural   Rb3Tc2(P3Rh2)2
_chemical_formula_sum   'Rb3 Tc2 P6 Rh4'
_cell_volume   334.18102378
_cell_formula_units_Z   1
loop_
 _symmetry_equiv_pos_site_id
 _symmetry_equiv_pos_as_xyz
  1  'x, y, z'
loop_
 _atom_site_type_symbol
 _atom_site_label
 _atom_site_symmetry_multiplicity
 _atom_site_fract_x
 _atom_site_fract_y
 _atom_site_fract_z
 _atom_site_occupancy
  Rb  Rb0  1  0.332182  0.330969  0.001213  1
  Rb  Rb1  1  0.667955  0.666742  0.001213  1
  Rb  Rb2  1  0.003366  0.002263  0.001103  1
  Tc  Tc3  1  0.587819  0.835253  0.752566  1
  Tc  Tc4  1  0.250706  0.498086  0.752619  1
  P  P5  1  0.329550  0.666640  0.662909  1
  P  P6  1  0.673047  0.333360  0.339687  1
  P  P7  1  0.998290  0.337752  0.660537  1
  P  P8  1  0.339654  0.999938  0.339716  1
  P  P9  1  0.001237  0.666665  0.334573  1
  P  P10  1  0.656118  0.995641  0.660479  1
  Rh  Rh11  1  0.750249  0.503547  0.246701  1
  Rh  Rh12  1  0.076523  0.829808  0.246715  1
  Rh  Rh13  1  0.416538  0.166665  0.249873  1
  Rh  Rh14  1  0.916765  0.166669  0.750097  1
