# generated using pymatgen
data_Tm8TaTc11Ge16
_symmetry_space_group_name_H-M   'P 1'
_cell_length_a   6.92917327
_cell_length_b   6.93139059
_cell_length_c   12.88718100
_cell_angle_alpha   90.28568692
_cell_angle_beta   89.88786706
_cell_angle_gamma   89.77771237
_symmetry_Int_Tables_number   1
_chemical_formula_structural   Tm8TaTc11Ge16
_chemical_formula_sum   'Tm8 Ta1 Tc11 Ge16'
_cell_volume   618.94236022
_cell_formula_units_Z   1
loop_
 _symmetry_equiv_pos_site_id
 _symmetry_equiv_pos_as_xyz
  1  'x, y, z'
loop_
 _atom_site_type_symbol
 _atom_site_label
 _atom_site_symmetry_multiplicity
 _atom_site_fract_x
 _atom_site_fract_y
 _atom_site_fract_z
 _atom_site_occupancy
  Tm  Tm0  1  0.012999  0.660607  0.031004  1
  Tm  Tm1  1  0.995822  0.339222  0.525067  1
  Tm  Tm2  1  0.665270  0.005820  0.973914  1
  Tm  Tm3  1  0.160742  0.496412  0.776350  1
  Tm  Tm4  1  0.845603  0.507400  0.278679  1
  Tm  Tm5  1  0.496042  0.157958  0.224649  1
  Tm  Tm6  1  0.509060  0.835347  0.718942  1
  Tm  Tm7  1  0.342743  0.990884  0.470405  1
  Ta  Ta8  1  0.673556  0.493019  0.873221  1
  Tc  Tc9  1  0.303524  0.470731  0.383621  1
  Tc  Tc10  1  0.807289  0.023667  0.370710  1
  Tc  Tc11  1  0.989072  0.182486  0.128120  1
  Tc  Tc12  1  0.019514  0.813871  0.629621  1
  Tc  Tc13  1  0.473193  0.319624  0.624914  1
  Tc  Tc14  1  0.176479  0.988606  0.875423  1
  Tc  Tc15  1  0.665358  0.665840  0.497921  1
  Tc  Tc16  1  0.834013  0.171163  0.751902  1
  Tc  Tc17  1  0.166118  0.832806  0.250643  1
  Tc  Tc18  1  0.343290  0.339695  0.998758  1
  Tc  Tc19  1  0.529949  0.696513  0.116241  1
  Ge  Ge20  1  0.015961  0.730241  0.435404  1
  Ge  Ge21  1  0.984831  0.282474  0.936328  1
  Ge  Ge22  1  0.724766  0.023035  0.565364  1
  Ge  Ge23  1  0.238461  0.482944  0.186341  1
  Ge  Ge24  1  0.777272  0.523929  0.676280  1
  Ge  Ge25  1  0.462157  0.203881  0.815479  1
  Ge  Ge26  1  0.515811  0.763779  0.312963  1
  Ge  Ge27  1  0.282459  0.982565  0.066334  1
  Ge  Ge28  1  0.814185  0.887337  0.183275  1
  Ge  Ge29  1  0.308129  0.617497  0.568022  1
  Ge  Ge30  1  0.695228  0.386901  0.072960  1
  Ge  Ge31  1  0.612185  0.313772  0.432477  1
  Ge  Ge32  1  0.380507  0.699019  0.929502  1
  Ge  Ge33  1  0.111691  0.185623  0.318156  1
  Ge  Ge34  1  0.184897  0.114209  0.682407  1
  Ge  Ge35  1  0.881825  0.811124  0.818601  1
