# generated using pymatgen
data_BeReBW2
_symmetry_space_group_name_H-M   'P 1'
_cell_length_a   3.11386900
_cell_length_b   7.68227200
_cell_length_c   9.88790400
_cell_angle_alpha   90.00000000
_cell_angle_beta   90.00000000
_cell_angle_gamma   90.00000000
_symmetry_Int_Tables_number   1
_chemical_formula_structural   BeReBW2
_chemical_formula_sum   'Be4 Re4 B4 W8'
_cell_volume   236.53437190
_cell_formula_units_Z   4
loop_
 _symmetry_equiv_pos_site_id
 _symmetry_equiv_pos_as_xyz
  1  'x, y, z'
loop_
 _atom_site_type_symbol
 _atom_site_label
 _atom_site_symmetry_multiplicity
 _atom_site_fract_x
 _atom_site_fract_y
 _atom_site_fract_z
 _atom_site_occupancy
  Be  Be0  1  0.500000  0.121501  0.461408  1
  Be  Be1  1  0.500000  0.878499  0.538592  1
  Be  Be2  1  0.000000  0.378499  0.961408  1
  Be  Be3  1  0.000000  0.621501  0.038592  1
  Re  Re4  1  0.500000  0.621613  0.397176  1
  Re  Re5  1  0.500000  0.378387  0.602824  1
  Re  Re6  1  0.000000  0.878387  0.897176  1
  Re  Re7  1  0.000000  0.121613  0.102824  1
  B  B8  1  0.500000  0.124451  0.263457  1
  B  B9  1  0.500000  0.875549  0.736543  1
  B  B10  1  0.000000  0.375549  0.763457  1
  B  B11  1  0.000000  0.624451  0.236543  1
  W  W12  1  0.500000  0.818230  0.135394  1
  W  W13  1  0.500000  0.181770  0.864606  1
  W  W14  1  0.000000  0.681770  0.635394  1
  W  W15  1  0.000000  0.318230  0.364606  1
  W  W16  1  0.500000  0.580387  0.855460  1
  W  W17  1  0.500000  0.419613  0.144540  1
  W  W18  1  0.000000  0.919613  0.355460  1
  W  W19  1  0.000000  0.080387  0.644540  1
