# generated using pymatgen
data_Tb12Tm4MgCo4Ag3
_symmetry_space_group_name_H-M   'P 1'
_cell_length_a   9.42725665
_cell_length_b   9.44838979
_cell_length_c   9.42306700
_cell_angle_alpha   60.08862152
_cell_angle_beta   60.01470367
_cell_angle_gamma   59.92435621
_symmetry_Int_Tables_number   1
_chemical_formula_structural   Tb12Tm4MgCo4Ag3
_chemical_formula_sum   'Tb12 Tm4 Mg1 Co4 Ag3'
_cell_volume   593.62128388
_cell_formula_units_Z   1
loop_
 _symmetry_equiv_pos_site_id
 _symmetry_equiv_pos_as_xyz
  1  'x, y, z'
loop_
 _atom_site_type_symbol
 _atom_site_label
 _atom_site_symmetry_multiplicity
 _atom_site_fract_x
 _atom_site_fract_y
 _atom_site_fract_z
 _atom_site_occupancy
  Tb  Tb0  1  0.183493  0.185036  0.815736  1
  Tb  Tb1  1  0.811741  0.813721  0.187269  1
  Tb  Tb2  1  0.936390  0.561883  0.562263  1
  Tb  Tb3  1  0.561580  0.938235  0.938359  1
  Tb  Tb4  1  0.561581  0.938235  0.561826  1
  Tb  Tb5  1  0.936390  0.561883  0.939463  1
  Tb  Tb6  1  0.561508  0.561954  0.938270  1
  Tb  Tb7  1  0.936789  0.938486  0.562362  1
  Tb  Tb8  1  0.347330  0.346601  0.344693  1
  Tb  Tb9  1  0.347330  0.346601  0.961376  1
  Tb  Tb10  1  0.346024  0.961160  0.346408  1
  Tb  Tb11  1  0.949413  0.349596  0.350495  1
  Tm  Tm12  1  0.810579  0.187796  0.188308  1
  Tm  Tm13  1  0.184486  0.814563  0.814984  1
  Tm  Tm14  1  0.184486  0.814563  0.185968  1
  Tm  Tm15  1  0.810579  0.187796  0.813318  1
  Mg  Mg16  1  0.288388  0.571238  0.570187  1
  Co  Co17  1  0.138802  0.141684  0.141139  1
  Co  Co18  1  0.138802  0.141684  0.578375  1
  Co  Co19  1  0.139697  0.578107  0.141099  1
  Co  Co20  1  0.577504  0.141776  0.140360  1
  Ag  Ag21  1  0.582194  0.582610  0.583209  1
  Ag  Ag22  1  0.582194  0.582610  0.251988  1
  Ag  Ag23  1  0.582720  0.252179  0.582551  1
