# generated using pymatgen
data_Tm6Ti4Al12Ir7
_symmetry_space_group_name_H-M   'P 1'
_cell_length_a   8.93160540
_cell_length_b   8.93160603
_cell_length_c   8.93160600
_cell_angle_alpha   60.00000012
_cell_angle_beta   59.99999778
_cell_angle_gamma   60.00000300
_symmetry_Int_Tables_number   1
_chemical_formula_structural   Tm6Ti4Al12Ir7
_chemical_formula_sum   'Tm6 Ti4 Al12 Ir7'
_cell_volume   503.81796323
_cell_formula_units_Z   1
loop_
 _symmetry_equiv_pos_site_id
 _symmetry_equiv_pos_as_xyz
  1  'x, y, z'
loop_
 _atom_site_type_symbol
 _atom_site_label
 _atom_site_symmetry_multiplicity
 _atom_site_fract_x
 _atom_site_fract_y
 _atom_site_fract_z
 _atom_site_occupancy
  Tm  Tm0  1  0.704275  0.704275  0.295725  1
  Tm  Tm1  1  0.295725  0.704275  0.295725  1
  Tm  Tm2  1  0.704275  0.295725  0.295725  1
  Tm  Tm3  1  0.295725  0.295725  0.704275  1
  Tm  Tm4  1  0.704275  0.295725  0.704275  1
  Tm  Tm5  1  0.295725  0.704275  0.704275  1
  Ti  Ti6  1  0.880295  0.880295  0.359115  1
  Ti  Ti7  1  0.880295  0.359115  0.880295  1
  Ti  Ti8  1  0.359115  0.880295  0.880295  1
  Ti  Ti9  1  0.880295  0.880295  0.880295  1
  Al  Al10  1  0.119403  0.119403  0.641792  1
  Al  Al11  1  0.119403  0.641792  0.119403  1
  Al  Al12  1  0.641792  0.119403  0.119403  1
  Al  Al13  1  0.119403  0.119403  0.119403  1
  Al  Al14  1  0.668481  0.668481  0.994557  1
  Al  Al15  1  0.668481  0.994557  0.668481  1
  Al  Al16  1  0.994557  0.668481  0.668481  1
  Al  Al17  1  0.668481  0.668481  0.668481  1
  Al  Al18  1  0.329688  0.329688  0.010939  1
  Al  Al19  1  0.329688  0.010939  0.329688  1
  Al  Al20  1  0.010939  0.329688  0.329688  1
  Al  Al21  1  0.329688  0.329688  0.329688  1
  Ir  Ir22  1  0.000000  0.000000  0.000000  1
  Ir  Ir23  1  0.998873  0.998873  0.501127  1
  Ir  Ir24  1  0.501127  0.998873  0.501127  1
  Ir  Ir25  1  0.998873  0.501127  0.501127  1
  Ir  Ir26  1  0.501127  0.501127  0.998873  1
  Ir  Ir27  1  0.998873  0.501127  0.998873  1
  Ir  Ir28  1  0.501127  0.998873  0.998873  1
