# generated using pymatgen
data_ThTaNb5Cl18
_symmetry_space_group_name_H-M   'P 1'
_cell_length_a   10.28889218
_cell_length_b   10.29273139
_cell_length_c   10.29238245
_cell_angle_alpha   55.87620684
_cell_angle_beta   55.87186499
_cell_angle_gamma   55.87471414
_symmetry_Int_Tables_number   1
_chemical_formula_structural   ThTaNb5Cl18
_chemical_formula_sum   'Th1 Ta1 Nb5 Cl18'
_cell_volume   697.01771534
_cell_formula_units_Z   1
loop_
 _symmetry_equiv_pos_site_id
 _symmetry_equiv_pos_as_xyz
  1  'x, y, z'
loop_
 _atom_site_type_symbol
 _atom_site_label
 _atom_site_symmetry_multiplicity
 _atom_site_fract_x
 _atom_site_fract_y
 _atom_site_fract_z
 _atom_site_occupancy
  Th  Th0  1  0.000085  0.999716  0.000018  1
  Ta  Ta1  1  0.411618  0.305722  0.645583  1
  Nb  Nb2  1  0.354079  0.588817  0.694753  1
  Nb  Nb3  1  0.695109  0.354180  0.588411  1
  Nb  Nb4  1  0.305138  0.646259  0.411242  1
  Nb  Nb5  1  0.646153  0.411628  0.304903  1
  Nb  Nb6  1  0.588914  0.695350  0.353611  1
  Cl  Cl7  1  0.566027  0.163822  0.444945  1
  Cl  Cl8  1  0.226515  0.369024  0.904332  1
  Cl  Cl9  1  0.906384  0.225117  0.370893  1
  Cl  Cl10  1  0.370944  0.906213  0.225337  1
  Cl  Cl11  1  0.774811  0.629092  0.093765  1
  Cl  Cl12  1  0.093551  0.774710  0.629222  1
  Cl  Cl13  1  0.701673  0.959853  0.159529  1
  Cl  Cl14  1  0.959187  0.159231  0.702043  1
  Cl  Cl15  1  0.159912  0.701496  0.959371  1
  Cl  Cl16  1  0.299287  0.043941  0.838045  1
  Cl  Cl17  1  0.040624  0.839889  0.298395  1
  Cl  Cl18  1  0.840084  0.297575  0.041254  1
  Cl  Cl19  1  0.558124  0.431628  0.836550  1
  Cl  Cl20  1  0.165528  0.439128  0.570071  1
  Cl  Cl21  1  0.441791  0.568284  0.163509  1
  Cl  Cl22  1  0.431770  0.836402  0.558078  1
  Cl  Cl23  1  0.836567  0.558162  0.431659  1
  Cl  Cl24  1  0.626127  0.094759  0.774483  1
