# generated using pymatgen
data_CdBi7(W2O11)2
_symmetry_space_group_name_H-M   'P 1'
_cell_length_a   6.63233402
_cell_length_b   7.72882421
_cell_length_c   9.97717369
_cell_angle_alpha   100.65289617
_cell_angle_beta   91.00496750
_cell_angle_gamma   90.05329313
_symmetry_Int_Tables_number   1
_chemical_formula_structural   CdBi7(W2O11)2
_chemical_formula_sum   'Cd1 Bi7 W4 O22'
_cell_volume   502.53504760
_cell_formula_units_Z   1
loop_
 _symmetry_equiv_pos_site_id
 _symmetry_equiv_pos_as_xyz
  1  'x, y, z'
loop_
 _atom_site_type_symbol
 _atom_site_label
 _atom_site_symmetry_multiplicity
 _atom_site_fract_x
 _atom_site_fract_y
 _atom_site_fract_z
 _atom_site_occupancy
  Cd  Cd0  1  0.740884  0.375836  0.484827  1
  Bi  Bi1  1  0.242636  0.621073  0.515587  1
  Bi  Bi2  1  0.747773  0.871209  0.475453  1
  Bi  Bi3  1  0.252113  0.128654  0.515866  1
  Bi  Bi4  1  0.454086  0.940428  0.817481  1
  Bi  Bi5  1  0.542025  0.064359  0.182609  1
  Bi  Bi6  1  0.395749  0.458858  0.828098  1
  Bi  Bi7  1  0.619688  0.536554  0.173995  1
  W  W8  1  0.923986  0.702052  0.808550  1
  W  W9  1  0.075555  0.298277  0.190839  1
  W  W10  1  0.920056  0.202842  0.804799  1
  W  W11  1  0.083122  0.797850  0.192866  1
  O  O12  1  0.230717  0.718312  0.767469  1
  O  O13  1  0.768217  0.282460  0.234187  1
  O  O14  1  0.626358  0.672007  0.826804  1
  O  O15  1  0.371923  0.328515  0.165080  1
  O  O16  1  0.647451  0.257978  0.854084  1
  O  O17  1  0.352518  0.740931  0.147175  1
  O  O18  1  0.877015  0.179528  0.610820  1
  O  O19  1  0.117258  0.829921  0.399411  1
  O  O20  1  0.208537  0.144070  0.764451  1
  O  O21  1  0.790230  0.855045  0.238736  1
  O  O22  1  0.907829  0.635997  0.604530  1
  O  O23  1  0.105494  0.360736  0.393259  1
  O  O24  1  0.996918  0.545837  0.185499  1
  O  O25  1  0.992494  0.447489  0.815940  1
  O  O26  1  0.987503  0.775217  0.994293  1
  O  O27  1  0.005136  0.219706  0.999723  1
  O  O28  1  0.583988  0.608397  0.391410  1
  O  O29  1  0.423304  0.386315  0.611755  1
  O  O30  1  0.166446  0.054677  0.213061  1
  O  O31  1  0.842754  0.953263  0.789519  1
  O  O32  1  0.543452  0.097896  0.399849  1
  O  O33  1  0.456786  0.907711  0.601972  1
