# generated using pymatgen
data_Dy7Sn23Rh6
_symmetry_space_group_name_H-M   'P 1'
_cell_length_a   9.85707700
_cell_length_b   9.85707754
_cell_length_c   10.12902300
_cell_angle_alpha   90.00000000
_cell_angle_beta   90.00000000
_cell_angle_gamma   119.99999484
_symmetry_Int_Tables_number   1
_chemical_formula_structural   Dy7Sn23Rh6
_chemical_formula_sum   'Dy7 Sn23 Rh6'
_cell_volume   852.30401356
_cell_formula_units_Z   1
loop_
 _symmetry_equiv_pos_site_id
 _symmetry_equiv_pos_as_xyz
  1  'x, y, z'
loop_
 _atom_site_type_symbol
 _atom_site_label
 _atom_site_symmetry_multiplicity
 _atom_site_fract_x
 _atom_site_fract_y
 _atom_site_fract_z
 _atom_site_occupancy
  Dy  Dy0  1  0.000000  0.000000  0.000000  1
  Dy  Dy1  1  0.478679  0.521321  0.307633  1
  Dy  Dy2  1  0.521321  0.478679  0.692367  1
  Dy  Dy3  1  0.478679  0.957357  0.307633  1
  Dy  Dy4  1  0.521321  0.042643  0.692367  1
  Dy  Dy5  1  0.042643  0.521321  0.307633  1
  Dy  Dy6  1  0.957357  0.478679  0.692367  1
  Sn  Sn7  1  0.350941  0.000000  0.000000  1
  Sn  Sn8  1  0.649059  0.000000  0.000000  1
  Sn  Sn9  1  0.000000  0.350941  0.000000  1
  Sn  Sn10  1  0.000000  0.649059  0.000000  1
  Sn  Sn11  1  0.649059  0.649059  0.000000  1
  Sn  Sn12  1  0.350941  0.350941  0.000000  1
  Sn  Sn13  1  0.333333  0.666667  0.818813  1
  Sn  Sn14  1  0.666667  0.333333  0.181187  1
  Sn  Sn15  1  0.000000  0.000000  0.500000  1
  Sn  Sn16  1  0.778887  0.221113  0.455424  1
  Sn  Sn17  1  0.221113  0.778887  0.544576  1
  Sn  Sn18  1  0.778887  0.557774  0.455424  1
  Sn  Sn19  1  0.221113  0.442226  0.544576  1
  Sn  Sn20  1  0.442226  0.221113  0.455424  1
  Sn  Sn21  1  0.557774  0.778887  0.544576  1
  Sn  Sn22  1  0.333333  0.666667  0.119034  1
  Sn  Sn23  1  0.666667  0.333333  0.880966  1
  Sn  Sn24  1  0.119496  0.880504  0.279935  1
  Sn  Sn25  1  0.880504  0.119496  0.720065  1
  Sn  Sn26  1  0.119496  0.238991  0.279935  1
  Sn  Sn27  1  0.880504  0.761009  0.720065  1
  Sn  Sn28  1  0.761009  0.880504  0.279935  1
  Sn  Sn29  1  0.238991  0.119496  0.720065  1
  Rh  Rh30  1  0.831468  0.168532  0.198059  1
  Rh  Rh31  1  0.168532  0.831468  0.801941  1
  Rh  Rh32  1  0.831468  0.662934  0.198059  1
  Rh  Rh33  1  0.168532  0.337066  0.801941  1
  Rh  Rh34  1  0.337066  0.168532  0.198059  1
  Rh  Rh35  1  0.662934  0.831468  0.801941  1
