# generated using pymatgen
data_YEr3(ScIr)4
_symmetry_space_group_name_H-M   'P 1'
_cell_length_a   4.23709200
_cell_length_b   7.12286036
_cell_length_c   8.66765265
_cell_angle_alpha   89.84143421
_cell_angle_beta   90.00000000
_cell_angle_gamma   90.00000000
_symmetry_Int_Tables_number   1
_chemical_formula_structural   YEr3(ScIr)4
_chemical_formula_sum   'Y1 Er3 Sc4 Ir4'
_cell_volume   261.59061576
_cell_formula_units_Z   1
loop_
 _symmetry_equiv_pos_site_id
 _symmetry_equiv_pos_as_xyz
  1  'x, y, z'
loop_
 _atom_site_type_symbol
 _atom_site_label
 _atom_site_symmetry_multiplicity
 _atom_site_fract_x
 _atom_site_fract_y
 _atom_site_fract_z
 _atom_site_occupancy
  Y  Y0  1  0.250000  0.984194  0.326374  1
  Er  Er1  1  0.250000  0.482071  0.171804  1
  Er  Er2  1  0.750000  0.017934  0.672895  1
  Er  Er3  1  0.750000  0.517137  0.826879  1
  Sc  Sc4  1  0.250000  0.358698  0.566991  1
  Sc  Sc5  1  0.250000  0.856346  0.933453  1
  Sc  Sc6  1  0.750000  0.642832  0.434579  1
  Sc  Sc7  1  0.750000  0.141212  0.064741  1
  Ir  Ir8  1  0.250000  0.238958  0.893946  1
  Ir  Ir9  1  0.250000  0.739570  0.608168  1
  Ir  Ir10  1  0.750000  0.757768  0.104857  1
  Ir  Ir11  1  0.750000  0.263279  0.395313  1
