# generated using pymatgen
data_Lu2Rh5Pb
_symmetry_space_group_name_H-M   'P 1'
_cell_length_a   5.70981637
_cell_length_b   5.70981594
_cell_length_c   8.50767800
_cell_angle_alpha   90.00000000
_cell_angle_beta   90.00000000
_cell_angle_gamma   96.39255489
_symmetry_Int_Tables_number   1
_chemical_formula_structural   Lu2Rh5Pb
_chemical_formula_sum   'Lu4 Rh10 Pb2'
_cell_volume   275.64276258
_cell_formula_units_Z   2
loop_
 _symmetry_equiv_pos_site_id
 _symmetry_equiv_pos_as_xyz
  1  'x, y, z'
loop_
 _atom_site_type_symbol
 _atom_site_label
 _atom_site_symmetry_multiplicity
 _atom_site_fract_x
 _atom_site_fract_y
 _atom_site_fract_z
 _atom_site_occupancy
  Lu  Lu0  1  0.779242  0.220758  0.500000  1
  Lu  Lu1  1  0.220758  0.779242  0.000000  1
  Lu  Lu2  1  0.220758  0.779242  0.500000  1
  Lu  Lu3  1  0.779242  0.220758  0.000000  1
  Rh  Rh4  1  0.736287  0.736287  0.000919  1
  Rh  Rh5  1  0.736287  0.736287  0.499081  1
  Rh  Rh6  1  0.263713  0.263713  0.999081  1
  Rh  Rh7  1  0.263713  0.263713  0.500919  1
  Rh  Rh8  1  0.499630  0.000762  0.750000  1
  Rh  Rh9  1  0.500370  0.999238  0.250000  1
  Rh  Rh10  1  0.000483  0.000483  0.250000  1
  Rh  Rh11  1  0.999517  0.999517  0.750000  1
  Rh  Rh12  1  0.000762  0.499630  0.750000  1
  Rh  Rh13  1  0.999238  0.500370  0.250000  1
  Pb  Pb14  1  0.501871  0.501871  0.750000  1
  Pb  Pb15  1  0.498129  0.498129  0.250000  1
