# generated using pymatgen
data_HoEr2Zr2Sn3O
_symmetry_space_group_name_H-M   'P 1'
_cell_length_a   8.72858300
_cell_length_b   8.72845049
_cell_length_c   6.01946000
_cell_angle_alpha   90.00000000
_cell_angle_beta   90.00000000
_cell_angle_gamma   119.99949927
_symmetry_Int_Tables_number   1
_chemical_formula_structural   HoEr2Zr2Sn3O
_chemical_formula_sum   'Ho2 Er4 Zr4 Sn6 O2'
_cell_volume   397.16526073
_cell_formula_units_Z   2
loop_
 _symmetry_equiv_pos_site_id
 _symmetry_equiv_pos_as_xyz
  1  'x, y, z'
loop_
 _atom_site_type_symbol
 _atom_site_label
 _atom_site_symmetry_multiplicity
 _atom_site_fract_x
 _atom_site_fract_y
 _atom_site_fract_z
 _atom_site_occupancy
  Ho  Ho0  1  0.000000  0.773236  0.750000  1
  Ho  Ho1  1  0.000000  0.226764  0.250000  1
  Er  Er2  1  0.226713  0.226712  0.750000  1
  Er  Er3  1  0.226713  0.000001  0.250000  1
  Er  Er4  1  0.773287  0.773288  0.250000  1
  Er  Er5  1  0.773287  0.999999  0.750000  1
  Zr  Zr6  1  0.333342  0.666672  0.000000  1
  Zr  Zr7  1  0.333342  0.666672  0.500000  1
  Zr  Zr8  1  0.666658  0.333328  0.000000  1
  Zr  Zr9  1  0.666658  0.333328  0.500000  1
  Sn  Sn10  1  0.000000  0.595514  0.250000  1
  Sn  Sn11  1  0.000000  0.404486  0.750000  1
  Sn  Sn12  1  0.404568  0.404536  0.250000  1
  Sn  Sn13  1  0.595432  0.595464  0.750000  1
  Sn  Sn14  1  0.404568  0.000031  0.750000  1
  Sn  Sn15  1  0.595432  0.999969  0.250000  1
  O  O16  1  0.000000  0.000000  0.000000  1
  O  O17  1  0.000000  0.000000  0.500000  1
