# generated using pymatgen
data_Nd6SnHg9
_symmetry_space_group_name_H-M   'P 1'
_cell_length_a   6.49898352
_cell_length_b   6.49898454
_cell_length_c   10.69009032
_cell_angle_alpha   88.76103573
_cell_angle_beta   88.76103871
_cell_angle_gamma   104.77289709
_symmetry_Int_Tables_number   1
_chemical_formula_structural   Nd6SnHg9
_chemical_formula_sum   'Nd6 Sn1 Hg9'
_cell_volume   436.31584090
_cell_formula_units_Z   1
loop_
 _symmetry_equiv_pos_site_id
 _symmetry_equiv_pos_as_xyz
  1  'x, y, z'
loop_
 _atom_site_type_symbol
 _atom_site_label
 _atom_site_symmetry_multiplicity
 _atom_site_fract_x
 _atom_site_fract_y
 _atom_site_fract_z
 _atom_site_occupancy
  Nd  Nd0  1  0.599781  0.599781  0.255234  1
  Nd  Nd1  1  0.402024  0.402024  0.746083  1
  Nd  Nd2  1  0.204223  0.795419  0.498719  1
  Nd  Nd3  1  0.199659  0.793019  0.996397  1
  Nd  Nd4  1  0.795419  0.204223  0.498719  1
  Nd  Nd5  1  0.793019  0.199659  0.996397  1
  Sn  Sn6  1  0.310979  0.310979  0.041682  1
  Hg  Hg7  1  0.994288  0.994287  0.251184  1
  Hg  Hg8  1  0.003619  0.003618  0.745137  1
  Hg  Hg9  1  0.694102  0.694102  0.964983  1
  Hg  Hg10  1  0.303624  0.303624  0.468116  1
  Hg  Hg11  1  0.700912  0.700912  0.533851  1
  Hg  Hg12  1  0.484177  0.054376  0.252696  1
  Hg  Hg13  1  0.945030  0.514769  0.749052  1
  Hg  Hg14  1  0.514769  0.945030  0.749052  1
  Hg  Hg15  1  0.054376  0.484177  0.252696  1
