# generated using pymatgen
data_CaY4Lu(Si3Ru)8
_symmetry_space_group_name_H-M   'P 1'
_cell_length_a   10.13531790
_cell_length_b   10.13353841
_cell_length_c   8.14341268
_cell_angle_alpha   89.91995561
_cell_angle_beta   90.09919259
_cell_angle_gamma   132.62467465
_symmetry_Int_Tables_number   1
_chemical_formula_structural   CaY4Lu(Si3Ru)8
_chemical_formula_sum   'Ca1 Y4 Lu1 Si24 Ru8'
_cell_volume   615.41390849
_cell_formula_units_Z   1
loop_
 _symmetry_equiv_pos_site_id
 _symmetry_equiv_pos_as_xyz
  1  'x, y, z'
loop_
 _atom_site_type_symbol
 _atom_site_label
 _atom_site_symmetry_multiplicity
 _atom_site_fract_x
 _atom_site_fract_y
 _atom_site_fract_z
 _atom_site_occupancy
  Ca  Ca0  1  0.001979  0.501966  0.249920  1
  Y  Y1  1  0.500357  0.500275  0.499429  1
  Y  Y2  1  0.498442  0.998377  0.750073  1
  Y  Y3  1  0.997102  0.497063  0.750099  1
  Y  Y4  1  0.502640  0.002721  0.249965  1
  Lu  Lu5  1  0.000243  0.000380  0.000551  1
  Si  Si6  1  0.293736  0.704597  0.000214  1
  Si  Si7  1  0.795311  0.206140  0.498763  1
  Si  Si8  1  0.706331  0.295174  0.001161  1
  Si  Si9  1  0.204396  0.793837  0.499810  1
  Si  Si10  1  0.832733  0.834158  0.332788  1
  Si  Si11  1  0.166723  0.168406  0.667129  1
  Si  Si12  1  0.668635  0.667080  0.833294  1
  Si  Si13  1  0.333853  0.332345  0.166739  1
  Si  Si14  1  0.620266  0.386218  0.227994  1
  Si  Si15  1  0.611197  0.377909  0.772460  1
  Si  Si16  1  0.111285  0.878341  0.728655  1
  Si  Si17  1  0.123447  0.890104  0.271581  1
  Si  Si18  1  0.378545  0.611767  0.771769  1
  Si  Si19  1  0.389669  0.623391  0.227978  1
  Si  Si20  1  0.886746  0.120484  0.271527  1
  Si  Si21  1  0.877944  0.110826  0.727998  1
  Si  Si22  1  0.844695  0.611896  0.002857  1
  Si  Si23  1  0.387976  0.155433  0.994706  1
  Si  Si24  1  0.888162  0.654789  0.506014  1
  Si  Si25  1  0.344076  0.111714  0.495184  1
  Si  Si26  1  0.154615  0.387760  0.993814  1
  Si  Si27  1  0.612089  0.844237  0.004858  1
  Si  Si28  1  0.111476  0.344508  0.497375  1
  Si  Si29  1  0.655617  0.888432  0.505281  1
  Ru  Ru30  1  0.169592  0.832037  0.999325  1
  Ru  Ru31  1  0.667560  0.329144  0.501712  1
  Ru  Ru32  1  0.829935  0.166871  0.998403  1
  Ru  Ru33  1  0.331425  0.670467  0.500651  1
  Ru  Ru34  1  0.627948  0.627829  0.125820  1
  Ru  Ru35  1  0.372403  0.373088  0.874359  1
  Ru  Ru36  1  0.875119  0.874309  0.628095  1
  Ru  Ru37  1  0.125733  0.125930  0.371649  1
