# generated using pymatgen
data_PrNdMg2(ScCu9)2
_symmetry_space_group_name_H-M   'P 1'
_cell_length_a   5.07208700
_cell_length_b   5.07208658
_cell_length_c   16.21031900
_cell_angle_alpha   90.00000000
_cell_angle_beta   90.00000000
_cell_angle_gamma   119.99999619
_symmetry_Int_Tables_number   1
_chemical_formula_structural   PrNdMg2(ScCu9)2
_chemical_formula_sum   'Pr1 Nd1 Mg2 Sc2 Cu18'
_cell_volume   361.15660559
_cell_formula_units_Z   1
loop_
 _symmetry_equiv_pos_site_id
 _symmetry_equiv_pos_as_xyz
  1  'x, y, z'
loop_
 _atom_site_type_symbol
 _atom_site_label
 _atom_site_symmetry_multiplicity
 _atom_site_fract_x
 _atom_site_fract_y
 _atom_site_fract_z
 _atom_site_occupancy
  Pr  Pr0  1  0.333333  0.666667  0.741894  1
  Nd  Nd1  1  0.666667  0.333333  0.241751  1
  Mg  Mg2  1  0.666667  0.333333  0.032972  1
  Mg  Mg3  1  0.333333  0.666667  0.532984  1
  Sc  Sc4  1  0.666667  0.333333  0.470327  1
  Sc  Sc5  1  0.333333  0.666667  0.970838  1
  Cu  Cu6  1  0.333333  0.666667  0.250340  1
  Cu  Cu7  1  0.666667  0.333333  0.750802  1
  Cu  Cu8  1  0.168840  0.831160  0.378395  1
  Cu  Cu9  1  0.168840  0.337680  0.378395  1
  Cu  Cu10  1  0.000000  0.000000  0.752291  1
  Cu  Cu11  1  0.000000  0.000000  0.251820  1
  Cu  Cu12  1  0.000000  0.000000  0.000410  1
  Cu  Cu13  1  0.000000  0.000000  0.500955  1
  Cu  Cu14  1  0.167573  0.335144  0.121801  1
  Cu  Cu15  1  0.832408  0.167592  0.622293  1
  Cu  Cu16  1  0.335184  0.167592  0.622293  1
  Cu  Cu17  1  0.664856  0.832427  0.121801  1
  Cu  Cu18  1  0.167573  0.832427  0.121801  1
  Cu  Cu19  1  0.831176  0.662353  0.878383  1
  Cu  Cu20  1  0.831176  0.168824  0.878383  1
  Cu  Cu21  1  0.832408  0.664816  0.622293  1
  Cu  Cu22  1  0.337647  0.168824  0.878383  1
  Cu  Cu23  1  0.662320  0.831160  0.378395  1
