# generated using pymatgen
data_CePr3Te4
_symmetry_space_group_name_H-M   'P 1'
_cell_length_a   9.12925638
_cell_length_b   9.09007814
_cell_length_c   9.09007700
_cell_angle_alpha   59.78163188
_cell_angle_beta   59.85731448
_cell_angle_gamma   59.85732098
_symmetry_Int_Tables_number   1
_chemical_formula_structural   CePr3Te4
_chemical_formula_sum   'Ce2 Pr6 Te8'
_cell_volume   531.36976065
_cell_formula_units_Z   2
loop_
 _symmetry_equiv_pos_site_id
 _symmetry_equiv_pos_as_xyz
  1  'x, y, z'
loop_
 _atom_site_type_symbol
 _atom_site_label
 _atom_site_symmetry_multiplicity
 _atom_site_fract_x
 _atom_site_fract_y
 _atom_site_fract_z
 _atom_site_occupancy
  Ce  Ce0  1  0.625000  0.625000  0.625000  1
  Ce  Ce1  1  0.125000  0.625000  0.625000  1
  Pr  Pr2  1  0.125000  0.625000  0.125000  1
  Pr  Pr3  1  0.125000  0.125000  0.625000  1
  Pr  Pr4  1  0.625000  0.125000  0.125000  1
  Pr  Pr5  1  0.125000  0.125000  0.125000  1
  Pr  Pr6  1  0.625000  0.125000  0.625000  1
  Pr  Pr7  1  0.625000  0.625000  0.125000  1
  Te  Te8  1  0.375016  0.873511  0.376456  1
  Te  Te9  1  0.874984  0.376489  0.873544  1
  Te  Te10  1  0.874984  0.873544  0.376489  1
  Te  Te11  1  0.875728  0.874251  0.874251  1
  Te  Te12  1  0.874229  0.375749  0.375749  1
  Te  Te13  1  0.375016  0.376456  0.873511  1
  Te  Te14  1  0.374272  0.375749  0.375749  1
  Te  Te15  1  0.375771  0.874251  0.874251  1
