# generated using pymatgen
data_Yb2DyHo5(B6Os)4
_symmetry_space_group_name_H-M   'P 1'
_cell_length_a   3.64149600
_cell_length_b   9.14220811
_cell_length_c   11.53410574
_cell_angle_alpha   90.00052006
_cell_angle_beta   90.00000000
_cell_angle_gamma   90.00000000
_symmetry_Int_Tables_number   1
_chemical_formula_structural   Yb2DyHo5(B6Os)4
_chemical_formula_sum   'Yb2 Dy1 Ho5 B24 Os4'
_cell_volume   383.98553898
_cell_formula_units_Z   1
loop_
 _symmetry_equiv_pos_site_id
 _symmetry_equiv_pos_as_xyz
  1  'x, y, z'
loop_
 _atom_site_type_symbol
 _atom_site_label
 _atom_site_symmetry_multiplicity
 _atom_site_fract_x
 _atom_site_fract_y
 _atom_site_fract_z
 _atom_site_occupancy
  Yb  Yb0  1  0.000000  0.677233  0.586194  1
  Yb  Yb1  1  0.000000  0.822771  0.086092  1
  Dy  Dy2  1  0.000000  0.324011  0.414331  1
  Ho  Ho3  1  0.000000  0.175961  0.914332  1
  Ho  Ho4  1  0.000000  0.940862  0.369580  1
  Ho  Ho5  1  0.000000  0.056447  0.629526  1
  Ho  Ho6  1  0.000000  0.443527  0.129334  1
  Ho  Ho7  1  0.000000  0.559117  0.869741  1
  B  B8  1  0.500000  0.553589  0.433418  1
  B  B9  1  0.500000  0.446427  0.567785  1
  B  B10  1  0.500000  0.053579  0.067407  1
  B  B11  1  0.500000  0.946637  0.933430  1
  B  B12  1  0.500000  0.747310  0.418305  1
  B  B13  1  0.500000  0.251622  0.581695  1
  B  B14  1  0.500000  0.248332  0.081237  1
  B  B15  1  0.500000  0.752809  0.918336  1
  B  B16  1  0.500000  0.789371  0.265255  1
  B  B17  1  0.500000  0.208995  0.734761  1
  B  B18  1  0.500000  0.290847  0.234330  1
  B  B19  1  0.500000  0.710679  0.765374  1
  B  B20  1  0.500000  0.630595  0.185760  1
  B  B21  1  0.500000  0.369011  0.814228  1
  B  B22  1  0.500000  0.130823  0.313891  1
  B  B23  1  0.500000  0.869476  0.685873  1
  B  B24  1  0.500000  0.982896  0.211644  1
  B  B25  1  0.500000  0.017149  0.788427  1
  B  B26  1  0.500000  0.483077  0.288239  1
  B  B27  1  0.500000  0.517057  0.711918  1
  B  B28  1  0.500000  0.601339  0.027786  1
  B  B29  1  0.500000  0.397867  0.971325  1
  B  B30  1  0.500000  0.101698  0.471435  1
  B  B31  1  0.500000  0.898813  0.527759  1
  Os  Os32  1  0.000000  0.636506  0.321088  1
  Os  Os33  1  0.000000  0.360841  0.679771  1
  Os  Os34  1  0.000000  0.139033  0.179207  1
  Os  Os35  1  0.000000  0.863692  0.821186  1
