# generated using pymatgen
data_Hf2Zr3GaRu6
_symmetry_space_group_name_H-M   'P 1'
_cell_length_a   4.56750800
_cell_length_b   6.47998400
_cell_length_c   13.69824500
_cell_angle_alpha   90.00000000
_cell_angle_beta   90.00002091
_cell_angle_gamma   90.00000000
_symmetry_Int_Tables_number   1
_chemical_formula_structural   Hf2Zr3GaRu6
_chemical_formula_sum   'Hf4 Zr6 Ga2 Ru12'
_cell_volume   405.43214561
_cell_formula_units_Z   2
loop_
 _symmetry_equiv_pos_site_id
 _symmetry_equiv_pos_as_xyz
  1  'x, y, z'
loop_
 _atom_site_type_symbol
 _atom_site_label
 _atom_site_symmetry_multiplicity
 _atom_site_fract_x
 _atom_site_fract_y
 _atom_site_fract_z
 _atom_site_occupancy
  Hf  Hf0  1  0.999998  0.500001  0.996240  1
  Hf  Hf1  1  0.499964  0.000000  0.163518  1
  Hf  Hf2  1  0.999956  0.500001  0.336483  1
  Hf  Hf3  1  0.499996  0.000000  0.503760  1
  Zr  Zr4  1  0.999997  0.000000  0.990839  1
  Zr  Zr5  1  0.499968  0.500001  0.165879  1
  Zr  Zr6  1  0.999969  0.000000  0.334118  1
  Zr  Zr7  1  0.499984  0.500001  0.509160  1
  Zr  Zr8  1  0.000039  0.000000  0.675173  1
  Zr  Zr9  1  0.500027  0.500001  0.824833  1
  Ga  Ga10  1  0.000065  0.500001  0.667839  1
  Ga  Ga11  1  0.500065  0.000000  0.832158  1
  Ru  Ru12  1  0.499996  0.251755  0.998532  1
  Ru  Ru13  1  0.499996  0.748245  0.998532  1
  Ru  Ru14  1  0.999961  0.249465  0.165782  1
  Ru  Ru15  1  0.999961  0.750534  0.165782  1
  Ru  Ru16  1  0.499959  0.250539  0.334220  1
  Ru  Ru17  1  0.499959  0.749463  0.334220  1
  Ru  Ru18  1  0.999996  0.248246  0.501468  1
  Ru  Ru19  1  0.999996  0.751753  0.501468  1
  Ru  Ru20  1  0.500033  0.246495  0.665974  1
  Ru  Ru21  1  0.500033  0.753507  0.665974  1
  Ru  Ru22  1  0.000039  0.253512  0.834025  1
  Ru  Ru23  1  0.000039  0.746487  0.834025  1
