# generated using pymatgen
data_Tm3ThMgCo
_symmetry_space_group_name_H-M   'P 1'
_cell_length_a   9.53742086
_cell_length_b   9.53742125
_cell_length_c   9.53742100
_cell_angle_alpha   60.00000434
_cell_angle_beta   60.00000298
_cell_angle_gamma   59.99999934
_symmetry_Int_Tables_number   1
_chemical_formula_structural   Tm3ThMgCo
_chemical_formula_sum   'Tm12 Th4 Mg4 Co4'
_cell_volume   613.44819089
_cell_formula_units_Z   4
loop_
 _symmetry_equiv_pos_site_id
 _symmetry_equiv_pos_as_xyz
  1  'x, y, z'
loop_
 _atom_site_type_symbol
 _atom_site_label
 _atom_site_symmetry_multiplicity
 _atom_site_fract_x
 _atom_site_fract_y
 _atom_site_fract_z
 _atom_site_occupancy
  Tm  Tm0  1  0.814539  0.185461  0.185461  1
  Tm  Tm1  1  0.185461  0.814539  0.814539  1
  Tm  Tm2  1  0.185461  0.814539  0.185461  1
  Tm  Tm3  1  0.814539  0.185461  0.814539  1
  Tm  Tm4  1  0.185461  0.185461  0.814539  1
  Tm  Tm5  1  0.814539  0.814539  0.185461  1
  Tm  Tm6  1  0.935103  0.564897  0.564897  1
  Tm  Tm7  1  0.564897  0.935103  0.935103  1
  Tm  Tm8  1  0.564897  0.935103  0.564897  1
  Tm  Tm9  1  0.935103  0.564897  0.935103  1
  Tm  Tm10  1  0.564897  0.564897  0.935103  1
  Tm  Tm11  1  0.935103  0.935103  0.564897  1
  Th  Th12  1  0.345279  0.345279  0.345279  1
  Th  Th13  1  0.345279  0.345279  0.964164  1
  Th  Th14  1  0.345279  0.964164  0.345279  1
  Th  Th15  1  0.964164  0.345279  0.345279  1
  Mg  Mg16  1  0.580176  0.580176  0.580176  1
  Mg  Mg17  1  0.580176  0.580176  0.259471  1
  Mg  Mg18  1  0.580176  0.259471  0.580176  1
  Mg  Mg19  1  0.259471  0.580176  0.580176  1
  Co  Co20  1  0.144384  0.144384  0.144384  1
  Co  Co21  1  0.144384  0.144384  0.566849  1
  Co  Co22  1  0.144384  0.566849  0.144384  1
  Co  Co23  1  0.566849  0.144384  0.144384  1
