# generated using pymatgen
data_DyY5(MoO7)2
_symmetry_space_group_name_H-M   'P 1'
_cell_length_a   6.48311635
_cell_length_b   6.48394478
_cell_length_c   7.47021200
_cell_angle_alpha   90.01510168
_cell_angle_beta   90.01874474
_cell_angle_gamma   108.67301701
_symmetry_Int_Tables_number   1
_chemical_formula_structural   DyY5(MoO7)2
_chemical_formula_sum   'Dy1 Y5 Mo2 O14'
_cell_volume   297.48945135
_cell_formula_units_Z   1
loop_
 _symmetry_equiv_pos_site_id
 _symmetry_equiv_pos_as_xyz
  1  'x, y, z'
loop_
 _atom_site_type_symbol
 _atom_site_label
 _atom_site_symmetry_multiplicity
 _atom_site_fract_x
 _atom_site_fract_y
 _atom_site_fract_z
 _atom_site_occupancy
  Dy  Dy0  1  0.999285  0.464117  0.744084  1
  Y  Y1  1  0.468160  0.468639  0.999757  1
  Y  Y2  1  0.463991  0.999498  0.256569  1
  Y  Y3  1  0.535486  0.000244  0.755894  1
  Y  Y4  1  0.000386  0.535310  0.243495  1
  Y  Y5  1  0.531210  0.530913  0.500357  1
  Mo  Mo6  1  0.998870  0.998895  0.999673  1
  Mo  Mo7  1  0.001092  0.001240  0.500104  1
  O  O8  1  0.057505  0.311003  0.462683  1
  O  O9  1  0.073271  0.925487  0.250008  1
  O  O10  1  0.630539  0.369088  0.250050  1
  O  O11  1  0.311409  0.058126  0.537698  1
  O  O12  1  0.918207  0.673874  0.526670  1
  O  O13  1  0.926295  0.074984  0.749949  1
  O  O14  1  0.673317  0.917207  0.474614  1
  O  O15  1  0.362862  0.637419  0.249911  1
  O  O16  1  0.689820  0.942334  0.038071  1
  O  O17  1  0.637450  0.362361  0.750212  1
  O  O18  1  0.082694  0.327569  0.024732  1
  O  O19  1  0.943130  0.688797  0.961216  1
  O  O20  1  0.369096  0.630725  0.749844  1
  O  O21  1  0.325926  0.082173  0.974411  1
