# generated using pymatgen
data_KLiS2O7
_symmetry_space_group_name_H-M   'P 1'
_cell_length_a   5.41796156
_cell_length_b   7.62674832
_cell_length_c   7.64833116
_cell_angle_alpha   102.49663284
_cell_angle_beta   91.69398054
_cell_angle_gamma   95.13851513
_symmetry_Int_Tables_number   1
_chemical_formula_structural   KLiS2O7
_chemical_formula_sum   'K2 Li2 S4 O14'
_cell_volume   306.92304563
_cell_formula_units_Z   2
loop_
 _symmetry_equiv_pos_site_id
 _symmetry_equiv_pos_as_xyz
  1  'x, y, z'
loop_
 _atom_site_type_symbol
 _atom_site_label
 _atom_site_symmetry_multiplicity
 _atom_site_fract_x
 _atom_site_fract_y
 _atom_site_fract_z
 _atom_site_occupancy
  K  K0  1  0.205607  0.787277  0.428988  1
  K  K1  1  0.794393  0.212723  0.571012  1
  Li  Li2  1  0.192713  0.601082  0.889168  1
  Li  Li3  1  0.807287  0.398918  0.110832  1
  S  S4  1  0.701873  0.715746  0.709107  1
  S  S5  1  0.697621  0.794936  0.096729  1
  S  S6  1  0.302379  0.205064  0.903271  1
  S  S7  1  0.298127  0.284254  0.290893  1
  O  O8  1  0.734074  0.862596  0.905830  1
  O  O9  1  0.561715  0.278748  0.908186  1
  O  O10  1  0.873657  0.657775  0.094139  1
  O  O11  1  0.539869  0.386545  0.294613  1
  O  O12  1  0.265926  0.137404  0.094170  1
  O  O13  1  0.438285  0.721252  0.091814  1
  O  O14  1  0.126343  0.342225  0.905861  1
  O  O15  1  0.460131  0.613455  0.705387  1
  O  O16  1  0.088130  0.393236  0.295241  1
  O  O17  1  0.282884  0.164550  0.415466  1
  O  O18  1  0.236370  0.039603  0.771958  1
  O  O19  1  0.717116  0.835450  0.584534  1
  O  O20  1  0.911870  0.606764  0.704759  1
  O  O21  1  0.763630  0.960397  0.228042  1
