# generated using pymatgen
data_MgFe2Ni(AuO2)4
_symmetry_space_group_name_H-M   'P 1'
_cell_length_a   5.31422923
_cell_length_b   6.17765007
_cell_length_c   7.10164942
_cell_angle_alpha   64.19710875
_cell_angle_beta   75.60530018
_cell_angle_gamma   89.93360653
_symmetry_Int_Tables_number   1
_chemical_formula_structural   MgFe2Ni(AuO2)4
_chemical_formula_sum   'Mg1 Fe2 Ni1 Au4 O8'
_cell_volume   201.77084573
_cell_formula_units_Z   1
loop_
 _symmetry_equiv_pos_site_id
 _symmetry_equiv_pos_as_xyz
  1  'x, y, z'
loop_
 _atom_site_type_symbol
 _atom_site_label
 _atom_site_symmetry_multiplicity
 _atom_site_fract_x
 _atom_site_fract_y
 _atom_site_fract_z
 _atom_site_occupancy
  Mg  Mg0  1  0.999889  0.501458  0.000049  1
  Fe  Fe1  1  0.499933  0.252282  0.000030  1
  Fe  Fe2  1  0.000104  0.997469  0.999965  1
  Ni  Ni3  1  0.500072  0.749334  0.999957  1
  Au  Au4  1  0.004460  0.000416  0.500927  1
  Au  Au5  1  0.995524  0.501387  0.499059  1
  Au  Au6  1  0.504950  0.748579  0.501126  1
  Au  Au7  1  0.495058  0.249753  0.498892  1
  O  O8  1  0.894010  0.841369  0.830718  1
  O  O9  1  0.885807  0.328116  0.831583  1
  O  O10  1  0.395537  0.578759  0.830588  1
  O  O11  1  0.386975  0.090083  0.830886  1
  O  O12  1  0.114108  0.159440  0.168477  1
  O  O13  1  0.106080  0.671832  0.169216  1
  O  O14  1  0.613136  0.920744  0.169063  1
  O  O15  1  0.604355  0.408977  0.169464  1
