# generated using pymatgen
data_KPr(DyTe2)2
_symmetry_space_group_name_H-M   'P 1'
_cell_length_a   4.43220800
_cell_length_b   4.43220911
_cell_length_c   15.78556100
_cell_angle_alpha   90.00000000
_cell_angle_beta   90.00000000
_cell_angle_gamma   119.99999175
_symmetry_Int_Tables_number   1
_chemical_formula_structural   KPr(DyTe2)2
_chemical_formula_sum   'K1 Pr1 Dy2 Te4'
_cell_volume   268.55365260
_cell_formula_units_Z   1
loop_
 _symmetry_equiv_pos_site_id
 _symmetry_equiv_pos_as_xyz
  1  'x, y, z'
loop_
 _atom_site_type_symbol
 _atom_site_label
 _atom_site_symmetry_multiplicity
 _atom_site_fract_x
 _atom_site_fract_y
 _atom_site_fract_z
 _atom_site_occupancy
  K  K0  1  0.666667  0.333333  0.750000  1
  Pr  Pr1  1  0.333333  0.666667  0.250000  1
  Dy  Dy2  1  0.000000  0.000000  0.016064  1
  Dy  Dy3  1  0.000000  0.000000  0.483936  1
  Te  Te4  1  0.333333  0.666667  0.593630  1
  Te  Te5  1  0.666667  0.333333  0.126111  1
  Te  Te6  1  0.666667  0.333333  0.373889  1
  Te  Te7  1  0.333333  0.666667  0.906370  1
