# generated using pymatgen
data_Tb2YbHoRu8
_symmetry_space_group_name_H-M   'P 1'
_cell_length_a   5.24218109
_cell_length_b   5.24229726
_cell_length_c   8.98066022
_cell_angle_alpha   89.99028076
_cell_angle_beta   90.00537888
_cell_angle_gamma   120.00099496
_symmetry_Int_Tables_number   1
_chemical_formula_structural   Tb2YbHoRu8
_chemical_formula_sum   'Tb2 Yb1 Ho1 Ru8'
_cell_volume   213.73133578
_cell_formula_units_Z   1
loop_
 _symmetry_equiv_pos_site_id
 _symmetry_equiv_pos_as_xyz
  1  'x, y, z'
loop_
 _atom_site_type_symbol
 _atom_site_label
 _atom_site_symmetry_multiplicity
 _atom_site_fract_x
 _atom_site_fract_y
 _atom_site_fract_z
 _atom_site_occupancy
  Tb  Tb0  1  0.333364  0.666657  0.432367  1
  Tb  Tb1  1  0.333382  0.666638  0.062569  1
  Yb  Yb2  1  0.666662  0.333359  0.935413  1
  Ho  Ho3  1  0.666638  0.333363  0.572553  1
  Ru  Ru4  1  0.000009  0.999990  0.498516  1
  Ru  Ru5  1  0.000014  0.000014  0.999366  1
  Ru  Ru6  1  0.170456  0.340982  0.749337  1
  Ru  Ru7  1  0.170476  0.829473  0.749331  1
  Ru  Ru8  1  0.659026  0.829531  0.749333  1
  Ru  Ru9  1  0.828673  0.657253  0.250404  1
  Ru  Ru10  1  0.828538  0.171424  0.250407  1
  Ru  Ru11  1  0.342763  0.171315  0.250405  1
