# generated using pymatgen
data_SmNiB4Os3
_symmetry_space_group_name_H-M   'P 1'
_cell_length_a   7.57523092
_cell_length_b   7.32754670
_cell_length_c   3.99303200
_cell_angle_alpha   90.00000000
_cell_angle_beta   90.00000000
_cell_angle_gamma   87.85519178
_symmetry_Int_Tables_number   1
_chemical_formula_structural   SmNiB4Os3
_chemical_formula_sum   'Sm2 Ni2 B8 Os6'
_cell_volume   221.48937710
_cell_formula_units_Z   2
loop_
 _symmetry_equiv_pos_site_id
 _symmetry_equiv_pos_as_xyz
  1  'x, y, z'
loop_
 _atom_site_type_symbol
 _atom_site_label
 _atom_site_symmetry_multiplicity
 _atom_site_fract_x
 _atom_site_fract_y
 _atom_site_fract_z
 _atom_site_occupancy
  Sm  Sm0  1  0.000000  0.000000  0.019133  1
  Sm  Sm1  1  0.500000  0.500000  0.597330  1
  Ni  Ni2  1  0.139175  0.385247  0.880847  1
  Ni  Ni3  1  0.860825  0.614753  0.880847  1
  B  B4  1  0.672208  0.779686  0.105681  1
  B  B5  1  0.327792  0.220314  0.105681  1
  B  B6  1  0.277898  0.836963  0.602471  1
  B  B7  1  0.722102  0.163037  0.602471  1
  B  B8  1  0.843167  0.692746  0.382844  1
  B  B9  1  0.156833  0.307254  0.382844  1
  B  B10  1  0.204326  0.671144  0.882526  1
  B  B11  1  0.795674  0.328856  0.882526  1
  Os  Os12  1  0.881696  0.368003  0.376086  1
  Os  Os13  1  0.118304  0.631997  0.376086  1
  Os  Os14  1  0.346844  0.114486  0.606281  1
  Os  Os15  1  0.653156  0.885514  0.606281  1
  Os  Os16  1  0.603494  0.150396  0.105034  1
  Os  Os17  1  0.396506  0.849604  0.105034  1
