# generated using pymatgen
data_AcLu3(ZnSn)4
_symmetry_space_group_name_H-M   'P 1'
_cell_length_a   4.53058500
_cell_length_b   4.53058551
_cell_length_c   16.17384800
_cell_angle_alpha   90.00000000
_cell_angle_beta   90.00000000
_cell_angle_gamma   120.00000360
_symmetry_Int_Tables_number   1
_chemical_formula_structural   AcLu3(ZnSn)4
_chemical_formula_sum   'Ac1 Lu3 Zn4 Sn4'
_cell_volume   287.50975684
_cell_formula_units_Z   1
loop_
 _symmetry_equiv_pos_site_id
 _symmetry_equiv_pos_as_xyz
  1  'x, y, z'
loop_
 _atom_site_type_symbol
 _atom_site_label
 _atom_site_symmetry_multiplicity
 _atom_site_fract_x
 _atom_site_fract_y
 _atom_site_fract_z
 _atom_site_occupancy
  Ac  Ac0  1  0.000000  0.000000  0.000000  1
  Lu  Lu1  1  0.000000  0.000000  0.263432  1
  Lu  Lu2  1  0.000000  0.000000  0.736568  1
  Lu  Lu3  1  0.000000  0.000000  0.500000  1
  Zn  Zn4  1  0.333333  0.666667  0.177468  1
  Zn  Zn5  1  0.666667  0.333333  0.822532  1
  Zn  Zn6  1  0.666667  0.333333  0.654726  1
  Zn  Zn7  1  0.333333  0.666667  0.345274  1
  Sn  Sn8  1  0.333333  0.666667  0.604632  1
  Sn  Sn9  1  0.666667  0.333333  0.395368  1
  Sn  Sn10  1  0.666667  0.333333  0.132315  1
  Sn  Sn11  1  0.333333  0.666667  0.867685  1
