# generated using pymatgen
data_LiTiRhS4
_symmetry_space_group_name_H-M   'P 1'
_cell_length_a   6.92656683
_cell_length_b   6.92656629
_cell_length_c   5.78935835
_cell_angle_alpha   67.28108565
_cell_angle_beta   67.28108988
_cell_angle_gamma   29.24058225
_symmetry_Int_Tables_number   1
_chemical_formula_structural   LiTiRhS4
_chemical_formula_sum   'Li1 Ti1 Rh1 S4'
_cell_volume   124.40265757
_cell_formula_units_Z   1
loop_
 _symmetry_equiv_pos_site_id
 _symmetry_equiv_pos_as_xyz
  1  'x, y, z'
loop_
 _atom_site_type_symbol
 _atom_site_label
 _atom_site_symmetry_multiplicity
 _atom_site_fract_x
 _atom_site_fract_y
 _atom_site_fract_z
 _atom_site_occupancy
  Li  Li0  1  0.502503  0.502503  0.514910  1
  Ti  Ti1  1  0.754825  0.754825  0.193128  1
  Rh  Rh2  1  0.245445  0.245445  0.781292  1
  S  S3  1  0.376970  0.376970  0.970166  1
  S  S4  1  0.847513  0.847513  0.504840  1
  S  S5  1  0.148105  0.148105  0.509140  1
  S  S6  1  0.624639  0.624639  0.026525  1
