# generated using pymatgen
data_YCu6BrO8
_symmetry_space_group_name_H-M   'P 1'
_cell_length_a   6.57539019
_cell_length_b   6.57538975
_cell_length_c   6.57539000
_cell_angle_alpha   59.99999873
_cell_angle_beta   60.00000096
_cell_angle_gamma   59.99999550
_symmetry_Int_Tables_number   1
_chemical_formula_structural   YCu6BrO8
_chemical_formula_sum   'Y1 Cu6 Br1 O8'
_cell_volume   201.02475097
_cell_formula_units_Z   1
loop_
 _symmetry_equiv_pos_site_id
 _symmetry_equiv_pos_as_xyz
  1  'x, y, z'
loop_
 _atom_site_type_symbol
 _atom_site_label
 _atom_site_symmetry_multiplicity
 _atom_site_fract_x
 _atom_site_fract_y
 _atom_site_fract_z
 _atom_site_occupancy
  Y  Y0  1  0.000000  0.000000  0.000000  1
  Cu  Cu1  1  0.000000  0.000000  0.500000  1
  Cu  Cu2  1  0.500000  0.000000  0.500000  1
  Cu  Cu3  1  0.000000  0.500000  0.500000  1
  Cu  Cu4  1  0.500000  0.500000  0.000000  1
  Cu  Cu5  1  0.000000  0.500000  0.000000  1
  Cu  Cu6  1  0.500000  0.000000  0.000000  1
  Br  Br7  1  0.500000  0.500000  0.500000  1
  O  O8  1  0.855516  0.855516  0.433451  1
  O  O9  1  0.855516  0.433451  0.855516  1
  O  O10  1  0.433451  0.855516  0.855516  1
  O  O11  1  0.855516  0.855516  0.855516  1
  O  O12  1  0.144484  0.144484  0.566549  1
  O  O13  1  0.144484  0.566549  0.144484  1
  O  O14  1  0.566549  0.144484  0.144484  1
  O  O15  1  0.144484  0.144484  0.144484  1
