# generated using pymatgen
data_Y2Si7(IrRh3)3
_symmetry_space_group_name_H-M   'P 1'
_cell_length_a   9.75285000
_cell_length_b   9.75285049
_cell_length_c   3.87073600
_cell_angle_alpha   90.00000000
_cell_angle_beta   90.00000000
_cell_angle_gamma   119.99999156
_symmetry_Int_Tables_number   1
_chemical_formula_structural   Y2Si7(IrRh3)3
_chemical_formula_sum   'Y2 Si7 Ir3 Rh9'
_cell_volume   318.85066827
_cell_formula_units_Z   1
loop_
 _symmetry_equiv_pos_site_id
 _symmetry_equiv_pos_as_xyz
  1  'x, y, z'
loop_
 _atom_site_type_symbol
 _atom_site_label
 _atom_site_symmetry_multiplicity
 _atom_site_fract_x
 _atom_site_fract_y
 _atom_site_fract_z
 _atom_site_occupancy
  Y  Y0  1  0.333333  0.666667  0.749332  1
  Y  Y1  1  0.666667  0.333333  0.250383  1
  Si  Si2  1  0.000000  0.000000  0.497947  1
  Si  Si3  1  0.402107  0.289501  0.752047  1
  Si  Si4  1  0.710499  0.112606  0.752047  1
  Si  Si5  1  0.887394  0.597893  0.752047  1
  Si  Si6  1  0.599677  0.709861  0.248629  1
  Si  Si7  1  0.290139  0.889815  0.248629  1
  Si  Si8  1  0.110185  0.400323  0.248629  1
  Ir  Ir9  1  0.442868  0.061598  0.751460  1
  Ir  Ir10  1  0.938402  0.381270  0.751460  1
  Ir  Ir11  1  0.618730  0.557132  0.751460  1
  Rh  Rh12  1  0.555827  0.935435  0.248690  1
  Rh  Rh13  1  0.064565  0.620392  0.248690  1
  Rh  Rh14  1  0.379608  0.444173  0.248690  1
  Rh  Rh15  1  0.143799  0.261079  0.744339  1
  Rh  Rh16  1  0.738921  0.882720  0.744339  1
  Rh  Rh17  1  0.117280  0.856201  0.744339  1
  Rh  Rh18  1  0.856851  0.738061  0.255614  1
  Rh  Rh19  1  0.261939  0.118790  0.255614  1
  Rh  Rh20  1  0.881210  0.143149  0.255614  1
