# generated using pymatgen
data_Tm19LuZnBi11
_symmetry_space_group_name_H-M   'P 1'
_cell_length_a   8.12364770
_cell_length_b   9.39497300
_cell_length_c   11.87020846
_cell_angle_alpha   90.00000000
_cell_angle_beta   89.65527977
_cell_angle_gamma   90.00000000
_symmetry_Int_Tables_number   1
_chemical_formula_structural   Tm19LuZnBi11
_chemical_formula_sum   'Tm19 Lu1 Zn1 Bi11'
_cell_volume   905.93513409
_cell_formula_units_Z   1
loop_
 _symmetry_equiv_pos_site_id
 _symmetry_equiv_pos_as_xyz
  1  'x, y, z'
loop_
 _atom_site_type_symbol
 _atom_site_label
 _atom_site_symmetry_multiplicity
 _atom_site_fract_x
 _atom_site_fract_y
 _atom_site_fract_z
 _atom_site_occupancy
  Tm  Tm0  1  0.979838  0.750000  0.489811  1
  Tm  Tm1  1  0.475183  0.750000  0.010365  1
  Tm  Tm2  1  0.525633  0.250000  0.989297  1
  Tm  Tm3  1  0.356927  0.250000  0.294846  1
  Tm  Tm4  1  0.647021  0.750000  0.716191  1
  Tm  Tm5  1  0.149469  0.750000  0.782591  1
  Tm  Tm6  1  0.853301  0.250000  0.216145  1
  Tm  Tm7  1  0.191303  0.250000  0.778683  1
  Tm  Tm8  1  0.810041  0.750000  0.217432  1
  Tm  Tm9  1  0.313216  0.750000  0.281351  1
  Tm  Tm10  1  0.674752  0.250000  0.710421  1
  Tm  Tm11  1  0.193635  0.065914  0.061260  1
  Tm  Tm12  1  0.806294  0.934574  0.940352  1
  Tm  Tm13  1  0.308883  0.952131  0.558992  1
  Tm  Tm14  1  0.806294  0.565426  0.940352  1
  Tm  Tm15  1  0.684278  0.071990  0.445323  1
  Tm  Tm16  1  0.193635  0.434086  0.061260  1
  Tm  Tm17  1  0.684278  0.428010  0.445323  1
  Tm  Tm18  1  0.308883  0.547869  0.558992  1
  Lu  Lu19  1  0.036449  0.250000  0.508657  1
  Zn  Zn20  1  0.407932  0.250000  0.539804  1
  Bi  Bi21  1  0.594184  0.750000  0.457227  1
  Bi  Bi22  1  0.094308  0.750000  0.042642  1
  Bi  Bi23  1  0.907017  0.250000  0.954912  1
  Bi  Bi24  1  0.063443  0.002845  0.324330  1
  Bi  Bi25  1  0.935086  0.997571  0.675379  1
  Bi  Bi26  1  0.435321  0.997212  0.824837  1
  Bi  Bi27  1  0.935086  0.502429  0.675379  1
  Bi  Bi28  1  0.564775  0.003901  0.174340  1
  Bi  Bi29  1  0.063443  0.497155  0.324330  1
  Bi  Bi30  1  0.564775  0.496099  0.174340  1
  Bi  Bi31  1  0.435321  0.502788  0.824837  1
