# generated using pymatgen
data_Lu4Be2Si6MoW5
_symmetry_space_group_name_H-M   'P 1'
_cell_length_a   6.63420400
_cell_length_b   6.74572720
_cell_length_c   12.79444737
_cell_angle_alpha   89.97230668
_cell_angle_beta   90.00000000
_cell_angle_gamma   90.00000000
_symmetry_Int_Tables_number   1
_chemical_formula_structural   Lu4Be2Si6MoW5
_chemical_formula_sum   'Lu8 Be4 Si12 Mo2 W10'
_cell_volume   572.58382756
_cell_formula_units_Z   2
loop_
 _symmetry_equiv_pos_site_id
 _symmetry_equiv_pos_as_xyz
  1  'x, y, z'
loop_
 _atom_site_type_symbol
 _atom_site_label
 _atom_site_symmetry_multiplicity
 _atom_site_fract_x
 _atom_site_fract_y
 _atom_site_fract_z
 _atom_site_occupancy
  Lu  Lu0  1  0.499557  0.332793  0.095889  1
  Lu  Lu1  1  0.999557  0.167207  0.404111  1
  Lu  Lu2  1  0.500304  0.667753  0.595646  1
  Lu  Lu3  1  0.000304  0.832247  0.904354  1
  Lu  Lu4  1  0.499920  0.667276  0.904273  1
  Lu  Lu5  1  0.999920  0.832724  0.595727  1
  Lu  Lu6  1  0.499844  0.332906  0.404094  1
  Lu  Lu7  1  0.999844  0.167094  0.095906  1
  Be  Be8  1  0.544457  0.372576  0.749639  1
  Be  Be9  1  0.044457  0.127424  0.750361  1
  Be  Be10  1  0.455159  0.626568  0.250010  1
  Be  Be11  1  0.955159  0.873432  0.249990  1
  Si  Si12  1  0.664049  0.041036  0.541918  1
  Si  Si13  1  0.164049  0.458964  0.958082  1
  Si  Si14  1  0.335911  0.959345  0.041646  1
  Si  Si15  1  0.835911  0.540655  0.458354  1
  Si  Si16  1  0.335669  0.959677  0.458002  1
  Si  Si17  1  0.835669  0.540323  0.041998  1
  Si  Si18  1  0.664391  0.041132  0.957802  1
  Si  Si19  1  0.164391  0.458868  0.542198  1
  Si  Si20  1  0.793856  0.625212  0.750155  1
  Si  Si21  1  0.293856  0.874788  0.749845  1
  Si  Si22  1  0.206505  0.374055  0.250092  1
  Si  Si23  1  0.706505  0.125945  0.249908  1
  Mo  Mo24  1  0.839390  0.328499  0.872429  1
  Mo  Mo25  1  0.339390  0.171501  0.627571  1
  W  W26  1  0.840003  0.327399  0.628560  1
  W  W27  1  0.340003  0.172601  0.871440  1
  W  W28  1  0.160402  0.672663  0.128327  1
  W  W29  1  0.660402  0.827337  0.371673  1
  W  W30  1  0.160317  0.672553  0.371815  1
  W  W31  1  0.660317  0.827447  0.128185  1
  W  W32  1  0.665720  0.012728  0.749946  1
  W  W33  1  0.165720  0.487272  0.750054  1
  W  W34  1  0.334544  0.986807  0.249883  1
  W  W35  1  0.834544  0.513193  0.250117  1
