# generated using pymatgen
data_Tb6Ni18P13Pt2
_symmetry_space_group_name_H-M   'P 1'
_cell_length_a   12.79906700
_cell_length_b   12.79906797
_cell_length_c   3.77933800
_cell_angle_alpha   90.00000000
_cell_angle_beta   90.00000000
_cell_angle_gamma   120.00000007
_symmetry_Int_Tables_number   1
_chemical_formula_structural   Tb6Ni18P13Pt2
_chemical_formula_sum   'Tb6 Ni18 P13 Pt2'
_cell_volume   536.17063337
_cell_formula_units_Z   1
loop_
 _symmetry_equiv_pos_site_id
 _symmetry_equiv_pos_as_xyz
  1  'x, y, z'
loop_
 _atom_site_type_symbol
 _atom_site_label
 _atom_site_symmetry_multiplicity
 _atom_site_fract_x
 _atom_site_fract_y
 _atom_site_fract_z
 _atom_site_occupancy
  Tb  Tb0  1  0.464525  0.183165  0.000000  1
  Tb  Tb1  1  0.718641  0.535475  0.000000  1
  Tb  Tb2  1  0.816835  0.281359  0.000000  1
  Tb  Tb3  1  0.536058  0.816169  0.500000  1
  Tb  Tb4  1  0.280112  0.463942  0.500000  1
  Tb  Tb5  1  0.183831  0.719888  0.500000  1
  Ni  Ni6  1  0.193511  0.090723  0.000000  1
  Ni  Ni7  1  0.897211  0.806489  0.000000  1
  Ni  Ni8  1  0.909277  0.102789  0.000000  1
  Ni  Ni9  1  0.851183  0.928020  0.500000  1
  Ni  Ni10  1  0.076837  0.148817  0.500000  1
  Ni  Ni11  1  0.071980  0.923163  0.500000  1
  Ni  Ni12  1  0.435808  0.413519  0.000000  1
  Ni  Ni13  1  0.977712  0.564192  0.000000  1
  Ni  Ni14  1  0.586481  0.022288  0.000000  1
  Ni  Ni15  1  0.567970  0.590606  0.500000  1
  Ni  Ni16  1  0.022635  0.432030  0.500000  1
  Ni  Ni17  1  0.409394  0.977365  0.500000  1
  Ni  Ni18  1  0.076897  0.316578  0.000000  1
  Ni  Ni19  1  0.239679  0.923103  0.000000  1
  Ni  Ni20  1  0.683422  0.760321  0.000000  1
  Ni  Ni21  1  0.930705  0.686804  0.500000  1
  Ni  Ni22  1  0.756100  0.069295  0.500000  1
  Ni  Ni23  1  0.313196  0.243900  0.500000  1
  P  P24  1  0.233450  0.280884  0.000000  1
  P  P25  1  0.047435  0.766550  0.000000  1
  P  P26  1  0.719116  0.952565  0.000000  1
  P  P27  1  0.769742  0.723814  0.500000  1
  P  P28  1  0.954072  0.230258  0.500000  1
  P  P29  1  0.276186  0.045928  0.500000  1
  P  P30  1  0.484532  0.612409  0.000000  1
  P  P31  1  0.127877  0.515468  0.000000  1
  P  P32  1  0.387591  0.872123  0.000000  1
  P  P33  1  0.516086  0.388665  0.500000  1
  P  P34  1  0.872579  0.483914  0.500000  1
  P  P35  1  0.611335  0.127421  0.500000  1
  P  P36  1  0.000000  0.000000  0.000000  1
  Pt  Pt37  1  0.333333  0.666667  0.000000  1
  Pt  Pt38  1  0.666667  0.333333  0.500000  1
