# generated using pymatgen
data_Ca2Cu3Ir
_symmetry_space_group_name_H-M   'P 1'
_cell_length_a   5.16793475
_cell_length_b   5.16793444
_cell_length_c   5.35663445
_cell_angle_alpha   61.15862386
_cell_angle_beta   61.15863240
_cell_angle_gamma   60.00000493
_symmetry_Int_Tables_number   1
_chemical_formula_structural   Ca2Cu3Ir
_chemical_formula_sum   'Ca2 Cu3 Ir1'
_cell_volume   102.89605673
_cell_formula_units_Z   1
loop_
 _symmetry_equiv_pos_site_id
 _symmetry_equiv_pos_as_xyz
  1  'x, y, z'
loop_
 _atom_site_type_symbol
 _atom_site_label
 _atom_site_symmetry_multiplicity
 _atom_site_fract_x
 _atom_site_fract_y
 _atom_site_fract_z
 _atom_site_occupancy
  Ca  Ca0  1  0.251779  0.251779  0.244664  1
  Ca  Ca1  1  0.998221  0.998221  0.005336  1
  Cu  Cu2  1  0.625000  0.625000  0.625000  1
  Cu  Cu3  1  0.125000  0.625000  0.625000  1
  Cu  Cu4  1  0.625000  0.125000  0.625000  1
  Ir  Ir5  1  0.625000  0.625000  0.125000  1
