# generated using pymatgen
data_Li3La2Dy3(P3Ir4)4
_symmetry_space_group_name_H-M   'P 1'
_cell_length_a   12.80381700
_cell_length_b   12.80612669
_cell_length_c   3.98407900
_cell_angle_alpha   90.00000000
_cell_angle_beta   90.00000000
_cell_angle_gamma   119.99403139
_symmetry_Int_Tables_number   1
_chemical_formula_structural   Li3La2Dy3(P3Ir4)4
_chemical_formula_sum   'Li3 La2 Dy3 P12 Ir16'
_cell_volume   565.77264092
_cell_formula_units_Z   1
loop_
 _symmetry_equiv_pos_site_id
 _symmetry_equiv_pos_as_xyz
  1  'x, y, z'
loop_
 _atom_site_type_symbol
 _atom_site_label
 _atom_site_symmetry_multiplicity
 _atom_site_fract_x
 _atom_site_fract_y
 _atom_site_fract_z
 _atom_site_occupancy
  Li  Li0  1  0.999556  0.440212  0.500000  1
  Li  Li1  1  0.559345  0.559788  0.500000  1
  Li  Li2  1  0.442527  0.000000  0.500000  1
  La  La3  1  0.999407  0.809638  0.000000  1
  La  La4  1  0.189769  0.190362  0.000000  1
  Dy  Dy5  1  0.333810  0.666638  0.500000  1
  Dy  Dy6  1  0.667173  0.333362  0.500000  1
  Dy  Dy7  1  0.806559  0.000000  0.000000  1
  P  P8  1  0.000138  0.626414  0.500000  1
  P  P9  1  0.373724  0.373586  0.500000  1
  P  P10  1  0.630057  0.000000  0.500000  1
  P  P11  1  0.515738  0.688566  0.000000  1
  P  P12  1  0.312306  0.827266  0.000000  1
  P  P13  1  0.171666  0.483241  0.000000  1
  P  P14  1  0.485040  0.172734  0.000000  1
  P  P15  1  0.688425  0.516759  0.000000  1
  P  P16  1  0.827173  0.311434  0.000000  1
  P  P17  1  0.997126  0.180626  0.500000  1
  P  P18  1  0.816500  0.819374  0.500000  1
  P  P19  1  0.183450  0.000000  0.500000  1
  Ir  Ir20  1  0.509067  0.868473  0.000000  1
  Ir  Ir21  1  0.132146  0.639759  0.000000  1
  Ir  Ir22  1  0.360299  0.492081  0.000000  1
  Ir  Ir23  1  0.492388  0.360241  0.000000  1
  Ir  Ir24  1  0.868219  0.507919  0.000000  1
  Ir  Ir25  1  0.640595  0.131527  0.000000  1
  Ir  Ir26  1  0.997868  0.281557  0.000000  1
  Ir  Ir27  1  0.716311  0.718443  0.000000  1
  Ir  Ir28  1  0.285163  0.000000  0.000000  1
  Ir  Ir29  1  0.626119  0.807610  0.500000  1
  Ir  Ir30  1  0.198305  0.819796  0.500000  1
  Ir  Ir31  1  0.179051  0.378139  0.500000  1
  Ir  Ir32  1  0.378510  0.180204  0.500000  1
  Ir  Ir33  1  0.800913  0.621861  0.500000  1
  Ir  Ir34  1  0.818509  0.192390  0.500000  1
  Ir  Ir35  1  0.997046  0.000000  0.500000  1
