# generated using pymatgen
data_Ce4Pr12Mg4IrOs3
_symmetry_space_group_name_H-M   'P 1'
_cell_length_a   10.04006985
_cell_length_b   10.07755580
_cell_length_c   10.05733173
_cell_angle_alpha   60.10390213
_cell_angle_beta   59.80413529
_cell_angle_gamma   59.71464836
_symmetry_Int_Tables_number   1
_chemical_formula_structural   Ce4Pr12Mg4IrOs3
_chemical_formula_sum   'Ce4 Pr12 Mg4 Ir1 Os3'
_cell_volume   717.47620275
_cell_formula_units_Z   1
loop_
 _symmetry_equiv_pos_site_id
 _symmetry_equiv_pos_as_xyz
  1  'x, y, z'
loop_
 _atom_site_type_symbol
 _atom_site_label
 _atom_site_symmetry_multiplicity
 _atom_site_fract_x
 _atom_site_fract_y
 _atom_site_fract_z
 _atom_site_occupancy
  Ce  Ce0  1  0.339075  0.342369  0.342360  1
  Ce  Ce1  1  0.340077  0.343091  0.973987  1
  Ce  Ce2  1  0.339900  0.974112  0.343015  1
  Ce  Ce3  1  0.978020  0.340443  0.340525  1
  Pr  Pr4  1  0.811297  0.190143  0.190120  1
  Pr  Pr5  1  0.189137  0.809968  0.809968  1
  Pr  Pr6  1  0.189346  0.810608  0.189854  1
  Pr  Pr7  1  0.810316  0.190602  0.808026  1
  Pr  Pr8  1  0.189290  0.189847  0.810676  1
  Pr  Pr9  1  0.810369  0.808027  0.190607  1
  Pr  Pr10  1  0.941918  0.558733  0.558794  1
  Pr  Pr11  1  0.555795  0.942149  0.942025  1
  Pr  Pr12  1  0.556784  0.942673  0.559959  1
  Pr  Pr13  1  0.940902  0.557424  0.942734  1
  Pr  Pr14  1  0.556784  0.559897  0.942692  1
  Pr  Pr15  1  0.940819  0.942724  0.557456  1
  Mg  Mg16  1  0.577863  0.578574  0.578612  1
  Mg  Mg17  1  0.577694  0.578148  0.264678  1
  Mg  Mg18  1  0.577679  0.264653  0.578219  1
  Mg  Mg19  1  0.263454  0.578407  0.578459  1
  Ir  Ir20  1  0.567305  0.144653  0.144637  1
  Os  Os21  1  0.148910  0.145140  0.145063  1
  Os  Os22  1  0.148617  0.145118  0.562508  1
  Os  Os23  1  0.148651  0.562499  0.145028  1
