# generated using pymatgen
data_Lu12TlFe3Ni
_symmetry_space_group_name_H-M   'P 1'
_cell_length_a   8.04534330
_cell_length_b   8.04534256
_cell_length_c   8.04534300
_cell_angle_alpha   106.66405550
_cell_angle_beta   111.34467031
_cell_angle_gamma   110.44224350
_symmetry_Int_Tables_number   1
_chemical_formula_structural   Lu12TlFe3Ni
_chemical_formula_sum   'Lu12 Tl1 Fe3 Ni1'
_cell_volume   400.13417537
_cell_formula_units_Z   1
loop_
 _symmetry_equiv_pos_site_id
 _symmetry_equiv_pos_as_xyz
  1  'x, y, z'
loop_
 _atom_site_type_symbol
 _atom_site_label
 _atom_site_symmetry_multiplicity
 _atom_site_fract_x
 _atom_site_fract_y
 _atom_site_fract_z
 _atom_site_occupancy
  Lu  Lu0  1  0.310254  0.308037  0.618291  1
  Lu  Lu1  1  0.689746  0.691963  0.381709  1
  Lu  Lu2  1  0.689746  0.308037  0.997783  1
  Lu  Lu3  1  0.310254  0.691963  0.002217  1
  Lu  Lu4  1  0.187934  0.407403  0.219469  1
  Lu  Lu5  1  0.812066  0.592597  0.780531  1
  Lu  Lu6  1  0.187934  0.968464  0.780531  1
  Lu  Lu7  1  0.917961  0.189567  0.728395  1
  Lu  Lu8  1  0.812066  0.031536  0.219469  1
  Lu  Lu9  1  0.082039  0.810433  0.271605  1
  Lu  Lu10  1  0.461171  0.189567  0.271605  1
  Lu  Lu11  1  0.538829  0.810433  0.728395  1
  Tl  Tl12  1  0.000000  0.500000  0.500000  1
  Fe  Fe13  1  0.380617  0.380617  0.000000  1
  Fe  Fe14  1  0.619383  0.619383  0.000000  1
  Fe  Fe15  1  0.000000  0.000000  0.000000  1
  Ni  Ni16  1  0.500000  0.000000  0.500000  1
