# generated using pymatgen
data_Ca5Hf3(Ni4P3)4
_symmetry_space_group_name_H-M   'P 1'
_cell_length_a   12.33830300
_cell_length_b   12.33830252
_cell_length_c   3.80495900
_cell_angle_alpha   90.00000000
_cell_angle_beta   90.00000000
_cell_angle_gamma   120.00000396
_symmetry_Int_Tables_number   1
_chemical_formula_structural   Ca5Hf3(Ni4P3)4
_chemical_formula_sum   'Ca5 Hf3 Ni16 P12'
_cell_volume   501.63917125
_cell_formula_units_Z   1
loop_
 _symmetry_equiv_pos_site_id
 _symmetry_equiv_pos_as_xyz
  1  'x, y, z'
loop_
 _atom_site_type_symbol
 _atom_site_label
 _atom_site_symmetry_multiplicity
 _atom_site_fract_x
 _atom_site_fract_y
 _atom_site_fract_z
 _atom_site_occupancy
  Ca  Ca0  1  0.184330  0.184330  0.500000  1
  Ca  Ca1  1  0.815670  0.000000  0.500000  1
  Ca  Ca2  1  0.000000  0.815670  0.500000  1
  Ca  Ca3  1  0.333333  0.666667  0.000000  1
  Ca  Ca4  1  0.666667  0.333333  0.000000  1
  Hf  Hf5  1  0.562263  0.562263  0.000000  1
  Hf  Hf6  1  0.437737  0.000000  0.000000  1
  Hf  Hf7  1  0.000000  0.437737  0.000000  1
  Ni  Ni8  1  0.725136  0.725136  0.500000  1
  Ni  Ni9  1  0.274864  0.000000  0.500000  1
  Ni  Ni10  1  0.000000  0.274864  0.500000  1
  Ni  Ni11  1  0.185641  0.378026  0.000000  1
  Ni  Ni12  1  0.621974  0.807615  0.000000  1
  Ni  Ni13  1  0.192385  0.814359  0.000000  1
  Ni  Ni14  1  0.807615  0.621974  0.000000  1
  Ni  Ni15  1  0.814359  0.192385  0.000000  1
  Ni  Ni16  1  0.378026  0.185641  0.000000  1
  Ni  Ni17  1  0.360811  0.484440  0.500000  1
  Ni  Ni18  1  0.515560  0.876371  0.500000  1
  Ni  Ni19  1  0.123629  0.639189  0.500000  1
  Ni  Ni20  1  0.876371  0.515560  0.500000  1
  Ni  Ni21  1  0.639189  0.123629  0.500000  1
  Ni  Ni22  1  0.484440  0.360811  0.500000  1
  Ni  Ni23  1  0.000000  0.000000  0.000000  1
  P  P24  1  0.821270  0.821270  0.000000  1
  P  P25  1  0.178730  0.000000  0.000000  1
  P  P26  1  0.000000  0.178730  0.000000  1
  P  P27  1  0.169241  0.475156  0.500000  1
  P  P28  1  0.524844  0.694085  0.500000  1
  P  P29  1  0.305915  0.830759  0.500000  1
  P  P30  1  0.694085  0.524844  0.500000  1
  P  P31  1  0.830759  0.305915  0.500000  1
  P  P32  1  0.475156  0.169241  0.500000  1
  P  P33  1  0.356558  0.356558  0.000000  1
  P  P34  1  0.643442  0.000000  0.000000  1
  P  P35  1  0.000000  0.643442  0.000000  1
