# generated using pymatgen
data_Pr3Nd(Si3Rh)2
_symmetry_space_group_name_H-M   'P 1'
_cell_length_a   8.28189131
_cell_length_b   8.28189094
_cell_length_c   8.47135500
_cell_angle_alpha   90.00000000
_cell_angle_beta   90.00000000
_cell_angle_gamma   119.93559582
_symmetry_Int_Tables_number   1
_chemical_formula_structural   Pr3Nd(Si3Rh)2
_chemical_formula_sum   'Pr6 Nd2 Si12 Rh4'
_cell_volume   503.52846789
_cell_formula_units_Z   2
loop_
 _symmetry_equiv_pos_site_id
 _symmetry_equiv_pos_as_xyz
  1  'x, y, z'
loop_
 _atom_site_type_symbol
 _atom_site_label
 _atom_site_symmetry_multiplicity
 _atom_site_fract_x
 _atom_site_fract_y
 _atom_site_fract_z
 _atom_site_occupancy
  Pr  Pr0  1  0.999942  0.000058  0.750000  1
  Pr  Pr1  1  0.999916  0.000084  0.250000  1
  Pr  Pr2  1  0.499865  0.500135  0.750000  1
  Pr  Pr3  1  0.499874  0.999859  0.750000  1
  Pr  Pr4  1  0.000141  0.500126  0.750000  1
  Pr  Pr5  1  0.500138  0.499862  0.250000  1
  Nd  Nd6  1  0.999671  0.499872  0.250000  1
  Nd  Nd7  1  0.500128  0.000329  0.250000  1
  Si  Si8  1  0.833269  0.166731  0.002082  1
  Si  Si9  1  0.833465  0.666919  0.001026  1
  Si  Si10  1  0.333081  0.166535  0.001026  1
  Si  Si11  1  0.833269  0.166731  0.497918  1
  Si  Si12  1  0.833465  0.666919  0.498974  1
  Si  Si13  1  0.333081  0.166535  0.498974  1
  Si  Si14  1  0.166787  0.833213  0.498497  1
  Si  Si15  1  0.666936  0.833585  0.499592  1
  Si  Si16  1  0.166415  0.333064  0.499592  1
  Si  Si17  1  0.166787  0.833213  0.001503  1
  Si  Si18  1  0.666936  0.833585  0.000408  1
  Si  Si19  1  0.166415  0.333064  0.000408  1
  Rh  Rh20  1  0.666689  0.333311  0.001791  1
  Rh  Rh21  1  0.666689  0.333311  0.498209  1
  Rh  Rh22  1  0.333520  0.666480  0.498209  1
  Rh  Rh23  1  0.333520  0.666480  0.001791  1
