# generated using pymatgen
data_PrNdPa8O20
_symmetry_space_group_name_H-M   'P 1'
_cell_length_a   6.72035608
_cell_length_b   7.76705246
_cell_length_c   8.68221391
_cell_angle_alpha   102.95151744
_cell_angle_beta   97.39156392
_cell_angle_gamma   106.70983216
_symmetry_Int_Tables_number   1
_chemical_formula_structural   PrNdPa8O20
_chemical_formula_sum   'Pr1 Nd1 Pa8 O20'
_cell_volume   413.85953589
_cell_formula_units_Z   1
loop_
 _symmetry_equiv_pos_site_id
 _symmetry_equiv_pos_as_xyz
  1  'x, y, z'
loop_
 _atom_site_type_symbol
 _atom_site_label
 _atom_site_symmetry_multiplicity
 _atom_site_fract_x
 _atom_site_fract_y
 _atom_site_fract_z
 _atom_site_occupancy
  Pr  Pr0  1  0.799407  0.599904  0.600752  1
  Nd  Nd1  1  0.000266  0.499949  0.999499  1
  Pa  Pa2  1  0.602643  0.201373  0.200492  1
  Pa  Pa3  1  0.799602  0.100813  0.600825  1
  Pa  Pa4  1  0.397626  0.799412  0.800166  1
  Pa  Pa5  1  0.599958  0.699595  0.200027  1
  Pa  Pa6  1  0.200339  0.400115  0.399138  1
  Pa  Pa7  1  0.401122  0.300507  0.800463  1
  Pa  Pa8  1  0.000239  0.999422  0.999406  1
  Pa  Pa9  1  0.198479  0.898826  0.399205  1
  O  O10  1  0.648282  0.925633  0.050751  1
  O  O11  1  0.434943  0.521244  0.650262  1
  O  O12  1  0.639905  0.422195  0.052422  1
  O  O13  1  0.737104  0.359647  0.746666  1
  O  O14  1  0.253485  0.124559  0.250516  1
  O  O15  1  0.445479  0.023004  0.648332  1
  O  O16  1  0.549312  0.975977  0.350253  1
  O  O17  1  0.061557  0.739736  0.855105  1
  O  O18  1  0.743294  0.884388  0.755276  1
  O  O19  1  0.362557  0.577909  0.948640  1
  O  O20  1  0.853218  0.315102  0.445332  1
  O  O21  1  0.258946  0.630388  0.257129  1
  O  O22  1  0.541987  0.470004  0.342328  1
  O  O23  1  0.151949  0.174244  0.549125  1
  O  O24  1  0.054323  0.215703  0.844547  1
  O  O25  1  0.948125  0.784478  0.154923  1
  O  O26  1  0.850905  0.834068  0.446359  1
  O  O27  1  0.353432  0.076478  0.950870  1
  O  O28  1  0.160854  0.678241  0.547550  1
  O  O29  1  0.950663  0.267087  0.153643  1
