# generated using pymatgen
data_ThHg3(SeCl3)2
_symmetry_space_group_name_H-M   'P 1'
_cell_length_a   7.76318000
_cell_length_b   7.11736988
_cell_length_c   13.76935690
_cell_angle_alpha   89.07485432
_cell_angle_beta   90.00000000
_cell_angle_gamma   90.00000000
_symmetry_Int_Tables_number   1
_chemical_formula_structural   ThHg3(SeCl3)2
_chemical_formula_sum   'Th2 Hg6 Se4 Cl12'
_cell_volume   760.70493171
_cell_formula_units_Z   2
loop_
 _symmetry_equiv_pos_site_id
 _symmetry_equiv_pos_as_xyz
  1  'x, y, z'
loop_
 _atom_site_type_symbol
 _atom_site_label
 _atom_site_symmetry_multiplicity
 _atom_site_fract_x
 _atom_site_fract_y
 _atom_site_fract_z
 _atom_site_occupancy
  Th  Th0  1  0.500000  0.500000  0.500000  1
  Th  Th1  1  0.000000  0.500000  0.000000  1
  Hg  Hg2  1  0.789040  0.990707  0.756299  1
  Hg  Hg3  1  0.210960  0.009293  0.243701  1
  Hg  Hg4  1  0.289040  0.009293  0.743701  1
  Hg  Hg5  1  0.710960  0.990707  0.256299  1
  Hg  Hg6  1  0.000000  0.000000  0.500000  1
  Hg  Hg7  1  0.500000  0.000000  0.000000  1
  Se  Se8  1  0.962428  0.166093  0.333206  1
  Se  Se9  1  0.462428  0.833907  0.166794  1
  Se  Se10  1  0.537572  0.166093  0.833206  1
  Se  Se11  1  0.037572  0.833907  0.666794  1
  Cl  Cl12  1  0.952402  0.660300  0.173176  1
  Cl  Cl13  1  0.297327  0.354866  0.065985  1
  Cl  Cl14  1  0.702673  0.645134  0.934015  1
  Cl  Cl15  1  0.547598  0.660300  0.673176  1
  Cl  Cl16  1  0.797327  0.645134  0.434015  1
  Cl  Cl17  1  0.843076  0.180207  0.062471  1
  Cl  Cl18  1  0.452402  0.339700  0.326824  1
  Cl  Cl19  1  0.047598  0.339700  0.826824  1
  Cl  Cl20  1  0.156924  0.819793  0.937529  1
  Cl  Cl21  1  0.202673  0.354866  0.565985  1
  Cl  Cl22  1  0.656924  0.180207  0.562471  1
  Cl  Cl23  1  0.343076  0.819793  0.437529  1
