# generated using pymatgen
data_CaSc4P12Ir6Ru13
_symmetry_space_group_name_H-M   'P 1'
_cell_length_a   12.48696208
_cell_length_b   12.43366781
_cell_length_c   3.92877200
_cell_angle_alpha   90.00000000
_cell_angle_beta   90.00000000
_cell_angle_gamma   119.81283334
_symmetry_Int_Tables_number   1
_chemical_formula_structural   CaSc4P12Ir6Ru13
_chemical_formula_sum   'Ca1 Sc4 P12 Ir6 Ru13'
_cell_volume   529.24834811
_cell_formula_units_Z   1
loop_
 _symmetry_equiv_pos_site_id
 _symmetry_equiv_pos_as_xyz
  1  'x, y, z'
loop_
 _atom_site_type_symbol
 _atom_site_label
 _atom_site_symmetry_multiplicity
 _atom_site_fract_x
 _atom_site_fract_y
 _atom_site_fract_z
 _atom_site_occupancy
  Ca  Ca0  1  0.333273  0.666633  0.000000  1
  Sc  Sc1  1  0.667459  0.332996  0.000000  1
  Sc  Sc2  1  0.812551  0.000721  0.500000  1
  Sc  Sc3  1  0.185664  0.186740  0.500000  1
  Sc  Sc4  1  0.000394  0.813556  0.500000  1
  P  P5  1  0.630861  0.002670  0.000000  1
  P  P6  1  0.370648  0.371656  0.000000  1
  P  P7  1  0.000780  0.629544  0.000000  1
  P  P8  1  0.689407  0.516427  0.500000  1
  P  P9  1  0.827229  0.307150  0.500000  1
  P  P10  1  0.313165  0.832879  0.500000  1
  P  P11  1  0.519951  0.686451  0.500000  1
  P  P12  1  0.180677  0.003104  0.000000  1
  P  P13  1  0.820540  0.820042  0.000000  1
  P  P14  1  0.994976  0.179314  0.000000  1
  P  P15  1  0.482836  0.170546  0.500000  1
  P  P16  1  0.167697  0.480328  0.500000  1
  Ir  Ir17  1  0.630669  0.813492  0.000000  1
  Ir  Ir18  1  0.182751  0.369250  0.000000  1
  Ir  Ir19  1  0.373886  0.184907  0.000000  1
  Ir  Ir20  1  0.186150  0.818476  0.000000  1
  Ir  Ir21  1  0.811003  0.626141  0.000000  1
  Ir  Ir22  1  0.999579  0.000283  0.000000  1
  Ru  Ru23  1  0.870266  0.506404  0.500000  1
  Ru  Ru24  1  0.492946  0.361989  0.500000  1
  Ru  Ru25  1  0.635957  0.126285  0.500000  1
  Ru  Ru26  1  0.126297  0.640592  0.500000  1
  Ru  Ru27  1  0.360567  0.485933  0.500000  1
  Ru  Ru28  1  0.512532  0.872183  0.500000  1
  Ru  Ru29  1  0.719669  0.717920  0.500000  1
  Ru  Ru30  1  0.000582  0.280927  0.500000  1
  Ru  Ru31  1  0.444562  0.997136  0.000000  1
  Ru  Ru32  1  0.553304  0.553907  0.000000  1
  Ru  Ru33  1  0.003022  0.448061  0.000000  1
  Ru  Ru34  1  0.816228  0.193214  0.000000  1
  Ru  Ru35  1  0.281914  0.002147  0.500000  1
