# generated using pymatgen
data_Ac9Pr3(Si7Br3)2
_symmetry_space_group_name_H-M   'P 1'
_cell_length_a   4.23649500
_cell_length_b   12.25454351
_cell_length_c   17.31163524
_cell_angle_alpha   89.64314620
_cell_angle_beta   90.00000000
_cell_angle_gamma   90.00000000
_symmetry_Int_Tables_number   1
_chemical_formula_structural   Ac9Pr3(Si7Br3)2
_chemical_formula_sum   'Ac9 Pr3 Si14 Br6'
_cell_volume   898.73882973
_cell_formula_units_Z   1
loop_
 _symmetry_equiv_pos_site_id
 _symmetry_equiv_pos_as_xyz
  1  'x, y, z'
loop_
 _atom_site_type_symbol
 _atom_site_label
 _atom_site_symmetry_multiplicity
 _atom_site_fract_x
 _atom_site_fract_y
 _atom_site_fract_z
 _atom_site_occupancy
  Ac  Ac0  1  0.500000  0.342789  0.503208  1
  Ac  Ac1  1  0.000000  0.655131  0.997971  1
  Ac  Ac2  1  0.000000  0.639406  0.744864  1
  Ac  Ac3  1  0.500000  0.360014  0.244371  1
  Ac  Ac4  1  0.000000  0.639478  0.254896  1
  Ac  Ac5  1  0.500000  0.069727  0.878007  1
  Ac  Ac6  1  0.000000  0.933824  0.620918  1
  Ac  Ac7  1  0.500000  0.068342  0.118595  1
  Ac  Ac8  1  0.000000  0.931534  0.380136  1
  Pr  Pr9  1  0.500000  0.366673  0.759437  1
  Pr  Pr10  1  0.500000  0.357729  0.998451  1
  Pr  Pr11  1  0.000000  0.640725  0.501753  1
  Si  Si12  1  0.000000  0.161712  0.998002  1
  Si  Si13  1  0.500000  0.839719  0.500633  1
  Si  Si14  1  0.500000  0.555920  0.878008  1
  Si  Si15  1  0.000000  0.437370  0.624738  1
  Si  Si16  1  0.500000  0.558374  0.119401  1
  Si  Si17  1  0.000000  0.441423  0.381069  1
  Si  Si18  1  0.000000  0.261317  0.874660  1
  Si  Si19  1  0.500000  0.739199  0.621196  1
  Si  Si20  1  0.000000  0.259845  0.120018  1
  Si  Si21  1  0.500000  0.739380  0.379853  1
  Si  Si22  1  0.000000  0.455396  0.877016  1
  Si  Si23  1  0.500000  0.540772  0.623833  1
  Si  Si24  1  0.500000  0.543323  0.379206  1
  Si  Si25  1  0.000000  0.455981  0.120265  1
  Br  Br26  1  0.500000  0.113946  0.692785  1
  Br  Br27  1  0.000000  0.891601  0.807888  1
  Br  Br28  1  0.000000  0.135708  0.499345  1
  Br  Br29  1  0.500000  0.863576  0.999794  1
  Br  Br30  1  0.500000  0.107781  0.307215  1
  Br  Br31  1  0.000000  0.892286  0.192469  1
