# generated using pymatgen
data_Tb3DyErRu2
_symmetry_space_group_name_H-M   'P 1'
_cell_length_a   6.35953808
_cell_length_b   7.27787711
_cell_length_c   8.49946856
_cell_angle_alpha   96.65151095
_cell_angle_beta   111.96954588
_cell_angle_gamma   90.00000342
_symmetry_Int_Tables_number   1
_chemical_formula_structural   Tb3DyErRu2
_chemical_formula_sum   'Tb6 Dy2 Er2 Ru4'
_cell_volume   361.96527642
_cell_formula_units_Z   2
loop_
 _symmetry_equiv_pos_site_id
 _symmetry_equiv_pos_as_xyz
  1  'x, y, z'
loop_
 _atom_site_type_symbol
 _atom_site_label
 _atom_site_symmetry_multiplicity
 _atom_site_fract_x
 _atom_site_fract_y
 _atom_site_fract_z
 _atom_site_occupancy
  Tb  Tb0  1  0.791969  0.584261  0.814215  1
  Tb  Tb1  1  0.977755  0.915739  0.185785  1
  Tb  Tb2  1  0.208034  0.415629  0.185781  1
  Tb  Tb3  1  0.022252  0.084371  0.814219  1
  Tb  Tb4  1  0.206797  0.684972  0.566870  1
  Tb  Tb5  1  0.639926  0.815028  0.433130  1
  Dy  Dy6  1  0.793217  0.315018  0.433114  1
  Dy  Dy7  1  0.360104  0.184982  0.566886  1
  Er  Er8  1  0.421403  0.750000  0.000000  1
  Er  Er9  1  0.578671  0.250000  0.000000  1
  Ru  Ru10  1  0.603206  0.924446  0.780787  1
  Ru  Ru11  1  0.822418  0.575554  0.219213  1
  Ru  Ru12  1  0.396769  0.075682  0.219293  1
  Ru  Ru13  1  0.177478  0.424318  0.780707  1
