# generated using pymatgen
data_PrMn(InIr4)2
_symmetry_space_group_name_H-M   'P 1'
_cell_length_a   8.82526600
_cell_length_b   8.82526600
_cell_length_c   5.24905100
_cell_angle_alpha   90.00000000
_cell_angle_beta   90.00000000
_cell_angle_gamma   90.00000000
_symmetry_Int_Tables_number   1
_chemical_formula_structural   PrMn(InIr4)2
_chemical_formula_sum   'Pr2 Mn2 In4 Ir16'
_cell_volume   408.82401668
_cell_formula_units_Z   2
loop_
 _symmetry_equiv_pos_site_id
 _symmetry_equiv_pos_as_xyz
  1  'x, y, z'
loop_
 _atom_site_type_symbol
 _atom_site_label
 _atom_site_symmetry_multiplicity
 _atom_site_fract_x
 _atom_site_fract_y
 _atom_site_fract_z
 _atom_site_occupancy
  Pr  Pr0  1  0.000000  0.000000  0.000000  1
  Pr  Pr1  1  0.500000  0.500000  0.000000  1
  Mn  Mn2  1  0.500000  0.000000  0.500000  1
  Mn  Mn3  1  0.000000  0.500000  0.500000  1
  In  In4  1  0.123715  0.623715  0.000000  1
  In  In5  1  0.876285  0.376285  0.000000  1
  In  In6  1  0.623715  0.876285  0.000000  1
  In  In7  1  0.376285  0.123715  0.000000  1
  Ir  Ir8  1  0.207677  0.062877  0.500000  1
  Ir  Ir9  1  0.792323  0.937123  0.500000  1
  Ir  Ir10  1  0.062877  0.792323  0.500000  1
  Ir  Ir11  1  0.707677  0.437123  0.500000  1
  Ir  Ir12  1  0.937123  0.207677  0.500000  1
  Ir  Ir13  1  0.292323  0.562877  0.500000  1
  Ir  Ir14  1  0.562877  0.707677  0.500000  1
  Ir  Ir15  1  0.437123  0.292323  0.500000  1
  Ir  Ir16  1  0.674078  0.174078  0.244155  1
  Ir  Ir17  1  0.325922  0.825922  0.755845  1
  Ir  Ir18  1  0.325922  0.825922  0.244155  1
  Ir  Ir19  1  0.174078  0.325922  0.244155  1
  Ir  Ir20  1  0.174078  0.325922  0.755845  1
  Ir  Ir21  1  0.674078  0.174078  0.755845  1
  Ir  Ir22  1  0.825922  0.674078  0.755845  1
  Ir  Ir23  1  0.825922  0.674078  0.244155  1
