# generated using pymatgen
data_HoEr2Zr7Pb6
_symmetry_space_group_name_H-M   'P 1'
_cell_length_a   8.77096100
_cell_length_b   8.78091806
_cell_length_c   6.03976000
_cell_angle_alpha   90.00000000
_cell_angle_beta   90.00000000
_cell_angle_gamma   119.96250033
_symmetry_Int_Tables_number   1
_chemical_formula_structural   HoEr2Zr7Pb6
_chemical_formula_sum   'Ho1 Er2 Zr7 Pb6'
_cell_volume   402.99661757
_cell_formula_units_Z   1
loop_
 _symmetry_equiv_pos_site_id
 _symmetry_equiv_pos_as_xyz
  1  'x, y, z'
loop_
 _atom_site_type_symbol
 _atom_site_label
 _atom_site_symmetry_multiplicity
 _atom_site_fract_x
 _atom_site_fract_y
 _atom_site_fract_z
 _atom_site_occupancy
  Ho  Ho0  1  0.759448  0.000000  0.750000  1
  Er  Er1  1  0.760734  0.757718  0.250000  1
  Er  Er2  1  0.003016  0.242282  0.250000  1
  Zr  Zr3  1  0.330806  0.667101  0.500986  1
  Zr  Zr4  1  0.245077  0.000000  0.250000  1
  Zr  Zr5  1  0.663707  0.332899  0.500986  1
  Zr  Zr6  1  0.001752  0.754955  0.750000  1
  Zr  Zr7  1  0.330806  0.667101  0.999014  1
  Zr  Zr8  1  0.246796  0.245045  0.750000  1
  Zr  Zr9  1  0.663707  0.332899  0.999014  1
  Pb  Pb10  1  0.605851  0.604305  0.750000  1
  Pb  Pb11  1  0.388510  0.000000  0.750000  1
  Pb  Pb12  1  0.601659  0.000000  0.250000  1
  Pb  Pb13  1  0.001548  0.395695  0.750000  1
  Pb  Pb14  1  0.394912  0.393239  0.250000  1
  Pb  Pb15  1  0.001672  0.606761  0.250000  1
