# generated using pymatgen
data_TmTa5NbSn6
_symmetry_space_group_name_H-M   'P 1'
_cell_length_a   5.78750700
_cell_length_b   5.78750782
_cell_length_c   9.58791500
_cell_angle_alpha   90.00000000
_cell_angle_beta   90.00000000
_cell_angle_gamma   120.01125990
_symmetry_Int_Tables_number   1
_chemical_formula_structural   TmTa5NbSn6
_chemical_formula_sum   'Tm1 Ta5 Nb1 Sn6'
_cell_volume   278.09209240
_cell_formula_units_Z   1
loop_
 _symmetry_equiv_pos_site_id
 _symmetry_equiv_pos_as_xyz
  1  'x, y, z'
loop_
 _atom_site_type_symbol
 _atom_site_label
 _atom_site_symmetry_multiplicity
 _atom_site_fract_x
 _atom_site_fract_y
 _atom_site_fract_z
 _atom_site_occupancy
  Tm  Tm0  1  0.000000  0.000000  0.999975  1
  Ta  Ta1  1  0.000000  0.500000  0.750766  1
  Ta  Ta2  1  0.500000  0.500000  0.750634  1
  Ta  Ta3  1  0.500000  0.000000  0.750766  1
  Ta  Ta4  1  0.000000  0.500000  0.249353  1
  Ta  Ta5  1  0.500000  0.000000  0.249353  1
  Nb  Nb6  1  0.500000  0.500000  0.249437  1
  Sn  Sn7  1  0.666849  0.333151  0.499996  1
  Sn  Sn8  1  0.333151  0.666849  0.499996  1
  Sn  Sn9  1  0.666684  0.333316  0.000036  1
  Sn  Sn10  1  0.333316  0.666684  0.000036  1
  Sn  Sn11  1  0.000000  0.000000  0.668637  1
  Sn  Sn12  1  0.000000  0.000000  0.331016  1
