# generated using pymatgen
data_NdFeTeO6
_symmetry_space_group_name_H-M   'P 1'
_cell_length_a   5.25210603
_cell_length_b   5.25213176
_cell_length_c   10.19685000
_cell_angle_alpha   90.00143414
_cell_angle_beta   89.99928332
_cell_angle_gamma   120.00015274
_symmetry_Int_Tables_number   1
_chemical_formula_structural   NdFeTeO6
_chemical_formula_sum   'Nd2 Fe2 Te2 O12'
_cell_volume   243.59316124
_cell_formula_units_Z   2
loop_
 _symmetry_equiv_pos_site_id
 _symmetry_equiv_pos_as_xyz
  1  'x, y, z'
loop_
 _atom_site_type_symbol
 _atom_site_label
 _atom_site_symmetry_multiplicity
 _atom_site_fract_x
 _atom_site_fract_y
 _atom_site_fract_z
 _atom_site_occupancy
  Nd  Nd0  1  0.000000  0.000000  0.000000  1
  Nd  Nd1  1  0.000000  0.000000  0.500000  1
  Fe  Fe2  1  0.333276  0.666638  0.250000  1
  Fe  Fe3  1  0.666724  0.333362  0.750000  1
  Te  Te4  1  0.333382  0.666690  0.750000  1
  Te  Te5  1  0.666618  0.333310  0.250000  1
  O  O6  1  0.374445  0.361389  0.142356  1
  O  O7  1  0.638481  0.013018  0.142345  1
  O  O8  1  0.986834  0.625426  0.142350  1
  O  O9  1  0.625555  0.638611  0.857644  1
  O  O10  1  0.361519  0.986982  0.857655  1
  O  O11  1  0.013166  0.374574  0.857650  1
  O  O12  1  0.638481  0.625463  0.357655  1
  O  O13  1  0.374445  0.013055  0.357644  1
  O  O14  1  0.986834  0.361409  0.357650  1
  O  O15  1  0.361519  0.374537  0.642345  1
  O  O16  1  0.625555  0.986945  0.642356  1
  O  O17  1  0.013166  0.638591  0.642350  1
