# generated using pymatgen
data_CaPrNi7
_symmetry_space_group_name_H-M   'P 1'
_cell_length_a   5.00347735
_cell_length_b   5.00347715
_cell_length_c   12.40259839
_cell_angle_alpha   78.36297509
_cell_angle_beta   78.36297449
_cell_angle_gamma   59.99999513
_symmetry_Int_Tables_number   1
_chemical_formula_structural   CaPrNi7
_chemical_formula_sum   'Ca2 Pr2 Ni14'
_cell_volume   261.50222722
_cell_formula_units_Z   2
loop_
 _symmetry_equiv_pos_site_id
 _symmetry_equiv_pos_as_xyz
  1  'x, y, z'
loop_
 _atom_site_type_symbol
 _atom_site_label
 _atom_site_symmetry_multiplicity
 _atom_site_fract_x
 _atom_site_fract_y
 _atom_site_fract_z
 _atom_site_occupancy
  Ca  Ca0  1  0.850542  0.850542  0.448376  1
  Ca  Ca1  1  0.149458  0.149458  0.551624  1
  Pr  Pr2  1  0.947268  0.947268  0.158196  1
  Pr  Pr3  1  0.052732  0.052732  0.841804  1
  Ni  Ni4  1  0.500000  0.500000  0.500000  1
  Ni  Ni5  1  0.721771  0.721771  0.834687  1
  Ni  Ni6  1  0.278229  0.278229  0.165313  1
  Ni  Ni7  1  0.612185  0.612185  0.163446  1
  Ni  Ni8  1  0.387815  0.387815  0.836554  1
  Ni  Ni9  1  0.000000  0.500000  0.000000  1
  Ni  Ni10  1  0.500000  0.000000  0.000000  1
  Ni  Ni11  1  0.500000  0.500000  0.000000  1
  Ni  Ni12  1  0.391666  0.391666  0.327791  1
  Ni  Ni13  1  0.888878  0.391666  0.327791  1
  Ni  Ni14  1  0.391666  0.888878  0.327791  1
  Ni  Ni15  1  0.608334  0.608334  0.672209  1
  Ni  Ni16  1  0.111122  0.608334  0.672209  1
  Ni  Ni17  1  0.608334  0.111122  0.672209  1
