# generated using pymatgen
data_Rb4CuAs2Au
_symmetry_space_group_name_H-M   'P 1'
_cell_length_a   6.59062267
_cell_length_b   6.59062303
_cell_length_c   6.41375482
_cell_angle_alpha   89.35217721
_cell_angle_beta   89.35218700
_cell_angle_gamma   107.13966078
_symmetry_Int_Tables_number   1
_chemical_formula_structural   Rb4CuAs2Au
_chemical_formula_sum   'Rb4 Cu1 As2 Au1'
_cell_volume   266.16920043
_cell_formula_units_Z   1
loop_
 _symmetry_equiv_pos_site_id
 _symmetry_equiv_pos_as_xyz
  1  'x, y, z'
loop_
 _atom_site_type_symbol
 _atom_site_label
 _atom_site_symmetry_multiplicity
 _atom_site_fract_x
 _atom_site_fract_y
 _atom_site_fract_z
 _atom_site_occupancy
  Rb  Rb0  1  0.978721  0.319360  0.748081  1
  Rb  Rb1  1  0.319360  0.978721  0.748081  1
  Rb  Rb2  1  0.021279  0.680640  0.251919  1
  Rb  Rb3  1  0.680640  0.021279  0.251919  1
  Cu  Cu4  1  0.500000  0.500000  0.000000  1
  As  As5  1  0.736852  0.736852  0.765785  1
  As  As6  1  0.263148  0.263148  0.234215  1
  Au  Au7  1  0.500000  0.500000  0.500000  1
