# generated using pymatgen
data_Dy7Ho3Ir3Os
_symmetry_space_group_name_H-M   'P 1'
_cell_length_a   6.47742897
_cell_length_b   7.24551061
_cell_length_c   8.45852323
_cell_angle_alpha   96.49392081
_cell_angle_beta   112.28391240
_cell_angle_gamma   89.97581937
_symmetry_Int_Tables_number   1
_chemical_formula_structural   Dy7Ho3Ir3Os
_chemical_formula_sum   'Dy7 Ho3 Ir3 Os1'
_cell_volume   364.58363342
_cell_formula_units_Z   1
loop_
 _symmetry_equiv_pos_site_id
 _symmetry_equiv_pos_as_xyz
  1  'x, y, z'
loop_
 _atom_site_type_symbol
 _atom_site_label
 _atom_site_symmetry_multiplicity
 _atom_site_fract_x
 _atom_site_fract_y
 _atom_site_fract_z
 _atom_site_occupancy
  Dy  Dy0  1  0.971532  0.916518  0.183136  1
  Dy  Dy1  1  0.790347  0.582599  0.821421  1
  Dy  Dy2  1  0.028456  0.083050  0.818143  1
  Dy  Dy3  1  0.210453  0.417781  0.183212  1
  Dy  Dy4  1  0.656173  0.816959  0.439638  1
  Dy  Dy5  1  0.210852  0.681632  0.557559  1
  Dy  Dy6  1  0.345891  0.182004  0.559549  1
  Ho  Ho7  1  0.786065  0.318933  0.439185  1
  Ho  Ho8  1  0.427273  0.749685  0.000397  1
  Ho  Ho9  1  0.574823  0.251431  0.000797  1
  Ir  Ir10  1  0.606067  0.927112  0.779818  1
  Ir  Ir11  1  0.173213  0.425508  0.780327  1
  Ir  Ir12  1  0.393329  0.073683  0.219828  1
  Os  Os13  1  0.825527  0.573106  0.216989  1
