# generated using pymatgen
data_Dy2Er10OsRu3
_symmetry_space_group_name_H-M   'P 1'
_cell_length_a   6.27034701
_cell_length_b   7.30471390
_cell_length_c   9.03883300
_cell_angle_alpha   90.00000000
_cell_angle_beta   90.00000000
_cell_angle_gamma   90.08033018
_symmetry_Int_Tables_number   1
_chemical_formula_structural   Dy2Er10OsRu3
_chemical_formula_sum   'Dy2 Er10 Os1 Ru3'
_cell_volume   414.00608323
_cell_formula_units_Z   1
loop_
 _symmetry_equiv_pos_site_id
 _symmetry_equiv_pos_as_xyz
  1  'x, y, z'
loop_
 _atom_site_type_symbol
 _atom_site_label
 _atom_site_symmetry_multiplicity
 _atom_site_fract_x
 _atom_site_fract_y
 _atom_site_fract_z
 _atom_site_occupancy
  Dy  Dy0  1  0.868332  0.540271  0.250000  1
  Dy  Dy1  1  0.632067  0.040037  0.250000  1
  Er  Er2  1  0.333854  0.675452  0.062248  1
  Er  Er3  1  0.167208  0.175940  0.436289  1
  Er  Er4  1  0.667996  0.324271  0.563972  1
  Er  Er5  1  0.831512  0.823650  0.935377  1
  Er  Er6  1  0.667996  0.324271  0.936028  1
  Er  Er7  1  0.831512  0.823650  0.564623  1
  Er  Er8  1  0.333854  0.675452  0.437752  1
  Er  Er9  1  0.167208  0.175940  0.063711  1
  Er  Er10  1  0.130543  0.460266  0.750000  1
  Er  Er11  1  0.367659  0.961346  0.750000  1
  Os  Os12  1  0.539398  0.616519  0.750000  1
  Ru  Ru13  1  0.039275  0.883565  0.250000  1
  Ru  Ru14  1  0.460576  0.383174  0.250000  1
  Ru  Ru15  1  0.961008  0.116197  0.750000  1
