# generated using pymatgen
data_Nd3MgCd2Ge2Pt
_symmetry_space_group_name_H-M   'P 1'
_cell_length_a   7.34998300
_cell_length_b   7.42715806
_cell_length_c   4.47605100
_cell_angle_alpha   90.00000000
_cell_angle_beta   90.00000000
_cell_angle_gamma   119.65686649
_symmetry_Int_Tables_number   1
_chemical_formula_structural   Nd3MgCd2Ge2Pt
_chemical_formula_sum   'Nd3 Mg1 Cd2 Ge2 Pt1'
_cell_volume   212.33712512
_cell_formula_units_Z   1
loop_
 _symmetry_equiv_pos_site_id
 _symmetry_equiv_pos_as_xyz
  1  'x, y, z'
loop_
 _atom_site_type_symbol
 _atom_site_label
 _atom_site_symmetry_multiplicity
 _atom_site_fract_x
 _atom_site_fract_y
 _atom_site_fract_z
 _atom_site_occupancy
  Nd  Nd0  1  0.408943  0.409724  0.000000  1
  Nd  Nd1  1  0.594722  0.000000  0.000000  1
  Nd  Nd2  1  0.999218  0.590276  0.000000  1
  Mg  Mg3  1  0.231775  0.000000  0.500000  1
  Cd  Cd4  1  0.001099  0.243820  0.500000  1
  Cd  Cd5  1  0.757279  0.756180  0.500000  1
  Ge  Ge6  1  0.660682  0.328092  0.500000  1
  Ge  Ge7  1  0.332589  0.671908  0.500000  1
  Pt  Pt8  1  0.013692  0.000000  0.000000  1
