# generated using pymatgen
data_Sr2Pd6PtO18
_symmetry_space_group_name_H-M   'P 1'
_cell_length_a   6.75296180
_cell_length_b   7.12291099
_cell_length_c   7.45987853
_cell_angle_alpha   92.07926334
_cell_angle_beta   96.34150544
_cell_angle_gamma   114.19400061
_symmetry_Int_Tables_number   1
_chemical_formula_structural   Sr2Pd6PtO18
_chemical_formula_sum   'Sr2 Pd6 Pt1 O18'
_cell_volume   323.98606403
_cell_formula_units_Z   1
loop_
 _symmetry_equiv_pos_site_id
 _symmetry_equiv_pos_as_xyz
  1  'x, y, z'
loop_
 _atom_site_type_symbol
 _atom_site_label
 _atom_site_symmetry_multiplicity
 _atom_site_fract_x
 _atom_site_fract_y
 _atom_site_fract_z
 _atom_site_occupancy
  Sr  Sr0  1  0.679563  0.310839  0.386357  1
  Sr  Sr1  1  0.320470  0.689206  0.613665  1
  Pd  Pd2  1  0.600469  0.713524  0.113603  1
  Pd  Pd3  1  0.193430  0.875348  0.180661  1
  Pd  Pd4  1  0.179935  0.382253  0.199844  1
  Pd  Pd5  1  0.820058  0.617748  0.800155  1
  Pd  Pd6  1  0.806614  0.124625  0.819316  1
  Pd  Pd7  1  0.399520  0.286513  0.886434  1
  Pt  Pt8  1  0.999969  0.000001  0.499968  1
  O  O9  1  0.693413  0.486659  0.026024  1
  O  O10  1  0.879206  0.222478  0.078164  1
  O  O11  1  0.313670  0.181374  0.129048  1
  O  O12  1  0.504338  0.929509  0.177733  1
  O  O13  1  0.908978  0.901554  0.232547  1
  O  O14  1  0.090506  0.601200  0.283584  1
  O  O15  1  0.484377  0.560016  0.325579  1
  O  O16  1  0.082293  0.284325  0.436472  1
  O  O17  1  0.282009  0.000229  0.439897  1
  O  O18  1  0.717803  0.999677  0.559909  1
  O  O19  1  0.917705  0.715729  0.563536  1
  O  O20  1  0.515675  0.439985  0.674308  1
  O  O21  1  0.909562  0.398880  0.716298  1
  O  O22  1  0.090825  0.098316  0.767587  1
  O  O23  1  0.495968  0.070674  0.822347  1
  O  O24  1  0.686266  0.818458  0.871033  1
  O  O25  1  0.120766  0.777534  0.921976  1
  O  O26  1  0.306612  0.513345  0.973958  1
