# generated using pymatgen
data_Tb14Er6Si15Os
_symmetry_space_group_name_H-M   'P 1'
_cell_length_a   7.39059204
_cell_length_b   7.75733579
_cell_length_c   14.57820510
_cell_angle_alpha   90.06280982
_cell_angle_beta   90.05830612
_cell_angle_gamma   90.04383568
_symmetry_Int_Tables_number   1
_chemical_formula_structural   Tb14Er6Si15Os
_chemical_formula_sum   'Tb14 Er6 Si15 Os1'
_cell_volume   835.78633023
_cell_formula_units_Z   1
loop_
 _symmetry_equiv_pos_site_id
 _symmetry_equiv_pos_as_xyz
  1  'x, y, z'
loop_
 _atom_site_type_symbol
 _atom_site_label
 _atom_site_symmetry_multiplicity
 _atom_site_fract_x
 _atom_site_fract_y
 _atom_site_fract_z
 _atom_site_occupancy
  Tb  Tb0  1  0.318544  0.819049  0.123717  1
  Tb  Tb1  1  0.817430  0.676916  0.376393  1
  Tb  Tb2  1  0.319049  0.820199  0.376635  1
  Tb  Tb3  1  0.816359  0.676657  0.122993  1
  Tb  Tb4  1  0.670297  0.186706  0.874052  1
  Tb  Tb5  1  0.191927  0.324787  0.626878  1
  Tb  Tb6  1  0.523061  0.673049  0.597642  1
  Tb  Tb7  1  0.025183  0.818255  0.902920  1
  Tb  Tb8  1  0.472391  0.314739  0.097789  1
  Tb  Tb9  1  0.973982  0.182776  0.402269  1
  Tb  Tb10  1  0.474748  0.315462  0.403073  1
  Tb  Tb11  1  0.974285  0.182217  0.097144  1
  Tb  Tb12  1  0.521228  0.672113  0.902123  1
  Tb  Tb13  1  0.025625  0.817557  0.596901  1
  Er  Er14  1  0.672039  0.185947  0.626339  1
  Er  Er15  1  0.192042  0.325609  0.872785  1
  Er  Er16  1  0.841303  0.512609  0.749997  1
  Er  Er17  1  0.354210  0.988146  0.749988  1
  Er  Er18  1  0.150621  0.484775  0.250031  1
  Er  Er19  1  0.650077  0.013319  0.250080  1
  Si  Si20  1  0.648545  0.971585  0.461919  1
  Si  Si21  1  0.149914  0.527774  0.038591  1
  Si  Si22  1  0.346730  0.027500  0.960984  1
  Si  Si23  1  0.855138  0.469783  0.539582  1
  Si  Si24  1  0.351517  0.025627  0.540250  1
  Si  Si25  1  0.859490  0.470798  0.959352  1
  Si  Si26  1  0.645453  0.971176  0.039099  1
  Si  Si27  1  0.148607  0.528163  0.460512  1
  Si  Si28  1  0.980135  0.101287  0.749736  1
  Si  Si29  1  0.521709  0.601448  0.250142  1
  Si  Si30  1  0.019044  0.895591  0.249844  1
  Si  Si31  1  0.740036  0.876700  0.749355  1
  Si  Si32  1  0.229646  0.634760  0.750734  1
  Si  Si33  1  0.268018  0.129676  0.250141  1
  Si  Si34  1  0.770628  0.369230  0.250058  1
  Os  Os35  1  0.480987  0.408011  0.749955  1
