# generated using pymatgen
data_Tl(WO3)2
_symmetry_space_group_name_H-M   'P 1'
_cell_length_a   7.43074341
_cell_length_b   7.43074359
_cell_length_c   7.43074300
_cell_angle_alpha   120.19831169
_cell_angle_beta   119.89205317
_cell_angle_gamma   89.92196232
_symmetry_Int_Tables_number   1
_chemical_formula_structural   Tl(WO3)2
_chemical_formula_sum   'Tl2 W4 O12'
_cell_volume   289.92173561
_cell_formula_units_Z   2
loop_
 _symmetry_equiv_pos_site_id
 _symmetry_equiv_pos_as_xyz
  1  'x, y, z'
loop_
 _atom_site_type_symbol
 _atom_site_label
 _atom_site_symmetry_multiplicity
 _atom_site_fract_x
 _atom_site_fract_y
 _atom_site_fract_z
 _atom_site_occupancy
  Tl  Tl0  1  0.095539  0.253357  0.657818  1
  Tl  Tl1  1  0.904461  0.562279  0.157818  1
  W  W2  1  0.500000  0.999992  0.499992  1
  W  W3  1  0.000000  0.999992  0.999992  1
  W  W4  1  0.501814  0.497493  0.495679  1
  W  W5  1  0.498186  0.993865  0.995679  1
  O  O6  1  0.558917  0.310025  0.251108  1
  O  O7  1  0.189019  0.952149  0.263132  1
  O  O8  1  0.193546  0.942717  0.881645  1
  O  O9  1  0.566768  0.321604  0.630619  1
  O  O10  1  0.561073  0.942717  0.249171  1
  O  O11  1  0.190985  0.321604  0.254836  1
  O  O12  1  0.441083  0.692192  0.751108  1
  O  O13  1  0.810981  0.074113  0.763132  1
  O  O14  1  0.809015  0.063851  0.130619  1
  O  O15  1  0.438927  0.688099  0.381645  1
  O  O16  1  0.433232  0.063851  0.754836  1
  O  O17  1  0.806454  0.688099  0.749171  1
