# generated using pymatgen
data_Nd3Dy2Zr2P12Ir17
_symmetry_space_group_name_H-M   'P 1'
_cell_length_a   12.69705100
_cell_length_b   12.94427962
_cell_length_c   4.01066900
_cell_angle_alpha   90.00000000
_cell_angle_beta   90.00000000
_cell_angle_gamma   119.37017860
_symmetry_Int_Tables_number   1
_chemical_formula_structural   Nd3Dy2Zr2P12Ir17
_chemical_formula_sum   'Nd3 Dy2 Zr2 P12 Ir17'
_cell_volume   574.44653419
_cell_formula_units_Z   1
loop_
 _symmetry_equiv_pos_site_id
 _symmetry_equiv_pos_as_xyz
  1  'x, y, z'
loop_
 _atom_site_type_symbol
 _atom_site_label
 _atom_site_symmetry_multiplicity
 _atom_site_fract_x
 _atom_site_fract_y
 _atom_site_fract_z
 _atom_site_occupancy
  Nd  Nd0  1  0.001579  0.815266  0.000000  1
  Nd  Nd1  1  0.186313  0.184734  0.000000  1
  Nd  Nd2  1  0.813048  0.000000  0.000000  1
  Dy  Dy3  1  0.329936  0.661138  0.500000  1
  Dy  Dy4  1  0.668799  0.338862  0.500000  1
  Zr  Zr5  1  0.997257  0.446415  0.500000  1
  Zr  Zr6  1  0.550843  0.553585  0.500000  1
  P  P7  1  0.005518  0.648118  0.500000  1
  P  P8  1  0.357400  0.351882  0.500000  1
  P  P9  1  0.642735  0.000000  0.500000  1
  P  P10  1  0.514402  0.686578  0.000000  1
  P  P11  1  0.308904  0.823534  0.000000  1
  P  P12  1  0.164711  0.481010  0.000000  1
  P  P13  1  0.485369  0.176466  0.000000  1
  P  P14  1  0.683701  0.518990  0.000000  1
  P  P15  1  0.827824  0.313422  0.000000  1
  P  P16  1  0.999630  0.176522  0.500000  1
  P  P17  1  0.823108  0.823478  0.500000  1
  P  P18  1  0.183989  0.000000  0.500000  1
  Ir  Ir19  1  0.504032  0.864513  0.000000  1
  Ir  Ir20  1  0.127789  0.643363  0.000000  1
  Ir  Ir21  1  0.355099  0.496349  0.000000  1
  Ir  Ir22  1  0.484426  0.356637  0.000000  1
  Ir  Ir23  1  0.858751  0.503651  0.000000  1
  Ir  Ir24  1  0.639520  0.135487  0.000000  1
  Ir  Ir25  1  0.464003  0.000000  0.500000  1
  Ir  Ir26  1  0.996707  0.279881  0.000000  1
  Ir  Ir27  1  0.716826  0.720119  0.000000  1
  Ir  Ir28  1  0.293241  0.000000  0.000000  1
  Ir  Ir29  1  0.620591  0.805756  0.500000  1
  Ir  Ir30  1  0.207419  0.825762  0.500000  1
  Ir  Ir31  1  0.177807  0.369200  0.500000  1
  Ir  Ir32  1  0.381657  0.174238  0.500000  1
  Ir  Ir33  1  0.808608  0.630800  0.500000  1
  Ir  Ir34  1  0.814835  0.194244  0.500000  1
  Ir  Ir35  1  0.003625  0.000000  0.500000  1
