# generated using pymatgen
data_GaF18
_symmetry_space_group_name_H-M   'P 1'
_cell_length_a   6.15729290
_cell_length_b   8.81433038
_cell_length_c   13.36192314
_cell_angle_alpha   102.59853960
_cell_angle_beta   89.08069601
_cell_angle_gamma   109.55924914
_symmetry_Int_Tables_number   1
_chemical_formula_structural   GaF18
_chemical_formula_sum   'Ga2 F36'
_cell_volume   665.60320512
_cell_formula_units_Z   2
loop_
 _symmetry_equiv_pos_site_id
 _symmetry_equiv_pos_as_xyz
  1  'x, y, z'
loop_
 _atom_site_type_symbol
 _atom_site_label
 _atom_site_symmetry_multiplicity
 _atom_site_fract_x
 _atom_site_fract_y
 _atom_site_fract_z
 _atom_site_occupancy
  Ga  Ga0  1  0.126807  0.977602  0.272469  1
  Ga  Ga1  1  0.873193  0.022398  0.727531  1
  F  F2  1  0.702401  0.619384  0.380220  1
  F  F3  1  0.297599  0.380616  0.619780  1
  F  F4  1  0.037678  0.343168  0.374100  1
  F  F5  1  0.962322  0.656832  0.625900  1
  F  F6  1  0.189337  0.904027  0.959877  1
  F  F7  1  0.810663  0.095973  0.040123  1
  F  F8  1  0.855818  0.909380  0.350801  1
  F  F9  1  0.144182  0.090620  0.649199  1
  F  F10  1  0.107482  0.752983  0.235432  1
  F  F11  1  0.892518  0.247017  0.764568  1
  F  F12  1  0.528702  0.466138  0.384252  1
  F  F13  1  0.471298  0.533862  0.615748  1
  F  F14  1  0.039035  0.063604  0.181156  1
  F  F15  1  0.960965  0.936396  0.818844  1
  F  F16  1  0.161484  0.087766  0.412801  1
  F  F17  1  0.838516  0.912234  0.587199  1
  F  F18  1  0.027681  0.443811  0.305156  1
  F  F19  1  0.972319  0.556189  0.694844  1
  F  F20  1  0.755086  0.713539  0.061980  1
  F  F21  1  0.244914  0.286461  0.938020  1
  F  F22  1  0.816341  0.574311  0.013123  1
  F  F23  1  0.183659  0.425689  0.986877  1
  F  F24  1  0.542824  0.596415  0.846313  1
  F  F25  1  0.457176  0.403585  0.153687  1
  F  F26  1  0.456274  0.039786  0.264882  1
  F  F27  1  0.543726  0.960214  0.735118  1
  F  F28  1  0.267586  0.858314  0.479803  1
  F  F29  1  0.732414  0.141686  0.520197  1
  F  F30  1  0.312111  0.873963  0.039138  1
  F  F31  1  0.687889  0.126037  0.960862  1
  F  F32  1  0.440821  0.809451  0.221566  1
  F  F33  1  0.559179  0.190549  0.778434  1
  F  F34  1  0.615526  0.320878  0.164429  1
  F  F35  1  0.384474  0.679122  0.835571  1
  F  F36  1  0.357496  0.730329  0.484231  1
  F  F37  1  0.642504  0.269671  0.515769  1
