# generated using pymatgen
data_La8Zn(CuPd11)2
_symmetry_space_group_name_H-M   'P 1'
_cell_length_a   8.47462100
_cell_length_b   8.57352900
_cell_length_c   8.57352900
_cell_angle_alpha   90.00000000
_cell_angle_beta   90.00000000
_cell_angle_gamma   90.00000000
_symmetry_Int_Tables_number   1
_chemical_formula_structural   La8Zn(CuPd11)2
_chemical_formula_sum   'La8 Zn1 Cu2 Pd22'
_cell_volume   622.93040233
_cell_formula_units_Z   1
loop_
 _symmetry_equiv_pos_site_id
 _symmetry_equiv_pos_as_xyz
  1  'x, y, z'
loop_
 _atom_site_type_symbol
 _atom_site_label
 _atom_site_symmetry_multiplicity
 _atom_site_fract_x
 _atom_site_fract_y
 _atom_site_fract_z
 _atom_site_occupancy
  La  La0  1  0.250254  0.253174  0.253174  1
  La  La1  1  0.749746  0.746826  0.746826  1
  La  La2  1  0.749746  0.746826  0.253174  1
  La  La3  1  0.749746  0.253174  0.746826  1
  La  La4  1  0.250254  0.253174  0.746826  1
  La  La5  1  0.250254  0.746826  0.253174  1
  La  La6  1  0.250254  0.746826  0.746826  1
  La  La7  1  0.749746  0.253174  0.253174  1
  Zn  Zn8  1  0.000000  0.000000  0.000000  1
  Cu  Cu9  1  0.311403  0.000000  0.000000  1
  Cu  Cu10  1  0.688597  0.000000  0.000000  1
  Pd  Pd11  1  0.263042  0.500000  0.000000  1
  Pd  Pd12  1  0.736958  0.500000  0.000000  1
  Pd  Pd13  1  0.000000  0.260717  0.500000  1
  Pd  Pd14  1  0.500000  0.253462  0.000000  1
  Pd  Pd15  1  0.000000  0.739283  0.500000  1
  Pd  Pd16  1  0.500000  0.746538  0.000000  1
  Pd  Pd17  1  0.500000  0.000000  0.253462  1
  Pd  Pd18  1  0.263042  0.000000  0.500000  1
  Pd  Pd19  1  0.500000  0.000000  0.746538  1
  Pd  Pd20  1  0.736958  0.000000  0.500000  1
  Pd  Pd21  1  0.000000  0.500000  0.260717  1
  Pd  Pd22  1  0.000000  0.500000  0.739283  1
  Pd  Pd23  1  0.253891  0.500000  0.500000  1
  Pd  Pd24  1  0.746109  0.500000  0.500000  1
  Pd  Pd25  1  0.500000  0.251908  0.500000  1
  Pd  Pd26  1  0.500000  0.748092  0.500000  1
  Pd  Pd27  1  0.500000  0.500000  0.251908  1
  Pd  Pd28  1  0.500000  0.500000  0.748092  1
  Pd  Pd29  1  0.000000  0.295571  0.000000  1
  Pd  Pd30  1  0.000000  0.704429  0.000000  1
  Pd  Pd31  1  0.000000  0.000000  0.295571  1
  Pd  Pd32  1  0.000000  0.000000  0.704429  1
