# generated using pymatgen
data_Nd2Sc(Ga2Ni3)3
_symmetry_space_group_name_H-M   'P 1'
_cell_length_a   8.75097800
_cell_length_b   8.75097778
_cell_length_c   4.14073200
_cell_angle_alpha   90.00000000
_cell_angle_beta   90.00000000
_cell_angle_gamma   120.00000084
_symmetry_Int_Tables_number   1
_chemical_formula_structural   Nd2Sc(Ga2Ni3)3
_chemical_formula_sum   'Nd2 Sc1 Ga6 Ni9'
_cell_volume   274.61289320
_cell_formula_units_Z   1
loop_
 _symmetry_equiv_pos_site_id
 _symmetry_equiv_pos_as_xyz
  1  'x, y, z'
loop_
 _atom_site_type_symbol
 _atom_site_label
 _atom_site_symmetry_multiplicity
 _atom_site_fract_x
 _atom_site_fract_y
 _atom_site_fract_z
 _atom_site_occupancy
  Nd  Nd0  1  0.333333  0.666667  0.500000  1
  Nd  Nd1  1  0.666667  0.333333  0.500000  1
  Sc  Sc2  1  0.000000  0.000000  0.000000  1
  Ga  Ga3  1  0.483845  0.000000  0.000000  1
  Ga  Ga4  1  0.000000  0.483845  0.000000  1
  Ga  Ga5  1  0.516155  0.516155  0.000000  1
  Ga  Ga6  1  0.742371  0.000000  0.500000  1
  Ga  Ga7  1  0.000000  0.742371  0.500000  1
  Ga  Ga8  1  0.257629  0.257629  0.500000  1
  Ni  Ni9  1  0.188679  0.358668  0.000000  1
  Ni  Ni10  1  0.641332  0.830010  0.000000  1
  Ni  Ni11  1  0.169990  0.811321  0.000000  1
  Ni  Ni12  1  0.830010  0.641332  0.000000  1
  Ni  Ni13  1  0.811321  0.169990  0.000000  1
  Ni  Ni14  1  0.358668  0.188679  0.000000  1
  Ni  Ni15  1  0.292507  0.000000  0.500000  1
  Ni  Ni16  1  0.000000  0.292507  0.500000  1
  Ni  Ni17  1  0.707493  0.707493  0.500000  1
