# generated using pymatgen
data_Ca(Yb4Pd3)2
_symmetry_space_group_name_H-M   'P 1'
_cell_length_a   7.54502958
_cell_length_b   7.54435701
_cell_length_c   7.53919228
_cell_angle_alpha   71.19275260
_cell_angle_beta   71.29753600
_cell_angle_gamma   71.32292979
_symmetry_Int_Tables_number   1
_chemical_formula_structural   Ca(Yb4Pd3)2
_chemical_formula_sum   'Ca1 Yb8 Pd6'
_cell_volume   373.36122794
_cell_formula_units_Z   1
loop_
 _symmetry_equiv_pos_site_id
 _symmetry_equiv_pos_as_xyz
  1  'x, y, z'
loop_
 _atom_site_type_symbol
 _atom_site_label
 _atom_site_symmetry_multiplicity
 _atom_site_fract_x
 _atom_site_fract_y
 _atom_site_fract_z
 _atom_site_occupancy
  Ca  Ca0  1  0.398331  0.158447  0.664770  1
  Yb  Yb1  1  0.001285  0.000385  0.998903  1
  Yb  Yb2  1  0.797182  0.799433  0.798285  1
  Yb  Yb3  1  0.202406  0.201845  0.200999  1
  Yb  Yb4  1  0.329501  0.603670  0.844560  1
  Yb  Yb5  1  0.844773  0.330015  0.602991  1
  Yb  Yb6  1  0.603437  0.842832  0.330012  1
  Yb  Yb7  1  0.670089  0.398022  0.155301  1
  Yb  Yb8  1  0.155347  0.669214  0.397121  1
  Pd  Pd9  1  0.155670  0.953894  0.589293  1
  Pd  Pd10  1  0.592865  0.157976  0.960184  1
  Pd  Pd11  1  0.956055  0.590705  0.159880  1
  Pd  Pd12  1  0.842747  0.043229  0.407049  1
  Pd  Pd13  1  0.410866  0.837448  0.047536  1
  Pd  Pd14  1  0.039446  0.412887  0.843116  1
