# generated using pymatgen
data_Zr6Mn6Fe10Si7
_symmetry_space_group_name_H-M   'P 1'
_cell_length_a   8.17276689
_cell_length_b   8.17115485
_cell_length_c   8.17115565
_cell_angle_alpha   59.84835058
_cell_angle_beta   59.99347815
_cell_angle_gamma   59.99347212
_symmetry_Int_Tables_number   1
_chemical_formula_structural   Zr6Mn6Fe10Si7
_chemical_formula_sum   'Zr6 Mn6 Fe10 Si7'
_cell_volume   385.37016003
_cell_formula_units_Z   1
loop_
 _symmetry_equiv_pos_site_id
 _symmetry_equiv_pos_as_xyz
  1  'x, y, z'
loop_
 _atom_site_type_symbol
 _atom_site_label
 _atom_site_symmetry_multiplicity
 _atom_site_fract_x
 _atom_site_fract_y
 _atom_site_fract_z
 _atom_site_occupancy
  Zr  Zr0  1  0.702483  0.703897  0.296432  1
  Zr  Zr1  1  0.297188  0.703897  0.296432  1
  Zr  Zr2  1  0.705073  0.294927  0.294927  1
  Zr  Zr3  1  0.297188  0.296432  0.703897  1
  Zr  Zr4  1  0.702483  0.296432  0.703897  1
  Zr  Zr5  1  0.302343  0.697657  0.697657  1
  Mn  Mn6  1  0.877233  0.875425  0.370111  1
  Mn  Mn7  1  0.877233  0.370111  0.875425  1
  Mn  Mn8  1  0.363949  0.877441  0.877441  1
  Mn  Mn9  1  0.881171  0.877441  0.877441  1
  Mn  Mn10  1  0.122874  0.119818  0.634434  1
  Mn  Mn11  1  0.122874  0.634434  0.119818  1
  Fe  Fe12  1  0.631648  0.123043  0.123043  1
  Fe  Fe13  1  0.122266  0.123043  0.123043  1
  Fe  Fe14  1  0.675410  0.676511  0.972668  1
  Fe  Fe15  1  0.675410  0.972668  0.676511  1
  Fe  Fe16  1  0.971475  0.676367  0.676367  1
  Fe  Fe17  1  0.675790  0.676367  0.676367  1
  Fe  Fe18  1  0.323470  0.323372  0.029688  1
  Fe  Fe19  1  0.323470  0.029688  0.323372  1
  Fe  Fe20  1  0.029142  0.323825  0.323825  1
  Fe  Fe21  1  0.323208  0.323825  0.323825  1
  Si  Si22  1  0.992570  0.007430  0.007430  1
  Si  Si23  1  0.000790  0.000647  0.497037  1
  Si  Si24  1  0.501526  0.000647  0.497037  1
  Si  Si25  1  0.000467  0.499533  0.499533  1
  Si  Si26  1  0.501526  0.497037  0.000647  1
  Si  Si27  1  0.000790  0.497037  0.000647  1
  Si  Si28  1  0.498952  0.001048  0.001048  1
