# generated using pymatgen
data_La2P7IrRu11
_symmetry_space_group_name_H-M   'P 1'
_cell_length_a   9.49021276
_cell_length_b   9.53522667
_cell_length_c   3.98931000
_cell_angle_alpha   90.00000000
_cell_angle_beta   90.00000000
_cell_angle_gamma   119.82855124
_symmetry_Int_Tables_number   1
_chemical_formula_structural   La2P7IrRu11
_chemical_formula_sum   'La2 P7 Ir1 Ru11'
_cell_volume   313.17212488
_cell_formula_units_Z   1
loop_
 _symmetry_equiv_pos_site_id
 _symmetry_equiv_pos_as_xyz
  1  'x, y, z'
loop_
 _atom_site_type_symbol
 _atom_site_label
 _atom_site_symmetry_multiplicity
 _atom_site_fract_x
 _atom_site_fract_y
 _atom_site_fract_z
 _atom_site_occupancy
  La  La0  1  0.667512  0.334901  0.500000  1
  La  La1  1  0.331536  0.663447  0.000000  1
  P  P2  1  0.605129  0.710453  0.500000  1
  P  P3  1  0.999043  0.998936  0.000000  1
  P  P4  1  0.281797  0.888507  0.500000  1
  P  P5  1  0.108580  0.393784  0.500000  1
  P  P6  1  0.892814  0.581170  0.000000  1
  P  P7  1  0.421078  0.311960  0.000000  1
  P  P8  1  0.693663  0.113852  0.000000  1
  Ir  Ir9  1  0.556773  0.946690  0.500000  1
  Ru  Ru10  1  0.388826  0.437847  0.500000  1
  Ru  Ru11  1  0.911164  0.121362  0.500000  1
  Ru  Ru12  1  0.208193  0.086401  0.500000  1
  Ru  Ru13  1  0.879856  0.795559  0.500000  1
  Ru  Ru14  1  0.729348  0.892920  0.000000  1
  Ru  Ru15  1  0.110094  0.840564  0.000000  1
  Ru  Ru16  1  0.159592  0.267015  0.000000  1
  Ru  Ru17  1  0.426221  0.066194  0.000000  1
  Ru  Ru18  1  0.936954  0.359763  0.000000  1
  Ru  Ru19  1  0.642416  0.578542  0.000000  1
  Ru  Ru20  1  0.049410  0.610135  0.500000  1
