# generated using pymatgen
data_CeSmSi4(PtAu)2
_symmetry_space_group_name_H-M   'P 1'
_cell_length_a   4.29138300
_cell_length_b   4.29138300
_cell_length_c   10.00188600
_cell_angle_alpha   90.00000000
_cell_angle_beta   90.00000000
_cell_angle_gamma   90.00000000
_symmetry_Int_Tables_number   1
_chemical_formula_structural   CeSmSi4(PtAu)2
_chemical_formula_sum   'Ce1 Sm1 Si4 Pt2 Au2'
_cell_volume   184.19441304
_cell_formula_units_Z   1
loop_
 _symmetry_equiv_pos_site_id
 _symmetry_equiv_pos_as_xyz
  1  'x, y, z'
loop_
 _atom_site_type_symbol
 _atom_site_label
 _atom_site_symmetry_multiplicity
 _atom_site_fract_x
 _atom_site_fract_y
 _atom_site_fract_z
 _atom_site_occupancy
  Ce  Ce0  1  0.500000  0.000000  0.740463  1
  Sm  Sm1  1  0.000000  0.500000  0.258848  1
  Si  Si2  1  0.500000  0.500000  0.500027  1
  Si  Si3  1  0.500000  0.000000  0.146083  1
  Si  Si4  1  0.000000  0.000000  0.500027  1
  Si  Si5  1  0.000000  0.500000  0.855162  1
  Pt  Pt6  1  0.000000  0.500000  0.615734  1
  Pt  Pt7  1  0.500000  0.000000  0.384280  1
  Au  Au8  1  0.000000  0.000000  0.999688  1
  Au  Au9  1  0.500000  0.500000  0.999688  1
