# generated using pymatgen
data_Dy4Ho4Lu2Zn3Bi2Au
_symmetry_space_group_name_H-M   'P 1'
_cell_length_a   8.62147376
_cell_length_b   8.62123573
_cell_length_c   8.62659145
_cell_angle_alpha   124.03702026
_cell_angle_beta   124.03786994
_cell_angle_gamma   83.09929477
_symmetry_Int_Tables_number   1
_chemical_formula_structural   Dy4Ho4Lu2Zn3Bi2Au
_chemical_formula_sum   'Dy4 Ho4 Lu2 Zn3 Bi2 Au1'
_cell_volume   422.52995120
_cell_formula_units_Z   1
loop_
 _symmetry_equiv_pos_site_id
 _symmetry_equiv_pos_as_xyz
  1  'x, y, z'
loop_
 _atom_site_type_symbol
 _atom_site_label
 _atom_site_symmetry_multiplicity
 _atom_site_fract_x
 _atom_site_fract_y
 _atom_site_fract_z
 _atom_site_occupancy
  Dy  Dy0  1  0.488553  0.989915  0.193765  1
  Dy  Dy1  1  0.794787  0.296148  0.806235  1
  Dy  Dy2  1  0.988283  0.795435  0.500000  1
  Dy  Dy3  1  0.295687  0.487645  0.500000  1
  Ho  Ho4  1  0.510623  0.011914  0.806234  1
  Ho  Ho5  1  0.204390  0.705681  0.193766  1
  Ho  Ho6  1  0.012666  0.204900  0.500000  1
  Ho  Ho7  1  0.705131  0.512035  0.500000  1
  Lu  Lu8  1  0.499781  0.499672  0.999301  1
  Lu  Lu9  1  0.000479  0.000370  0.000699  1
  Zn  Zn10  1  0.138564  0.640455  0.779981  1
  Zn  Zn11  1  0.858583  0.360474  0.220019  1
  Zn  Zn12  1  0.640338  0.858572  0.500000  1
  Bi  Bi13  1  0.249362  0.250917  0.000039  1
  Bi  Bi14  1  0.749322  0.750878  0.999961  1
  Au  Au15  1  0.363449  0.134991  0.500000  1
