# generated using pymatgen
data_Li3Tb3Si2As
_symmetry_space_group_name_H-M   'P 1'
_cell_length_a   6.99085600
_cell_length_b   6.99085610
_cell_length_c   4.27247800
_cell_angle_alpha   90.00000000
_cell_angle_beta   90.00000000
_cell_angle_gamma   119.99999955
_symmetry_Int_Tables_number   1
_chemical_formula_structural   Li3Tb3Si2As
_chemical_formula_sum   'Li3 Tb3 Si2 As1'
_cell_volume   180.83029369
_cell_formula_units_Z   1
loop_
 _symmetry_equiv_pos_site_id
 _symmetry_equiv_pos_as_xyz
  1  'x, y, z'
loop_
 _atom_site_type_symbol
 _atom_site_label
 _atom_site_symmetry_multiplicity
 _atom_site_fract_x
 _atom_site_fract_y
 _atom_site_fract_z
 _atom_site_occupancy
  Li  Li0  1  0.231830  0.998934  0.500000  1
  Li  Li1  1  0.767104  0.768170  0.500000  1
  Li  Li2  1  0.001066  0.232896  0.500000  1
  Tb  Tb3  1  0.993811  0.571164  0.000000  1
  Tb  Tb4  1  0.577353  0.006189  0.000000  1
  Tb  Tb5  1  0.428836  0.422647  0.000000  1
  Si  Si6  1  0.666667  0.333333  0.500000  1
  Si  Si7  1  0.000000  0.000000  0.000000  1
  As  As8  1  0.333333  0.666667  0.500000  1
