# generated using pymatgen
data_TbYbNi2(BN)2
_symmetry_space_group_name_H-M   'P 1'
_cell_length_a   3.49746900
_cell_length_b   3.49746900
_cell_length_c   7.52220200
_cell_angle_alpha   90.00000000
_cell_angle_beta   90.00000000
_cell_angle_gamma   90.00000000
_symmetry_Int_Tables_number   1
_chemical_formula_structural   TbYbNi2(BN)2
_chemical_formula_sum   'Tb1 Yb1 Ni2 B2 N2'
_cell_volume   92.01375183
_cell_formula_units_Z   1
loop_
 _symmetry_equiv_pos_site_id
 _symmetry_equiv_pos_as_xyz
  1  'x, y, z'
loop_
 _atom_site_type_symbol
 _atom_site_label
 _atom_site_symmetry_multiplicity
 _atom_site_fract_x
 _atom_site_fract_y
 _atom_site_fract_z
 _atom_site_occupancy
  Tb  Tb0  1  0.000000  0.500000  0.838804  1
  Yb  Yb1  1  0.500000  0.000000  0.168106  1
  Ni  Ni2  1  0.000000  0.000000  0.499812  1
  Ni  Ni3  1  0.500000  0.500000  0.499812  1
  B  B4  1  0.000000  0.500000  0.335277  1
  B  B5  1  0.500000  0.000000  0.658194  1
  N  N6  1  0.000000  0.500000  0.149180  1
  N  N7  1  0.500000  0.000000  0.850814  1
