# generated using pymatgen
data_Tb3Al5Ga4
_symmetry_space_group_name_H-M   'P 1'
_cell_length_a   7.81257636
_cell_length_b   7.82929910
_cell_length_c   7.82929844
_cell_angle_alpha   47.10511266
_cell_angle_beta   47.31261034
_cell_angle_gamma   47.31262864
_symmetry_Int_Tables_number   1
_chemical_formula_structural   Tb3Al5Ga4
_chemical_formula_sum   'Tb3 Al5 Ga4'
_cell_volume   236.12707606
_cell_formula_units_Z   1
loop_
 _symmetry_equiv_pos_site_id
 _symmetry_equiv_pos_as_xyz
  1  'x, y, z'
loop_
 _atom_site_type_symbol
 _atom_site_label
 _atom_site_symmetry_multiplicity
 _atom_site_fract_x
 _atom_site_fract_y
 _atom_site_fract_z
 _atom_site_occupancy
  Tb  Tb0  1  0.787890  0.785302  0.785302  1
  Tb  Tb1  1  0.213097  0.217181  0.217181  1
  Tb  Tb2  1  0.996361  0.998302  0.998302  1
  Al  Al3  1  0.498344  0.501891  0.000791  1
  Al  Al4  1  0.498344  0.000791  0.501891  1
  Al  Al5  1  0.000746  0.500934  0.500934  1
  Al  Al6  1  0.302876  0.296217  0.727710  1
  Al  Al7  1  0.302876  0.727710  0.296217  1
  Ga  Ga8  1  0.698040  0.703250  0.273004  1
  Ga  Ga9  1  0.270016  0.700278  0.700278  1
  Ga  Ga10  1  0.698040  0.273004  0.703250  1
  Ga  Ga11  1  0.733369  0.295140  0.295140  1
