# generated using pymatgen
data_ZnBi3IrRu3O14
_symmetry_space_group_name_H-M   'P 1'
_cell_length_a   7.21522803
_cell_length_b   7.34265257
_cell_length_c   7.33578693
_cell_angle_alpha   59.96903617
_cell_angle_beta   59.31432116
_cell_angle_gamma   59.41406570
_symmetry_Int_Tables_number   1
_chemical_formula_structural   ZnBi3IrRu3O14
_chemical_formula_sum   'Zn1 Bi3 Ir1 Ru3 O14'
_cell_volume   272.07782964
_cell_formula_units_Z   1
loop_
 _symmetry_equiv_pos_site_id
 _symmetry_equiv_pos_as_xyz
  1  'x, y, z'
loop_
 _atom_site_type_symbol
 _atom_site_label
 _atom_site_symmetry_multiplicity
 _atom_site_fract_x
 _atom_site_fract_y
 _atom_site_fract_z
 _atom_site_occupancy
  Zn  Zn0  1  0.625000  0.125000  0.125000  1
  Bi  Bi1  1  0.125000  0.125000  0.625000  1
  Bi  Bi2  1  0.125000  0.625000  0.125000  1
  Bi  Bi3  1  0.125000  0.125000  0.125000  1
  Ir  Ir4  1  0.625000  0.625000  0.125000  1
  Ru  Ru5  1  0.625000  0.125000  0.625000  1
  Ru  Ru6  1  0.125000  0.625000  0.625000  1
  Ru  Ru7  1  0.625000  0.625000  0.625000  1
  O  O8  1  0.296095  0.234788  0.234328  1
  O  O9  1  0.953905  0.015212  0.015672  1
  O  O10  1  0.543278  0.945175  0.566372  1
  O  O11  1  0.289265  0.708508  0.293720  1
  O  O12  1  0.542495  0.555939  0.950687  1
  O  O13  1  0.959156  0.542556  0.544319  1
  O  O14  1  0.542495  0.950878  0.950687  1
  O  O15  1  0.959156  0.953969  0.544319  1
  O  O16  1  0.960735  0.541492  0.956280  1
  O  O17  1  0.707505  0.299122  0.299313  1
  O  O18  1  0.290844  0.707444  0.705681  1
  O  O19  1  0.706722  0.304825  0.683628  1
  O  O20  1  0.290844  0.296031  0.705681  1
  O  O21  1  0.707505  0.694061  0.299313  1
