# generated using pymatgen
data_Ca3Yb7(Bi3Br)2
_symmetry_space_group_name_H-M   'P 1'
_cell_length_a   9.37555100
_cell_length_b   9.37555182
_cell_length_c   7.16280300
_cell_angle_alpha   90.00000000
_cell_angle_beta   90.00000000
_cell_angle_gamma   120.00000063
_symmetry_Int_Tables_number   1
_chemical_formula_structural   Ca3Yb7(Bi3Br)2
_chemical_formula_sum   'Ca3 Yb7 Bi6 Br2'
_cell_volume   545.26456473
_cell_formula_units_Z   1
loop_
 _symmetry_equiv_pos_site_id
 _symmetry_equiv_pos_as_xyz
  1  'x, y, z'
loop_
 _atom_site_type_symbol
 _atom_site_label
 _atom_site_symmetry_multiplicity
 _atom_site_fract_x
 _atom_site_fract_y
 _atom_site_fract_z
 _atom_site_occupancy
  Ca  Ca0  1  0.333333  0.666667  0.500000  1
  Ca  Ca1  1  0.333333  0.666667  0.000000  1
  Ca  Ca2  1  0.666667  0.333333  0.500000  1
  Yb  Yb3  1  0.739989  0.000011  0.750013  1
  Yb  Yb4  1  0.999989  0.260011  0.249987  1
  Yb  Yb5  1  0.739989  0.739979  0.249987  1
  Yb  Yb6  1  0.666667  0.333333  0.000000  1
  Yb  Yb7  1  0.260021  0.000011  0.249987  1
  Yb  Yb8  1  0.260021  0.260011  0.750013  1
  Yb  Yb9  1  0.999989  0.739979  0.750013  1
  Bi  Bi10  1  0.391882  0.000137  0.750083  1
  Bi  Bi11  1  0.608255  0.000137  0.249917  1
  Bi  Bi12  1  0.999863  0.608118  0.249917  1
  Bi  Bi13  1  0.608255  0.608118  0.750083  1
  Bi  Bi14  1  0.999863  0.391745  0.750083  1
  Bi  Bi15  1  0.391882  0.391745  0.249917  1
  Br  Br16  1  0.000000  0.000000  0.500000  1
  Br  Br17  1  0.000000  0.000000  0.000000  1
