# generated using pymatgen
data_LaTbFe4(CoB2)4
_symmetry_space_group_name_H-M   'P 1'
_cell_length_a   7.02485591
_cell_length_b   7.05186592
_cell_length_c   3.80868500
_cell_angle_alpha   90.00000000
_cell_angle_beta   90.00000000
_cell_angle_gamma   89.94148627
_symmetry_Int_Tables_number   1
_chemical_formula_structural   LaTbFe4(CoB2)4
_chemical_formula_sum   'La1 Tb1 Fe4 Co4 B8'
_cell_volume   188.67584179
_cell_formula_units_Z   1
loop_
 _symmetry_equiv_pos_site_id
 _symmetry_equiv_pos_as_xyz
  1  'x, y, z'
loop_
 _atom_site_type_symbol
 _atom_site_label
 _atom_site_symmetry_multiplicity
 _atom_site_fract_x
 _atom_site_fract_y
 _atom_site_fract_z
 _atom_site_occupancy
  La  La0  1  0.500000  0.500000  0.499465  1
  Tb  Tb1  1  0.000000  0.000000  0.998739  1
  Fe  Fe2  1  0.384468  0.130613  0.893545  1
  Fe  Fe3  1  0.615532  0.869387  0.893545  1
  Fe  Fe4  1  0.364480  0.887334  0.394851  1
  Fe  Fe5  1  0.635520  0.112666  0.394851  1
  Co  Co6  1  0.113765  0.358350  0.607788  1
  Co  Co7  1  0.886235  0.641650  0.607788  1
  Co  Co8  1  0.134785  0.616972  0.108899  1
  Co  Co9  1  0.865215  0.383028  0.108899  1
  B  B10  1  0.802557  0.666395  0.102541  1
  B  B11  1  0.197443  0.333605  0.102541  1
  B  B12  1  0.839046  0.290184  0.605641  1
  B  B13  1  0.160954  0.709816  0.605641  1
  B  B14  1  0.705797  0.838360  0.391687  1
  B  B15  1  0.294203  0.161640  0.391687  1
  B  B16  1  0.666787  0.194847  0.895945  1
  B  B17  1  0.333213  0.805153  0.895945  1
