# generated using pymatgen
data_InIrCl6
_symmetry_space_group_name_H-M   'P 1'
_cell_length_a   6.40198833
_cell_length_b   6.40198707
_cell_length_c   6.68409825
_cell_angle_alpha   81.05614105
_cell_angle_beta   81.05614307
_cell_angle_gamma   119.94125779
_symmetry_Int_Tables_number   1
_chemical_formula_structural   InIrCl6
_chemical_formula_sum   'In1 Ir1 Cl6'
_cell_volume   225.64309342
_cell_formula_units_Z   1
loop_
 _symmetry_equiv_pos_site_id
 _symmetry_equiv_pos_as_xyz
  1  'x, y, z'
loop_
 _atom_site_type_symbol
 _atom_site_label
 _atom_site_symmetry_multiplicity
 _atom_site_fract_x
 _atom_site_fract_y
 _atom_site_fract_z
 _atom_site_occupancy
  In  In0  1  0.166925  0.833075  0.000000  1
  Ir  Ir1  1  0.833280  0.166720  0.000000  1
  Cl  Cl2  1  0.457787  0.088929  0.213397  1
  Cl  Cl3  1  0.911071  0.542213  0.786603  1
  Cl  Cl4  1  0.199742  0.226458  0.786348  1
  Cl  Cl5  1  0.773542  0.800258  0.213652  1
  Cl  Cl6  1  0.062143  0.404492  0.212822  1
  Cl  Cl7  1  0.595508  0.937857  0.787178  1
