# generated using pymatgen
data_LiYb3Hg3Pd2
_symmetry_space_group_name_H-M   'P 1'
_cell_length_a   7.79076800
_cell_length_b   7.79076750
_cell_length_c   3.77865400
_cell_angle_alpha   90.00000000
_cell_angle_beta   90.00000000
_cell_angle_gamma   119.99999364
_symmetry_Int_Tables_number   1
_chemical_formula_structural   LiYb3Hg3Pd2
_chemical_formula_sum   'Li1 Yb3 Hg3 Pd2'
_cell_volume   198.62243496
_cell_formula_units_Z   1
loop_
 _symmetry_equiv_pos_site_id
 _symmetry_equiv_pos_as_xyz
  1  'x, y, z'
loop_
 _atom_site_type_symbol
 _atom_site_label
 _atom_site_symmetry_multiplicity
 _atom_site_fract_x
 _atom_site_fract_y
 _atom_site_fract_z
 _atom_site_occupancy
  Li  Li0  1  0.000000  0.000000  0.500000  1
  Yb  Yb1  1  0.414023  0.414023  0.500000  1
  Yb  Yb2  1  0.585977  0.000000  0.500000  1
  Yb  Yb3  1  0.000000  0.585977  0.500000  1
  Hg  Hg4  1  0.741402  0.741402  0.000000  1
  Hg  Hg5  1  0.258598  0.000000  0.000000  1
  Hg  Hg6  1  0.000000  0.258598  0.000000  1
  Pd  Pd7  1  0.666667  0.333333  0.000000  1
  Pd  Pd8  1  0.333333  0.666667  0.000000  1
