# generated using pymatgen
data_Y7ErCd2OsPd
_symmetry_space_group_name_H-M   'P 1'
_cell_length_a   9.71350038
_cell_length_b   9.71327744
_cell_length_c   9.80500678
_cell_angle_alpha   59.42999050
_cell_angle_beta   59.42377918
_cell_angle_gamma   59.25361875
_symmetry_Int_Tables_number   1
_chemical_formula_structural   Y7ErCd2OsPd
_chemical_formula_sum   'Y14 Er2 Cd4 Os2 Pd2'
_cell_volume   644.74874541
_cell_formula_units_Z   2
loop_
 _symmetry_equiv_pos_site_id
 _symmetry_equiv_pos_as_xyz
  1  'x, y, z'
loop_
 _atom_site_type_symbol
 _atom_site_label
 _atom_site_symmetry_multiplicity
 _atom_site_fract_x
 _atom_site_fract_y
 _atom_site_fract_z
 _atom_site_occupancy
  Y  Y0  1  0.344860  0.954638  0.351334  1
  Y  Y1  1  0.954665  0.344864  0.351208  1
  Y  Y2  1  0.814931  0.187978  0.190682  1
  Y  Y3  1  0.186955  0.816382  0.805201  1
  Y  Y4  1  0.188079  0.814892  0.190609  1
  Y  Y5  1  0.816349  0.186914  0.805145  1
  Y  Y6  1  0.188922  0.188997  0.809638  1
  Y  Y7  1  0.808847  0.808850  0.190833  1
  Y  Y8  1  0.938353  0.556411  0.567612  1
  Y  Y9  1  0.556591  0.936974  0.938900  1
  Y  Y10  1  0.556387  0.938363  0.567644  1
  Y  Y11  1  0.936918  0.556746  0.938783  1
  Y  Y12  1  0.563216  0.563298  0.937881  1
  Y  Y13  1  0.937494  0.937488  0.563119  1
  Er  Er14  1  0.348882  0.348808  0.354879  1
  Er  Er15  1  0.350120  0.350051  0.946173  1
  Cd  Cd16  1  0.579297  0.579224  0.580280  1
  Cd  Cd17  1  0.579843  0.579903  0.258548  1
  Cd  Cd18  1  0.580308  0.256059  0.581207  1
  Cd  Cd19  1  0.256096  0.580329  0.581163  1
  Os  Os20  1  0.146596  0.146613  0.135967  1
  Os  Os21  1  0.146813  0.146791  0.571873  1
  Pd  Pd22  1  0.149563  0.569905  0.140653  1
  Pd  Pd23  1  0.569916  0.149525  0.140671  1
