# generated using pymatgen
data_Yb5Cu2Hg
_symmetry_space_group_name_H-M   'P 1'
_cell_length_a   8.98465028
_cell_length_b   8.98465018
_cell_length_c   8.98465020
_cell_angle_alpha   128.87968223
_cell_angle_beta   128.87968334
_cell_angle_gamma   75.20424328
_symmetry_Int_Tables_number   1
_chemical_formula_structural   Yb5Cu2Hg
_chemical_formula_sum   'Yb10 Cu4 Hg2'
_cell_volume   427.87139505
_cell_formula_units_Z   2
loop_
 _symmetry_equiv_pos_site_id
 _symmetry_equiv_pos_as_xyz
  1  'x, y, z'
loop_
 _atom_site_type_symbol
 _atom_site_label
 _atom_site_symmetry_multiplicity
 _atom_site_fract_x
 _atom_site_fract_y
 _atom_site_fract_z
 _atom_site_occupancy
  Yb  Yb0  1  0.500000  0.500000  0.000000  1
  Yb  Yb1  1  0.000000  0.000000  0.000000  1
  Yb  Yb2  1  0.528990  0.028990  0.835120  1
  Yb  Yb3  1  0.193871  0.693871  0.164880  1
  Yb  Yb4  1  0.028990  0.193871  0.500000  1
  Yb  Yb5  1  0.693871  0.528990  0.500000  1
  Yb  Yb6  1  0.471010  0.971010  0.164880  1
  Yb  Yb7  1  0.806129  0.306129  0.835120  1
  Yb  Yb8  1  0.971010  0.806129  0.500000  1
  Yb  Yb9  1  0.306129  0.471010  0.500000  1
  Cu  Cu10  1  0.117938  0.617938  0.735877  1
  Cu  Cu11  1  0.882062  0.382062  0.264123  1
  Cu  Cu12  1  0.617938  0.882062  0.500000  1
  Cu  Cu13  1  0.382062  0.117938  0.500000  1
  Hg  Hg14  1  0.250000  0.250000  0.000000  1
  Hg  Hg15  1  0.750000  0.750000  0.000000  1
