# generated using pymatgen
data_Nd5YOsI10
_symmetry_space_group_name_H-M   'P 1'
_cell_length_a   7.95655936
_cell_length_b   9.98622733
_cell_length_c   10.00360629
_cell_angle_alpha   107.11517096
_cell_angle_beta   96.61909440
_cell_angle_gamma   104.57075854
_symmetry_Int_Tables_number   1
_chemical_formula_structural   Nd5YOsI10
_chemical_formula_sum   'Nd5 Y1 Os1 I10'
_cell_volume   719.65286235
_cell_formula_units_Z   1
loop_
 _symmetry_equiv_pos_site_id
 _symmetry_equiv_pos_as_xyz
  1  'x, y, z'
loop_
 _atom_site_type_symbol
 _atom_site_label
 _atom_site_symmetry_multiplicity
 _atom_site_fract_x
 _atom_site_fract_y
 _atom_site_fract_z
 _atom_site_occupancy
  Nd  Nd0  1  0.114809  0.042186  0.759891  1
  Nd  Nd1  1  0.880272  0.955731  0.238072  1
  Nd  Nd2  1  0.964108  0.280880  0.082091  1
  Nd  Nd3  1  0.032428  0.717962  0.916009  1
  Nd  Nd4  1  0.356008  0.128007  0.171215  1
  Y  Y5  1  0.650783  0.874869  0.832368  1
  Os  Os6  1  0.998867  0.999502  0.999786  1
  I  I7  1  0.347274  0.450334  0.271196  1
  I  I8  1  0.647330  0.557483  0.728961  1
  I  I9  1  0.255312  0.085418  0.457857  1
  I  I10  1  0.737676  0.911804  0.546855  1
  I  I11  1  0.087140  0.369918  0.818234  1
  I  I12  1  0.912719  0.630145  0.181439  1
  I  I13  1  0.456442  0.814523  0.084970  1
  I  I14  1  0.545450  0.177179  0.905042  1
  I  I15  1  0.784413  0.258356  0.349343  1
  I  I16  1  0.228968  0.745704  0.656671  1
