# generated using pymatgen
data_Dy6Er4Cd3Co
_symmetry_space_group_name_H-M   'P 1'
_cell_length_a   9.54213400
_cell_length_b   9.54213398
_cell_length_c   9.74251300
_cell_angle_alpha   90.00000000
_cell_angle_beta   90.00000000
_cell_angle_gamma   119.99999315
_symmetry_Int_Tables_number   1
_chemical_formula_structural   Dy6Er4Cd3Co
_chemical_formula_sum   'Dy12 Er8 Cd6 Co2'
_cell_volume   768.23250117
_cell_formula_units_Z   2
loop_
 _symmetry_equiv_pos_site_id
 _symmetry_equiv_pos_as_xyz
  1  'x, y, z'
loop_
 _atom_site_type_symbol
 _atom_site_label
 _atom_site_symmetry_multiplicity
 _atom_site_fract_x
 _atom_site_fract_y
 _atom_site_fract_z
 _atom_site_occupancy
  Dy  Dy0  1  0.542338  0.457662  0.248994  1
  Dy  Dy1  1  0.542338  0.084677  0.248994  1
  Dy  Dy2  1  0.915323  0.457662  0.248994  1
  Dy  Dy3  1  0.457662  0.542338  0.751006  1
  Dy  Dy4  1  0.457662  0.915323  0.751006  1
  Dy  Dy5  1  0.084677  0.542338  0.751006  1
  Dy  Dy6  1  0.211555  0.788445  0.436565  1
  Dy  Dy7  1  0.211555  0.423110  0.436565  1
  Dy  Dy8  1  0.576890  0.788445  0.436565  1
  Dy  Dy9  1  0.788445  0.211555  0.563435  1
  Dy  Dy10  1  0.788445  0.576890  0.563435  1
  Dy  Dy11  1  0.423110  0.211555  0.563435  1
  Er  Er12  1  0.000000  0.000000  0.500000  1
  Er  Er13  1  0.000000  0.000000  0.000000  1
  Er  Er14  1  0.787912  0.212088  0.937071  1
  Er  Er15  1  0.787912  0.575823  0.937071  1
  Er  Er16  1  0.424177  0.212088  0.937071  1
  Er  Er17  1  0.212088  0.787912  0.062929  1
  Er  Er18  1  0.212088  0.424177  0.062929  1
  Er  Er19  1  0.575823  0.787912  0.062929  1
  Cd  Cd20  1  0.885690  0.114310  0.249540  1
  Cd  Cd21  1  0.885690  0.771382  0.249540  1
  Cd  Cd22  1  0.228618  0.114310  0.249540  1
  Cd  Cd23  1  0.114310  0.885690  0.750460  1
  Cd  Cd24  1  0.114310  0.228618  0.750460  1
  Cd  Cd25  1  0.771382  0.885690  0.750460  1
  Co  Co26  1  0.333333  0.666667  0.248905  1
  Co  Co27  1  0.666667  0.333333  0.751095  1
