# generated using pymatgen
data_Ce4MoSe5O24
_symmetry_space_group_name_H-M   'P 1'
_cell_length_a   10.24688398
_cell_length_b   10.19685028
_cell_length_c   10.19686200
_cell_angle_alpha   58.15928705
_cell_angle_beta   57.83997790
_cell_angle_gamma   57.84011352
_symmetry_Int_Tables_number   1
_chemical_formula_structural   Ce4MoSe5O24
_chemical_formula_sum   'Ce4 Mo1 Se5 O24'
_cell_volume   717.85755717
_cell_formula_units_Z   1
loop_
 _symmetry_equiv_pos_site_id
 _symmetry_equiv_pos_as_xyz
  1  'x, y, z'
loop_
 _atom_site_type_symbol
 _atom_site_label
 _atom_site_symmetry_multiplicity
 _atom_site_fract_x
 _atom_site_fract_y
 _atom_site_fract_z
 _atom_site_occupancy
  Ce  Ce0  1  0.646151  0.643804  0.640101  1
  Ce  Ce1  1  0.142501  0.144252  0.141301  1
  Ce  Ce2  1  0.854591  0.858884  0.856923  1
  Ce  Ce3  1  0.357175  0.358628  0.355981  1
  Mo  Mo4  1  0.250503  0.538067  0.961965  1
  Se  Se5  1  0.463070  0.035009  0.751287  1
  Se  Se6  1  0.037329  0.749266  0.464490  1
  Se  Se7  1  0.967077  0.248636  0.535099  1
  Se  Se8  1  0.532866  0.964930  0.250854  1
  Se  Se9  1  0.749769  0.465068  0.034973  1
  O  O10  1  0.006024  0.774814  0.628393  1
  O  O11  1  0.772094  0.629477  0.007225  1
  O  O12  1  0.432709  0.570649  0.778813  1
  O  O13  1  0.279789  0.500562  0.143533  1
  O  O14  1  0.624822  0.008390  0.775453  1
  O  O15  1  0.494085  0.871883  0.724573  1
  O  O16  1  0.204231  0.582750  0.443984  1
  O  O17  1  0.067882  0.720781  0.929967  1
  O  O18  1  0.295111  0.056268  0.917043  1
  O  O19  1  0.435656  0.202536  0.588423  1
  O  O20  1  0.064474  0.912346  0.296295  1
  O  O21  1  0.875905  0.724130  0.491490  1
  O  O22  1  0.129413  0.271300  0.508878  1
  O  O23  1  0.937781  0.086115  0.702263  1
  O  O24  1  0.562021  0.798237  0.413855  1
  O  O25  1  0.699233  0.940637  0.085383  1
  O  O26  1  0.913747  0.296415  0.061941  1
  O  O27  1  0.801135  0.414383  0.559857  1
  O  O28  1  0.505734  0.127420  0.275583  1
  O  O29  1  0.369796  0.991291  0.228998  1
  O  O30  1  0.727085  0.492975  0.870770  1
  O  O31  1  0.586023  0.438107  0.203178  1
  O  O32  1  0.220458  0.356830  0.999170  1
  O  O33  1  0.993760  0.225159  0.371956  1
