# generated using pymatgen
data_Ho3Tm(IrO4)4
_symmetry_space_group_name_H-M   'P 1'
_cell_length_a   5.31587552
_cell_length_b   7.37372686
_cell_length_c   7.61142089
_cell_angle_alpha   81.12509381
_cell_angle_beta   89.68206677
_cell_angle_gamma   89.94281963
_symmetry_Int_Tables_number   1
_chemical_formula_structural   Ho3Tm(IrO4)4
_chemical_formula_sum   'Ho3 Tm1 Ir4 O16'
_cell_volume   294.77452091
_cell_formula_units_Z   1
loop_
 _symmetry_equiv_pos_site_id
 _symmetry_equiv_pos_as_xyz
  1  'x, y, z'
loop_
 _atom_site_type_symbol
 _atom_site_label
 _atom_site_symmetry_multiplicity
 _atom_site_fract_x
 _atom_site_fract_y
 _atom_site_fract_z
 _atom_site_occupancy
  Ho  Ho0  1  0.283250  0.110755  0.650198  1
  Ho  Ho1  1  0.779817  0.388622  0.351673  1
  Ho  Ho2  1  0.219874  0.611887  0.647248  1
  Tm  Tm3  1  0.716139  0.888177  0.348328  1
  Ir  Ir4  1  0.772714  0.299866  0.839725  1
  Ir  Ir5  1  0.227243  0.700471  0.160571  1
  Ir  Ir6  1  0.270731  0.199576  0.160639  1
  Ir  Ir7  1  0.728920  0.799734  0.839703  1
  O  O8  1  0.903245  0.809077  0.063256  1
  O  O9  1  0.094637  0.190969  0.938116  1
  O  O10  1  0.380184  0.944116  0.168777  1
  O  O11  1  0.621768  0.055338  0.831738  1
  O  O12  1  0.120025  0.444644  0.169334  1
  O  O13  1  0.880373  0.555279  0.832018  1
  O  O14  1  0.592873  0.309171  0.061706  1
  O  O15  1  0.405597  0.691625  0.937949  1
  O  O16  1  0.978492  0.325165  0.609585  1
  O  O17  1  0.020148  0.677789  0.389665  1
  O  O18  1  0.475946  0.173467  0.389136  1
  O  O19  1  0.527727  0.825242  0.608640  1
  O  O20  1  0.515067  0.619972  0.311756  1
  O  O21  1  0.485419  0.381646  0.688933  1
  O  O22  1  0.979638  0.116546  0.308884  1
  O  O23  1  0.020173  0.880866  0.692422  1
