# generated using pymatgen
data_AcGaSiRu2
_symmetry_space_group_name_H-M   'P 1'
_cell_length_a   5.88730099
_cell_length_b   5.88730110
_cell_length_c   5.88730189
_cell_angle_alpha   136.02551430
_cell_angle_beta   136.02552222
_cell_angle_gamma   63.94089922
_symmetry_Int_Tables_number   1
_chemical_formula_structural   AcGaSiRu2
_chemical_formula_sum   'Ac1 Ga1 Si1 Ru2'
_cell_volume   97.06017917
_cell_formula_units_Z   1
loop_
 _symmetry_equiv_pos_site_id
 _symmetry_equiv_pos_as_xyz
  1  'x, y, z'
loop_
 _atom_site_type_symbol
 _atom_site_label
 _atom_site_symmetry_multiplicity
 _atom_site_fract_x
 _atom_site_fract_y
 _atom_site_fract_z
 _atom_site_occupancy
  Ac  Ac0  1  0.998212  0.998212  0.000000  1
  Ga  Ga1  1  0.635524  0.635524  0.000000  1
  Si  Si2  1  0.351843  0.351843  0.000000  1
  Ru  Ru3  1  0.257210  0.757210  0.500000  1
  Ru  Ru4  1  0.757210  0.257210  0.500000  1
