# generated using pymatgen
data_Ca3LuBi3
_symmetry_space_group_name_H-M   'P 1'
_cell_length_a   8.13979382
_cell_length_b   8.35229403
_cell_length_c   8.35229431
_cell_angle_alpha   109.98086555
_cell_angle_beta   108.95663804
_cell_angle_gamma   108.95664551
_symmetry_Int_Tables_number   1
_chemical_formula_structural   Ca3LuBi3
_chemical_formula_sum   'Ca6 Lu2 Bi6'
_cell_volume   439.86737992
_cell_formula_units_Z   2
loop_
 _symmetry_equiv_pos_site_id
 _symmetry_equiv_pos_as_xyz
  1  'x, y, z'
loop_
 _atom_site_type_symbol
 _atom_site_label
 _atom_site_symmetry_multiplicity
 _atom_site_fract_x
 _atom_site_fract_y
 _atom_site_fract_z
 _atom_site_occupancy
  Ca  Ca0  1  0.500974  0.999927  0.647010  1
  Ca  Ca1  1  0.353964  0.352917  0.352990  1
  Ca  Ca2  1  0.501047  0.000073  0.147083  1
  Ca  Ca3  1  0.001047  0.647083  0.500073  1
  Ca  Ca4  1  0.853964  0.852990  0.852917  1
  Ca  Ca5  1  0.000974  0.147010  0.499927  1
  Lu  Lu6  1  0.142895  0.500000  0.000000  1
  Lu  Lu7  1  0.642895  0.500000  0.000000  1
  Bi  Bi8  1  0.377255  0.621543  0.759102  1
  Bi  Bi9  1  0.877255  0.259102  0.121543  1
  Bi  Bi10  1  0.618152  0.740898  0.362441  1
  Bi  Bi11  1  0.118152  0.862441  0.240898  1
  Bi  Bi12  1  0.255712  0.137559  0.878457  1
  Bi  Bi13  1  0.755712  0.378457  0.637559  1
