# generated using pymatgen
data_LiY(NbS2)6
_symmetry_space_group_name_H-M   'P 1'
_cell_length_a   5.83480300
_cell_length_b   5.83480221
_cell_length_c   13.41927400
_cell_angle_alpha   90.00000000
_cell_angle_beta   90.00000000
_cell_angle_gamma   119.99999881
_symmetry_Int_Tables_number   1
_chemical_formula_structural   LiY(NbS2)6
_chemical_formula_sum   'Li1 Y1 Nb6 S12'
_cell_volume   395.65075043
_cell_formula_units_Z   1
loop_
 _symmetry_equiv_pos_site_id
 _symmetry_equiv_pos_as_xyz
  1  'x, y, z'
loop_
 _atom_site_type_symbol
 _atom_site_label
 _atom_site_symmetry_multiplicity
 _atom_site_fract_x
 _atom_site_fract_y
 _atom_site_fract_z
 _atom_site_occupancy
  Li  Li0  1  0.000000  0.000000  0.000000  1
  Y  Y1  1  0.000000  0.000000  0.500000  1
  Nb  Nb2  1  0.000000  0.000000  0.760159  1
  Nb  Nb3  1  0.000000  0.000000  0.239841  1
  Nb  Nb4  1  0.333333  0.666667  0.238703  1
  Nb  Nb5  1  0.666667  0.333333  0.761297  1
  Nb  Nb6  1  0.666667  0.333333  0.238703  1
  Nb  Nb7  1  0.333333  0.666667  0.761297  1
  S  S8  1  0.334518  0.000000  0.122825  1
  S  S9  1  0.000000  0.334518  0.122825  1
  S  S10  1  0.665482  0.665482  0.122825  1
  S  S11  1  0.336615  0.336615  0.642631  1
  S  S12  1  0.663385  0.663385  0.357369  1
  S  S13  1  0.663385  0.000000  0.642631  1
  S  S14  1  0.000000  0.663385  0.642631  1
  S  S15  1  0.000000  0.665482  0.877175  1
  S  S16  1  0.334518  0.334518  0.877175  1
  S  S17  1  0.000000  0.336615  0.357369  1
  S  S18  1  0.336615  0.000000  0.357369  1
  S  S19  1  0.665482  0.000000  0.877175  1
