# generated using pymatgen
data_Y11In9(AgIr)2
_symmetry_space_group_name_H-M   'P 1'
_cell_length_a   13.26606600
_cell_length_b   13.32490438
_cell_length_c   3.71143200
_cell_angle_alpha   90.00000000
_cell_angle_beta   90.00000000
_cell_angle_gamma   111.26360055
_symmetry_Int_Tables_number   1
_chemical_formula_structural   Y11In9(AgIr)2
_chemical_formula_sum   'Y11 In9 Ag2 Ir2'
_cell_volume   611.40253944
_cell_formula_units_Z   1
loop_
 _symmetry_equiv_pos_site_id
 _symmetry_equiv_pos_as_xyz
  1  'x, y, z'
loop_
 _atom_site_type_symbol
 _atom_site_label
 _atom_site_symmetry_multiplicity
 _atom_site_fract_x
 _atom_site_fract_y
 _atom_site_fract_z
 _atom_site_occupancy
  Y  Y0  1  0.065703  0.415198  0.000000  1
  Y  Y1  1  0.934297  0.584802  0.000000  1
  Y  Y2  1  0.417084  0.072693  0.000000  1
  Y  Y3  1  0.582916  0.927307  0.000000  1
  Y  Y4  1  0.615563  0.358770  0.000000  1
  Y  Y5  1  0.384437  0.641230  0.000000  1
  Y  Y6  1  0.841009  0.159116  0.000000  1
  Y  Y7  1  0.158991  0.840884  0.000000  1
  Y  Y8  1  0.000000  0.000000  0.000000  1
  Y  Y9  1  0.316722  0.299185  0.000000  1
  Y  Y10  1  0.683278  0.700815  0.000000  1
  In  In11  1  0.841131  0.368572  0.500000  1
  In  In12  1  0.158869  0.631428  0.500000  1
  In  In13  1  0.365834  0.842266  0.500000  1
  In  In14  1  0.634166  0.157734  0.500000  1
  In  In15  1  0.072665  0.218023  0.500000  1
  In  In16  1  0.927335  0.781977  0.500000  1
  In  In17  1  0.218198  0.072708  0.500000  1
  In  In18  1  0.781802  0.927292  0.500000  1
  In  In19  1  0.500000  0.500000  0.500000  1
  Ag  Ag20  1  0.252587  0.451602  0.500000  1
  Ag  Ag21  1  0.747413  0.548398  0.500000  1
  Ir  Ir22  1  0.449127  0.240768  0.500000  1
  Ir  Ir23  1  0.550873  0.759232  0.500000  1
