# generated using pymatgen
data_LuThNi17H3
_symmetry_space_group_name_H-M   'P 1'
_cell_length_a   6.28788716
_cell_length_b   6.28788735
_cell_length_c   6.28788800
_cell_angle_alpha   83.52875090
_cell_angle_beta   83.52874154
_cell_angle_gamma   83.52874310
_symmetry_Int_Tables_number   1
_chemical_formula_structural   LuThNi17H3
_chemical_formula_sum   'Lu1 Th1 Ni17 H3'
_cell_volume   244.18729876
_cell_formula_units_Z   1
loop_
 _symmetry_equiv_pos_site_id
 _symmetry_equiv_pos_as_xyz
  1  'x, y, z'
loop_
 _atom_site_type_symbol
 _atom_site_label
 _atom_site_symmetry_multiplicity
 _atom_site_fract_x
 _atom_site_fract_y
 _atom_site_fract_z
 _atom_site_occupancy
  Lu  Lu0  1  0.662952  0.662952  0.662952  1
  Th  Th1  1  0.340366  0.340366  0.340366  1
  Ni  Ni2  1  0.999802  0.999802  0.499779  1
  Ni  Ni3  1  0.499779  0.999802  0.999802  1
  Ni  Ni4  1  0.999802  0.499779  0.999802  1
  Ni  Ni5  1  0.710383  0.290262  0.998813  1
  Ni  Ni6  1  0.998813  0.710383  0.290262  1
  Ni  Ni7  1  0.290262  0.998813  0.710383  1
  Ni  Ni8  1  0.998813  0.290262  0.710383  1
  Ni  Ni9  1  0.710383  0.998813  0.290262  1
  Ni  Ni10  1  0.290262  0.710383  0.998813  1
  Ni  Ni11  1  0.348019  0.348019  0.846134  1
  Ni  Ni12  1  0.846134  0.348019  0.348019  1
  Ni  Ni13  1  0.348019  0.846134  0.348019  1
  Ni  Ni14  1  0.654653  0.654653  0.148517  1
  Ni  Ni15  1  0.148517  0.654653  0.654653  1
  Ni  Ni16  1  0.654653  0.148517  0.654653  1
  Ni  Ni17  1  0.899672  0.899672  0.899672  1
  Ni  Ni18  1  0.099539  0.099539  0.099539  1
  H  H19  1  0.505293  0.505293  0.988590  1
  H  H20  1  0.988590  0.505293  0.505293  1
  H  H21  1  0.505293  0.988590  0.505293  1
