# generated using pymatgen
data_La8DyHoRu4
_symmetry_space_group_name_H-M   'P 1'
_cell_length_a   9.05678782
_cell_length_b   9.05678925
_cell_length_c   7.25952858
_cell_angle_alpha   85.63255847
_cell_angle_beta   85.63255002
_cell_angle_gamma   43.29687753
_symmetry_Int_Tables_number   1
_chemical_formula_structural   La8DyHoRu4
_chemical_formula_sum   'La8 Dy1 Ho1 Ru4'
_cell_volume   406.98488854
_cell_formula_units_Z   1
loop_
 _symmetry_equiv_pos_site_id
 _symmetry_equiv_pos_as_xyz
  1  'x, y, z'
loop_
 _atom_site_type_symbol
 _atom_site_label
 _atom_site_symmetry_multiplicity
 _atom_site_fract_x
 _atom_site_fract_y
 _atom_site_fract_z
 _atom_site_occupancy
  La  La0  1  0.203013  0.978194  0.591979  1
  La  La1  1  0.021806  0.796987  0.908021  1
  La  La2  1  0.210088  0.364478  0.315836  1
  La  La3  1  0.635522  0.789912  0.184164  1
  La  La4  1  0.789816  0.635182  0.684428  1
  La  La5  1  0.364818  0.210184  0.815572  1
  La  La6  1  0.978152  0.203036  0.091571  1
  La  La7  1  0.796964  0.021848  0.408429  1
  Dy  Dy8  1  0.430548  0.569452  0.250000  1
  Ho  Ho9  1  0.569067  0.430933  0.750000  1
  Ru  Ru10  1  0.178641  0.602326  0.579473  1
  Ru  Ru11  1  0.397674  0.821359  0.920527  1
  Ru  Ru12  1  0.821407  0.397518  0.420972  1
  Ru  Ru13  1  0.602482  0.178593  0.079028  1
