# generated using pymatgen
data_K6InAsP2
_symmetry_space_group_name_H-M   'P 1'
_cell_length_a   9.07778794
_cell_length_b   9.07748453
_cell_length_c   10.09029440
_cell_angle_alpha   81.95101573
_cell_angle_beta   107.16773348
_cell_angle_gamma   119.03293198
_symmetry_Int_Tables_number   1
_chemical_formula_structural   K6InAsP2
_chemical_formula_sum   'K12 In2 As2 P4'
_cell_volume   694.59637787
_cell_formula_units_Z   2
loop_
 _symmetry_equiv_pos_site_id
 _symmetry_equiv_pos_as_xyz
  1  'x, y, z'
loop_
 _atom_site_type_symbol
 _atom_site_label
 _atom_site_symmetry_multiplicity
 _atom_site_fract_x
 _atom_site_fract_y
 _atom_site_fract_z
 _atom_site_occupancy
  K  K0  1  0.731827  0.124548  0.616335  1
  K  K1  1  0.259308  0.860323  0.393010  1
  K  K2  1  0.972588  0.819254  0.625254  1
  K  K3  1  0.019197  0.191257  0.392238  1
  K  K4  1  0.623935  0.448882  0.397466  1
  K  K5  1  0.392579  0.559972  0.595542  1
  K  K6  1  0.868353  0.485654  0.141874  1
  K  K7  1  0.118433  0.504335  0.848106  1
  K  K8  1  0.748038  0.091213  0.985943  1
  K  K9  1  0.241024  0.876404  0.003297  1
  K  K10  1  0.576199  0.629929  0.946533  1
  K  K11  1  0.247033  0.206626  0.108018  1
  In  In12  1  0.591269  0.832387  0.258346  1
  In  In13  1  0.413704  0.172275  0.748557  1
  As  As14  1  0.285908  0.550810  0.231620  1
  As  As15  1  0.717974  0.446978  0.763189  1
  P  P16  1  0.597000  0.116851  0.260240  1
  P  P17  1  0.388591  0.876407  0.740561  1
  P  P18  1  0.864030  0.823377  0.244971  1
  P  P19  1  0.152389  0.199260  0.760283  1
