# generated using pymatgen
data_K4USbSe6
_symmetry_space_group_name_H-M   'P 1'
_cell_length_a   7.59653990
_cell_length_b   7.59654031
_cell_length_c   8.04414800
_cell_angle_alpha   80.75790014
_cell_angle_beta   80.75790726
_cell_angle_gamma   120.13097318
_symmetry_Int_Tables_number   1
_chemical_formula_structural   K4USbSe6
_chemical_formula_sum   'K4 U1 Sb1 Se6'
_cell_volume   380.12077980
_cell_formula_units_Z   1
loop_
 _symmetry_equiv_pos_site_id
 _symmetry_equiv_pos_as_xyz
  1  'x, y, z'
loop_
 _atom_site_type_symbol
 _atom_site_label
 _atom_site_symmetry_multiplicity
 _atom_site_fract_x
 _atom_site_fract_y
 _atom_site_fract_z
 _atom_site_occupancy
  K  K0  1  0.344485  0.655515  0.500000  1
  K  K1  1  0.653967  0.346033  0.500000  1
  K  K2  1  0.001911  0.998089  0.500000  1
  K  K3  1  0.499973  0.500027  0.000000  1
  U  U4  1  0.832268  0.167732  0.000000  1
  Sb  Sb5  1  0.169445  0.830555  0.000000  1
  Se  Se6  1  0.795005  0.808509  0.204574  1
  Se  Se7  1  0.441870  0.063168  0.208111  1
  Se  Se8  1  0.050373  0.417620  0.207446  1
  Se  Se9  1  0.582380  0.949627  0.792554  1
  Se  Se10  1  0.936832  0.558130  0.791889  1
  Se  Se11  1  0.191491  0.204995  0.795426  1
