# generated using pymatgen
data_La10Sb6Se
_symmetry_space_group_name_H-M   'P 1'
_cell_length_a   9.40047800
_cell_length_b   9.40048131
_cell_length_c   6.83217500
_cell_angle_alpha   90.00000000
_cell_angle_beta   90.00000000
_cell_angle_gamma   119.99999539
_symmetry_Int_Tables_number   1
_chemical_formula_structural   La10Sb6Se
_chemical_formula_sum   'La10 Sb6 Se1'
_cell_volume   522.86510810
_cell_formula_units_Z   1
loop_
 _symmetry_equiv_pos_site_id
 _symmetry_equiv_pos_as_xyz
  1  'x, y, z'
loop_
 _atom_site_type_symbol
 _atom_site_label
 _atom_site_symmetry_multiplicity
 _atom_site_fract_x
 _atom_site_fract_y
 _atom_site_fract_z
 _atom_site_occupancy
  La  La0  1  0.666667  0.333333  0.500000  1
  La  La1  1  0.333333  0.666667  0.500000  1
  La  La2  1  0.333333  0.666667  0.000000  1
  La  La3  1  0.666667  0.333333  0.000000  1
  La  La4  1  0.744292  0.744292  0.243745  1
  La  La5  1  0.255708  0.000000  0.243745  1
  La  La6  1  0.000000  0.255708  0.243745  1
  La  La7  1  0.255708  0.255708  0.756255  1
  La  La8  1  0.744292  0.000000  0.756255  1
  La  La9  1  0.000000  0.744292  0.756255  1
  Sb  Sb10  1  0.388709  0.388709  0.248979  1
  Sb  Sb11  1  0.611291  0.000000  0.248979  1
  Sb  Sb12  1  0.000000  0.611291  0.248979  1
  Sb  Sb13  1  0.611291  0.611291  0.751021  1
  Sb  Sb14  1  0.388709  0.000000  0.751021  1
  Sb  Sb15  1  0.000000  0.388709  0.751021  1
  Se  Se16  1  0.000000  0.000000  0.500000  1
