# generated using pymatgen
data_Er3Zn3CuPdRu
_symmetry_space_group_name_H-M   'P 1'
_cell_length_a   7.22903900
_cell_length_b   7.22903752
_cell_length_c   3.75910500
_cell_angle_alpha   90.00000000
_cell_angle_beta   90.00000000
_cell_angle_gamma   120.00000219
_symmetry_Int_Tables_number   1
_chemical_formula_structural   Er3Zn3CuPdRu
_chemical_formula_sum   'Er3 Zn3 Cu1 Pd1 Ru1'
_cell_volume   170.12812883
_cell_formula_units_Z   1
loop_
 _symmetry_equiv_pos_site_id
 _symmetry_equiv_pos_as_xyz
  1  'x, y, z'
loop_
 _atom_site_type_symbol
 _atom_site_label
 _atom_site_symmetry_multiplicity
 _atom_site_fract_x
 _atom_site_fract_y
 _atom_site_fract_z
 _atom_site_occupancy
  Er  Er0  1  0.586853  0.987499  0.000000  1
  Er  Er1  1  0.012501  0.599354  0.000000  1
  Er  Er2  1  0.400646  0.413147  0.000000  1
  Zn  Zn3  1  0.249957  0.997550  0.500000  1
  Zn  Zn4  1  0.002450  0.252407  0.500000  1
  Zn  Zn5  1  0.747593  0.750043  0.500000  1
  Cu  Cu6  1  0.000000  0.000000  0.000000  1
  Pd  Pd7  1  0.666667  0.333333  0.500000  1
  Ru  Ru8  1  0.333333  0.666667  0.500000  1
