# generated using pymatgen
data_K4TaIrCl12
_symmetry_space_group_name_H-M   'P 1'
_cell_length_a   7.05311500
_cell_length_b   7.05311500
_cell_length_c   10.28953600
_cell_angle_alpha   90.00000000
_cell_angle_beta   90.00000000
_cell_angle_gamma   90.00000000
_symmetry_Int_Tables_number   1
_chemical_formula_structural   K4TaIrCl12
_chemical_formula_sum   'K4 Ta1 Ir1 Cl12'
_cell_volume   511.86769474
_cell_formula_units_Z   1
loop_
 _symmetry_equiv_pos_site_id
 _symmetry_equiv_pos_as_xyz
  1  'x, y, z'
loop_
 _atom_site_type_symbol
 _atom_site_label
 _atom_site_symmetry_multiplicity
 _atom_site_fract_x
 _atom_site_fract_y
 _atom_site_fract_z
 _atom_site_occupancy
  K  K0  1  0.500000  0.000000  0.791150  1
  K  K1  1  0.000000  0.500000  0.208850  1
  K  K2  1  0.500000  0.000000  0.208850  1
  K  K3  1  0.000000  0.500000  0.791150  1
  Ta  Ta4  1  0.500000  0.500000  0.500000  1
  Ir  Ir5  1  0.000000  0.000000  0.000000  1
  Cl  Cl6  1  0.000000  0.000000  0.769086  1
  Cl  Cl7  1  0.500000  0.500000  0.267997  1
  Cl  Cl8  1  0.737388  0.737388  0.500000  1
  Cl  Cl9  1  0.237846  0.237846  0.000000  1
  Cl  Cl10  1  0.737388  0.262612  0.500000  1
  Cl  Cl11  1  0.237846  0.762154  0.000000  1
  Cl  Cl12  1  0.000000  0.000000  0.230914  1
  Cl  Cl13  1  0.500000  0.500000  0.732003  1
  Cl  Cl14  1  0.262612  0.262612  0.500000  1
  Cl  Cl15  1  0.762154  0.762154  0.000000  1
  Cl  Cl16  1  0.262612  0.737388  0.500000  1
  Cl  Cl17  1  0.762154  0.237846  0.000000  1
