# generated using pymatgen
data_Tb8Ti11Si16Au
_symmetry_space_group_name_H-M   'P 1'
_cell_length_a   7.09095578
_cell_length_b   7.09095578
_cell_length_c   12.93812320
_cell_angle_alpha   90.13523285
_cell_angle_beta   89.86476715
_cell_angle_gamma   89.57039423
_symmetry_Int_Tables_number   1
_chemical_formula_structural   Tb8Ti11Si16Au
_chemical_formula_sum   'Tb8 Ti11 Si16 Au1'
_cell_volume   650.52829341
_cell_formula_units_Z   1
loop_
 _symmetry_equiv_pos_site_id
 _symmetry_equiv_pos_as_xyz
  1  'x, y, z'
loop_
 _atom_site_type_symbol
 _atom_site_label
 _atom_site_symmetry_multiplicity
 _atom_site_fract_x
 _atom_site_fract_y
 _atom_site_fract_z
 _atom_site_occupancy
  Tb  Tb0  1  0.340299  0.003027  0.466850  1
  Tb  Tb1  1  0.497183  0.839214  0.717168  1
  Tb  Tb2  1  0.500664  0.158658  0.214082  1
  Tb  Tb3  1  0.839214  0.497183  0.282832  1
  Tb  Tb4  1  0.158658  0.500664  0.785918  1
  Tb  Tb5  1  0.656414  0.000222  0.968509  1
  Tb  Tb6  1  0.003027  0.340299  0.533150  1
  Tb  Tb7  1  0.000222  0.656414  0.031491  1
  Ti  Ti8  1  0.174546  0.826975  0.249536  1
  Ti  Ti9  1  0.826975  0.174546  0.750464  1
  Ti  Ti10  1  0.673006  0.673006  0.500000  1
  Ti  Ti11  1  0.148992  0.008082  0.877710  1
  Ti  Ti12  1  0.493757  0.651350  0.124017  1
  Ti  Ti13  1  0.508438  0.350310  0.626092  1
  Ti  Ti14  1  0.651350  0.493757  0.875983  1
  Ti  Ti15  1  0.350310  0.508438  0.373908  1
  Ti  Ti16  1  0.848868  0.991846  0.374958  1
  Ti  Ti17  1  0.008082  0.148992  0.122290  1
  Ti  Ti18  1  0.991846  0.848868  0.625042  1
  Si  Si19  1  0.201415  0.130728  0.685585  1
  Si  Si20  1  0.374819  0.718246  0.930434  1
  Si  Si21  1  0.630128  0.294975  0.433744  1
  Si  Si22  1  0.718246  0.374819  0.069566  1
  Si  Si23  1  0.294975  0.630128  0.566256  1
  Si  Si24  1  0.798244  0.869289  0.183811  1
  Si  Si25  1  0.130728  0.201415  0.314415  1
  Si  Si26  1  0.869289  0.798244  0.816189  1
  Si  Si27  1  0.285021  0.937660  0.066173  1
  Si  Si28  1  0.546714  0.791411  0.314733  1
  Si  Si29  1  0.455185  0.207572  0.809694  1
  Si  Si30  1  0.791411  0.546714  0.685267  1
  Si  Si31  1  0.207572  0.455185  0.190306  1
  Si  Si32  1  0.709408  0.047688  0.565060  1
  Si  Si33  1  0.937660  0.285021  0.933827  1
  Si  Si34  1  0.047688  0.709408  0.434940  1
  Au  Au35  1  0.329647  0.329647  0.000000  1
