# generated using pymatgen
data_Ho16Cd3AgIr4
_symmetry_space_group_name_H-M   'P 1'
_cell_length_a   9.59049409
_cell_length_b   9.59049442
_cell_length_c   9.59049426
_cell_angle_alpha   59.89304477
_cell_angle_beta   59.89304584
_cell_angle_gamma   59.89304116
_symmetry_Int_Tables_number   1
_chemical_formula_structural   Ho16Cd3AgIr4
_chemical_formula_sum   'Ho16 Cd3 Ag1 Ir4'
_cell_volume   622.23270864
_cell_formula_units_Z   1
loop_
 _symmetry_equiv_pos_site_id
 _symmetry_equiv_pos_as_xyz
  1  'x, y, z'
loop_
 _atom_site_type_symbol
 _atom_site_label
 _atom_site_symmetry_multiplicity
 _atom_site_fract_x
 _atom_site_fract_y
 _atom_site_fract_z
 _atom_site_occupancy
  Ho  Ho0  1  0.598972  0.598972  0.598972  1
  Ho  Ho1  1  0.599998  0.599998  0.201256  1
  Ho  Ho2  1  0.599998  0.201256  0.599998  1
  Ho  Ho3  1  0.201256  0.599998  0.599998  1
  Ho  Ho4  1  0.060197  0.439070  0.439070  1
  Ho  Ho5  1  0.438651  0.060720  0.060720  1
  Ho  Ho6  1  0.439070  0.060197  0.439070  1
  Ho  Ho7  1  0.060720  0.438651  0.060720  1
  Ho  Ho8  1  0.439070  0.439070  0.060197  1
  Ho  Ho9  1  0.060720  0.060720  0.438651  1
  Ho  Ho10  1  0.185771  0.812579  0.812579  1
  Ho  Ho11  1  0.812620  0.187055  0.187055  1
  Ho  Ho12  1  0.812579  0.185771  0.812579  1
  Ho  Ho13  1  0.187055  0.812620  0.187055  1
  Ho  Ho14  1  0.812579  0.812579  0.185771  1
  Ho  Ho15  1  0.187055  0.187055  0.812620  1
  Cd  Cd16  1  0.831051  0.831051  0.508008  1
  Cd  Cd17  1  0.831051  0.508008  0.831051  1
  Cd  Cd18  1  0.508008  0.831051  0.831051  1
  Ag  Ag19  1  0.832130  0.832130  0.832130  1
  Ir  Ir20  1  0.391847  0.391847  0.391847  1
  Ir  Ir21  1  0.392422  0.392422  0.824757  1
  Ir  Ir22  1  0.392422  0.824757  0.392422  1
  Ir  Ir23  1  0.824757  0.392422  0.392422  1
