# generated using pymatgen
data_Ac2Hf2O7
_symmetry_space_group_name_H-M   'P 1'
_cell_length_a   7.77572578
_cell_length_b   7.77572551
_cell_length_c   7.77572600
_cell_angle_alpha   120.00000210
_cell_angle_beta   120.00000092
_cell_angle_gamma   59.99999575
_symmetry_Int_Tables_number   1
_chemical_formula_structural   Ac2Hf2O7
_chemical_formula_sum   'Ac4 Hf4 O14'
_cell_volume   332.43579819
_cell_formula_units_Z   2
loop_
 _symmetry_equiv_pos_site_id
 _symmetry_equiv_pos_as_xyz
  1  'x, y, z'
loop_
 _atom_site_type_symbol
 _atom_site_label
 _atom_site_symmetry_multiplicity
 _atom_site_fract_x
 _atom_site_fract_y
 _atom_site_fract_z
 _atom_site_occupancy
  Ac  Ac0  1  0.000000  0.000000  0.000000  1
  Ac  Ac1  1  0.500000  0.000000  0.000000  1
  Ac  Ac2  1  0.000000  0.500000  0.000000  1
  Ac  Ac3  1  0.000000  0.000000  0.499999  1
  Hf  Hf4  1  0.500000  0.500000  0.000000  1
  Hf  Hf5  1  0.500000  0.000000  0.500001  1
  Hf  Hf6  1  0.000000  0.500000  0.500001  1
  Hf  Hf7  1  0.500000  0.500000  0.500001  1
  O  O8  1  0.875000  0.875000  0.124999  1
  O  O9  1  0.424144  0.424144  0.174143  1
  O  O10  1  0.825855  0.424144  0.174145  1
  O  O11  1  0.424144  0.825855  0.174145  1
  O  O12  1  0.174145  0.174145  0.424145  1
  O  O13  1  0.575856  0.174145  0.424145  1
  O  O14  1  0.174145  0.575856  0.424145  1
  O  O15  1  0.825855  0.825855  0.575856  1
  O  O16  1  0.825855  0.424145  0.575856  1
  O  O17  1  0.424145  0.825855  0.575856  1
  O  O18  1  0.575856  0.174145  0.825856  1
  O  O19  1  0.174145  0.575856  0.825856  1
  O  O20  1  0.575856  0.575856  0.825856  1
  O  O21  1  0.125000  0.125000  0.875000  1
