# generated using pymatgen
data_LiErCdPt3
_symmetry_space_group_name_H-M   'P 1'
_cell_length_a   5.12312741
_cell_length_b   5.12312747
_cell_length_c   5.12312856
_cell_angle_alpha   64.36718889
_cell_angle_beta   64.36717585
_cell_angle_gamma   64.36718575
_symmetry_Int_Tables_number   1
_chemical_formula_structural   LiErCdPt3
_chemical_formula_sum   'Li1 Er1 Cd1 Pt3'
_cell_volume   104.19729165
_cell_formula_units_Z   1
loop_
 _symmetry_equiv_pos_site_id
 _symmetry_equiv_pos_as_xyz
  1  'x, y, z'
loop_
 _atom_site_type_symbol
 _atom_site_label
 _atom_site_symmetry_multiplicity
 _atom_site_fract_x
 _atom_site_fract_y
 _atom_site_fract_z
 _atom_site_occupancy
  Li  Li0  1  0.626133  0.626133  0.626133  1
  Er  Er1  1  0.247627  0.247627  0.247627  1
  Cd  Cd2  1  0.998845  0.998845  0.998845  1
  Pt  Pt3  1  0.626279  0.626279  0.124837  1
  Pt  Pt4  1  0.626279  0.124837  0.626279  1
  Pt  Pt5  1  0.124837  0.626279  0.626279  1
