# generated using pymatgen
data_TmLu(SnRu)2
_symmetry_space_group_name_H-M   'P 1'
_cell_length_a   4.50254900
_cell_length_b   4.50254900
_cell_length_c   6.62833700
_cell_angle_alpha   90.00000000
_cell_angle_beta   90.00000000
_cell_angle_gamma   90.00000000
_symmetry_Int_Tables_number   1
_chemical_formula_structural   TmLu(SnRu)2
_chemical_formula_sum   'Tm1 Lu1 Sn2 Ru2'
_cell_volume   134.37592800
_cell_formula_units_Z   1
loop_
 _symmetry_equiv_pos_site_id
 _symmetry_equiv_pos_as_xyz
  1  'x, y, z'
loop_
 _atom_site_type_symbol
 _atom_site_label
 _atom_site_symmetry_multiplicity
 _atom_site_fract_x
 _atom_site_fract_y
 _atom_site_fract_z
 _atom_site_occupancy
  Tm  Tm0  1  0.500000  0.000000  0.720470  1
  Lu  Lu1  1  0.000000  0.500000  0.277812  1
  Sn  Sn2  1  0.500000  0.000000  0.233526  1
  Sn  Sn3  1  0.000000  0.500000  0.766733  1
  Ru  Ru4  1  0.000000  0.000000  0.000730  1
  Ru  Ru5  1  0.500000  0.500000  0.000730  1
