# generated using pymatgen
data_Dy3Y7(SnBi)3
_symmetry_space_group_name_H-M   'P 1'
_cell_length_a   9.07019332
_cell_length_b   9.09778655
_cell_length_c   6.48414900
_cell_angle_alpha   89.99967102
_cell_angle_beta   89.99681158
_cell_angle_gamma   119.89788681
_symmetry_Int_Tables_number   1
_chemical_formula_structural   Dy3Y7(SnBi)3
_chemical_formula_sum   'Dy3 Y7 Sn3 Bi3'
_cell_volume   463.85458838
_cell_formula_units_Z   1
loop_
 _symmetry_equiv_pos_site_id
 _symmetry_equiv_pos_as_xyz
  1  'x, y, z'
loop_
 _atom_site_type_symbol
 _atom_site_label
 _atom_site_symmetry_multiplicity
 _atom_site_fract_x
 _atom_site_fract_y
 _atom_site_fract_z
 _atom_site_occupancy
  Dy  Dy0  1  0.325616  0.659010  0.498575  1
  Dy  Dy1  1  0.671885  0.338237  0.498684  1
  Dy  Dy2  1  0.325587  0.658959  0.001441  1
  Y  Y3  1  0.758888  0.753324  0.250056  1
  Y  Y4  1  0.005438  0.245997  0.249983  1
  Y  Y5  1  0.764867  0.005884  0.750007  1
  Y  Y6  1  0.236438  0.999691  0.250003  1
  Y  Y7  1  0.000183  0.755733  0.749980  1
  Y  Y8  1  0.238340  0.243811  0.750002  1
  Y  Y9  1  0.671691  0.338062  0.001263  1
  Sn  Sn10  1  0.997511  0.392366  0.749847  1
  Sn  Sn11  1  0.392567  0.389827  0.250114  1
  Sn  Sn12  1  0.001472  0.608842  0.250136  1
  Bi  Bi13  1  0.608930  0.611603  0.749893  1
  Bi  Bi14  1  0.391543  0.000169  0.749907  1
  Bi  Bi15  1  0.609046  0.998488  0.250110  1
