# generated using pymatgen
data_Ho2TcB8W
_symmetry_space_group_name_H-M   'P 1'
_cell_length_a   3.60365500
_cell_length_b   5.99168447
_cell_length_c   11.58936884
_cell_angle_alpha   90.08019512
_cell_angle_beta   90.00000000
_cell_angle_gamma   90.00000000
_symmetry_Int_Tables_number   1
_chemical_formula_structural   Ho2TcB8W
_chemical_formula_sum   'Ho4 Tc2 B16 W2'
_cell_volume   250.23698601
_cell_formula_units_Z   2
loop_
 _symmetry_equiv_pos_site_id
 _symmetry_equiv_pos_as_xyz
  1  'x, y, z'
loop_
 _atom_site_type_symbol
 _atom_site_label
 _atom_site_symmetry_multiplicity
 _atom_site_fract_x
 _atom_site_fract_y
 _atom_site_fract_z
 _atom_site_occupancy
  Ho  Ho0  1  0.000000  0.127423  0.151647  1
  Ho  Ho1  1  0.000000  0.872577  0.848353  1
  Ho  Ho2  1  0.000000  0.628206  0.351711  1
  Ho  Ho3  1  0.000000  0.371794  0.648289  1
  Tc  Tc4  1  0.000000  0.134401  0.413093  1
  Tc  Tc5  1  0.000000  0.865599  0.586907  1
  B  B6  1  0.500000  0.475810  0.194739  1
  B  B7  1  0.500000  0.524190  0.805261  1
  B  B8  1  0.500000  0.977258  0.308687  1
  B  B9  1  0.500000  0.022742  0.691313  1
  B  B10  1  0.500000  0.285454  0.315699  1
  B  B11  1  0.500000  0.714546  0.684301  1
  B  B12  1  0.500000  0.790022  0.187525  1
  B  B13  1  0.500000  0.209978  0.812475  1
  B  B14  1  0.500000  0.363839  0.469271  1
  B  B15  1  0.500000  0.636161  0.530729  1
  B  B16  1  0.500000  0.867536  0.032454  1
  B  B17  1  0.500000  0.132464  0.967546  1
  B  B18  1  0.500000  0.385045  0.047592  1
  B  B19  1  0.500000  0.614955  0.952408  1
  B  B20  1  0.500000  0.887061  0.452883  1
  B  B21  1  0.500000  0.112939  0.547117  1
  W  W22  1  0.000000  0.630829  0.085644  1
  W  W23  1  0.000000  0.369171  0.914356  1
