# generated using pymatgen
data_Rb6TmV(IrBr9)2
_symmetry_space_group_name_H-M   'P 1'
_cell_length_a   7.68202500
_cell_length_b   7.68202492
_cell_length_c   19.18128000
_cell_angle_alpha   90.00000000
_cell_angle_beta   90.00000000
_cell_angle_gamma   119.99999603
_symmetry_Int_Tables_number   1
_chemical_formula_structural   Rb6TmV(IrBr9)2
_chemical_formula_sum   'Rb6 Tm1 V1 Ir2 Br18'
_cell_volume   980.30148826
_cell_formula_units_Z   1
loop_
 _symmetry_equiv_pos_site_id
 _symmetry_equiv_pos_as_xyz
  1  'x, y, z'
loop_
 _atom_site_type_symbol
 _atom_site_label
 _atom_site_symmetry_multiplicity
 _atom_site_fract_x
 _atom_site_fract_y
 _atom_site_fract_z
 _atom_site_occupancy
  Rb  Rb0  1  0.666667  0.333333  0.557291  1
  Rb  Rb1  1  0.333333  0.666667  0.062646  1
  Rb  Rb2  1  0.333333  0.666667  0.431762  1
  Rb  Rb3  1  0.666667  0.333333  0.940480  1
  Rb  Rb4  1  0.000000  0.000000  0.249105  1
  Rb  Rb5  1  0.000000  0.000000  0.752244  1
  Tm  Tm6  1  0.333333  0.666667  0.661032  1
  V  V7  1  0.666667  0.333333  0.168747  1
  Ir  Ir8  1  0.666667  0.333333  0.327799  1
  Ir  Ir9  1  0.333333  0.666667  0.833605  1
  Br  Br10  1  0.820290  0.640579  0.402979  1
  Br  Br11  1  0.163978  0.836022  0.585558  1
  Br  Br12  1  0.672044  0.836022  0.585558  1
  Br  Br13  1  0.820290  0.179710  0.402979  1
  Br  Br14  1  0.359421  0.179710  0.402979  1
  Br  Br15  1  0.179366  0.358732  0.907917  1
  Br  Br16  1  0.013241  0.506621  0.759205  1
  Br  Br17  1  0.641268  0.820634  0.907917  1
  Br  Br18  1  0.824309  0.648617  0.096716  1
  Br  Br19  1  0.163978  0.327956  0.585558  1
  Br  Br20  1  0.493379  0.986759  0.759205  1
  Br  Br21  1  0.510082  0.489918  0.252722  1
  Br  Br22  1  0.493379  0.506621  0.759205  1
  Br  Br23  1  0.179366  0.820634  0.907917  1
  Br  Br24  1  0.351383  0.175691  0.096716  1
  Br  Br25  1  0.979837  0.489918  0.252722  1
  Br  Br26  1  0.510082  0.020163  0.252722  1
  Br  Br27  1  0.824309  0.175691  0.096716  1
