# generated using pymatgen
data_Zr2TiTcP2
_symmetry_space_group_name_H-M   'P 1'
_cell_length_a   3.66803400
_cell_length_b   6.64093200
_cell_length_c   7.93963000
_cell_angle_alpha   90.00000000
_cell_angle_beta   90.00000000
_cell_angle_gamma   90.00000000
_symmetry_Int_Tables_number   1
_chemical_formula_structural   Zr2TiTcP2
_chemical_formula_sum   'Zr4 Ti2 Tc2 P4'
_cell_volume   193.40275219
_cell_formula_units_Z   2
loop_
 _symmetry_equiv_pos_site_id
 _symmetry_equiv_pos_as_xyz
  1  'x, y, z'
loop_
 _atom_site_type_symbol
 _atom_site_label
 _atom_site_symmetry_multiplicity
 _atom_site_fract_x
 _atom_site_fract_y
 _atom_site_fract_z
 _atom_site_occupancy
  Zr  Zr0  1  0.750000  0.533370  0.329268  1
  Zr  Zr1  1  0.250000  0.963886  0.831930  1
  Zr  Zr2  1  0.750000  0.033370  0.170732  1
  Zr  Zr3  1  0.250000  0.463886  0.668070  1
  Ti  Ti4  1  0.250000  0.369463  0.053210  1
  Ti  Ti5  1  0.250000  0.869463  0.446790  1
  Tc  Tc6  1  0.750000  0.131381  0.556334  1
  Tc  Tc7  1  0.750000  0.631381  0.943666  1
  P  P8  1  0.250000  0.740403  0.138604  1
  P  P9  1  0.250000  0.240403  0.361396  1
  P  P10  1  0.750000  0.261496  0.856597  1
  P  P11  1  0.750000  0.761496  0.643403  1
