# generated using pymatgen
data_Zr10Be2InBi5
_symmetry_space_group_name_H-M   'P 1'
_cell_length_a   8.75223300
_cell_length_b   8.76547231
_cell_length_c   5.89197900
_cell_angle_alpha   90.00000000
_cell_angle_beta   90.00000000
_cell_angle_gamma   119.95004538
_symmetry_Int_Tables_number   1
_chemical_formula_structural   Zr10Be2InBi5
_chemical_formula_sum   'Zr10 Be2 In1 Bi5'
_cell_volume   391.65566115
_cell_formula_units_Z   1
loop_
 _symmetry_equiv_pos_site_id
 _symmetry_equiv_pos_as_xyz
  1  'x, y, z'
loop_
 _atom_site_type_symbol
 _atom_site_label
 _atom_site_symmetry_multiplicity
 _atom_site_fract_x
 _atom_site_fract_y
 _atom_site_fract_z
 _atom_site_occupancy
  Zr  Zr0  1  0.750030  0.000000  0.250000  1
  Zr  Zr1  1  0.003565  0.754227  0.250000  1
  Zr  Zr2  1  0.249339  0.245773  0.250000  1
  Zr  Zr3  1  0.246795  0.000000  0.750000  1
  Zr  Zr4  1  0.000149  0.247911  0.750000  1
  Zr  Zr5  1  0.752238  0.752089  0.750000  1
  Zr  Zr6  1  0.333469  0.667484  0.498639  1
  Zr  Zr7  1  0.665986  0.332516  0.498639  1
  Zr  Zr8  1  0.665986  0.332516  0.001361  1
  Zr  Zr9  1  0.333469  0.667484  0.001361  1
  Be  Be10  1  0.000333  0.000000  0.498905  1
  Be  Be11  1  0.000333  0.000000  0.001095  1
  In  In12  1  0.390554  0.000000  0.250000  1
  Bi  Bi13  1  0.000566  0.390074  0.250000  1
  Bi  Bi14  1  0.610492  0.609926  0.250000  1
  Bi  Bi15  1  0.605694  0.000000  0.750000  1
  Bi  Bi16  1  0.000290  0.609580  0.750000  1
  Bi  Bi17  1  0.390711  0.390420  0.750000  1
