# generated using pymatgen
data_La4Zn(Sb4Pd)2
_symmetry_space_group_name_H-M   'P 1'
_cell_length_a   11.15203019
_cell_length_b   11.15203051
_cell_length_c   11.15203068
_cell_angle_alpha   146.95228354
_cell_angle_beta   146.95228388
_cell_angle_gamma   47.43443575
_symmetry_Int_Tables_number   1
_chemical_formula_structural   La4Zn(Sb4Pd)2
_chemical_formula_sum   'La4 Zn1 Sb8 Pd2'
_cell_volume   410.86929851
_cell_formula_units_Z   1
loop_
 _symmetry_equiv_pos_site_id
 _symmetry_equiv_pos_as_xyz
  1  'x, y, z'
loop_
 _atom_site_type_symbol
 _atom_site_label
 _atom_site_symmetry_multiplicity
 _atom_site_fract_x
 _atom_site_fract_y
 _atom_site_fract_z
 _atom_site_occupancy
  La  La0  1  0.629839  0.128748  0.000000  1
  La  La1  1  0.128748  0.629839  0.000000  1
  La  La2  1  0.871252  0.871252  0.501091  1
  La  La3  1  0.370161  0.370161  0.498909  1
  Zn  Zn4  1  0.000000  0.000000  0.000000  1
  Sb  Sb5  1  0.249924  0.249924  0.000000  1
  Sb  Sb6  1  0.750076  0.750076  0.000000  1
  Sb  Sb7  1  0.250000  0.750000  0.500000  1
  Sb  Sb8  1  0.750000  0.250000  0.500000  1
  Sb  Sb9  1  0.329061  0.818174  0.000000  1
  Sb  Sb10  1  0.818174  0.329061  0.000000  1
  Sb  Sb11  1  0.181826  0.181826  0.510885  1
  Sb  Sb12  1  0.670939  0.670939  0.489115  1
  Pd  Pd13  1  0.500000  0.000000  0.500000  1
  Pd  Pd14  1  0.000000  0.500000  0.500000  1
