# generated using pymatgen
data_Lu10Si16Pd
_symmetry_space_group_name_H-M   'P 1'
_cell_length_a   10.90479533
_cell_length_b   10.91096158
_cell_length_c   10.90479625
_cell_angle_alpha   144.77957897
_cell_angle_beta   136.35623800
_cell_angle_gamma   57.26593897
_symmetry_Int_Tables_number   1
_chemical_formula_structural   Lu10Si16Pd
_chemical_formula_sum   'Lu10 Si16 Pd1'
_cell_volume   512.28185922
_cell_formula_units_Z   1
loop_
 _symmetry_equiv_pos_site_id
 _symmetry_equiv_pos_as_xyz
  1  'x, y, z'
loop_
 _atom_site_type_symbol
 _atom_site_label
 _atom_site_symmetry_multiplicity
 _atom_site_fract_x
 _atom_site_fract_y
 _atom_site_fract_z
 _atom_site_occupancy
  Lu  Lu0  1  0.051638  0.564035  0.015792  1
  Lu  Lu1  1  0.352091  0.372082  0.522283  1
  Lu  Lu2  1  0.151389  0.166551  0.521248  1
  Lu  Lu3  1  0.451465  0.962744  0.014491  1
  Lu  Lu4  1  0.645305  0.166551  0.015164  1
  Lu  Lu5  1  0.948252  0.962744  0.511278  1
  Lu  Lu6  1  0.849799  0.372082  0.019990  1
  Lu  Lu7  1  0.548244  0.564035  0.512397  1
  Lu  Lu8  1  0.248471  0.761696  0.009162  1
  Lu  Lu9  1  0.752534  0.761696  0.513225  1
  Si  Si10  1  0.121682  0.087829  0.966146  1
  Si  Si11  1  0.797715  0.174865  0.377150  1
  Si  Si12  1  0.300698  0.899184  0.598486  1
  Si  Si13  1  0.399933  0.501377  0.101444  1
  Si  Si14  1  0.882223  0.849432  0.967209  1
  Si  Si15  1  0.105331  0.710778  0.605446  1
  Si  Si16  1  0.200875  0.574493  0.373617  1
  Si  Si17  1  0.697298  0.292987  0.595690  1
  Si  Si18  1  0.999999  0.432932  0.432933  1
  Si  Si19  1  0.716928  0.675702  0.958773  1
  Si  Si20  1  0.600453  0.702738  0.102284  1
  Si  Si21  1  0.000928  0.082392  0.081464  1
  Si  Si22  1  0.500884  0.380930  0.880046  1
  Si  Si23  1  0.282387  0.242458  0.960071  1
  Si  Si24  1  0.579077  0.042761  0.463682  1
  Si  Si25  1  0.418843  0.880996  0.462153  1
  Pd  Pd26  1  0.895558  0.502848  0.607293  1
