# generated using pymatgen
data_Dy2YCo(P3Ir4)2
_symmetry_space_group_name_H-M   'P 1'
_cell_length_a   3.93204300
_cell_length_b   11.10250800
_cell_length_c   12.78819600
_cell_angle_alpha   90.00000000
_cell_angle_beta   90.00000000
_cell_angle_gamma   90.00000000
_symmetry_Int_Tables_number   1
_chemical_formula_structural   Dy2YCo(P3Ir4)2
_chemical_formula_sum   'Dy4 Y2 Co2 P12 Ir16'
_cell_volume   558.27558748
_cell_formula_units_Z   2
loop_
 _symmetry_equiv_pos_site_id
 _symmetry_equiv_pos_as_xyz
  1  'x, y, z'
loop_
 _atom_site_type_symbol
 _atom_site_label
 _atom_site_symmetry_multiplicity
 _atom_site_fract_x
 _atom_site_fract_y
 _atom_site_fract_z
 _atom_site_occupancy
  Dy  Dy0  1  0.500000  0.815966  0.200445  1
  Dy  Dy1  1  0.500000  0.184034  0.200445  1
  Dy  Dy2  1  0.000000  0.684034  0.799555  1
  Dy  Dy3  1  0.000000  0.315966  0.799555  1
  Y  Y4  1  0.000000  0.500000  0.522387  1
  Y  Y5  1  0.500000  0.000000  0.477613  1
  Co  Co6  1  0.000000  0.500000  0.977317  1
  Co  Co7  1  0.500000  0.000000  0.022683  1
  P  P8  1  0.500000  0.500000  0.880405  1
  P  P9  1  0.000000  0.000000  0.119595  1
  P  P10  1  0.500000  0.500000  0.357907  1
  P  P11  1  0.000000  0.000000  0.642093  1
  P  P12  1  0.500000  0.315538  0.619298  1
  P  P13  1  0.500000  0.684462  0.619298  1
  P  P14  1  0.000000  0.184462  0.380702  1
  P  P15  1  0.000000  0.815538  0.380702  1
  P  P16  1  0.500000  0.852022  0.896575  1
  P  P17  1  0.500000  0.147978  0.896575  1
  P  P18  1  0.000000  0.647978  0.103425  1
  P  P19  1  0.000000  0.352022  0.103425  1
  Ir  Ir20  1  0.500000  0.500000  0.177808  1
  Ir  Ir21  1  0.000000  0.000000  0.822192  1
  Ir  Ir22  1  0.500000  0.500000  0.702549  1
  Ir  Ir23  1  0.000000  0.000000  0.297451  1
  Ir  Ir24  1  0.500000  0.339105  0.998036  1
  Ir  Ir25  1  0.500000  0.660895  0.998036  1
  Ir  Ir26  1  0.000000  0.160895  0.001964  1
  Ir  Ir27  1  0.000000  0.839105  0.001964  1
  Ir  Ir28  1  0.500000  0.292815  0.429279  1
  Ir  Ir29  1  0.500000  0.707185  0.429279  1
  Ir  Ir30  1  0.000000  0.207185  0.570721  1
  Ir  Ir31  1  0.000000  0.792815  0.570721  1
  Ir  Ir32  1  0.500000  0.870437  0.714653  1
  Ir  Ir33  1  0.500000  0.129563  0.714653  1
  Ir  Ir34  1  0.000000  0.629563  0.285347  1
  Ir  Ir35  1  0.000000  0.370437  0.285347  1
