# generated using pymatgen
data_La4Nd3Au10
_symmetry_space_group_name_H-M   'P 1'
_cell_length_a   9.05441463
_cell_length_b   9.05441463
_cell_length_c   10.81585300
_cell_angle_alpha   90.00000000
_cell_angle_beta   90.00000000
_cell_angle_gamma   107.42210496
_symmetry_Int_Tables_number   1
_chemical_formula_structural   La4Nd3Au10
_chemical_formula_sum   'La8 Nd6 Au20'
_cell_volume   846.03193483
_cell_formula_units_Z   2
loop_
 _symmetry_equiv_pos_site_id
 _symmetry_equiv_pos_as_xyz
  1  'x, y, z'
loop_
 _atom_site_type_symbol
 _atom_site_label
 _atom_site_symmetry_multiplicity
 _atom_site_fract_x
 _atom_site_fract_y
 _atom_site_fract_z
 _atom_site_occupancy
  La  La0  1  0.696078  0.303922  0.000000  1
  La  La1  1  0.303922  0.696078  0.000000  1
  La  La2  1  0.803922  0.196078  0.500000  1
  La  La3  1  0.196078  0.803922  0.500000  1
  La  La4  1  0.313328  0.313328  0.194105  1
  La  La5  1  0.686672  0.686672  0.805895  1
  La  La6  1  0.186672  0.186672  0.694105  1
  La  La7  1  0.813328  0.813328  0.305895  1
  Nd  Nd8  1  0.007200  0.507200  0.250000  1
  Nd  Nd9  1  0.992800  0.492800  0.750000  1
  Nd  Nd10  1  0.492800  0.992800  0.750000  1
  Nd  Nd11  1  0.507200  0.007200  0.250000  1
  Nd  Nd12  1  0.000000  0.000000  0.000000  1
  Nd  Nd13  1  0.500000  0.500000  0.500000  1
  Au  Au14  1  0.103341  0.103341  0.403843  1
  Au  Au15  1  0.896659  0.896659  0.596157  1
  Au  Au16  1  0.396659  0.396659  0.903843  1
  Au  Au17  1  0.603341  0.603341  0.096157  1
  Au  Au18  1  0.869466  0.155926  0.211005  1
  Au  Au19  1  0.130534  0.844074  0.788995  1
  Au  Au20  1  0.630534  0.344074  0.711005  1
  Au  Au21  1  0.655926  0.369466  0.288995  1
  Au  Au22  1  0.369466  0.655926  0.288995  1
  Au  Au23  1  0.344074  0.630534  0.711005  1
  Au  Au24  1  0.844074  0.130534  0.788995  1
  Au  Au25  1  0.155926  0.869466  0.211005  1
  Au  Au26  1  0.935885  0.644708  0.004305  1
  Au  Au27  1  0.064115  0.355292  0.995695  1
  Au  Au28  1  0.564115  0.855292  0.504305  1
  Au  Au29  1  0.144708  0.435885  0.495695  1
  Au  Au30  1  0.435885  0.144708  0.495695  1
  Au  Au31  1  0.855292  0.564115  0.504305  1
  Au  Au32  1  0.355292  0.064115  0.995695  1
  Au  Au33  1  0.644708  0.935885  0.004305  1
