# generated using pymatgen
data_Ti12Al5Ga3O4
_symmetry_space_group_name_H-M   'P 1'
_cell_length_a   6.89434421
_cell_length_b   6.89363013
_cell_length_c   6.89377488
_cell_angle_alpha   90.08289716
_cell_angle_beta   89.92309518
_cell_angle_gamma   89.92366803
_symmetry_Int_Tables_number   1
_chemical_formula_structural   Ti12Al5Ga3O4
_chemical_formula_sum   'Ti12 Al5 Ga3 O4'
_cell_volume   327.63991580
_cell_formula_units_Z   1
loop_
 _symmetry_equiv_pos_site_id
 _symmetry_equiv_pos_as_xyz
  1  'x, y, z'
loop_
 _atom_site_type_symbol
 _atom_site_label
 _atom_site_symmetry_multiplicity
 _atom_site_fract_x
 _atom_site_fract_y
 _atom_site_fract_z
 _atom_site_occupancy
  Ti  Ti0  1  0.792905  0.958781  0.376235  1
  Ti  Ti1  1  0.707153  0.041134  0.874831  1
  Ti  Ti2  1  0.207103  0.459285  0.123635  1
  Ti  Ti3  1  0.292782  0.539909  0.626018  1
  Ti  Ti4  1  0.958956  0.374761  0.792915  1
  Ti  Ti5  1  0.041168  0.876309  0.707050  1
  Ti  Ti6  1  0.459999  0.126108  0.207187  1
  Ti  Ti7  1  0.540698  0.623612  0.292863  1
  Ti  Ti8  1  0.376372  0.792866  0.959434  1
  Ti  Ti9  1  0.873953  0.707119  0.040051  1
  Ti  Ti10  1  0.123673  0.207095  0.458722  1
  Ti  Ti11  1  0.625284  0.292856  0.541021  1
  Al  Al12  1  0.178796  0.821198  0.321164  1
  Al  Al13  1  0.320122  0.178215  0.820867  1
  Al  Al14  1  0.821857  0.320838  0.179828  1
  Al  Al15  1  0.679202  0.679831  0.678135  1
  Al  Al16  1  0.571714  0.428296  0.928356  1
  Ga  Ga17  1  0.429716  0.929697  0.569596  1
  Ga  Ga18  1  0.930339  0.570307  0.429656  1
  Ga  Ga19  1  0.070320  0.069698  0.070341  1
  O  O20  1  0.874532  0.125497  0.625447  1
  O  O21  1  0.626088  0.875319  0.127446  1
  O  O22  1  0.124678  0.627369  0.873933  1
  O  O23  1  0.372588  0.373903  0.375271  1
