# generated using pymatgen
data_Na2LaPrTe4
_symmetry_space_group_name_H-M   'P 1'
_cell_length_a   9.26154417
_cell_length_b   9.22536921
_cell_length_c   9.22536820
_cell_angle_alpha   59.75025206
_cell_angle_beta   59.87019069
_cell_angle_gamma   59.87019618
_symmetry_Int_Tables_number   1
_chemical_formula_structural   Na2LaPrTe4
_chemical_formula_sum   'Na4 La2 Pr2 Te8'
_cell_volume   555.21062700
_cell_formula_units_Z   2
loop_
 _symmetry_equiv_pos_site_id
 _symmetry_equiv_pos_as_xyz
  1  'x, y, z'
loop_
 _atom_site_type_symbol
 _atom_site_label
 _atom_site_symmetry_multiplicity
 _atom_site_fract_x
 _atom_site_fract_y
 _atom_site_fract_z
 _atom_site_occupancy
  Na  Na0  1  0.125000  0.625000  0.125000  1
  Na  Na1  1  0.125000  0.125000  0.625000  1
  Na  Na2  1  0.625000  0.125000  0.125000  1
  Na  Na3  1  0.125000  0.125000  0.125000  1
  La  La4  1  0.625000  0.625000  0.625000  1
  La  La5  1  0.125000  0.625000  0.625000  1
  Pr  Pr6  1  0.625000  0.125000  0.625000  1
  Pr  Pr7  1  0.625000  0.625000  0.125000  1
  Te  Te8  1  0.378605  0.866768  0.376022  1
  Te  Te9  1  0.871395  0.383232  0.873978  1
  Te  Te10  1  0.871395  0.873978  0.383232  1
  Te  Te11  1  0.870313  0.872855  0.872855  1
  Te  Te12  1  0.866021  0.377145  0.377145  1
  Te  Te13  1  0.378605  0.376022  0.866768  1
  Te  Te14  1  0.379687  0.377145  0.377145  1
  Te  Te15  1  0.383979  0.872855  0.872855  1
