# generated using pymatgen
data_Th5ZrPBr15
_symmetry_space_group_name_H-M   'P 1'
_cell_length_a   10.01783851
_cell_length_b   10.01783881
_cell_length_c   10.01783870
_cell_angle_alpha   109.03427124
_cell_angle_beta   110.34869283
_cell_angle_gamma   109.03427453
_symmetry_Int_Tables_number   1
_chemical_formula_structural   Th5ZrPBr15
_chemical_formula_sum   'Th5 Zr1 P1 Br15'
_cell_volume   773.79102475
_cell_formula_units_Z   1
loop_
 _symmetry_equiv_pos_site_id
 _symmetry_equiv_pos_as_xyz
  1  'x, y, z'
loop_
 _atom_site_type_symbol
 _atom_site_label
 _atom_site_symmetry_multiplicity
 _atom_site_fract_x
 _atom_site_fract_y
 _atom_site_fract_z
 _atom_site_occupancy
  Th  Th0  1  0.243437  0.238197  0.005240  1
  Th  Th1  1  0.750307  0.000000  0.750307  1
  Th  Th2  1  0.005240  0.238197  0.243437  1
  Th  Th3  1  0.005240  0.761803  0.767043  1
  Th  Th4  1  0.767043  0.761803  0.005240  1
  Zr  Zr5  1  0.212679  0.000000  0.212679  1
  P  P6  1  0.992412  0.000000  0.992412  1
  Br  Br7  1  0.024040  0.767699  0.256341  1
  Br  Br8  1  0.256341  0.767699  0.024040  1
  Br  Br9  1  0.496068  0.747565  0.748503  1
  Br  Br10  1  0.000938  0.252435  0.748503  1
  Br  Br11  1  0.750232  0.000000  0.251867  1
  Br  Br12  1  0.251867  0.501635  0.251867  1
  Br  Br13  1  0.748503  0.252435  0.000938  1
  Br  Br14  1  0.501153  0.500000  0.001153  1
  Br  Br15  1  0.256341  0.232301  0.488642  1
  Br  Br16  1  0.750232  0.498365  0.750232  1
  Br  Br17  1  0.748503  0.747565  0.496068  1
  Br  Br18  1  0.488642  0.232301  0.256341  1
  Br  Br19  1  0.251867  0.000000  0.750232  1
  Br  Br20  1  0.001153  0.500000  0.501153  1
  Br  Br21  1  0.497762  0.000000  0.497762  1
