# generated using pymatgen
data_Nd3Cr2Ni7P6
_symmetry_space_group_name_H-M   'P 1'
_cell_length_a   3.86851700
_cell_length_b   10.74208000
_cell_length_c   12.58935300
_cell_angle_alpha   90.00000000
_cell_angle_beta   90.00000000
_cell_angle_gamma   90.00000000
_symmetry_Int_Tables_number   1
_chemical_formula_structural   Nd3Cr2Ni7P6
_chemical_formula_sum   'Nd6 Cr4 Ni14 P12'
_cell_volume   523.16213473
_cell_formula_units_Z   2
loop_
 _symmetry_equiv_pos_site_id
 _symmetry_equiv_pos_as_xyz
  1  'x, y, z'
loop_
 _atom_site_type_symbol
 _atom_site_label
 _atom_site_symmetry_multiplicity
 _atom_site_fract_x
 _atom_site_fract_y
 _atom_site_fract_z
 _atom_site_occupancy
  Nd  Nd0  1  0.000000  0.500000  0.519033  1
  Nd  Nd1  1  0.500000  0.000000  0.480967  1
  Nd  Nd2  1  0.500000  0.817477  0.207468  1
  Nd  Nd3  1  0.500000  0.182523  0.207468  1
  Nd  Nd4  1  0.000000  0.682523  0.792532  1
  Nd  Nd5  1  0.000000  0.317477  0.792532  1
  Cr  Cr6  1  0.500000  0.500000  0.151890  1
  Cr  Cr7  1  0.000000  0.000000  0.848110  1
  Cr  Cr8  1  0.000000  0.500000  0.987709  1
  Cr  Cr9  1  0.500000  0.000000  0.012291  1
  Ni  Ni10  1  0.500000  0.500000  0.698635  1
  Ni  Ni11  1  0.000000  0.000000  0.301365  1
  Ni  Ni12  1  0.500000  0.330122  0.993024  1
  Ni  Ni13  1  0.500000  0.669878  0.993024  1
  Ni  Ni14  1  0.000000  0.169878  0.006976  1
  Ni  Ni15  1  0.000000  0.830122  0.006976  1
  Ni  Ni16  1  0.500000  0.301357  0.425621  1
  Ni  Ni17  1  0.500000  0.698643  0.425621  1
  Ni  Ni18  1  0.000000  0.198643  0.574379  1
  Ni  Ni19  1  0.000000  0.801357  0.574379  1
  Ni  Ni20  1  0.500000  0.882389  0.710373  1
  Ni  Ni21  1  0.500000  0.117611  0.710373  1
  Ni  Ni22  1  0.000000  0.617611  0.289627  1
  Ni  Ni23  1  0.000000  0.382389  0.289627  1
  P  P24  1  0.500000  0.500000  0.881425  1
  P  P25  1  0.000000  0.000000  0.118575  1
  P  P26  1  0.500000  0.500000  0.341367  1
  P  P27  1  0.000000  0.000000  0.658633  1
  P  P28  1  0.500000  0.309429  0.611297  1
  P  P29  1  0.500000  0.690571  0.611297  1
  P  P30  1  0.000000  0.190571  0.388703  1
  P  P31  1  0.000000  0.809429  0.388703  1
  P  P32  1  0.500000  0.849409  0.892753  1
  P  P33  1  0.500000  0.150591  0.892753  1
  P  P34  1  0.000000  0.650591  0.107247  1
  P  P35  1  0.000000  0.349409  0.107247  1
