# generated using pymatgen
data_Tm3Th3Sc2(Co4P3)4
_symmetry_space_group_name_H-M   'P 1'
_cell_length_a   3.76247300
_cell_length_b   10.69460398
_cell_length_c   12.40588354
_cell_angle_alpha   90.08209888
_cell_angle_beta   90.00000000
_cell_angle_gamma   90.00000000
_symmetry_Int_Tables_number   1
_chemical_formula_structural   Tm3Th3Sc2(Co4P3)4
_chemical_formula_sum   'Tm3 Th3 Sc2 Co16 P12'
_cell_volume   499.18939861
_cell_formula_units_Z   1
loop_
 _symmetry_equiv_pos_site_id
 _symmetry_equiv_pos_as_xyz
  1  'x, y, z'
loop_
 _atom_site_type_symbol
 _atom_site_label
 _atom_site_symmetry_multiplicity
 _atom_site_fract_x
 _atom_site_fract_y
 _atom_site_fract_z
 _atom_site_occupancy
  Tm  Tm0  1  0.500000  0.182060  0.202514  1
  Tm  Tm1  1  0.000000  0.679702  0.798502  1
  Tm  Tm2  1  0.000000  0.319712  0.795397  1
  Th  Th3  1  0.000000  0.499363  0.531578  1
  Th  Th4  1  0.500000  0.002045  0.471307  1
  Th  Th5  1  0.500000  0.821996  0.205943  1
  Sc  Sc6  1  0.500000  0.498304  0.152515  1
  Sc  Sc7  1  0.000000  0.999780  0.847620  1
  Co  Co8  1  0.500000  0.498648  0.703488  1
  Co  Co9  1  0.000000  0.000713  0.295904  1
  Co  Co10  1  0.000000  0.497947  0.983601  1
  Co  Co11  1  0.500000  0.002494  0.012391  1
  Co  Co12  1  0.500000  0.331755  0.992426  1
  Co  Co13  1  0.500000  0.666643  0.991601  1
  Co  Co14  1  0.000000  0.170768  0.003712  1
  Co  Co15  1  0.000000  0.831836  0.005082  1
  Co  Co16  1  0.500000  0.297064  0.431868  1
  Co  Co17  1  0.500000  0.701812  0.436409  1
  Co  Co18  1  0.000000  0.203327  0.567660  1
  Co  Co19  1  0.000000  0.796219  0.571375  1
  Co  Co20  1  0.500000  0.877516  0.707808  1
  Co  Co21  1  0.500000  0.121759  0.705466  1
  Co  Co22  1  0.000000  0.621418  0.295472  1
  Co  Co23  1  0.000000  0.378086  0.293187  1
  P  P24  1  0.500000  0.498653  0.881233  1
  P  P25  1  0.000000  0.006209  0.113094  1
  P  P26  1  0.500000  0.499792  0.355043  1
  P  P27  1  0.000000  0.999997  0.646504  1
  P  P28  1  0.500000  0.305314  0.618258  1
  P  P29  1  0.500000  0.693112  0.621914  1
  P  P30  1  0.000000  0.194943  0.380890  1
  P  P31  1  0.000000  0.803714  0.389684  1
  P  P32  1  0.500000  0.839242  0.893243  1
  P  P33  1  0.500000  0.161777  0.891147  1
  P  P34  1  0.000000  0.656939  0.100724  1
  P  P35  1  0.000000  0.339341  0.105439  1
