# generated using pymatgen
data_Tb2YZr2Sn3O
_symmetry_space_group_name_H-M   'P 1'
_cell_length_a   8.78698404
_cell_length_b   8.78545370
_cell_length_c   6.05520700
_cell_angle_alpha   90.00000000
_cell_angle_beta   90.00000000
_cell_angle_gamma   119.99423699
_symmetry_Int_Tables_number   1
_chemical_formula_structural   Tb2YZr2Sn3O
_chemical_formula_sum   'Tb4 Y2 Zr4 Sn6 O2'
_cell_volume   404.84508904
_cell_formula_units_Z   2
loop_
 _symmetry_equiv_pos_site_id
 _symmetry_equiv_pos_as_xyz
  1  'x, y, z'
loop_
 _atom_site_type_symbol
 _atom_site_label
 _atom_site_symmetry_multiplicity
 _atom_site_fract_x
 _atom_site_fract_y
 _atom_site_fract_z
 _atom_site_occupancy
  Tb  Tb0  1  0.999999  0.772729  0.750000  1
  Tb  Tb1  1  0.999999  0.227270  0.250000  1
  Tb  Tb2  1  0.227291  0.227306  0.750000  1
  Tb  Tb3  1  0.227291  0.999985  0.250000  1
  Y  Y4  1  0.772648  0.772634  0.250000  1
  Y  Y5  1  0.772648  0.000014  0.750000  1
  Zr  Zr6  1  0.333318  0.666660  0.000000  1
  Zr  Zr7  1  0.333318  0.666660  0.500000  1
  Zr  Zr8  1  0.666683  0.333341  0.000000  1
  Zr  Zr9  1  0.666683  0.333341  0.500000  1
  Sn  Sn10  1  0.999976  0.593820  0.250000  1
  Sn  Sn11  1  0.999976  0.406157  0.750000  1
  Sn  Sn12  1  0.406262  0.406255  0.250000  1
  Sn  Sn13  1  0.593800  0.593830  0.750000  1
  Sn  Sn14  1  0.406262  0.000007  0.750000  1
  Sn  Sn15  1  0.593800  0.999970  0.250000  1
  O  O16  1  0.000023  0.000012  0.000000  1
  O  O17  1  0.000023  0.000012  0.500000  1
