# generated using pymatgen
data_Tb4Lu(HgTe)2
_symmetry_space_group_name_H-M   'P 1'
_cell_length_a   8.88750100
_cell_length_b   8.88750214
_cell_length_c   8.11545700
_cell_angle_alpha   90.00000000
_cell_angle_beta   90.00000000
_cell_angle_gamma   125.81603710
_symmetry_Int_Tables_number   1
_chemical_formula_structural   Tb4Lu(HgTe)2
_chemical_formula_sum   'Tb8 Lu2 Hg4 Te4'
_cell_volume   519.80409115
_cell_formula_units_Z   2
loop_
 _symmetry_equiv_pos_site_id
 _symmetry_equiv_pos_as_xyz
  1  'x, y, z'
loop_
 _atom_site_type_symbol
 _atom_site_label
 _atom_site_symmetry_multiplicity
 _atom_site_fract_x
 _atom_site_fract_y
 _atom_site_fract_z
 _atom_site_occupancy
  Tb  Tb0  1  0.792710  0.535439  0.163594  1
  Tb  Tb1  1  0.464561  0.207290  0.836406  1
  Tb  Tb2  1  0.964561  0.707290  0.663594  1
  Tb  Tb3  1  0.292710  0.035439  0.336406  1
  Tb  Tb4  1  0.207290  0.464561  0.836406  1
  Tb  Tb5  1  0.535439  0.792710  0.163594  1
  Tb  Tb6  1  0.035439  0.292710  0.336406  1
  Tb  Tb7  1  0.707290  0.964561  0.663594  1
  Lu  Lu8  1  0.000000  0.000000  0.000000  1
  Lu  Lu9  1  0.500000  0.500000  0.500000  1
  Hg  Hg10  1  0.864625  0.864625  0.366527  1
  Hg  Hg11  1  0.135375  0.135375  0.633473  1
  Hg  Hg12  1  0.635375  0.635375  0.866527  1
  Hg  Hg13  1  0.364625  0.364625  0.133473  1
  Te  Te14  1  0.201954  0.798046  0.000000  1
  Te  Te15  1  0.701954  0.298046  0.500000  1
  Te  Te16  1  0.798046  0.201954  0.000000  1
  Te  Te17  1  0.298046  0.701954  0.500000  1
