# generated using pymatgen
data_Ho2Th(MgIr)3
_symmetry_space_group_name_H-M   'P 1'
_cell_length_a   7.28866404
_cell_length_b   7.28866361
_cell_length_c   4.06534500
_cell_angle_alpha   90.00000000
_cell_angle_beta   90.00000000
_cell_angle_gamma   118.72230318
_symmetry_Int_Tables_number   1
_chemical_formula_structural   Ho2Th(MgIr)3
_chemical_formula_sum   'Ho2 Th1 Mg3 Ir3'
_cell_volume   189.39679151
_cell_formula_units_Z   1
loop_
 _symmetry_equiv_pos_site_id
 _symmetry_equiv_pos_as_xyz
  1  'x, y, z'
loop_
 _atom_site_type_symbol
 _atom_site_label
 _atom_site_symmetry_multiplicity
 _atom_site_fract_x
 _atom_site_fract_y
 _atom_site_fract_z
 _atom_site_occupancy
  Ho  Ho0  1  0.594232  0.999616  0.500000  1
  Ho  Ho1  1  0.999616  0.594232  0.500000  1
  Th  Th2  1  0.415289  0.415289  0.500000  1
  Mg  Mg3  1  0.764618  0.764618  0.000000  1
  Mg  Mg4  1  0.245010  0.991779  0.000000  1
  Mg  Mg5  1  0.991779  0.245010  0.000000  1
  Ir  Ir6  1  0.655768  0.330907  0.000000  1
  Ir  Ir7  1  0.330907  0.655768  0.000000  1
  Ir  Ir8  1  0.002781  0.002781  0.500000  1
