# generated using pymatgen
data_K2Zr4PbS10
_symmetry_space_group_name_H-M   'P 1'
_cell_length_a   6.46100762
_cell_length_b   10.88445275
_cell_length_c   8.65851800
_cell_angle_alpha   59.88406297
_cell_angle_beta   68.29058533
_cell_angle_gamma   90.21346006
_symmetry_Int_Tables_number   1
_chemical_formula_structural   K2Zr4PbS10
_chemical_formula_sum   'K2 Zr4 Pb1 S10'
_cell_volume   475.58000692
_cell_formula_units_Z   1
loop_
 _symmetry_equiv_pos_site_id
 _symmetry_equiv_pos_as_xyz
  1  'x, y, z'
loop_
 _atom_site_type_symbol
 _atom_site_label
 _atom_site_symmetry_multiplicity
 _atom_site_fract_x
 _atom_site_fract_y
 _atom_site_fract_z
 _atom_site_occupancy
  K  K0  1  0.782854  0.073923  0.428712  1
  K  K1  1  0.006582  0.527578  0.985098  1
  Zr  Zr2  1  0.402487  0.799694  0.195832  1
  Zr  Zr3  1  0.202358  0.398248  0.592975  1
  Zr  Zr4  1  0.597697  0.202134  0.806509  1
  Zr  Zr5  1  0.000679  0.998149  0.996373  1
  Pb  Pb6  1  0.797891  0.601733  0.407282  1
  S  S7  1  0.019963  0.864564  0.326778  1
  S  S8  1  0.597831  0.032469  0.153189  1
  S  S9  1  0.195883  0.241063  0.946388  1
  S  S10  1  0.791626  0.411688  0.785967  1
  S  S11  1  0.344942  0.638061  0.553499  1
  S  S12  1  0.401628  0.962218  0.852514  1
  S  S13  1  0.000245  0.165873  0.646876  1
  S  S14  1  0.588955  0.334329  0.469647  1
  S  S15  1  0.255877  0.560829  0.237728  1
  S  S16  1  0.812503  0.787446  0.014632  1
