# generated using pymatgen
data_Tm4Zr4Ir3Pt
_symmetry_space_group_name_H-M   'P 1'
_cell_length_a   4.61402000
_cell_length_b   7.05044667
_cell_length_c   8.22269345
_cell_angle_alpha   89.74992033
_cell_angle_beta   90.00000000
_cell_angle_gamma   90.00000000
_symmetry_Int_Tables_number   1
_chemical_formula_structural   Tm4Zr4Ir3Pt
_chemical_formula_sum   'Tm4 Zr4 Ir3 Pt1'
_cell_volume   267.48908644
_cell_formula_units_Z   1
loop_
 _symmetry_equiv_pos_site_id
 _symmetry_equiv_pos_as_xyz
  1  'x, y, z'
loop_
 _atom_site_type_symbol
 _atom_site_label
 _atom_site_symmetry_multiplicity
 _atom_site_fract_x
 _atom_site_fract_y
 _atom_site_fract_z
 _atom_site_occupancy
  Tm  Tm0  1  0.250000  0.981332  0.321729  1
  Tm  Tm1  1  0.250000  0.485914  0.174430  1
  Tm  Tm2  1  0.750000  0.014602  0.677287  1
  Tm  Tm3  1  0.750000  0.516451  0.826376  1
  Zr  Zr4  1  0.250000  0.356399  0.580275  1
  Zr  Zr5  1  0.250000  0.855666  0.923870  1
  Zr  Zr6  1  0.750000  0.648775  0.425282  1
  Zr  Zr7  1  0.750000  0.143807  0.074772  1
  Ir  Ir8  1  0.250000  0.234239  0.906795  1
  Ir  Ir9  1  0.250000  0.733384  0.591772  1
  Ir  Ir10  1  0.750000  0.765038  0.093084  1
  Pt  Pt11  1  0.750000  0.264393  0.404327  1
