# generated using pymatgen
data_TbTm3(TcB4)4
_symmetry_space_group_name_H-M   'P 1'
_cell_length_a   3.58851000
_cell_length_b   5.95012696
_cell_length_c   11.51141303
_cell_angle_alpha   89.94903226
_cell_angle_beta   90.00000000
_cell_angle_gamma   90.00000000
_symmetry_Int_Tables_number   1
_chemical_formula_structural   TbTm3(TcB4)4
_chemical_formula_sum   'Tb1 Tm3 Tc4 B16'
_cell_volume   245.79263118
_cell_formula_units_Z   1
loop_
 _symmetry_equiv_pos_site_id
 _symmetry_equiv_pos_as_xyz
  1  'x, y, z'
loop_
 _atom_site_type_symbol
 _atom_site_label
 _atom_site_symmetry_multiplicity
 _atom_site_fract_x
 _atom_site_fract_y
 _atom_site_fract_z
 _atom_site_occupancy
  Tb  Tb0  1  0.000000  0.372365  0.650176  1
  Tm  Tm1  1  0.000000  0.127749  0.149643  1
  Tm  Tm2  1  0.000000  0.872267  0.850725  1
  Tm  Tm3  1  0.000000  0.627416  0.349843  1
  Tc  Tc4  1  0.000000  0.132713  0.411108  1
  Tc  Tc5  1  0.000000  0.866829  0.587446  1
  Tc  Tc6  1  0.000000  0.634157  0.088530  1
  Tc  Tc7  1  0.000000  0.366171  0.912900  1
  B  B8  1  0.500000  0.477206  0.193085  1
  B  B9  1  0.500000  0.524014  0.808196  1
  B  B10  1  0.500000  0.977045  0.306382  1
  B  B11  1  0.500000  0.022169  0.692969  1
  B  B12  1  0.500000  0.288094  0.314270  1
  B  B13  1  0.500000  0.713348  0.685387  1
  B  B14  1  0.500000  0.788168  0.185196  1
  B  B15  1  0.500000  0.211766  0.815789  1
  B  B16  1  0.500000  0.364430  0.467697  1
  B  B17  1  0.500000  0.635416  0.530543  1
  B  B18  1  0.500000  0.865006  0.031608  1
  B  B19  1  0.500000  0.135136  0.969307  1
  B  B20  1  0.500000  0.386229  0.048062  1
  B  B21  1  0.500000  0.614432  0.952938  1
  B  B22  1  0.500000  0.885522  0.451547  1
  B  B23  1  0.500000  0.112354  0.546650  1
