# generated using pymatgen
data_Tm2Fe10P7Ru2
_symmetry_space_group_name_H-M   'P 1'
_cell_length_a   8.97226955
_cell_length_b   8.98473937
_cell_length_c   3.68126100
_cell_angle_alpha   90.00000000
_cell_angle_beta   90.00000000
_cell_angle_gamma   120.28641500
_symmetry_Int_Tables_number   1
_chemical_formula_structural   Tm2Fe10P7Ru2
_chemical_formula_sum   'Tm2 Fe10 P7 Ru2'
_cell_volume   256.25619194
_cell_formula_units_Z   1
loop_
 _symmetry_equiv_pos_site_id
 _symmetry_equiv_pos_as_xyz
  1  'x, y, z'
loop_
 _atom_site_type_symbol
 _atom_site_label
 _atom_site_symmetry_multiplicity
 _atom_site_fract_x
 _atom_site_fract_y
 _atom_site_fract_z
 _atom_site_occupancy
  Tm  Tm0  1  0.999472  0.000031  0.000000  1
  Tm  Tm1  1  0.666696  0.330945  0.500000  1
  Fe  Fe2  1  0.701298  0.609919  0.000000  1
  Fe  Fe3  1  0.390501  0.093801  0.000000  1
  Fe  Fe4  1  0.906988  0.297131  0.000000  1
  Fe  Fe5  1  0.216846  0.391609  0.000000  1
  Fe  Fe6  1  0.609752  0.821037  0.000000  1
  Fe  Fe7  1  0.175661  0.787193  0.000000  1
  Fe  Fe8  1  0.284925  0.233279  0.500000  1
  Fe  Fe9  1  0.770947  0.052110  0.500000  1
  Fe  Fe10  1  0.945434  0.716901  0.500000  1
  Fe  Fe11  1  0.453230  0.569623  0.500000  1
  P  P12  1  0.446562  0.364805  0.000000  1
  P  P13  1  0.636527  0.080995  0.000000  1
  P  P14  1  0.916877  0.553783  0.000000  1
  P  P15  1  0.045206  0.259931  0.500000  1
  P  P16  1  0.736728  0.781624  0.500000  1
  P  P17  1  0.215878  0.958660  0.500000  1
  P  P18  1  0.333689  0.665820  0.000000  1
  Ru  Ru19  1  0.429347  0.882504  0.500000  1
  Ru  Ru20  1  0.117436  0.548303  0.500000  1
