# generated using pymatgen
data_NdHo15Cd3HgPt4
_symmetry_space_group_name_H-M   'P 1'
_cell_length_a   9.65237454
_cell_length_b   9.65237396
_cell_length_c   9.65031756
_cell_angle_alpha   60.05329458
_cell_angle_beta   60.05329740
_cell_angle_gamma   59.92560112
_symmetry_Int_Tables_number   1
_chemical_formula_structural   NdHo15Cd3HgPt4
_chemical_formula_sum   'Nd1 Ho15 Cd3 Hg1 Pt4'
_cell_volume   635.91507273
_cell_formula_units_Z   1
loop_
 _symmetry_equiv_pos_site_id
 _symmetry_equiv_pos_as_xyz
  1  'x, y, z'
loop_
 _atom_site_type_symbol
 _atom_site_label
 _atom_site_symmetry_multiplicity
 _atom_site_fract_x
 _atom_site_fract_y
 _atom_site_fract_z
 _atom_site_occupancy
  Nd  Nd0  1  0.933891  0.933891  0.565710  1
  Ho  Ho1  1  0.351229  0.351229  0.350638  1
  Ho  Ho2  1  0.353083  0.353083  0.942620  1
  Ho  Ho3  1  0.354309  0.942393  0.352240  1
  Ho  Ho4  1  0.942393  0.354309  0.352240  1
  Ho  Ho5  1  0.810007  0.191001  0.188234  1
  Ho  Ho6  1  0.191701  0.808881  0.809969  1
  Ho  Ho7  1  0.191001  0.810007  0.188234  1
  Ho  Ho8  1  0.808881  0.191701  0.809969  1
  Ho  Ho9  1  0.189978  0.189978  0.810222  1
  Ho  Ho10  1  0.809567  0.809567  0.189981  1
  Ho  Ho11  1  0.934803  0.562567  0.564511  1
  Ho  Ho12  1  0.562381  0.935094  0.937076  1
  Ho  Ho13  1  0.562567  0.934803  0.564511  1
  Ho  Ho14  1  0.935094  0.562381  0.937076  1
  Ho  Ho15  1  0.564667  0.564667  0.934828  1
  Cd  Cd16  1  0.581159  0.581159  0.255380  1
  Cd  Cd17  1  0.578742  0.257457  0.581270  1
  Cd  Cd18  1  0.257457  0.578742  0.581270  1
  Hg  Hg19  1  0.586015  0.586015  0.585914  1
  Pt  Pt20  1  0.144370  0.144370  0.141752  1
  Pt  Pt21  1  0.143411  0.143411  0.570932  1
  Pt  Pt22  1  0.142465  0.570830  0.142712  1
  Pt  Pt23  1  0.570830  0.142465  0.142712  1
