# generated using pymatgen
data_NaMo(CO3)2
_symmetry_space_group_name_H-M   'P 1'
_cell_length_a   6.16379322
_cell_length_b   6.16379288
_cell_length_c   6.16379305
_cell_angle_alpha   47.30186312
_cell_angle_beta   47.30186667
_cell_angle_gamma   47.30185242
_symmetry_Int_Tables_number   1
_chemical_formula_structural   NaMo(CO3)2
_chemical_formula_sum   'Na1 Mo1 C2 O6'
_cell_volume   115.69896985
_cell_formula_units_Z   1
loop_
 _symmetry_equiv_pos_site_id
 _symmetry_equiv_pos_as_xyz
  1  'x, y, z'
loop_
 _atom_site_type_symbol
 _atom_site_label
 _atom_site_symmetry_multiplicity
 _atom_site_fract_x
 _atom_site_fract_y
 _atom_site_fract_z
 _atom_site_occupancy
  Na  Na0  1  0.500000  0.500000  0.500000  1
  Mo  Mo1  1  0.000000  0.000000  0.000000  1
  C  C2  1  0.741443  0.741443  0.741443  1
  C  C3  1  0.258557  0.258557  0.258557  1
  O  O4  1  0.469085  0.766115  0.992150  1
  O  O5  1  0.766115  0.992150  0.469085  1
  O  O6  1  0.007850  0.530915  0.233885  1
  O  O7  1  0.530915  0.233885  0.007850  1
  O  O8  1  0.233885  0.007850  0.530915  1
  O  O9  1  0.992150  0.469085  0.766115  1
