# generated using pymatgen
data_Tb4Er8Co4BiRu
_symmetry_space_group_name_H-M   'P 1'
_cell_length_a   8.29205470
_cell_length_b   8.29205453
_cell_length_c   8.29205486
_cell_angle_alpha   110.68870455
_cell_angle_beta   110.87588987
_cell_angle_gamma   106.87979402
_symmetry_Int_Tables_number   1
_chemical_formula_structural   Tb4Er8Co4BiRu
_chemical_formula_sum   'Tb4 Er8 Co4 Bi1 Ru1'
_cell_volume   438.22821337
_cell_formula_units_Z   1
loop_
 _symmetry_equiv_pos_site_id
 _symmetry_equiv_pos_as_xyz
  1  'x, y, z'
loop_
 _atom_site_type_symbol
 _atom_site_label
 _atom_site_symmetry_multiplicity
 _atom_site_fract_x
 _atom_site_fract_y
 _atom_site_fract_z
 _atom_site_occupancy
  Tb  Tb0  1  0.284583  0.183752  0.468334  1
  Tb  Tb1  1  0.715417  0.816248  0.531666  1
  Tb  Tb2  1  0.284583  0.816248  0.100832  1
  Tb  Tb3  1  0.715417  0.183752  0.899168  1
  Er  Er4  1  0.621432  0.311809  0.309624  1
  Er  Er5  1  0.378568  0.688191  0.690376  1
  Er  Er6  1  0.002187  0.311809  0.690376  1
  Er  Er7  1  0.997813  0.688191  0.309624  1
  Er  Er8  1  0.211907  0.407818  0.195910  1
  Er  Er9  1  0.788093  0.592182  0.804090  1
  Er  Er10  1  0.211907  0.015997  0.804090  1
  Er  Er11  1  0.788093  0.984003  0.195910  1
  Co  Co12  1  0.000000  0.375427  0.375427  1
  Co  Co13  1  0.000000  0.624573  0.624573  1
  Co  Co14  1  0.388311  0.888311  0.500000  1
  Co  Co15  1  0.611689  0.111689  0.500000  1
  Bi  Bi16  1  0.500000  0.500000  0.000000  1
  Ru  Ru17  1  0.000000  0.000000  0.000000  1
