# generated using pymatgen
data_Ho7Tm5GaCo4Sn
_symmetry_space_group_name_H-M   'P 1'
_cell_length_a   8.24736132
_cell_length_b   8.23164386
_cell_length_c   8.23052941
_cell_angle_alpha   111.94818404
_cell_angle_beta   109.35665204
_cell_angle_gamma   107.05901739
_symmetry_Int_Tables_number   1
_chemical_formula_structural   Ho7Tm5GaCo4Sn
_chemical_formula_sum   'Ho7 Tm5 Ga1 Co4 Sn1'
_cell_volume   429.81266121
_cell_formula_units_Z   1
loop_
 _symmetry_equiv_pos_site_id
 _symmetry_equiv_pos_as_xyz
  1  'x, y, z'
loop_
 _atom_site_type_symbol
 _atom_site_label
 _atom_site_symmetry_multiplicity
 _atom_site_fract_x
 _atom_site_fract_y
 _atom_site_fract_z
 _atom_site_occupancy
  Ho  Ho0  1  0.675549  0.488410  0.814786  1
  Ho  Ho1  1  0.565048  0.266254  0.298166  1
  Ho  Ho2  1  0.434277  0.733881  0.701269  1
  Ho  Ho3  1  0.180734  0.780498  0.961732  1
  Ho  Ho4  1  0.819933  0.781721  0.599789  1
  Ho  Ho5  1  0.179569  0.218330  0.399618  1
  Ho  Ho6  1  0.819897  0.219514  0.038692  1
  Tm  Tm7  1  0.967719  0.265839  0.701296  1
  Tm  Tm8  1  0.033205  0.734488  0.299571  1
  Tm  Tm9  1  0.675381  0.859984  0.186521  1
  Tm  Tm10  1  0.324601  0.510642  0.184138  1
  Tm  Tm11  1  0.324330  0.140152  0.813916  1
  Ga  Ga12  1  0.999781  0.499872  0.499978  1
  Co  Co13  1  0.114345  0.115332  0.998727  1
  Co  Co14  1  0.886181  0.885195  0.001288  1
  Co  Co15  1  0.660661  0.500746  0.160846  1
  Co  Co16  1  0.338873  0.499686  0.840132  1
  Sn  Sn17  1  0.499915  0.999455  0.499535  1
