# generated using pymatgen
data_Pr6Al19Os13
_symmetry_space_group_name_H-M   'P 1'
_cell_length_a   8.92471369
_cell_length_b   8.92471180
_cell_length_c   9.62258500
_cell_angle_alpha   90.00000000
_cell_angle_beta   90.00000000
_cell_angle_gamma   119.51645692
_symmetry_Int_Tables_number   1
_chemical_formula_structural   Pr6Al19Os13
_chemical_formula_sum   'Pr6 Al19 Os13'
_cell_volume   666.97019357
_cell_formula_units_Z   1
loop_
 _symmetry_equiv_pos_site_id
 _symmetry_equiv_pos_as_xyz
  1  'x, y, z'
loop_
 _atom_site_type_symbol
 _atom_site_label
 _atom_site_symmetry_multiplicity
 _atom_site_fract_x
 _atom_site_fract_y
 _atom_site_fract_z
 _atom_site_occupancy
  Pr  Pr0  1  0.195377  0.396025  0.250000  1
  Pr  Pr1  1  0.806442  0.604991  0.750000  1
  Pr  Pr2  1  0.603975  0.804623  0.250000  1
  Pr  Pr3  1  0.395009  0.193558  0.750000  1
  Pr  Pr4  1  0.194683  0.805317  0.250000  1
  Pr  Pr5  1  0.807312  0.192688  0.750000  1
  Al  Al6  1  0.333125  0.666875  0.995315  1
  Al  Al7  1  0.666763  0.333237  0.997712  1
  Al  Al8  1  0.666763  0.333237  0.502288  1
  Al  Al9  1  0.333125  0.666875  0.504685  1
  Al  Al10  1  0.165337  0.331022  0.581918  1
  Al  Al11  1  0.833417  0.668600  0.420995  1
  Al  Al12  1  0.668978  0.834663  0.581918  1
  Al  Al13  1  0.833417  0.668600  0.079005  1
  Al  Al14  1  0.331400  0.166583  0.420995  1
  Al  Al15  1  0.165337  0.331022  0.918082  1
  Al  Al16  1  0.167362  0.832638  0.583562  1
  Al  Al17  1  0.331400  0.166583  0.079005  1
  Al  Al18  1  0.834159  0.165841  0.420686  1
  Al  Al19  1  0.668978  0.834663  0.918082  1
  Al  Al20  1  0.834159  0.165841  0.079314  1
  Al  Al21  1  0.167362  0.832638  0.916438  1
  Al  Al22  1  0.434167  0.565833  0.750000  1
  Al  Al23  1  0.998077  0.001923  0.250000  1
  Al  Al24  1  0.003180  0.996820  0.750000  1
  Os  Os25  1  0.572106  0.145887  0.250000  1
  Os  Os26  1  0.432459  0.867262  0.750000  1
  Os  Os27  1  0.854113  0.427894  0.250000  1
  Os  Os28  1  0.132738  0.567541  0.750000  1
  Os  Os29  1  0.566741  0.433259  0.250000  1
  Os  Os30  1  0.500305  0.999294  0.004370  1
  Os  Os31  1  0.000706  0.499695  0.004370  1
  Os  Os32  1  0.500305  0.999294  0.495630  1
  Os  Os33  1  0.499015  0.500985  0.003428  1
  Os  Os34  1  0.000706  0.499695  0.495630  1
  Os  Os35  1  0.499015  0.500985  0.496572  1
  Os  Os36  1  0.001245  0.998755  0.000501  1
  Os  Os37  1  0.001245  0.998755  0.499499  1
