# generated using pymatgen
data_Ho2Sc2Al15(GaIr2)3
_symmetry_space_group_name_H-M   'P 1'
_cell_length_a   7.49399821
_cell_length_b   7.49565126
_cell_length_c   9.44520900
_cell_angle_alpha   90.00000000
_cell_angle_beta   90.00000000
_cell_angle_gamma   119.46090772
_symmetry_Int_Tables_number   1
_chemical_formula_structural   Ho2Sc2Al15(GaIr2)3
_chemical_formula_sum   'Ho2 Sc2 Al15 Ga3 Ir6'
_cell_volume   461.95409244
_cell_formula_units_Z   1
loop_
 _symmetry_equiv_pos_site_id
 _symmetry_equiv_pos_as_xyz
  1  'x, y, z'
loop_
 _atom_site_type_symbol
 _atom_site_label
 _atom_site_symmetry_multiplicity
 _atom_site_fract_x
 _atom_site_fract_y
 _atom_site_fract_z
 _atom_site_occupancy
  Ho  Ho0  1  0.997975  0.675340  0.250000  1
  Ho  Ho1  1  0.670316  0.990928  0.250000  1
  Sc  Sc2  1  0.005533  0.325728  0.750000  1
  Sc  Sc3  1  0.324583  0.003305  0.750000  1
  Al  Al4  1  0.002067  0.335321  0.068446  1
  Al  Al5  1  0.001694  0.664520  0.920152  1
  Al  Al6  1  0.001694  0.664520  0.579848  1
  Al  Al7  1  0.335884  0.003711  0.431248  1
  Al  Al8  1  0.002067  0.335321  0.431554  1
  Al  Al9  1  0.664491  0.002350  0.579608  1
  Al  Al10  1  0.664491  0.002350  0.920392  1
  Al  Al11  1  0.335884  0.003711  0.068752  1
  Al  Al12  1  0.331234  0.331323  0.565087  1
  Al  Al13  1  0.665609  0.665281  0.450536  1
  Al  Al14  1  0.665609  0.665281  0.049464  1
  Al  Al15  1  0.331234  0.331323  0.934913  1
  Al  Al16  1  0.661786  0.443803  0.750000  1
  Al  Al17  1  0.550154  0.339257  0.250000  1
  Al  Al18  1  0.444607  0.661878  0.750000  1
  Ga  Ga19  1  0.132873  0.133519  0.250000  1
  Ga  Ga20  1  0.870309  0.870213  0.750000  1
  Ga  Ga21  1  0.339126  0.545201  0.250000  1
  Ir  Ir22  1  0.671762  0.328982  0.999390  1
  Ir  Ir23  1  0.328247  0.673047  0.997176  1
  Ir  Ir24  1  0.328247  0.673047  0.502824  1
  Ir  Ir25  1  0.671762  0.328982  0.500610  1
  Ir  Ir26  1  0.000382  0.000881  0.998778  1
  Ir  Ir27  1  0.000382  0.000881  0.501222  1
