# generated using pymatgen
data_Hg(PdCl4)3
_symmetry_space_group_name_H-M   'P 1'
_cell_length_a   12.25465736
_cell_length_b   11.68640467
_cell_length_c   6.19604000
_cell_angle_alpha   80.14507770
_cell_angle_beta   69.97748265
_cell_angle_gamma   32.20511505
_symmetry_Int_Tables_number   1
_chemical_formula_structural   Hg(PdCl4)3
_chemical_formula_sum   'Hg1 Pd3 Cl12'
_cell_volume   431.69865246
_cell_formula_units_Z   1
loop_
 _symmetry_equiv_pos_site_id
 _symmetry_equiv_pos_as_xyz
  1  'x, y, z'
loop_
 _atom_site_type_symbol
 _atom_site_label
 _atom_site_symmetry_multiplicity
 _atom_site_fract_x
 _atom_site_fract_y
 _atom_site_fract_z
 _atom_site_occupancy
  Hg  Hg0  1  0.414348  0.414348  0.585652  1
  Pd  Pd1  1  0.831234  0.831234  0.668766  1
  Pd  Pd2  1  0.667935  0.667935  0.832065  1
  Pd  Pd3  1  0.585854  0.585854  0.414146  1
  Cl  Cl4  1  0.729269  0.293426  0.258808  1
  Cl  Cl5  1  0.877789  0.443066  0.103045  1
  Cl  Cl6  1  0.376689  0.803480  0.173762  1
  Cl  Cl7  1  0.443066  0.877789  0.576097  1
  Cl  Cl8  1  0.125677  0.682559  0.357345  1
  Cl  Cl9  1  0.293426  0.729269  0.718496  1
  Cl  Cl10  1  0.541205  0.964717  0.970151  1
  Cl  Cl11  1  0.964717  0.541205  0.523927  1
  Cl  Cl12  1  0.047614  0.615135  0.900420  1
  Cl  Cl13  1  0.803480  0.376689  0.646071  1
  Cl  Cl14  1  0.682559  0.125677  0.834418  1
  Cl  Cl15  1  0.615135  0.047614  0.436830  1
