# generated using pymatgen
data_Tm10AlGa2Sb3
_symmetry_space_group_name_H-M   'P 1'
_cell_length_a   8.64498225
_cell_length_b   8.66928618
_cell_length_c   6.37807900
_cell_angle_alpha   90.00000000
_cell_angle_beta   90.00000000
_cell_angle_gamma   119.71237217
_symmetry_Int_Tables_number   1
_chemical_formula_structural   Tm10AlGa2Sb3
_chemical_formula_sum   'Tm10 Al1 Ga2 Sb3'
_cell_volume   415.16374174
_cell_formula_units_Z   1
loop_
 _symmetry_equiv_pos_site_id
 _symmetry_equiv_pos_as_xyz
  1  'x, y, z'
loop_
 _atom_site_type_symbol
 _atom_site_label
 _atom_site_symmetry_multiplicity
 _atom_site_fract_x
 _atom_site_fract_y
 _atom_site_fract_z
 _atom_site_occupancy
  Tm  Tm0  1  0.335873  0.684919  0.002976  1
  Tm  Tm1  1  0.663870  0.320367  0.497089  1
  Tm  Tm2  1  0.663870  0.320367  0.002911  1
  Tm  Tm3  1  0.335873  0.684919  0.497024  1
  Tm  Tm4  1  0.234805  0.989055  0.250000  1
  Tm  Tm5  1  0.757845  0.002141  0.750000  1
  Tm  Tm6  1  0.984601  0.230872  0.250000  1
  Tm  Tm7  1  0.762584  0.765928  0.250000  1
  Tm  Tm8  1  0.244568  0.230801  0.750000  1
  Tm  Tm9  1  0.015501  0.772407  0.750000  1
  Al  Al10  1  0.994094  0.599042  0.250000  1
  Ga  Ga11  1  0.602328  0.998987  0.250000  1
  Ga  Ga12  1  0.401437  0.003858  0.750000  1
  Sb  Sb13  1  0.387183  0.392333  0.250000  1
  Sb  Sb14  1  0.609450  0.606276  0.750000  1
  Sb  Sb15  1  0.006116  0.397725  0.750000  1
