# generated using pymatgen
data_Nd16Cd2AgHgPt4
_symmetry_space_group_name_H-M   'P 1'
_cell_length_a   9.97500951
_cell_length_b   9.97513247
_cell_length_c   9.99389482
_cell_angle_alpha   60.19078020
_cell_angle_beta   60.20019305
_cell_angle_gamma   60.11357025
_symmetry_Int_Tables_number   1
_chemical_formula_structural   Nd16Cd2AgHgPt4
_chemical_formula_sum   'Nd16 Cd2 Ag1 Hg1 Pt4'
_cell_volume   705.83350207
_cell_formula_units_Z   1
loop_
 _symmetry_equiv_pos_site_id
 _symmetry_equiv_pos_as_xyz
  1  'x, y, z'
loop_
 _atom_site_type_symbol
 _atom_site_label
 _atom_site_symmetry_multiplicity
 _atom_site_fract_x
 _atom_site_fract_y
 _atom_site_fract_z
 _atom_site_occupancy
  Nd  Nd0  1  0.350234  0.350193  0.349208  1
  Nd  Nd1  1  0.352877  0.352925  0.942800  1
  Nd  Nd2  1  0.353196  0.941655  0.352991  1
  Nd  Nd3  1  0.941693  0.353180  0.352929  1
  Nd  Nd4  1  0.811121  0.190791  0.191974  1
  Nd  Nd5  1  0.189539  0.809420  0.809670  1
  Nd  Nd6  1  0.190754  0.811083  0.192032  1
  Nd  Nd7  1  0.809400  0.189534  0.809725  1
  Nd  Nd8  1  0.190883  0.190977  0.811253  1
  Nd  Nd9  1  0.808887  0.808939  0.190738  1
  Nd  Nd10  1  0.935813  0.563697  0.563779  1
  Nd  Nd11  1  0.561320  0.935272  0.937594  1
  Nd  Nd12  1  0.563741  0.935817  0.563713  1
  Nd  Nd13  1  0.935338  0.561257  0.937584  1
  Nd  Nd14  1  0.563473  0.563378  0.937445  1
  Nd  Nd15  1  0.936262  0.936254  0.561448  1
  Cd  Cd16  1  0.580368  0.258583  0.581464  1
  Cd  Cd17  1  0.258600  0.580369  0.581464  1
  Ag  Ag18  1  0.582748  0.582737  0.584471  1
  Hg  Hg19  1  0.584303  0.584314  0.248480  1
  Pt  Pt20  1  0.144439  0.144529  0.144878  1
  Pt  Pt21  1  0.142711  0.142734  0.569344  1
  Pt  Pt22  1  0.142643  0.569667  0.142495  1
  Pt  Pt23  1  0.569659  0.142698  0.142525  1
