# generated using pymatgen
data_Y4Al18CrPd5
_symmetry_space_group_name_H-M   'P 1'
_cell_length_a   7.60825317
_cell_length_b   7.60825163
_cell_length_c   9.51305519
_cell_angle_alpha   89.77796855
_cell_angle_beta   89.77797210
_cell_angle_gamma   119.11493413
_symmetry_Int_Tables_number   1
_chemical_formula_structural   Y4Al18CrPd5
_chemical_formula_sum   'Y4 Al18 Cr1 Pd5'
_cell_volume   481.07451030
_cell_formula_units_Z   1
loop_
 _symmetry_equiv_pos_site_id
 _symmetry_equiv_pos_as_xyz
  1  'x, y, z'
loop_
 _atom_site_type_symbol
 _atom_site_label
 _atom_site_symmetry_multiplicity
 _atom_site_fract_x
 _atom_site_fract_y
 _atom_site_fract_z
 _atom_site_occupancy
  Y  Y0  1  0.994687  0.673985  0.247928  1
  Y  Y1  1  0.005313  0.326015  0.752072  1
  Y  Y2  1  0.673985  0.994687  0.247928  1
  Y  Y3  1  0.326015  0.005313  0.752072  1
  Al  Al4  1  0.128341  0.128341  0.243765  1
  Al  Al5  1  0.871659  0.871659  0.756235  1
  Al  Al6  1  0.001251  0.328385  0.073758  1
  Al  Al7  1  0.998749  0.671615  0.926242  1
  Al  Al8  1  0.998349  0.663082  0.578165  1
  Al  Al9  1  0.336918  0.001651  0.421835  1
  Al  Al10  1  0.001651  0.336918  0.421835  1
  Al  Al11  1  0.663082  0.998349  0.578165  1
  Al  Al12  1  0.671615  0.998749  0.926242  1
  Al  Al13  1  0.328385  0.001251  0.073758  1
  Al  Al14  1  0.333602  0.333602  0.555011  1
  Al  Al15  1  0.666398  0.666399  0.444989  1
  Al  Al16  1  0.673220  0.673221  0.050079  1
  Al  Al17  1  0.326780  0.326780  0.949921  1
  Al  Al18  1  0.341152  0.548081  0.249345  1
  Al  Al19  1  0.658848  0.451919  0.750655  1
  Al  Al20  1  0.548081  0.341152  0.249345  1
  Al  Al21  1  0.451919  0.658848  0.750655  1
  Cr  Cr22  1  0.000000  0.000000  0.000000  1
  Pd  Pd23  1  0.672678  0.327322  0.000000  1
  Pd  Pd24  1  0.327322  0.672678  0.000000  1
  Pd  Pd25  1  0.327824  0.672176  0.500000  1
  Pd  Pd26  1  0.672176  0.327824  0.500000  1
  Pd  Pd27  1  0.000000  0.000000  0.500000  1
