# generated using pymatgen
data_Dy4Mn9Cr4Fe7P12
_symmetry_space_group_name_H-M   'P 1'
_cell_length_a   3.64012900
_cell_length_b   10.47948401
_cell_length_c   12.15769502
_cell_angle_alpha   89.85933267
_cell_angle_beta   90.00000000
_cell_angle_gamma   90.00000000
_symmetry_Int_Tables_number   1
_chemical_formula_structural   Dy4Mn9Cr4Fe7P12
_chemical_formula_sum   'Dy4 Mn9 Cr4 Fe7 P12'
_cell_volume   463.77422687
_cell_formula_units_Z   1
loop_
 _symmetry_equiv_pos_site_id
 _symmetry_equiv_pos_as_xyz
  1  'x, y, z'
loop_
 _atom_site_type_symbol
 _atom_site_label
 _atom_site_symmetry_multiplicity
 _atom_site_fract_x
 _atom_site_fract_y
 _atom_site_fract_z
 _atom_site_occupancy
  Dy  Dy0  1  0.250000  0.580191  0.708789  1
  Dy  Dy1  1  0.250000  0.918574  0.209998  1
  Dy  Dy2  1  0.750000  0.418262  0.290184  1
  Dy  Dy3  1  0.750000  0.083478  0.792371  1
  Mn  Mn4  1  0.250000  0.407592  0.491969  1
  Mn  Mn5  1  0.250000  0.092648  0.993235  1
  Mn  Mn6  1  0.750000  0.590254  0.506273  1
  Mn  Mn7  1  0.750000  0.908107  0.008406  1
  Mn  Mn8  1  0.250000  0.219056  0.176434  1
  Mn  Mn9  1  0.250000  0.282728  0.676691  1
  Mn  Mn10  1  0.750000  0.780536  0.823797  1
  Mn  Mn11  1  0.750000  0.718915  0.324068  1
  Mn  Mn12  1  0.250000  0.876242  0.698469  1
  Cr  Cr13  1  0.250000  0.704134  0.989225  1
  Cr  Cr14  1  0.250000  0.793905  0.487679  1
  Cr  Cr15  1  0.750000  0.295526  0.011429  1
  Cr  Cr16  1  0.750000  0.204043  0.510949  1
  Fe  Fe17  1  0.250000  0.625850  0.199272  1
  Fe  Fe18  1  0.750000  0.125929  0.300840  1
  Fe  Fe19  1  0.750000  0.373996  0.800285  1
  Fe  Fe20  1  0.250000  0.463706  0.933888  1
  Fe  Fe21  1  0.250000  0.036496  0.434457  1
  Fe  Fe22  1  0.750000  0.537114  0.065631  1
  Fe  Fe23  1  0.750000  0.962606  0.566875  1
  P  P24  1  0.250000  0.426887  0.111096  1
  P  P25  1  0.250000  0.077651  0.610825  1
  P  P26  1  0.750000  0.573721  0.887994  1
  P  P27  1  0.750000  0.926211  0.389048  1
  P  P28  1  0.250000  0.268101  0.871411  1
  P  P29  1  0.250000  0.232269  0.370457  1
  P  P30  1  0.750000  0.732625  0.130145  1
  P  P31  1  0.750000  0.763446  0.627582  1
  P  P32  1  0.250000  0.596460  0.385604  1
  P  P33  1  0.250000  0.903309  0.888193  1
  P  P34  1  0.750000  0.402496  0.612610  1
  P  P35  1  0.750000  0.096936  0.113819  1
