# generated using pymatgen
data_Er17Zr2SnIr12
_symmetry_space_group_name_H-M   'P 1'
_cell_length_a   10.77752000
_cell_length_b   10.77752000
_cell_length_c   6.24469900
_cell_angle_alpha   90.00000000
_cell_angle_beta   90.00000000
_cell_angle_gamma   90.00000000
_symmetry_Int_Tables_number   1
_chemical_formula_structural   Er17Zr2SnIr12
_chemical_formula_sum   'Er17 Zr2 Sn1 Ir12'
_cell_volume   725.35262112
_cell_formula_units_Z   1
loop_
 _symmetry_equiv_pos_site_id
 _symmetry_equiv_pos_as_xyz
  1  'x, y, z'
loop_
 _atom_site_type_symbol
 _atom_site_label
 _atom_site_symmetry_multiplicity
 _atom_site_fract_x
 _atom_site_fract_y
 _atom_site_fract_z
 _atom_site_occupancy
  Er  Er0  1  0.286591  0.084607  0.378179  1
  Er  Er1  1  0.292214  0.911246  0.879374  1
  Er  Er2  1  0.707786  0.088754  0.879374  1
  Er  Er3  1  0.713409  0.915393  0.378179  1
  Er  Er4  1  0.587989  0.789622  0.877418  1
  Er  Er5  1  0.587139  0.209928  0.374593  1
  Er  Er6  1  0.412861  0.790072  0.374593  1
  Er  Er7  1  0.412011  0.210378  0.877418  1
  Er  Er8  1  0.209928  0.412861  0.625407  1
  Er  Er9  1  0.210378  0.587989  0.122582  1
  Er  Er10  1  0.789622  0.412011  0.122582  1
  Er  Er11  1  0.790072  0.587139  0.625407  1
  Er  Er12  1  0.911246  0.707786  0.120626  1
  Er  Er13  1  0.915393  0.286591  0.621821  1
  Er  Er14  1  0.084607  0.713409  0.621821  1
  Er  Er15  1  0.088754  0.292214  0.120626  1
  Er  Er16  1  0.000000  0.000000  0.000000  1
  Zr  Zr17  1  0.500000  0.500000  0.000000  1
  Zr  Zr18  1  0.500000  0.500000  0.500000  1
  Sn  Sn19  1  0.000000  0.000000  0.500000  1
  Ir  Ir20  1  0.846078  0.156080  0.247364  1
  Ir  Ir21  1  0.843920  0.846078  0.752636  1
  Ir  Ir22  1  0.156080  0.153922  0.752636  1
  Ir  Ir23  1  0.153922  0.843920  0.247364  1
  Ir  Ir24  1  0.645591  0.355349  0.746949  1
  Ir  Ir25  1  0.644651  0.645591  0.253051  1
  Ir  Ir26  1  0.355349  0.354409  0.253051  1
  Ir  Ir27  1  0.354409  0.644651  0.746949  1
  Ir  Ir28  1  0.500000  0.000000  0.125327  1
  Ir  Ir29  1  0.500000  0.000000  0.621545  1
  Ir  Ir30  1  0.000000  0.500000  0.874673  1
  Ir  Ir31  1  0.000000  0.500000  0.378455  1
