# generated using pymatgen
data_CeTm3(Co3Si5)2
_symmetry_space_group_name_H-M   'P 1'
_cell_length_a   7.88348015
_cell_length_b   7.88404136
_cell_length_c   7.88404262
_cell_angle_alpha   138.87789076
_cell_angle_beta   105.46866126
_cell_angle_gamma   88.85381973
_symmetry_Int_Tables_number   1
_chemical_formula_structural   CeTm3(Co3Si5)2
_chemical_formula_sum   'Ce1 Tm3 Co6 Si10'
_cell_volume   297.67693781
_cell_formula_units_Z   1
loop_
 _symmetry_equiv_pos_site_id
 _symmetry_equiv_pos_as_xyz
  1  'x, y, z'
loop_
 _atom_site_type_symbol
 _atom_site_label
 _atom_site_symmetry_multiplicity
 _atom_site_fract_x
 _atom_site_fract_y
 _atom_site_fract_z
 _atom_site_occupancy
  Ce  Ce0  1  0.367325  0.634685  0.732640  1
  Tm  Tm1  1  0.901843  0.134402  0.767440  1
  Tm  Tm2  1  0.097952  0.865647  0.232306  1
  Tm  Tm3  1  0.633139  0.366453  0.266686  1
  Co  Co4  1  0.029602  0.637336  0.392266  1
  Co  Co5  1  0.971899  0.361091  0.610808  1
  Co  Co6  1  0.500622  0.749130  0.248831  1
  Co  Co7  1  0.500622  0.251791  0.751492  1
  Co  Co8  1  0.246556  0.138560  0.107996  1
  Co  Co9  1  0.749917  0.861155  0.888760  1
  Si  Si10  1  0.274796  0.527124  0.250412  1
  Si  Si11  1  0.728770  0.979042  0.252743  1
  Si  Si12  1  0.995520  0.747642  0.749669  1
  Si  Si13  1  0.240246  0.398115  0.842130  1
  Si  Si14  1  0.759979  0.600788  0.159191  1
  Si  Si15  1  0.443048  0.099456  0.343591  1
  Si  Si16  1  0.995520  0.245851  0.247878  1
  Si  Si17  1  0.559078  0.901320  0.657760  1
  Si  Si18  1  0.728770  0.476027  0.749727  1
  Si  Si19  1  0.274796  0.024384  0.747672  1
