# generated using pymatgen
data_Tb4HgI6
_symmetry_space_group_name_H-M   'P 1'
_cell_length_a   4.26844200
_cell_length_b   14.34898400
_cell_length_c   15.10991400
_cell_angle_alpha   90.00000000
_cell_angle_beta   90.00000000
_cell_angle_gamma   90.00000000
_symmetry_Int_Tables_number   1
_chemical_formula_structural   Tb4HgI6
_chemical_formula_sum   'Tb8 Hg2 I12'
_cell_volume   925.44908079
_cell_formula_units_Z   2
loop_
 _symmetry_equiv_pos_site_id
 _symmetry_equiv_pos_as_xyz
  1  'x, y, z'
loop_
 _atom_site_type_symbol
 _atom_site_label
 _atom_site_symmetry_multiplicity
 _atom_site_fract_x
 _atom_site_fract_y
 _atom_site_fract_z
 _atom_site_occupancy
  Tb  Tb0  1  0.500000  0.117138  0.343412  1
  Tb  Tb1  1  0.500000  0.882862  0.656588  1
  Tb  Tb2  1  0.500000  0.617138  0.156588  1
  Tb  Tb3  1  0.500000  0.382862  0.843412  1
  Tb  Tb4  1  0.000000  0.116981  0.578681  1
  Tb  Tb5  1  0.000000  0.883019  0.421319  1
  Tb  Tb6  1  0.000000  0.616981  0.921319  1
  Tb  Tb7  1  0.000000  0.383019  0.078681  1
  Hg  Hg8  1  0.500000  0.000000  0.500000  1
  Hg  Hg9  1  0.500000  0.500000  0.000000  1
  I  I10  1  0.500000  0.245028  0.162628  1
  I  I11  1  0.500000  0.754972  0.837372  1
  I  I12  1  0.500000  0.745028  0.337372  1
  I  I13  1  0.500000  0.254972  0.662628  1
  I  I14  1  0.000000  0.258098  0.413781  1
  I  I15  1  0.000000  0.741902  0.586219  1
  I  I16  1  0.000000  0.758098  0.086219  1
  I  I17  1  0.000000  0.241902  0.913781  1
  I  I18  1  0.000000  0.999706  0.240842  1
  I  I19  1  0.000000  0.000294  0.759158  1
  I  I20  1  0.000000  0.499706  0.259158  1
  I  I21  1  0.000000  0.500294  0.740842  1
