# generated using pymatgen
data_Tb6Co7Ni11As12
_symmetry_space_group_name_H-M   'P 1'
_cell_length_a   3.87159500
_cell_length_b   10.87610856
_cell_length_c   12.75739357
_cell_angle_alpha   89.79413934
_cell_angle_beta   90.00000000
_cell_angle_gamma   90.00000000
_symmetry_Int_Tables_number   1
_chemical_formula_structural   Tb6Co7Ni11As12
_chemical_formula_sum   'Tb6 Co7 Ni11 As12'
_cell_volume   537.18342636
_cell_formula_units_Z   1
loop_
 _symmetry_equiv_pos_site_id
 _symmetry_equiv_pos_as_xyz
  1  'x, y, z'
loop_
 _atom_site_type_symbol
 _atom_site_label
 _atom_site_symmetry_multiplicity
 _atom_site_fract_x
 _atom_site_fract_y
 _atom_site_fract_z
 _atom_site_occupancy
  Tb  Tb0  1  0.000000  0.501280  0.520623  1
  Tb  Tb1  1  0.500000  0.999329  0.478999  1
  Tb  Tb2  1  0.500000  0.814841  0.206521  1
  Tb  Tb3  1  0.500000  0.184303  0.206384  1
  Tb  Tb4  1  0.000000  0.685600  0.793689  1
  Tb  Tb5  1  0.000000  0.315490  0.793824  1
  Co  Co6  1  0.000000  0.499902  0.981513  1
  Co  Co7  1  0.500000  0.000039  0.018717  1
  Co  Co8  1  0.500000  0.333945  0.996572  1
  Co  Co9  1  0.500000  0.665619  0.996621  1
  Co  Co10  1  0.000000  0.165374  0.003180  1
  Co  Co11  1  0.000000  0.834367  0.003943  1
  Co  Co12  1  0.500000  0.300181  0.427781  1
  Ni  Ni13  1  0.500000  0.500064  0.156872  1
  Ni  Ni14  1  0.000000  0.999660  0.843977  1
  Ni  Ni15  1  0.500000  0.500515  0.701686  1
  Ni  Ni16  1  0.000000  0.999916  0.298749  1
  Ni  Ni17  1  0.500000  0.695666  0.425561  1
  Ni  Ni18  1  0.000000  0.199142  0.570776  1
  Ni  Ni19  1  0.000000  0.803897  0.574479  1
  Ni  Ni20  1  0.500000  0.879581  0.710061  1
  Ni  Ni21  1  0.500000  0.122920  0.709206  1
  Ni  Ni22  1  0.000000  0.620874  0.289949  1
  Ni  Ni23  1  0.000000  0.377943  0.290712  1
  As  As24  1  0.500000  0.500095  0.879714  1
  As  As25  1  0.000000  0.999996  0.120626  1
  As  As26  1  0.500000  0.497094  0.344740  1
  As  As27  1  0.000000  0.001098  0.656242  1
  As  As28  1  0.500000  0.316151  0.612978  1
  As  As29  1  0.500000  0.685737  0.613443  1
  As  As30  1  0.000000  0.185855  0.385475  1
  As  As31  1  0.000000  0.814059  0.386316  1
  As  As32  1  0.500000  0.847362  0.894959  1
  As  As33  1  0.500000  0.152975  0.894394  1
  As  As34  1  0.000000  0.652670  0.105447  1
  As  As35  1  0.000000  0.346459  0.105272  1
