# generated using pymatgen
data_Yb19Cd(InN)7
_symmetry_space_group_name_H-M   'P 1'
_cell_length_a   10.31068376
_cell_length_b   10.31068378
_cell_length_c   10.35170055
_cell_angle_alpha   60.13098190
_cell_angle_beta   60.13098196
_cell_angle_gamma   59.99999956
_symmetry_Int_Tables_number   1
_chemical_formula_structural   Yb19Cd(InN)7
_chemical_formula_sum   'Yb19 Cd1 In7 N7'
_cell_volume   779.70194384
_cell_formula_units_Z   1
loop_
 _symmetry_equiv_pos_site_id
 _symmetry_equiv_pos_as_xyz
  1  'x, y, z'
loop_
 _atom_site_type_symbol
 _atom_site_label
 _atom_site_symmetry_multiplicity
 _atom_site_fract_x
 _atom_site_fract_y
 _atom_site_fract_z
 _atom_site_occupancy
  Yb  Yb0  1  0.174670  0.499804  0.825723  1
  Yb  Yb1  1  0.499390  0.826264  0.174955  1
  Yb  Yb2  1  0.826192  0.174766  0.499629  1
  Yb  Yb3  1  0.166582  0.833742  0.165935  1
  Yb  Yb4  1  0.826264  0.499390  0.174955  1
  Yb  Yb5  1  0.174766  0.826192  0.499629  1
  Yb  Yb6  1  0.166362  0.166362  0.833386  1
  Yb  Yb7  1  0.174766  0.499413  0.499629  1
  Yb  Yb8  1  0.833742  0.833742  0.165935  1
  Yb  Yb9  1  0.833891  0.166362  0.833386  1
  Yb  Yb10  1  0.499413  0.826192  0.499629  1
  Yb  Yb11  1  0.499966  0.499966  0.500102  1
  Yb  Yb12  1  0.499390  0.499390  0.174955  1
  Yb  Yb13  1  0.166362  0.833891  0.833386  1
  Yb  Yb14  1  0.499804  0.174670  0.825723  1
  Yb  Yb15  1  0.499413  0.174766  0.499629  1
  Yb  Yb16  1  0.826192  0.499413  0.499629  1
  Yb  Yb17  1  0.833742  0.166582  0.165935  1
  Yb  Yb18  1  0.499804  0.499804  0.825723  1
  Cd  Cd19  1  0.173724  0.173724  0.478829  1
  In  In20  1  0.825933  0.522334  0.825801  1
  In  In21  1  0.478152  0.173947  0.173953  1
  In  In22  1  0.173947  0.478152  0.173953  1
  In  In23  1  0.522334  0.825933  0.825801  1
  In  In24  1  0.173947  0.173947  0.173953  1
  In  In25  1  0.825933  0.825933  0.825801  1
  In  In26  1  0.824996  0.824996  0.525013  1
  N  N27  1  0.673089  0.327778  0.671355  1
  N  N28  1  0.672346  0.327451  0.327857  1
  N  N29  1  0.327778  0.673089  0.671355  1
  N  N30  1  0.327451  0.672346  0.327857  1
  N  N31  1  0.327778  0.327778  0.671355  1
  N  N32  1  0.672346  0.672346  0.327857  1
  N  N33  1  0.999538  0.999538  0.001386  1
