# generated using pymatgen
data_Zr(Ga3Ir)3
_symmetry_space_group_name_H-M   'P 1'
_cell_length_a   10.40778926
_cell_length_b   10.40779008
_cell_length_c   10.40778853
_cell_angle_alpha   41.72200274
_cell_angle_beta   41.72199979
_cell_angle_gamma   41.72199873
_symmetry_Int_Tables_number   1
_chemical_formula_structural   Zr(Ga3Ir)3
_chemical_formula_sum   'Zr2 Ga18 Ir6'
_cell_volume   451.43483045
_cell_formula_units_Z   2
loop_
 _symmetry_equiv_pos_site_id
 _symmetry_equiv_pos_as_xyz
  1  'x, y, z'
loop_
 _atom_site_type_symbol
 _atom_site_label
 _atom_site_symmetry_multiplicity
 _atom_site_fract_x
 _atom_site_fract_y
 _atom_site_fract_z
 _atom_site_occupancy
  Zr  Zr0  1  0.167042  0.167042  0.167042  1
  Zr  Zr1  1  0.832958  0.832958  0.832958  1
  Ga  Ga2  1  0.050126  0.050126  0.050126  1
  Ga  Ga3  1  0.709612  0.500000  0.290388  1
  Ga  Ga4  1  0.668717  0.331283  0.000000  1
  Ga  Ga5  1  0.110288  0.438254  0.769478  1
  Ga  Ga6  1  0.438254  0.769478  0.110288  1
  Ga  Ga7  1  0.385008  0.385008  0.385008  1
  Ga  Ga8  1  0.331283  0.000000  0.668717  1
  Ga  Ga9  1  0.614992  0.614992  0.614992  1
  Ga  Ga10  1  0.230522  0.561746  0.889712  1
  Ga  Ga11  1  0.561746  0.889712  0.230522  1
  Ga  Ga12  1  0.500000  0.290388  0.709612  1
  Ga  Ga13  1  0.769478  0.110288  0.438254  1
  Ga  Ga14  1  0.949874  0.949874  0.949874  1
  Ga  Ga15  1  0.290388  0.709612  0.500000  1
  Ga  Ga16  1  0.000000  0.668717  0.331283  1
  Ga  Ga17  1  0.715644  0.715644  0.715644  1
  Ga  Ga18  1  0.284356  0.284356  0.284356  1
  Ga  Ga19  1  0.889712  0.230522  0.561746  1
  Ir  Ir20  1  0.237708  0.925407  0.579136  1
  Ir  Ir21  1  0.925407  0.579136  0.237708  1
  Ir  Ir22  1  0.762292  0.420864  0.074593  1
  Ir  Ir23  1  0.074593  0.762292  0.420864  1
  Ir  Ir24  1  0.420864  0.074593  0.762292  1
  Ir  Ir25  1  0.579136  0.237708  0.925407  1
