# generated using pymatgen
data_TbSm3(Co2O5)4
_symmetry_space_group_name_H-M   'P 1'
_cell_length_a   5.64709700
_cell_length_b   7.34899216
_cell_length_c   8.55323050
_cell_angle_alpha   89.91223862
_cell_angle_beta   90.00000000
_cell_angle_gamma   90.00000000
_symmetry_Int_Tables_number   1
_chemical_formula_structural   TbSm3(Co2O5)4
_chemical_formula_sum   'Tb1 Sm3 Co8 O20'
_cell_volume   354.96268300
_cell_formula_units_Z   1
loop_
 _symmetry_equiv_pos_site_id
 _symmetry_equiv_pos_as_xyz
  1  'x, y, z'
loop_
 _atom_site_type_symbol
 _atom_site_label
 _atom_site_symmetry_multiplicity
 _atom_site_fract_x
 _atom_site_fract_y
 _atom_site_fract_z
 _atom_site_occupancy
  Tb  Tb0  1  0.000000  0.143834  0.173966  1
  Sm  Sm1  1  0.000000  0.857792  0.827034  1
  Sm  Sm2  1  0.000000  0.642763  0.325682  1
  Sm  Sm3  1  0.000000  0.356395  0.673967  1
  Co  Co4  1  0.257503  0.000335  0.499152  1
  Co  Co5  1  0.742293  0.498787  0.000604  1
  Co  Co6  1  0.742497  0.000335  0.499152  1
  Co  Co7  1  0.257707  0.498787  0.000604  1
  Co  Co8  1  0.500000  0.402368  0.352675  1
  Co  Co9  1  0.500000  0.597263  0.646607  1
  Co  Co10  1  0.500000  0.904300  0.146749  1
  Co  Co11  1  0.500000  0.096678  0.853413  1
  O  O12  1  0.277532  0.003063  0.002112  1
  O  O13  1  0.720465  0.500052  0.499422  1
  O  O14  1  0.722468  0.003063  0.002112  1
  O  O15  1  0.279535  0.500052  0.499422  1
  O  O16  1  0.000000  0.159160  0.446209  1
  O  O17  1  0.000000  0.841691  0.550421  1
  O  O18  1  0.000000  0.657469  0.050905  1
  O  O19  1  0.000000  0.338791  0.950856  1
  O  O20  1  0.500000  0.153757  0.443635  1
  O  O21  1  0.500000  0.845815  0.555978  1
  O  O22  1  0.500000  0.654371  0.057802  1
  O  O23  1  0.500000  0.346456  0.943960  1
  O  O24  1  0.247858  0.400518  0.210358  1
  O  O25  1  0.249332  0.595075  0.789536  1
  O  O26  1  0.752626  0.907664  0.288190  1
  O  O27  1  0.750452  0.095055  0.710696  1
  O  O28  1  0.750668  0.595075  0.789536  1
  O  O29  1  0.752142  0.400518  0.210358  1
  O  O30  1  0.249548  0.095055  0.710696  1
  O  O31  1  0.247374  0.907664  0.288190  1
