# generated using pymatgen
data_Pr5Sm2As12Pd17
_symmetry_space_group_name_H-M   'P 1'
_cell_length_a   12.79485744
_cell_length_b   12.79485876
_cell_length_c   13.98898647
_cell_angle_alpha   68.57451614
_cell_angle_beta   68.57451368
_cell_angle_gamma   18.86745046
_symmetry_Int_Tables_number   1
_chemical_formula_structural   Pr5Sm2As12Pd17
_chemical_formula_sum   'Pr5 Sm2 As12 Pd17'
_cell_volume   687.93135728
_cell_formula_units_Z   1
loop_
 _symmetry_equiv_pos_site_id
 _symmetry_equiv_pos_as_xyz
  1  'x, y, z'
loop_
 _atom_site_type_symbol
 _atom_site_label
 _atom_site_symmetry_multiplicity
 _atom_site_fract_x
 _atom_site_fract_y
 _atom_site_fract_z
 _atom_site_occupancy
  Pr  Pr0  1  0.632697  0.632697  0.999709  1
  Pr  Pr1  1  0.233217  0.233217  0.313129  1
  Pr  Pr2  1  0.766976  0.766976  0.686791  1
  Pr  Pr3  1  0.418517  0.418517  0.260414  1
  Pr  Pr4  1  0.581202  0.581202  0.739482  1
  Sm  Sm5  1  0.499953  0.499953  0.500120  1
  Sm  Sm6  1  0.367600  0.367600  0.999931  1
  As  As7  1  0.061748  0.061748  0.924714  1
  As  As8  1  0.937700  0.937700  0.074443  1
  As  As9  1  0.884786  0.884786  0.829927  1
  As  As10  1  0.115220  0.115220  0.171539  1
  As  As11  1  0.189514  0.189514  0.619425  1
  As  As12  1  0.810625  0.810625  0.379937  1
  As  As13  1  0.366710  0.366710  0.578772  1
  As  As14  1  0.633339  0.633339  0.421331  1
  As  As15  1  0.011494  0.011494  0.667474  1
  As  As16  1  0.988409  0.988409  0.332647  1
  As  As17  1  0.233720  0.233720  0.882925  1
  As  As18  1  0.766821  0.766821  0.116302  1
  Pd  Pd19  1  0.838496  0.838496  0.192290  1
  Pd  Pd20  1  0.161656  0.161656  0.806471  1
  Pd  Pd21  1  0.024824  0.024824  0.127761  1
  Pd  Pd22  1  0.974398  0.974398  0.872895  1
  Pd  Pd23  1  0.887884  0.887884  0.459290  1
  Pd  Pd24  1  0.112107  0.112107  0.540780  1
  Pd  Pd25  1  0.499548  0.499548  0.999978  1
  Pd  Pd26  1  0.547726  0.547726  0.254733  1
  Pd  Pd27  1  0.452128  0.452128  0.745874  1
  Pd  Pd28  1  0.295639  0.295639  0.489814  1
  Pd  Pd29  1  0.704390  0.704390  0.510155  1
  Pd  Pd30  1  0.663716  0.663716  0.224863  1
  Pd  Pd31  1  0.336577  0.336577  0.775098  1
  Pd  Pd32  1  0.910651  0.910651  0.637535  1
  Pd  Pd33  1  0.089257  0.089257  0.362983  1
  Pd  Pd34  1  0.220324  0.220324  0.071518  1
  Pd  Pd35  1  0.780431  0.780431  0.928949  1
