# generated using pymatgen
data_DyY3(Si5Pt3)2
_symmetry_space_group_name_H-M   'P 1'
_cell_length_a   8.16821902
_cell_length_b   8.16636336
_cell_length_c   8.16636367
_cell_angle_alpha   136.26173825
_cell_angle_beta   104.72248796
_cell_angle_gamma   91.33475873
_symmetry_Int_Tables_number   1
_chemical_formula_structural   DyY3(Si5Pt3)2
_chemical_formula_sum   'Dy1 Y3 Si10 Pt6'
_cell_volume   346.36836247
_cell_formula_units_Z   1
loop_
 _symmetry_equiv_pos_site_id
 _symmetry_equiv_pos_as_xyz
  1  'x, y, z'
loop_
 _atom_site_type_symbol
 _atom_site_label
 _atom_site_symmetry_multiplicity
 _atom_site_fract_x
 _atom_site_fract_y
 _atom_site_fract_z
 _atom_site_occupancy
  Dy  Dy0  1  0.899980  0.129652  0.770327  1
  Y  Y1  1  0.641163  0.370436  0.270728  1
  Y  Y2  1  0.358925  0.629539  0.729387  1
  Y  Y3  1  0.099850  0.870426  0.229424  1
  Si  Si4  1  0.271848  0.521586  0.249539  1
  Si  Si5  1  0.728175  0.477804  0.750008  1
  Si  Si6  1  0.728175  0.978166  0.250370  1
  Si  Si7  1  0.271848  0.022308  0.750262  1
  Si  Si8  1  0.460603  0.111879  0.348724  1
  Si  Si9  1  0.539318  0.887956  0.651362  1
  Si  Si10  1  0.763417  0.611925  0.151492  1
  Si  Si11  1  0.236614  0.388077  0.848537  1
  Si  Si12  1  0.999920  0.249603  0.249298  1
  Si  Si13  1  0.999920  0.750622  0.750317  1
  Pt  Pt14  1  0.249549  0.137357  0.112191  1
  Pt  Pt15  1  0.750439  0.862580  0.887859  1
  Pt  Pt16  1  0.025271  0.637330  0.387941  1
  Pt  Pt17  1  0.974847  0.362776  0.612071  1
  Pt  Pt18  1  0.500070  0.249862  0.749954  1
  Pt  Pt19  1  0.500070  0.750116  0.250207  1
