# generated using pymatgen
data_Pr4Y6SnBi7
_symmetry_space_group_name_H-M   'P 1'
_cell_length_a   8.42641100
_cell_length_b   8.35896100
_cell_length_c   15.68339800
_cell_angle_alpha   90.00000000
_cell_angle_beta   90.00000000
_cell_angle_gamma   90.00000000
_symmetry_Int_Tables_number   1
_chemical_formula_structural   Pr4Y6SnBi7
_chemical_formula_sum   'Pr8 Y12 Sn2 Bi14'
_cell_volume   1104.67646328
_cell_formula_units_Z   2
loop_
 _symmetry_equiv_pos_site_id
 _symmetry_equiv_pos_as_xyz
  1  'x, y, z'
loop_
 _atom_site_type_symbol
 _atom_site_label
 _atom_site_symmetry_multiplicity
 _atom_site_fract_x
 _atom_site_fract_y
 _atom_site_fract_z
 _atom_site_occupancy
  Pr  Pr0  1  0.521232  0.322771  0.907066  1
  Pr  Pr1  1  0.021232  0.177229  0.592934  1
  Pr  Pr2  1  0.479280  0.681284  0.403439  1
  Pr  Pr3  1  0.979280  0.818716  0.096561  1
  Pr  Pr4  1  0.479280  0.681284  0.096561  1
  Pr  Pr5  1  0.979280  0.818716  0.403439  1
  Pr  Pr6  1  0.521232  0.322771  0.592934  1
  Pr  Pr7  1  0.021232  0.177229  0.907066  1
  Y  Y8  1  0.352539  0.850222  0.876623  1
  Y  Y9  1  0.852539  0.649778  0.623377  1
  Y  Y10  1  0.644991  0.149410  0.375195  1
  Y  Y11  1  0.144991  0.350590  0.124805  1
  Y  Y12  1  0.644991  0.149410  0.124805  1
  Y  Y13  1  0.144991  0.350590  0.375195  1
  Y  Y14  1  0.352539  0.850222  0.623377  1
  Y  Y15  1  0.852539  0.649778  0.876623  1
  Y  Y16  1  0.189462  0.498476  0.750000  1
  Y  Y17  1  0.689462  0.001524  0.750000  1
  Y  Y18  1  0.813953  0.507204  0.250000  1
  Y  Y19  1  0.313953  0.992796  0.250000  1
  Sn  Sn20  1  0.664507  0.847176  0.250000  1
  Sn  Sn21  1  0.164507  0.652824  0.250000  1
  Bi  Bi22  1  0.295950  0.042918  0.046190  1
  Bi  Bi23  1  0.795950  0.457082  0.453810  1
  Bi  Bi24  1  0.703550  0.957831  0.545811  1
  Bi  Bi25  1  0.203550  0.542169  0.954189  1
  Bi  Bi26  1  0.703550  0.957831  0.954189  1
  Bi  Bi27  1  0.203550  0.542169  0.545811  1
  Bi  Bi28  1  0.295950  0.042918  0.453810  1
  Bi  Bi29  1  0.795950  0.457082  0.046190  1
  Bi  Bi30  1  0.549508  0.633271  0.750000  1
  Bi  Bi31  1  0.049508  0.866729  0.750000  1
  Bi  Bi32  1  0.448072  0.372389  0.250000  1
  Bi  Bi33  1  0.948072  0.127611  0.250000  1
  Bi  Bi34  1  0.339412  0.154339  0.750000  1
  Bi  Bi35  1  0.839412  0.345661  0.750000  1
