# generated using pymatgen
data_Ce8Ti8Nb3Si16Ir
_symmetry_space_group_name_H-M   'P 1'
_cell_length_a   7.06966718
_cell_length_b   7.06966768
_cell_length_c   13.11450860
_cell_angle_alpha   90.25057024
_cell_angle_beta   89.74942844
_cell_angle_gamma   89.69861535
_symmetry_Int_Tables_number   1
_chemical_formula_structural   Ce8Ti8Nb3Si16Ir
_chemical_formula_sum   'Ce8 Ti8 Nb3 Si16 Ir1'
_cell_volume   655.44406094
_cell_formula_units_Z   1
loop_
 _symmetry_equiv_pos_site_id
 _symmetry_equiv_pos_as_xyz
  1  'x, y, z'
loop_
 _atom_site_type_symbol
 _atom_site_label
 _atom_site_symmetry_multiplicity
 _atom_site_fract_x
 _atom_site_fract_y
 _atom_site_fract_z
 _atom_site_occupancy
  Ce  Ce0  1  0.330922  0.008304  0.468144  1
  Ce  Ce1  1  0.492313  0.832915  0.720253  1
  Ce  Ce2  1  0.504804  0.166394  0.217270  1
  Ce  Ce3  1  0.832915  0.492313  0.279747  1
  Ce  Ce4  1  0.166394  0.504804  0.782730  1
  Ce  Ce5  1  0.668454  0.990892  0.968275  1
  Ce  Ce6  1  0.008304  0.330922  0.531856  1
  Ce  Ce7  1  0.990892  0.668454  0.031725  1
  Ti  Ti8  1  0.153315  0.004353  0.877784  1
  Ti  Ti9  1  0.494422  0.663080  0.127571  1
  Ti  Ti10  1  0.506808  0.344496  0.629048  1
  Ti  Ti11  1  0.663080  0.494422  0.872429  1
  Ti  Ti12  1  0.344496  0.506808  0.370952  1
  Ti  Ti13  1  0.844566  0.993221  0.377130  1
  Ti  Ti14  1  0.004353  0.153315  0.122216  1
  Ti  Ti15  1  0.993221  0.844566  0.622870  1
  Nb  Nb16  1  0.172601  0.829387  0.247604  1
  Nb  Nb17  1  0.829387  0.172601  0.752396  1
  Nb  Nb18  1  0.670499  0.670499  0.500000  1
  Si  Si19  1  0.200248  0.127553  0.688916  1
  Si  Si20  1  0.374743  0.694259  0.939861  1
  Si  Si21  1  0.628556  0.298659  0.437975  1
  Si  Si22  1  0.694259  0.374743  0.060139  1
  Si  Si23  1  0.298659  0.628556  0.562025  1
  Si  Si24  1  0.798207  0.873256  0.188752  1
  Si  Si25  1  0.127553  0.200248  0.311084  1
  Si  Si26  1  0.873256  0.798207  0.811248  1
  Si  Si27  1  0.291403  0.957551  0.063381  1
  Si  Si28  1  0.542801  0.794374  0.315945  1
  Si  Si29  1  0.453297  0.208788  0.820531  1
  Si  Si30  1  0.794374  0.542801  0.684055  1
  Si  Si31  1  0.208788  0.453297  0.179469  1
  Si  Si32  1  0.705964  0.043154  0.566356  1
  Si  Si33  1  0.957551  0.291403  0.936619  1
  Si  Si34  1  0.043154  0.705964  0.433644  1
  Ir  Ir35  1  0.335438  0.335438  0.000000  1
