# generated using pymatgen
data_MnAg(SeO4)2
_symmetry_space_group_name_H-M   'P 1'
_cell_length_a   5.17881643
_cell_length_b   5.17881667
_cell_length_c   7.29032131
_cell_angle_alpha   93.46753439
_cell_angle_beta   93.46753504
_cell_angle_gamma   64.64076946
_symmetry_Int_Tables_number   1
_chemical_formula_structural   MnAg(SeO4)2
_chemical_formula_sum   'Mn1 Ag1 Se2 O8'
_cell_volume   176.23335797
_cell_formula_units_Z   1
loop_
 _symmetry_equiv_pos_site_id
 _symmetry_equiv_pos_as_xyz
  1  'x, y, z'
loop_
 _atom_site_type_symbol
 _atom_site_label
 _atom_site_symmetry_multiplicity
 _atom_site_fract_x
 _atom_site_fract_y
 _atom_site_fract_z
 _atom_site_occupancy
  Mn  Mn0  1  0.000000  0.000000  0.000000  1
  Ag  Ag1  1  0.000000  0.000000  0.500000  1
  Se  Se2  1  0.347536  0.347536  0.779576  1
  Se  Se3  1  0.652464  0.652464  0.220424  1
  O  O4  1  0.255745  0.255745  0.573061  1
  O  O5  1  0.744255  0.744255  0.426939  1
  O  O6  1  0.712984  0.216740  0.791675  1
  O  O7  1  0.287016  0.783260  0.208325  1
  O  O8  1  0.783260  0.287016  0.208325  1
  O  O9  1  0.216740  0.712984  0.791675  1
  O  O10  1  0.239750  0.239750  0.956434  1
  O  O11  1  0.760250  0.760250  0.043566  1
