# generated using pymatgen
data_Ce5Tc2P12Os17
_symmetry_space_group_name_H-M   'P 1'
_cell_length_a   12.67999254
_cell_length_b   12.64344650
_cell_length_c   4.02490400
_cell_angle_alpha   90.00000000
_cell_angle_beta   90.00000000
_cell_angle_gamma   119.90470596
_symmetry_Int_Tables_number   1
_chemical_formula_structural   Ce5Tc2P12Os17
_chemical_formula_sum   'Ce5 Tc2 P12 Os17'
_cell_volume   559.35414420
_cell_formula_units_Z   1
loop_
 _symmetry_equiv_pos_site_id
 _symmetry_equiv_pos_as_xyz
  1  'x, y, z'
loop_
 _atom_site_type_symbol
 _atom_site_label
 _atom_site_symmetry_multiplicity
 _atom_site_fract_x
 _atom_site_fract_y
 _atom_site_fract_z
 _atom_site_occupancy
  Ce  Ce0  1  0.184845  0.185461  0.500000  1
  Ce  Ce1  1  0.815155  0.000616  0.500000  1
  Ce  Ce2  1  0.000000  0.815245  0.500000  1
  Ce  Ce3  1  0.334468  0.667578  0.000000  1
  Ce  Ce4  1  0.665532  0.333108  0.000000  1
  Tc  Tc5  1  0.555051  0.554587  0.000000  1
  Tc  Tc6  1  0.444949  0.999536  0.000000  1
  P  P7  1  0.816111  0.815596  0.000000  1
  P  P8  1  0.183889  0.999485  0.000000  1
  P  P9  1  0.000000  0.185060  0.000000  1
  P  P10  1  0.175159  0.478426  0.500000  1
  P  P11  1  0.523645  0.693462  0.500000  1
  P  P12  1  0.305943  0.827983  0.500000  1
  P  P13  1  0.694057  0.522040  0.500000  1
  P  P14  1  0.824841  0.303266  0.500000  1
  P  P15  1  0.476355  0.169818  0.500000  1
  P  P16  1  0.373321  0.373860  0.000000  1
  P  P17  1  0.626679  0.000539  0.000000  1
  P  P18  1  0.000000  0.628207  0.000000  1
  Os  Os19  1  0.000000  0.447640  0.000000  1
  Os  Os20  1  0.716764  0.715883  0.500000  1
  Os  Os21  1  0.283236  0.999119  0.500000  1
  Os  Os22  1  0.000000  0.288148  0.500000  1
  Os  Os23  1  0.183555  0.377647  0.000000  1
  Os  Os24  1  0.624598  0.809083  0.000000  1
  Os  Os25  1  0.191978  0.814463  0.000000  1
  Os  Os26  1  0.808022  0.622484  0.000000  1
  Os  Os27  1  0.816445  0.194093  0.000000  1
  Os  Os28  1  0.375402  0.184485  0.000000  1
  Os  Os29  1  0.367822  0.492805  0.500000  1
  Os  Os30  1  0.506513  0.872222  0.500000  1
  Os  Os31  1  0.126595  0.631599  0.500000  1
  Os  Os32  1  0.873405  0.505003  0.500000  1
  Os  Os33  1  0.632178  0.124983  0.500000  1
  Os  Os34  1  0.493487  0.365710  0.500000  1
  Os  Os35  1  0.000000  0.000759  0.000000  1
