# generated using pymatgen
data_Tb2SmRuI3
_symmetry_space_group_name_H-M   'P 1'
_cell_length_a   4.25350500
_cell_length_b   8.99404626
_cell_length_c   12.38150699
_cell_angle_alpha   94.78151855
_cell_angle_beta   90.00000000
_cell_angle_gamma   90.00000000
_symmetry_Int_Tables_number   1
_chemical_formula_structural   Tb2SmRuI3
_chemical_formula_sum   'Tb4 Sm2 Ru2 I6'
_cell_volume   472.02119869
_cell_formula_units_Z   2
loop_
 _symmetry_equiv_pos_site_id
 _symmetry_equiv_pos_as_xyz
  1  'x, y, z'
loop_
 _atom_site_type_symbol
 _atom_site_label
 _atom_site_symmetry_multiplicity
 _atom_site_fract_x
 _atom_site_fract_y
 _atom_site_fract_z
 _atom_site_occupancy
  Tb  Tb0  1  0.750000  0.878626  0.624155  1
  Tb  Tb1  1  0.250000  0.121374  0.375845  1
  Tb  Tb2  1  0.750000  0.893067  0.182133  1
  Tb  Tb3  1  0.250000  0.106933  0.817867  1
  Sm  Sm4  1  0.750000  0.273497  0.604822  1
  Sm  Sm5  1  0.250000  0.726503  0.395178  1
  Ru  Ru6  1  0.750000  0.937533  0.404264  1
  Ru  Ru7  1  0.250000  0.062467  0.595736  1
  I  I8  1  0.750000  0.416333  0.363763  1
  I  I9  1  0.250000  0.583667  0.636237  1
  I  I10  1  0.750000  0.867132  0.889289  1
  I  I11  1  0.250000  0.132868  0.110711  1
  I  I12  1  0.750000  0.358164  0.870004  1
  I  I13  1  0.250000  0.641836  0.129996  1
