# generated using pymatgen
data_SrCa3Bi2
_symmetry_space_group_name_H-M   'P 1'
_cell_length_a   9.33952803
_cell_length_b   9.33952852
_cell_length_c   9.33952779
_cell_angle_alpha   149.35596605
_cell_angle_beta   149.35596995
_cell_angle_gamma   43.88760129
_symmetry_Int_Tables_number   1
_chemical_formula_structural   SrCa3Bi2
_chemical_formula_sum   'Sr1 Ca3 Bi2'
_cell_volume   211.04821420
_cell_formula_units_Z   1
loop_
 _symmetry_equiv_pos_site_id
 _symmetry_equiv_pos_as_xyz
  1  'x, y, z'
loop_
 _atom_site_type_symbol
 _atom_site_label
 _atom_site_symmetry_multiplicity
 _atom_site_fract_x
 _atom_site_fract_y
 _atom_site_fract_z
 _atom_site_occupancy
  Sr  Sr0  1  0.674472  0.674472  0.000000  1
  Ca  Ca1  1  0.998194  0.498194  0.500000  1
  Ca  Ca2  1  0.327931  0.327931  0.000000  1
  Ca  Ca3  1  0.498194  0.998194  0.500000  1
  Bi  Bi4  1  0.134329  0.134329  0.000000  1
  Bi  Bi5  1  0.866881  0.866881  0.000000  1
