# generated using pymatgen
data_Nd4H9Pt2O3
_symmetry_space_group_name_H-M   'P 1'
_cell_length_a   7.23748997
_cell_length_b   7.23749003
_cell_length_c   5.55230900
_cell_angle_alpha   90.04405166
_cell_angle_beta   89.95594917
_cell_angle_gamma   134.83033740
_symmetry_Int_Tables_number   1
_chemical_formula_structural   Nd4H9Pt2O3
_chemical_formula_sum   'Nd4 H9 Pt2 O3'
_cell_volume   206.26077835
_cell_formula_units_Z   1
loop_
 _symmetry_equiv_pos_site_id
 _symmetry_equiv_pos_as_xyz
  1  'x, y, z'
loop_
 _atom_site_type_symbol
 _atom_site_label
 _atom_site_symmetry_multiplicity
 _atom_site_fract_x
 _atom_site_fract_y
 _atom_site_fract_z
 _atom_site_occupancy
  Nd  Nd0  1  0.340556  0.647032  0.992396  1
  Nd  Nd1  1  0.854996  0.161643  0.507504  1
  Nd  Nd2  1  0.661643  0.354996  0.992496  1
  Nd  Nd3  1  0.147032  0.840556  0.507604  1
  H  H4  1  0.501385  0.001385  0.250000  1
  H  H5  1  0.150145  0.903075  0.017390  1
  H  H6  1  0.598280  0.350445  0.485908  1
  H  H7  1  0.850445  0.098280  0.014092  1
  H  H8  1  0.403075  0.650145  0.482610  1
  H  H9  1  0.769729  0.761422  0.228837  1
  H  H10  1  0.223859  0.232020  0.781564  1
  H  H11  1  0.732020  0.723859  0.718436  1
  H  H12  1  0.261422  0.269729  0.271163  1
  Pt  Pt13  1  0.001582  0.002037  0.009031  1
  Pt  Pt14  1  0.502037  0.501582  0.490969  1
  O  O15  1  0.001106  0.501106  0.250000  1
  O  O16  1  0.500064  0.000064  0.750000  1
  O  O17  1  0.000622  0.500622  0.750000  1
