# generated using pymatgen
data_Gd7Lu(InAu2)4
_symmetry_space_group_name_H-M   'P 1'
_cell_length_a   8.04349000
_cell_length_b   8.04349021
_cell_length_c   7.51476200
_cell_angle_alpha   90.00000000
_cell_angle_beta   90.00000000
_cell_angle_gamma   89.55997125
_symmetry_Int_Tables_number   1
_chemical_formula_structural   Gd7Lu(InAu2)4
_chemical_formula_sum   'Gd7 Lu1 In4 Au8'
_cell_volume   486.17372782
_cell_formula_units_Z   1
loop_
 _symmetry_equiv_pos_site_id
 _symmetry_equiv_pos_as_xyz
  1  'x, y, z'
loop_
 _atom_site_type_symbol
 _atom_site_label
 _atom_site_symmetry_multiplicity
 _atom_site_fract_x
 _atom_site_fract_y
 _atom_site_fract_z
 _atom_site_occupancy
  Gd  Gd0  1  0.158236  0.160070  0.000000  1
  Gd  Gd1  1  0.839930  0.841764  0.000000  1
  Gd  Gd2  1  0.659881  0.340119  0.500000  1
  Gd  Gd3  1  0.341872  0.658128  0.500000  1
  Gd  Gd4  1  0.316066  0.683934  0.000000  1
  Gd  Gd5  1  0.814261  0.816135  0.500000  1
  Gd  Gd6  1  0.183865  0.185739  0.500000  1
  Lu  Lu7  1  0.682533  0.317467  0.000000  1
  In  In8  1  0.500687  0.000835  0.246921  1
  In  In9  1  0.500687  0.000835  0.753079  1
  In  In10  1  0.999165  0.499313  0.246921  1
  In  In11  1  0.999165  0.499313  0.753079  1
  Au  Au12  1  0.375754  0.369751  0.220773  1
  Au  Au13  1  0.630249  0.624246  0.779227  1
  Au  Au14  1  0.630249  0.624246  0.220773  1
  Au  Au15  1  0.868948  0.131052  0.731096  1
  Au  Au16  1  0.868948  0.131052  0.268904  1
  Au  Au17  1  0.375754  0.369751  0.779227  1
  Au  Au18  1  0.126875  0.873125  0.277714  1
  Au  Au19  1  0.126875  0.873125  0.722286  1
