# generated using pymatgen
data_ErTm15CdCo4Ag3
_symmetry_space_group_name_H-M   'P 1'
_cell_length_a   9.31857539
_cell_length_b   9.32663337
_cell_length_c   9.32809100
_cell_angle_alpha   59.99483347
_cell_angle_beta   59.96621861
_cell_angle_gamma   59.95537526
_symmetry_Int_Tables_number   1
_chemical_formula_structural   ErTm15CdCo4Ag3
_chemical_formula_sum   'Er1 Tm15 Cd1 Co4 Ag3'
_cell_volume   572.89846551
_cell_formula_units_Z   1
loop_
 _symmetry_equiv_pos_site_id
 _symmetry_equiv_pos_as_xyz
  1  'x, y, z'
loop_
 _atom_site_type_symbol
 _atom_site_label
 _atom_site_symmetry_multiplicity
 _atom_site_fract_x
 _atom_site_fract_y
 _atom_site_fract_z
 _atom_site_occupancy
  Er  Er0  1  0.935539  0.939625  0.562418  1
  Tm  Tm1  1  0.346867  0.347079  0.346846  1
  Tm  Tm2  1  0.346867  0.347079  0.959206  1
  Tm  Tm3  1  0.347349  0.958802  0.346925  1
  Tm  Tm4  1  0.956350  0.348215  0.347718  1
  Tm  Tm5  1  0.811606  0.188416  0.188046  1
  Tm  Tm6  1  0.187679  0.812167  0.812564  1
  Tm  Tm7  1  0.187679  0.812167  0.187590  1
  Tm  Tm8  1  0.811606  0.188416  0.811933  1
  Tm  Tm9  1  0.187459  0.187886  0.812327  1
  Tm  Tm10  1  0.811747  0.811758  0.188248  1
  Tm  Tm11  1  0.934876  0.562811  0.562957  1
  Tm  Tm12  1  0.561613  0.937821  0.937745  1
  Tm  Tm13  1  0.561613  0.937821  0.562822  1
  Tm  Tm14  1  0.934876  0.562811  0.939356  1
  Tm  Tm15  1  0.561977  0.562943  0.937541  1
  Cd  Cd16  1  0.266039  0.577571  0.578194  1
  Co  Co17  1  0.141238  0.141500  0.141620  1
  Co  Co18  1  0.141238  0.141500  0.575642  1
  Co  Co19  1  0.141002  0.575587  0.141705  1
  Co  Co20  1  0.576436  0.140979  0.141292  1
  Ag  Ag21  1  0.583012  0.581778  0.582043  1
  Ag  Ag22  1  0.583012  0.581778  0.253168  1
  Ag  Ag23  1  0.582318  0.253491  0.582095  1
