# generated using pymatgen
data_Nd4Mn5Co3O20
_symmetry_space_group_name_H-M   'P 1'
_cell_length_a   5.77689700
_cell_length_b   7.57175272
_cell_length_c   8.67940272
_cell_angle_alpha   89.90237469
_cell_angle_beta   90.00000000
_cell_angle_gamma   90.00000000
_symmetry_Int_Tables_number   1
_chemical_formula_structural   Nd4Mn5Co3O20
_chemical_formula_sum   'Nd4 Mn5 Co3 O20'
_cell_volume   379.64724787
_cell_formula_units_Z   1
loop_
 _symmetry_equiv_pos_site_id
 _symmetry_equiv_pos_as_xyz
  1  'x, y, z'
loop_
 _atom_site_type_symbol
 _atom_site_label
 _atom_site_symmetry_multiplicity
 _atom_site_fract_x
 _atom_site_fract_y
 _atom_site_fract_z
 _atom_site_occupancy
  Nd  Nd0  1  0.000000  0.358523  0.672631  1
  Nd  Nd1  1  0.000000  0.643588  0.326715  1
  Nd  Nd2  1  0.000000  0.857435  0.826857  1
  Nd  Nd3  1  0.000000  0.142249  0.171646  1
  Mn  Mn4  1  0.500000  0.413539  0.352037  1
  Mn  Mn5  1  0.258284  0.499265  0.999310  1
  Mn  Mn6  1  0.741500  0.999009  0.500662  1
  Mn  Mn7  1  0.741716  0.499265  0.999310  1
  Mn  Mn8  1  0.258500  0.999009  0.500662  1
  Co  Co9  1  0.500000  0.087470  0.851621  1
  Co  Co10  1  0.500000  0.914213  0.147764  1
  Co  Co11  1  0.500000  0.589475  0.649909  1
  O  O12  1  0.251127  0.904289  0.290209  1
  O  O13  1  0.249670  0.096301  0.709554  1
  O  O14  1  0.754061  0.402279  0.207965  1
  O  O15  1  0.749727  0.597240  0.791164  1
  O  O16  1  0.750330  0.096301  0.709554  1
  O  O17  1  0.748873  0.904289  0.290209  1
  O  O18  1  0.250273  0.597240  0.791164  1
  O  O19  1  0.245939  0.402279  0.207965  1
  O  O20  1  0.500000  0.342785  0.937520  1
  O  O21  1  0.500000  0.652643  0.063454  1
  O  O22  1  0.500000  0.843177  0.563224  1
  O  O23  1  0.500000  0.153662  0.438918  1
  O  O24  1  0.281675  0.998921  0.999616  1
  O  O25  1  0.722530  0.504121  0.501825  1
  O  O26  1  0.718325  0.998921  0.999616  1
  O  O27  1  0.277470  0.504121  0.501825  1
  O  O28  1  0.000000  0.158020  0.448698  1
  O  O29  1  0.000000  0.841027  0.551074  1
  O  O30  1  0.000000  0.658228  0.050029  1
  O  O31  1  0.000000  0.341115  0.947294  1
