# generated using pymatgen
data_Tm4MnCrRu6
_symmetry_space_group_name_H-M   'P 1'
_cell_length_a   5.41370511
_cell_length_b   5.08574158
_cell_length_c   8.88565900
_cell_angle_alpha   90.00000000
_cell_angle_beta   90.00000000
_cell_angle_gamma   121.85046252
_symmetry_Int_Tables_number   1
_chemical_formula_structural   Tm4MnCrRu6
_chemical_formula_sum   'Tm4 Mn1 Cr1 Ru6'
_cell_volume   207.80941954
_cell_formula_units_Z   1
loop_
 _symmetry_equiv_pos_site_id
 _symmetry_equiv_pos_as_xyz
  1  'x, y, z'
loop_
 _atom_site_type_symbol
 _atom_site_label
 _atom_site_symmetry_multiplicity
 _atom_site_fract_x
 _atom_site_fract_y
 _atom_site_fract_z
 _atom_site_occupancy
  Tm  Tm0  1  0.669944  0.338559  0.565946  1
  Tm  Tm1  1  0.327768  0.655424  0.433028  1
  Tm  Tm2  1  0.327768  0.655424  0.066972  1
  Tm  Tm3  1  0.669944  0.338559  0.934054  1
  Mn  Mn4  1  0.160360  0.322139  0.750000  1
  Cr  Cr5  1  0.849014  0.697079  0.250000  1
  Ru  Ru6  1  0.992300  0.983809  0.498670  1
  Ru  Ru7  1  0.992300  0.983809  0.001330  1
  Ru  Ru8  1  0.176852  0.827886  0.750000  1
  Ru  Ru9  1  0.649233  0.827219  0.750000  1
  Ru  Ru10  1  0.827048  0.186541  0.250000  1
  Ru  Ru11  1  0.357468  0.183552  0.250000  1
