# generated using pymatgen
data_La3Zn(Sb2Pt)2
_symmetry_space_group_name_H-M   'P 1'
_cell_length_a   8.72547959
_cell_length_b   8.72550209
_cell_length_c   8.72548055
_cell_angle_alpha   109.25905462
_cell_angle_beta   109.25871056
_cell_angle_gamma   109.89662596
_symmetry_Int_Tables_number   1
_chemical_formula_structural   La3Zn(Sb2Pt)2
_chemical_formula_sum   'La6 Zn2 Sb8 Pt4'
_cell_volume   511.36360396
_cell_formula_units_Z   2
loop_
 _symmetry_equiv_pos_site_id
 _symmetry_equiv_pos_as_xyz
  1  'x, y, z'
loop_
 _atom_site_type_symbol
 _atom_site_label
 _atom_site_symmetry_multiplicity
 _atom_site_fract_x
 _atom_site_fract_y
 _atom_site_fract_z
 _atom_site_occupancy
  La  La0  1  0.879080  0.250000  0.129080  1
  La  La1  1  0.620908  0.750000  0.370908  1
  La  La2  1  0.250014  0.120925  0.870937  1
  La  La3  1  0.750012  0.379075  0.629089  1
  La  La4  1  0.125003  0.874993  0.249990  1
  La  La5  1  0.374998  0.625007  0.750010  1
  Zn  Zn6  1  0.625000  0.375000  0.250002  1
  Zn  Zn7  1  0.875002  0.125000  0.750000  1
  Sb  Sb8  1  0.664245  0.496564  0.000139  1
  Sb  Sb9  1  0.503574  0.003436  0.667682  1
  Sb  Sb10  1  0.996424  0.664112  0.499859  1
  Sb  Sb11  1  0.835748  0.835888  0.832312  1
  Sb  Sb12  1  0.503435  0.003571  0.167686  1
  Sb  Sb13  1  0.164115  0.496429  0.999864  1
  Sb  Sb14  1  0.996565  0.164252  0.500137  1
  Sb  Sb15  1  0.335884  0.335748  0.332312  1
  Pt  Pt16  1  0.373788  0.250000  0.623788  1
  Pt  Pt17  1  0.126208  0.750000  0.876208  1
  Pt  Pt18  1  0.249997  0.626210  0.376209  1
  Pt  Pt19  1  0.749999  0.873790  0.123786  1
