# generated using pymatgen
data_SmHo7GaPd24
_symmetry_space_group_name_H-M   'P 1'
_cell_length_a   8.35205671
_cell_length_b   8.35205646
_cell_length_c   8.35205700
_cell_angle_alpha   90.09593827
_cell_angle_beta   89.90405487
_cell_angle_gamma   89.90406474
_symmetry_Int_Tables_number   1
_chemical_formula_structural   SmHo7GaPd24
_chemical_formula_sum   'Sm1 Ho7 Ga1 Pd24'
_cell_volume   582.61072730
_cell_formula_units_Z   1
loop_
 _symmetry_equiv_pos_site_id
 _symmetry_equiv_pos_as_xyz
  1  'x, y, z'
loop_
 _atom_site_type_symbol
 _atom_site_label
 _atom_site_symmetry_multiplicity
 _atom_site_fract_x
 _atom_site_fract_y
 _atom_site_fract_z
 _atom_site_occupancy
  Sm  Sm0  1  0.747838  0.252127  0.252142  1
  Ho  Ho1  1  0.252282  0.251802  0.251795  1
  Ho  Ho2  1  0.748117  0.748414  0.748411  1
  Ho  Ho3  1  0.748204  0.747704  0.251811  1
  Ho  Ho4  1  0.748217  0.251794  0.747708  1
  Ho  Ho5  1  0.251581  0.251900  0.748410  1
  Ho  Ho6  1  0.251581  0.748409  0.251894  1
  Ho  Ho7  1  0.252075  0.747921  0.747917  1
  Ga  Ga8  1  0.999784  0.000214  0.000212  1
  Pd  Pd9  1  0.259972  0.500573  0.999792  1
  Pd  Pd10  1  0.740378  0.501507  0.997329  1
  Pd  Pd11  1  0.002661  0.259578  0.501516  1
  Pd  Pd12  1  0.498495  0.259567  0.997329  1
  Pd  Pd13  1  0.000214  0.740075  0.500557  1
  Pd  Pd14  1  0.499433  0.740082  0.999793  1
  Pd  Pd15  1  0.498469  0.997332  0.259576  1
  Pd  Pd16  1  0.259985  0.999787  0.500545  1
  Pd  Pd17  1  0.499453  0.999789  0.740065  1
  Pd  Pd18  1  0.740370  0.997336  0.501535  1
  Pd  Pd19  1  0.002666  0.501515  0.259579  1
  Pd  Pd20  1  0.000213  0.500562  0.740072  1
  Pd  Pd21  1  0.252456  0.500308  0.500299  1
  Pd  Pd22  1  0.747681  0.502246  0.502257  1
  Pd  Pd23  1  0.497750  0.252273  0.502253  1
  Pd  Pd24  1  0.499693  0.747601  0.500307  1
  Pd  Pd25  1  0.497741  0.502254  0.252276  1
  Pd  Pd26  1  0.499709  0.500301  0.747591  1
  Pd  Pd27  1  0.290381  0.999973  0.999974  1
  Pd  Pd28  1  0.708524  0.997993  0.997997  1
  Pd  Pd29  1  0.002012  0.291415  0.997995  1
  Pd  Pd30  1  0.000027  0.709678  0.999972  1
  Pd  Pd31  1  0.002013  0.997992  0.291421  1
  Pd  Pd32  1  0.000026  0.999978  0.709673  1
