# generated using pymatgen
data_CaPrZn21Pt
_symmetry_space_group_name_H-M   'P 1'
_cell_length_a   8.30273486
_cell_length_b   8.28946237
_cell_length_c   8.30273400
_cell_angle_alpha   100.00913799
_cell_angle_beta   99.89596693
_cell_angle_gamma   130.96978314
_symmetry_Int_Tables_number   1
_chemical_formula_structural   CaPrZn21Pt
_chemical_formula_sum   'Ca1 Pr1 Zn21 Pt1'
_cell_volume   392.25561388
_cell_formula_units_Z   1
loop_
 _symmetry_equiv_pos_site_id
 _symmetry_equiv_pos_as_xyz
  1  'x, y, z'
loop_
 _atom_site_type_symbol
 _atom_site_label
 _atom_site_symmetry_multiplicity
 _atom_site_fract_x
 _atom_site_fract_y
 _atom_site_fract_z
 _atom_site_occupancy
  Ca  Ca0  1  0.496947  0.493813  0.996854  1
  Pr  Pr1  1  0.751191  0.256645  0.505471  1
  Zn  Zn2  1  0.847283  0.431230  0.174091  1
  Zn  Zn3  1  0.123247  0.874312  0.751060  1
  Zn  Zn4  1  0.324557  0.151218  0.584145  1
  Zn  Zn5  1  0.257144  0.431235  0.583953  1
  Zn  Zn6  1  0.327851  0.740670  0.172259  1
  Zn  Zn7  1  0.993105  0.320575  0.914930  1
  Zn  Zn8  1  0.262160  0.677194  0.827771  1
  Zn  Zn9  1  0.244664  0.739543  0.494880  1
  Zn  Zn10  1  0.988220  0.073212  0.670486  1
  Zn  Zn11  1  0.005824  0.010369  0.004541  1
  Zn  Zn12  1  0.678821  0.008664  0.086618  1
  Zn  Zn13  1  0.626791  0.876352  0.750018  1
  Zn  Zn14  1  0.405653  0.320578  0.327474  1
  Zn  Zn15  1  0.922042  0.008660  0.329842  1
  Zn  Zn16  1  0.849421  0.677197  0.415037  1
  Zn  Zn17  1  0.568414  0.740672  0.412819  1
  Zn  Zn18  1  0.680939  0.597649  0.673067  1
  Zn  Zn19  1  0.402723  0.073209  0.084990  1
  Zn  Zn20  1  0.924589  0.597657  0.916706  1
  Zn  Zn21  1  0.567077  0.151224  0.826658  1
  Zn  Zn22  1  0.126336  0.876357  0.249562  1
  Pt  Pt23  1  0.125005  0.371764  0.246767  1
