# generated using pymatgen
data_Tb3Gd9InCo5
_symmetry_space_group_name_H-M   'P 1'
_cell_length_a   8.30331621
_cell_length_b   8.30132961
_cell_length_c   8.30133100
_cell_angle_alpha   107.07333637
_cell_angle_beta   110.66814845
_cell_angle_gamma   110.68811726
_symmetry_Int_Tables_number   1
_chemical_formula_structural   Tb3Gd9InCo5
_chemical_formula_sum   'Tb3 Gd9 In1 Co5'
_cell_volume   439.96068749
_cell_formula_units_Z   1
loop_
 _symmetry_equiv_pos_site_id
 _symmetry_equiv_pos_as_xyz
  1  'x, y, z'
loop_
 _atom_site_type_symbol
 _atom_site_label
 _atom_site_symmetry_multiplicity
 _atom_site_fract_x
 _atom_site_fract_y
 _atom_site_fract_z
 _atom_site_occupancy
  Tb  Tb0  1  0.480570  0.294363  0.186207  1
  Tb  Tb1  1  0.107609  0.294015  0.813592  1
  Tb  Tb2  1  0.892651  0.706074  0.186578  1
  Gd  Gd3  1  0.519691  0.706421  0.813270  1
  Gd  Gd4  1  0.305364  0.619508  0.314446  1
  Gd  Gd5  1  0.305364  0.990920  0.685856  1
  Gd  Gd6  1  0.695012  0.379885  0.685539  1
  Gd  Gd7  1  0.695012  0.009472  0.315126  1
  Gd  Gd8  1  0.191675  0.206972  0.398299  1
  Gd  Gd9  1  0.808786  0.793181  0.601451  1
  Gd  Gd10  1  0.191675  0.793376  0.984703  1
  Gd  Gd11  1  0.808786  0.207335  0.015606  1
  In  In12  1  0.999640  0.499747  0.499893  1
  Co  Co13  1  0.499708  0.613351  0.113253  1
  Co  Co14  1  0.499708  0.386456  0.886358  1
  Co  Co15  1  0.374809  0.999868  0.374939  1
  Co  Co16  1  0.623867  0.999508  0.624361  1
  Co  Co17  1  0.000070  0.999547  0.000524  1
