# generated using pymatgen
data_LiNb5(ReSi)6
_symmetry_space_group_name_H-M   'P 1'
_cell_length_a   7.65892652
_cell_length_b   7.57968394
_cell_length_c   7.65892658
_cell_angle_alpha   125.93458044
_cell_angle_beta   129.51211859
_cell_angle_gamma   77.33210149
_symmetry_Int_Tables_number   1
_chemical_formula_structural   LiNb5(ReSi)6
_chemical_formula_sum   'Li1 Nb5 Re6 Si6'
_cell_volume   269.15546275
_cell_formula_units_Z   1
loop_
 _symmetry_equiv_pos_site_id
 _symmetry_equiv_pos_as_xyz
  1  'x, y, z'
loop_
 _atom_site_type_symbol
 _atom_site_label
 _atom_site_symmetry_multiplicity
 _atom_site_fract_x
 _atom_site_fract_y
 _atom_site_fract_z
 _atom_site_occupancy
  Li  Li0  1  0.558719  0.110663  0.051944  1
  Nb  Nb1  1  0.446900  0.490681  0.543781  1
  Nb  Nb2  1  0.949691  0.490904  0.041213  1
  Nb  Nb3  1  0.047983  0.091554  0.543572  1
  Nb  Nb4  1  0.754137  0.905398  0.651261  1
  Nb  Nb5  1  0.241848  0.888942  0.147094  1
  Re  Re6  1  0.500876  0.238705  0.736200  1
  Re  Re7  1  0.002505  0.238705  0.237830  1
  Re  Re8  1  0.124836  0.753919  0.622215  1
  Re  Re9  1  0.873270  0.500207  0.632431  1
  Re  Re10  1  0.631703  0.753919  0.129082  1
  Re  Re11  1  0.367776  0.500207  0.126936  1
  Si  Si12  1  0.746477  0.491471  0.244994  1
  Si  Si13  1  0.249374  0.496410  0.747037  1
  Si  Si14  1  0.345432  0.835918  0.518560  1
  Si  Si15  1  0.655437  0.159338  0.473661  1
  Si  Si16  1  0.817358  0.835918  0.990486  1
  Si  Si17  1  0.185677  0.159338  0.003902  1
