# generated using pymatgen
data_Mn3FeMo2
_symmetry_space_group_name_H-M   'P 1'
_cell_length_a   4.68200210
_cell_length_b   4.68200161
_cell_length_c   7.82231500
_cell_angle_alpha   90.00000000
_cell_angle_beta   90.00000000
_cell_angle_gamma   120.00056924
_symmetry_Int_Tables_number   1
_chemical_formula_structural   Mn3FeMo2
_chemical_formula_sum   'Mn6 Fe2 Mo4'
_cell_volume   148.50005155
_cell_formula_units_Z   2
loop_
 _symmetry_equiv_pos_site_id
 _symmetry_equiv_pos_as_xyz
  1  'x, y, z'
loop_
 _atom_site_type_symbol
 _atom_site_label
 _atom_site_symmetry_multiplicity
 _atom_site_fract_x
 _atom_site_fract_y
 _atom_site_fract_z
 _atom_site_occupancy
  Mn  Mn0  1  0.827548  0.655237  0.750000  1
  Mn  Mn1  1  0.827564  0.172436  0.750000  1
  Mn  Mn2  1  0.344763  0.172452  0.750000  1
  Mn  Mn3  1  0.172452  0.344763  0.250000  1
  Mn  Mn4  1  0.172436  0.827564  0.250000  1
  Mn  Mn5  1  0.655237  0.827548  0.250000  1
  Fe  Fe6  1  0.000000  0.000000  0.500000  1
  Fe  Fe7  1  0.000000  0.000000  0.000000  1
  Mo  Mo8  1  0.666690  0.333310  0.066533  1
  Mo  Mo9  1  0.333310  0.666690  0.933467  1
  Mo  Mo10  1  0.333310  0.666690  0.566533  1
  Mo  Mo11  1  0.666690  0.333310  0.433467  1
