# generated using pymatgen
data_Ta8VSi6W
_symmetry_space_group_name_H-M   'P 1'
_cell_length_a   7.53352648
_cell_length_b   7.53352644
_cell_length_c   7.53352679
_cell_angle_alpha   129.21101114
_cell_angle_beta   129.21101525
_cell_angle_gamma   74.67128009
_symmetry_Int_Tables_number   1
_chemical_formula_structural   Ta8VSi6W
_chemical_formula_sum   'Ta8 V1 Si6 W1'
_cell_volume   250.08183886
_cell_formula_units_Z   1
loop_
 _symmetry_equiv_pos_site_id
 _symmetry_equiv_pos_as_xyz
  1  'x, y, z'
loop_
 _atom_site_type_symbol
 _atom_site_label
 _atom_site_symmetry_multiplicity
 _atom_site_fract_x
 _atom_site_fract_y
 _atom_site_fract_z
 _atom_site_occupancy
  Ta  Ta0  1  0.014353  0.515428  0.831182  1
  Ta  Ta1  1  0.684246  0.183170  0.168818  1
  Ta  Ta2  1  0.515428  0.684246  0.501075  1
  Ta  Ta3  1  0.183170  0.014353  0.498925  1
  Ta  Ta4  1  0.985647  0.484572  0.168818  1
  Ta  Ta5  1  0.315754  0.816830  0.831182  1
  Ta  Ta6  1  0.484572  0.315754  0.498925  1
  Ta  Ta7  1  0.816830  0.985647  0.501075  1
  V  V8  1  0.000000  0.000000  0.000000  1
  Si  Si9  1  0.750313  0.750313  0.000000  1
  Si  Si10  1  0.249687  0.249687  0.000000  1
  Si  Si11  1  0.636161  0.129060  0.765220  1
  Si  Si12  1  0.363839  0.870940  0.234780  1
  Si  Si13  1  0.129060  0.363839  0.492900  1
  Si  Si14  1  0.870940  0.636161  0.507100  1
  W  W15  1  0.500000  0.500000  0.000000  1
