# generated using pymatgen
data_TbTh2U(ReB6)2
_symmetry_space_group_name_H-M   'P 1'
_cell_length_a   3.76220800
_cell_length_b   9.35639287
_cell_length_c   11.62563649
_cell_angle_alpha   89.46854771
_cell_angle_beta   90.00000000
_cell_angle_gamma   90.00000000
_symmetry_Int_Tables_number   1
_chemical_formula_structural   TbTh2U(ReB6)2
_chemical_formula_sum   'Tb2 Th4 U2 Re4 B24'
_cell_volume   409.21289285
_cell_formula_units_Z   2
loop_
 _symmetry_equiv_pos_site_id
 _symmetry_equiv_pos_as_xyz
  1  'x, y, z'
loop_
 _atom_site_type_symbol
 _atom_site_label
 _atom_site_symmetry_multiplicity
 _atom_site_fract_x
 _atom_site_fract_y
 _atom_site_fract_z
 _atom_site_occupancy
  Tb  Tb0  1  0.000000  0.947350  0.374419  1
  Tb  Tb1  1  0.000000  0.052650  0.625581  1
  Th  Th2  1  0.000000  0.326395  0.410933  1
  Th  Th3  1  0.000000  0.673605  0.589067  1
  Th  Th4  1  0.000000  0.832118  0.090078  1
  Th  Th5  1  0.000000  0.167882  0.909922  1
  U  U6  1  0.000000  0.455985  0.102944  1
  U  U7  1  0.000000  0.544015  0.897056  1
  Re  Re8  1  0.000000  0.639237  0.315202  1
  Re  Re9  1  0.000000  0.360763  0.684798  1
  Re  Re10  1  0.000000  0.149034  0.177617  1
  Re  Re11  1  0.000000  0.850966  0.822383  1
  B  B12  1  0.500000  0.556182  0.429043  1
  B  B13  1  0.500000  0.443818  0.570957  1
  B  B14  1  0.500000  0.055779  0.071452  1
  B  B15  1  0.500000  0.944221  0.928548  1
  B  B16  1  0.500000  0.748554  0.418809  1
  B  B17  1  0.500000  0.251446  0.581191  1
  B  B18  1  0.500000  0.246380  0.079635  1
  B  B19  1  0.500000  0.753620  0.920365  1
  B  B20  1  0.500000  0.795298  0.270933  1
  B  B21  1  0.500000  0.204702  0.729067  1
  B  B22  1  0.500000  0.298553  0.228048  1
  B  B23  1  0.500000  0.701447  0.771952  1
  B  B24  1  0.500000  0.639309  0.187024  1
  B  B25  1  0.500000  0.360691  0.812976  1
  B  B26  1  0.500000  0.137352  0.312692  1
  B  B27  1  0.500000  0.862648  0.687308  1
  B  B28  1  0.500000  0.991179  0.215609  1
  B  B29  1  0.500000  0.008821  0.784391  1
  B  B30  1  0.500000  0.487624  0.280323  1
  B  B31  1  0.500000  0.512376  0.719677  1
  B  B32  1  0.500000  0.633396  0.036399  1
  B  B33  1  0.500000  0.366604  0.963601  1
  B  B34  1  0.500000  0.113334  0.468855  1
  B  B35  1  0.500000  0.886666  0.531145  1
