# generated using pymatgen
data_LuZr3(Nb3Si4)2
_symmetry_space_group_name_H-M   'P 1'
_cell_length_a   6.91999078
_cell_length_b   6.91740711
_cell_length_c   12.83756500
_cell_angle_alpha   90.00000000
_cell_angle_beta   90.00000000
_cell_angle_gamma   90.06217582
_symmetry_Int_Tables_number   1
_chemical_formula_structural   LuZr3(Nb3Si4)2
_chemical_formula_sum   'Lu2 Zr6 Nb12 Si16'
_cell_volume   614.51325021
_cell_formula_units_Z   2
loop_
 _symmetry_equiv_pos_site_id
 _symmetry_equiv_pos_as_xyz
  1  'x, y, z'
loop_
 _atom_site_type_symbol
 _atom_site_label
 _atom_site_symmetry_multiplicity
 _atom_site_fract_x
 _atom_site_fract_y
 _atom_site_fract_z
 _atom_site_occupancy
  Lu  Lu0  1  0.338562  0.998217  0.781042  1
  Lu  Lu1  1  0.661438  0.001783  0.281042  1
  Zr  Zr2  1  0.003965  0.342706  0.217284  1
  Zr  Zr3  1  0.996035  0.657294  0.717284  1
  Zr  Zr4  1  0.159515  0.502042  0.468557  1
  Zr  Zr5  1  0.498096  0.840391  0.033072  1
  Zr  Zr6  1  0.840485  0.497958  0.968557  1
  Zr  Zr7  1  0.501904  0.159609  0.533072  1
  Nb  Nb8  1  0.169900  0.170526  0.000165  1
  Nb  Nb9  1  0.830100  0.829474  0.500165  1
  Nb  Nb10  1  0.327800  0.668021  0.250516  1
  Nb  Nb11  1  0.672200  0.331979  0.750516  1
  Nb  Nb12  1  0.151809  0.993605  0.376160  1
  Nb  Nb13  1  0.848191  0.006395  0.876160  1
  Nb  Nb14  1  0.506275  0.653743  0.625365  1
  Nb  Nb15  1  0.348161  0.497205  0.874314  1
  Nb  Nb16  1  0.493725  0.346257  0.125365  1
  Nb  Nb17  1  0.651839  0.502795  0.374314  1
  Nb  Nb18  1  0.997004  0.155408  0.623321  1
  Nb  Nb19  1  0.002996  0.844592  0.123321  1
  Si  Si20  1  0.294795  0.044033  0.186958  1
  Si  Si21  1  0.705205  0.955967  0.686958  1
  Si  Si22  1  0.455194  0.797684  0.437052  1
  Si  Si23  1  0.202429  0.544734  0.062833  1
  Si  Si24  1  0.544806  0.202316  0.937052  1
  Si  Si25  1  0.797571  0.455266  0.562833  1
  Si  Si26  1  0.045656  0.299741  0.813169  1
  Si  Si27  1  0.954344  0.700259  0.313169  1
  Si  Si28  1  0.362454  0.292984  0.322432  1
  Si  Si29  1  0.637546  0.707016  0.822432  1
  Si  Si30  1  0.206180  0.864823  0.570668  1
  Si  Si31  1  0.132910  0.791130  0.929584  1
  Si  Si32  1  0.793820  0.135177  0.070668  1
  Si  Si33  1  0.867090  0.208870  0.429584  1
  Si  Si34  1  0.293387  0.367981  0.677511  1
  Si  Si35  1  0.706613  0.632019  0.177511  1
