# generated using pymatgen
data_Tb10NdCd8InNi4
_symmetry_space_group_name_H-M   'P 1'
_cell_length_a   13.06854580
_cell_length_b   13.06854665
_cell_length_c   3.65473900
_cell_angle_alpha   90.00000000
_cell_angle_beta   90.00000000
_cell_angle_gamma   111.67969467
_symmetry_Int_Tables_number   1
_chemical_formula_structural   Tb10NdCd8InNi4
_chemical_formula_sum   'Tb10 Nd1 Cd8 In1 Ni4'
_cell_volume   580.02915875
_cell_formula_units_Z   1
loop_
 _symmetry_equiv_pos_site_id
 _symmetry_equiv_pos_as_xyz
  1  'x, y, z'
loop_
 _atom_site_type_symbol
 _atom_site_label
 _atom_site_symmetry_multiplicity
 _atom_site_fract_x
 _atom_site_fract_y
 _atom_site_fract_z
 _atom_site_occupancy
  Tb  Tb0  1  0.083995  0.419318  0.000000  1
  Tb  Tb1  1  0.916005  0.580682  0.000000  1
  Tb  Tb2  1  0.419318  0.083995  0.000000  1
  Tb  Tb3  1  0.580682  0.916005  0.000000  1
  Tb  Tb4  1  0.625669  0.374331  0.000000  1
  Tb  Tb5  1  0.374331  0.625669  0.000000  1
  Tb  Tb6  1  0.838231  0.161769  0.000000  1
  Tb  Tb7  1  0.161769  0.838231  0.000000  1
  Tb  Tb8  1  0.311287  0.311287  0.000000  1
  Tb  Tb9  1  0.688713  0.688713  0.000000  1
  Nd  Nd10  1  0.000000  0.000000  0.000000  1
  Cd  Cd11  1  0.840093  0.366124  0.500000  1
  Cd  Cd12  1  0.159907  0.633876  0.500000  1
  Cd  Cd13  1  0.366124  0.840093  0.500000  1
  Cd  Cd14  1  0.633876  0.159907  0.500000  1
  Cd  Cd15  1  0.077006  0.221911  0.500000  1
  Cd  Cd16  1  0.922994  0.778089  0.500000  1
  Cd  Cd17  1  0.221911  0.077006  0.500000  1
  Cd  Cd18  1  0.778089  0.922994  0.500000  1
  In  In19  1  0.500000  0.500000  0.500000  1
  Ni  Ni20  1  0.251137  0.451638  0.500000  1
  Ni  Ni21  1  0.748863  0.548362  0.500000  1
  Ni  Ni22  1  0.451638  0.251137  0.500000  1
  Ni  Ni23  1  0.548362  0.748863  0.500000  1
