# generated using pymatgen
data_Ce4B4AsIr9
_symmetry_space_group_name_H-M   'P 1'
_cell_length_a   10.72154007
_cell_length_b   10.72153997
_cell_length_c   10.72154029
_cell_angle_alpha   30.13353791
_cell_angle_beta   30.13354021
_cell_angle_gamma   30.13354871
_symmetry_Int_Tables_number   1
_chemical_formula_structural   Ce4B4AsIr9
_chemical_formula_sum   'Ce4 B4 As1 Ir9'
_cell_volume   275.18299119
_cell_formula_units_Z   1
loop_
 _symmetry_equiv_pos_site_id
 _symmetry_equiv_pos_as_xyz
  1  'x, y, z'
loop_
 _atom_site_type_symbol
 _atom_site_label
 _atom_site_symmetry_multiplicity
 _atom_site_fract_x
 _atom_site_fract_y
 _atom_site_fract_z
 _atom_site_occupancy
  Ce  Ce0  1  0.147611  0.147611  0.147611  1
  Ce  Ce1  1  0.947597  0.947597  0.947597  1
  Ce  Ce2  1  0.852389  0.852389  0.852389  1
  Ce  Ce3  1  0.052403  0.052403  0.052403  1
  B  B4  1  0.616518  0.616518  0.616518  1
  B  B5  1  0.717634  0.717634  0.717634  1
  B  B6  1  0.383482  0.383482  0.383482  1
  B  B7  1  0.282366  0.282366  0.282366  1
  As  As8  1  0.500000  0.500000  0.500000  1
  Ir  Ir9  1  0.401709  0.902567  0.401709  1
  Ir  Ir10  1  0.902567  0.401709  0.401709  1
  Ir  Ir11  1  0.500000  0.500000  0.000000  1
  Ir  Ir12  1  0.500000  0.000000  0.500000  1
  Ir  Ir13  1  0.000000  0.500000  0.500000  1
  Ir  Ir14  1  0.598291  0.097433  0.598291  1
  Ir  Ir15  1  0.598291  0.598291  0.097433  1
  Ir  Ir16  1  0.097433  0.598291  0.598291  1
  Ir  Ir17  1  0.401709  0.401709  0.902567  1
