# generated using pymatgen
data_CeNd3(NiP)8
_symmetry_space_group_name_H-M   'P 1'
_cell_length_a   3.89813800
_cell_length_b   8.27650395
_cell_length_c   9.78981359
_cell_angle_alpha   90.13548012
_cell_angle_beta   90.00000000
_cell_angle_gamma   90.00000000
_symmetry_Int_Tables_number   1
_chemical_formula_structural   CeNd3(NiP)8
_chemical_formula_sum   'Ce1 Nd3 Ni8 P8'
_cell_volume   315.84742799
_cell_formula_units_Z   1
loop_
 _symmetry_equiv_pos_site_id
 _symmetry_equiv_pos_as_xyz
  1  'x, y, z'
loop_
 _atom_site_type_symbol
 _atom_site_label
 _atom_site_symmetry_multiplicity
 _atom_site_fract_x
 _atom_site_fract_y
 _atom_site_fract_z
 _atom_site_occupancy
  Ce  Ce0  1  0.750000  0.239220  0.169148  1
  Nd  Nd1  1  0.250000  0.258256  0.668240  1
  Nd  Nd2  1  0.750000  0.741565  0.331986  1
  Nd  Nd3  1  0.250000  0.759061  0.831596  1
  Ni  Ni4  1  0.750000  0.086892  0.452972  1
  Ni  Ni5  1  0.250000  0.912943  0.545069  1
  Ni  Ni6  1  0.750000  0.586753  0.047152  1
  Ni  Ni7  1  0.250000  0.413940  0.953705  1
  Ni  Ni8  1  0.250000  0.952196  0.124850  1
  Ni  Ni9  1  0.750000  0.046119  0.875433  1
  Ni  Ni10  1  0.250000  0.455169  0.375793  1
  Ni  Ni11  1  0.750000  0.544553  0.624622  1
  P  P12  1  0.250000  0.143130  0.952820  1
  P  P13  1  0.750000  0.859857  0.049745  1
  P  P14  1  0.250000  0.641498  0.549395  1
  P  P15  1  0.750000  0.357687  0.448117  1
  P  P16  1  0.250000  0.527510  0.160433  1
  P  P17  1  0.750000  0.469384  0.840466  1
  P  P18  1  0.250000  0.033951  0.339271  1
  P  P19  1  0.750000  0.970315  0.659186  1
