# generated using pymatgen
data_TbDy(ScSb5)2
_symmetry_space_group_name_H-M   'P 1'
_cell_length_a   4.20447600
_cell_length_b   13.06566413
_cell_length_c   14.24211249
_cell_angle_alpha   78.70205734
_cell_angle_beta   90.00000000
_cell_angle_gamma   90.00000000
_symmetry_Int_Tables_number   1
_chemical_formula_structural   TbDy(ScSb5)2
_chemical_formula_sum   'Tb2 Dy2 Sc4 Sb20'
_cell_volume   767.21887074
_cell_formula_units_Z   2
loop_
 _symmetry_equiv_pos_site_id
 _symmetry_equiv_pos_as_xyz
  1  'x, y, z'
loop_
 _atom_site_type_symbol
 _atom_site_label
 _atom_site_symmetry_multiplicity
 _atom_site_fract_x
 _atom_site_fract_y
 _atom_site_fract_z
 _atom_site_occupancy
  Tb  Tb0  1  0.250000  0.669564  0.576080  1
  Tb  Tb1  1  0.750000  0.330436  0.423920  1
  Dy  Dy2  1  0.250000  0.953254  0.354556  1
  Dy  Dy3  1  0.750000  0.046746  0.645444  1
  Sc  Sc4  1  0.250000  0.397048  0.773077  1
  Sc  Sc5  1  0.750000  0.602952  0.226923  1
  Sc  Sc6  1  0.250000  0.657158  0.858703  1
  Sc  Sc7  1  0.750000  0.342842  0.141297  1
  Sb  Sb8  1  0.250000  0.148244  0.780646  1
  Sb  Sb9  1  0.750000  0.851756  0.219354  1
  Sb  Sb10  1  0.250000  0.142153  0.482950  1
  Sb  Sb11  1  0.750000  0.857847  0.517050  1
  Sb  Sb12  1  0.250000  0.162955  0.160495  1
  Sb  Sb13  1  0.750000  0.837045  0.839505  1
  Sb  Sb14  1  0.250000  0.421987  0.974904  1
  Sb  Sb15  1  0.750000  0.578013  0.025096  1
  Sb  Sb16  1  0.750000  0.028421  0.913410  1
  Sb  Sb17  1  0.250000  0.971579  0.086590  1
  Sb  Sb18  1  0.750000  0.142499  0.315108  1
  Sb  Sb19  1  0.250000  0.857501  0.684892  1
  Sb  Sb20  1  0.750000  0.280381  0.936521  1
  Sb  Sb21  1  0.250000  0.719619  0.063479  1
  Sb  Sb22  1  0.750000  0.289424  0.659395  1
  Sb  Sb23  1  0.250000  0.710576  0.340605  1
  Sb  Sb24  1  0.750000  0.572887  0.742263  1
  Sb  Sb25  1  0.250000  0.427113  0.257737  1
  Sb  Sb26  1  0.750000  0.570364  0.443348  1
  Sb  Sb27  1  0.250000  0.429636  0.556652  1
