# generated using pymatgen
data_Dy3ErLuRu2
_symmetry_space_group_name_H-M   'P 1'
_cell_length_a   6.30816393
_cell_length_b   7.23050753
_cell_length_c   8.42682199
_cell_angle_alpha   96.75290831
_cell_angle_beta   111.96644590
_cell_angle_gamma   89.90687324
_symmetry_Int_Tables_number   1
_chemical_formula_structural   Dy3ErLuRu2
_chemical_formula_sum   'Dy6 Er2 Lu2 Ru4'
_cell_volume   353.60696765
_cell_formula_units_Z   2
loop_
 _symmetry_equiv_pos_site_id
 _symmetry_equiv_pos_as_xyz
  1  'x, y, z'
loop_
 _atom_site_type_symbol
 _atom_site_label
 _atom_site_symmetry_multiplicity
 _atom_site_fract_x
 _atom_site_fract_y
 _atom_site_fract_z
 _atom_site_occupancy
  Dy  Dy0  1  0.523428  0.083339  0.814326  1
  Dy  Dy1  1  0.476572  0.916661  0.185674  1
  Dy  Dy2  1  0.709129  0.416731  0.185731  1
  Dy  Dy3  1  0.290871  0.583269  0.814269  1
  Dy  Dy4  1  0.296674  0.313036  0.432943  1
  Dy  Dy5  1  0.703326  0.686964  0.567057  1
  Er  Er6  1  0.864134  0.186448  0.567047  1
  Er  Er7  1  0.135866  0.813552  0.432953  1
  Lu  Lu8  1  0.077923  0.250132  0.999738  1
  Lu  Lu9  1  0.922077  0.749868  0.000262  1
  Ru  Ru10  1  0.319664  0.575664  0.218581  1
  Ru  Ru11  1  0.680336  0.424336  0.781419  1
  Ru  Ru12  1  0.101461  0.925002  0.780949  1
  Ru  Ru13  1  0.898539  0.074998  0.219051  1
