# generated using pymatgen
data_Y2Er3Pa(Al2Ga)6
_symmetry_space_group_name_H-M   'P 1'
_cell_length_a   14.50969800
_cell_length_b   14.50969797
_cell_length_c   14.50969790
_cell_angle_alpha   24.49198664
_cell_angle_beta   24.49198716
_cell_angle_gamma   24.49198669
_symmetry_Int_Tables_number   1
_chemical_formula_structural   Y2Er3Pa(Al2Ga)6
_chemical_formula_sum   'Y2 Er3 Pa1 Al12 Ga6'
_cell_volume   461.58554440
_cell_formula_units_Z   1
loop_
 _symmetry_equiv_pos_site_id
 _symmetry_equiv_pos_as_xyz
  1  'x, y, z'
loop_
 _atom_site_type_symbol
 _atom_site_label
 _atom_site_symmetry_multiplicity
 _atom_site_fract_x
 _atom_site_fract_y
 _atom_site_fract_z
 _atom_site_occupancy
  Y  Y0  1  0.890624  0.890624  0.890624  1
  Y  Y1  1  0.390971  0.390971  0.390971  1
  Er  Er2  1  0.001235  0.001235  0.001235  1
  Er  Er3  1  0.501867  0.501867  0.501867  1
  Er  Er4  1  0.607864  0.607864  0.607864  1
  Pa  Pa5  1  0.107419  0.107419  0.107419  1
  Al  Al6  1  0.578361  0.129004  0.129004  1
  Al  Al7  1  0.079478  0.628808  0.628808  1
  Al  Al8  1  0.129004  0.129004  0.578361  1
  Al  Al9  1  0.628808  0.628808  0.079478  1
  Al  Al10  1  0.129004  0.578361  0.129004  1
  Al  Al11  1  0.628808  0.079478  0.628808  1
  Al  Al12  1  0.499629  0.499629  0.998257  1
  Al  Al13  1  0.002496  0.002496  0.494650  1
  Al  Al14  1  0.499629  0.998257  0.499629  1
  Al  Al15  1  0.002496  0.494650  0.002496  1
  Al  Al16  1  0.998257  0.499629  0.499629  1
  Al  Al17  1  0.494650  0.002496  0.002496  1
  Ga  Ga18  1  0.926643  0.370032  0.370032  1
  Ga  Ga19  1  0.425339  0.868677  0.868677  1
  Ga  Ga20  1  0.370032  0.370032  0.926643  1
  Ga  Ga21  1  0.868677  0.868677  0.425339  1
  Ga  Ga22  1  0.370032  0.926643  0.370032  1
  Ga  Ga23  1  0.868677  0.425339  0.868677  1
