# generated using pymatgen
data_Er17Tm3(Ir2Ru)4
_symmetry_space_group_name_H-M   'P 1'
_cell_length_a   10.72805100
_cell_length_b   10.72805100
_cell_length_c   6.37807700
_cell_angle_alpha   90.00000000
_cell_angle_beta   90.00000000
_cell_angle_gamma   90.00000000
_symmetry_Int_Tables_number   1
_chemical_formula_structural   Er17Tm3(Ir2Ru)4
_chemical_formula_sum   'Er17 Tm3 Ir8 Ru4'
_cell_volume   734.05975915
_cell_formula_units_Z   1
loop_
 _symmetry_equiv_pos_site_id
 _symmetry_equiv_pos_as_xyz
  1  'x, y, z'
loop_
 _atom_site_type_symbol
 _atom_site_label
 _atom_site_symmetry_multiplicity
 _atom_site_fract_x
 _atom_site_fract_y
 _atom_site_fract_z
 _atom_site_occupancy
  Er  Er0  1  0.293453  0.086310  0.376513  1
  Er  Er1  1  0.293372  0.913714  0.876611  1
  Er  Er2  1  0.706628  0.086286  0.876611  1
  Er  Er3  1  0.706547  0.913690  0.376513  1
  Er  Er4  1  0.586276  0.793365  0.876573  1
  Er  Er5  1  0.586279  0.206627  0.376539  1
  Er  Er6  1  0.413721  0.793373  0.376539  1
  Er  Er7  1  0.413724  0.206635  0.876573  1
  Er  Er8  1  0.206627  0.413721  0.623461  1
  Er  Er9  1  0.206635  0.586276  0.123427  1
  Er  Er10  1  0.793365  0.413724  0.123427  1
  Er  Er11  1  0.793373  0.586279  0.623461  1
  Er  Er12  1  0.913714  0.706628  0.123389  1
  Er  Er13  1  0.913690  0.293453  0.623487  1
  Er  Er14  1  0.086310  0.706547  0.623487  1
  Er  Er15  1  0.086286  0.293372  0.123389  1
  Er  Er16  1  0.000000  0.000000  0.500000  1
  Tm  Tm17  1  0.000000  0.000000  0.000000  1
  Tm  Tm18  1  0.500000  0.500000  0.000000  1
  Tm  Tm19  1  0.500000  0.500000  0.500000  1
  Ir  Ir20  1  0.847437  0.152566  0.249699  1
  Ir  Ir21  1  0.847434  0.847437  0.750301  1
  Ir  Ir22  1  0.152566  0.152563  0.750301  1
  Ir  Ir23  1  0.152563  0.847434  0.249699  1
  Ir  Ir24  1  0.652418  0.347572  0.750048  1
  Ir  Ir25  1  0.652428  0.652418  0.249952  1
  Ir  Ir26  1  0.347572  0.347582  0.249952  1
  Ir  Ir27  1  0.347582  0.652428  0.750048  1
  Ru  Ru28  1  0.500000  0.000000  0.122443  1
  Ru  Ru29  1  0.500000  0.000000  0.622446  1
  Ru  Ru30  1  0.000000  0.500000  0.877557  1
  Ru  Ru31  1  0.000000  0.500000  0.377554  1
