# generated using pymatgen
data_Ho2Fe3P6Ir7
_symmetry_space_group_name_H-M   'P 1'
_cell_length_a   3.88655500
_cell_length_b   10.62875100
_cell_length_c   12.33681600
_cell_angle_alpha   90.00000000
_cell_angle_beta   90.00000000
_cell_angle_gamma   90.00000000
_symmetry_Int_Tables_number   1
_chemical_formula_structural   Ho2Fe3P6Ir7
_chemical_formula_sum   'Ho4 Fe6 P12 Ir14'
_cell_volume   509.62431216
_cell_formula_units_Z   2
loop_
 _symmetry_equiv_pos_site_id
 _symmetry_equiv_pos_as_xyz
  1  'x, y, z'
loop_
 _atom_site_type_symbol
 _atom_site_label
 _atom_site_symmetry_multiplicity
 _atom_site_fract_x
 _atom_site_fract_y
 _atom_site_fract_z
 _atom_site_occupancy
  Ho  Ho0  1  0.250000  0.577012  0.712626  1
  Ho  Ho1  1  0.250000  0.922988  0.212626  1
  Ho  Ho2  1  0.750000  0.414901  0.289464  1
  Ho  Ho3  1  0.750000  0.085099  0.789464  1
  Fe  Fe4  1  0.750000  0.124452  0.302724  1
  Fe  Fe5  1  0.750000  0.375548  0.802724  1
  Fe  Fe6  1  0.250000  0.458971  0.932863  1
  Fe  Fe7  1  0.250000  0.041029  0.432863  1
  Fe  Fe8  1  0.750000  0.542726  0.064812  1
  Fe  Fe9  1  0.750000  0.957274  0.564812  1
  P  P10  1  0.250000  0.431016  0.105200  1
  P  P11  1  0.250000  0.068984  0.605200  1
  P  P12  1  0.750000  0.556930  0.888083  1
  P  P13  1  0.750000  0.943070  0.388083  1
  P  P14  1  0.250000  0.273896  0.864133  1
  P  P15  1  0.250000  0.226104  0.364133  1
  P  P16  1  0.750000  0.733069  0.131135  1
  P  P17  1  0.750000  0.766931  0.631135  1
  P  P18  1  0.250000  0.595809  0.387177  1
  P  P19  1  0.250000  0.904191  0.887177  1
  P  P20  1  0.750000  0.399433  0.623991  1
  P  P21  1  0.750000  0.100567  0.123991  1
  Ir  Ir22  1  0.250000  0.722333  0.988570  1
  Ir  Ir23  1  0.250000  0.777667  0.488570  1
  Ir  Ir24  1  0.750000  0.279119  0.010411  1
  Ir  Ir25  1  0.750000  0.220881  0.510411  1
  Ir  Ir26  1  0.250000  0.405299  0.475454  1
  Ir  Ir27  1  0.250000  0.094701  0.975454  1
  Ir  Ir28  1  0.750000  0.587171  0.522153  1
  Ir  Ir29  1  0.750000  0.912829  0.022153  1
  Ir  Ir30  1  0.250000  0.230336  0.175071  1
  Ir  Ir31  1  0.250000  0.269664  0.675071  1
  Ir  Ir32  1  0.750000  0.760966  0.824560  1
  Ir  Ir33  1  0.750000  0.739034  0.324560  1
  Ir  Ir34  1  0.250000  0.881860  0.701574  1
  Ir  Ir35  1  0.250000  0.618140  0.201574  1
