# generated using pymatgen
data_Nd3Sc2(In2Au)2
_symmetry_space_group_name_H-M   'P 1'
_cell_length_a   3.69018400
_cell_length_b   8.24031900
_cell_length_c   18.46491600
_cell_angle_alpha   90.00000000
_cell_angle_beta   90.00000000
_cell_angle_gamma   90.00000000
_symmetry_Int_Tables_number   1
_chemical_formula_structural   Nd3Sc2(In2Au)2
_chemical_formula_sum   'Nd6 Sc4 In8 Au4'
_cell_volume   561.48658202
_cell_formula_units_Z   2
loop_
 _symmetry_equiv_pos_site_id
 _symmetry_equiv_pos_as_xyz
  1  'x, y, z'
loop_
 _atom_site_type_symbol
 _atom_site_label
 _atom_site_symmetry_multiplicity
 _atom_site_fract_x
 _atom_site_fract_y
 _atom_site_fract_z
 _atom_site_occupancy
  Nd  Nd0  1  0.000000  0.230352  0.207209  1
  Nd  Nd1  1  0.000000  0.769648  0.792791  1
  Nd  Nd2  1  0.000000  0.269648  0.707209  1
  Nd  Nd3  1  0.000000  0.730352  0.292791  1
  Nd  Nd4  1  0.000000  0.000000  0.000000  1
  Nd  Nd5  1  0.000000  0.500000  0.500000  1
  Sc  Sc6  1  0.000000  0.123293  0.418176  1
  Sc  Sc7  1  0.000000  0.876707  0.581824  1
  Sc  Sc8  1  0.000000  0.376707  0.918176  1
  Sc  Sc9  1  0.000000  0.623293  0.081824  1
  In  In10  1  0.500000  0.400564  0.350028  1
  In  In11  1  0.500000  0.599436  0.649972  1
  In  In12  1  0.500000  0.099436  0.850028  1
  In  In13  1  0.500000  0.900564  0.149972  1
  In  In14  1  0.500000  0.319507  0.053702  1
  In  In15  1  0.500000  0.680493  0.946298  1
  In  In16  1  0.500000  0.180493  0.553702  1
  In  In17  1  0.500000  0.819507  0.446298  1
  Au  Au18  1  0.500000  0.034218  0.309385  1
  Au  Au19  1  0.500000  0.965782  0.690615  1
  Au  Au20  1  0.500000  0.465782  0.809385  1
  Au  Au21  1  0.500000  0.534218  0.190615  1
