# generated using pymatgen
data_AcMn8BeSi4
_symmetry_space_group_name_H-M   'P 1'
_cell_length_a   8.01147328
_cell_length_b   8.01147334
_cell_length_c   8.01147300
_cell_angle_alpha   121.16119130
_cell_angle_beta   121.16118319
_cell_angle_gamma   88.00026191
_symmetry_Int_Tables_number   1
_chemical_formula_structural   AcMn8BeSi4
_chemical_formula_sum   'Ac2 Mn16 Be2 Si8'
_cell_volume   356.98082513
_cell_formula_units_Z   2
loop_
 _symmetry_equiv_pos_site_id
 _symmetry_equiv_pos_as_xyz
  1  'x, y, z'
loop_
 _atom_site_type_symbol
 _atom_site_label
 _atom_site_symmetry_multiplicity
 _atom_site_fract_x
 _atom_site_fract_y
 _atom_site_fract_z
 _atom_site_occupancy
  Ac  Ac0  1  0.250000  0.250000  0.000000  1
  Ac  Ac1  1  0.750000  0.750000  0.000000  1
  Mn  Mn2  1  0.942256  0.192282  0.134536  1
  Mn  Mn3  1  0.192282  0.057744  0.250026  1
  Mn  Mn4  1  0.807718  0.942256  0.749974  1
  Mn  Mn5  1  0.442256  0.307718  0.749974  1
  Mn  Mn6  1  0.057744  0.807718  0.865464  1
  Mn  Mn7  1  0.785622  0.056325  0.500000  1
  Mn  Mn8  1  0.556325  0.285622  0.500000  1
  Mn  Mn9  1  0.214378  0.943675  0.500000  1
  Mn  Mn10  1  0.443675  0.714378  0.500000  1
  Mn  Mn11  1  0.943675  0.443675  0.729297  1
  Mn  Mn12  1  0.714378  0.214378  0.270703  1
  Mn  Mn13  1  0.056325  0.556325  0.270703  1
  Mn  Mn14  1  0.692282  0.442256  0.134536  1
  Mn  Mn15  1  0.557744  0.692282  0.250026  1
  Mn  Mn16  1  0.285622  0.785622  0.729297  1
  Mn  Mn17  1  0.307718  0.557744  0.865464  1
  Be  Be18  1  0.500000  0.000000  0.500000  1
  Be  Be19  1  0.000000  0.500000  0.500000  1
  Si  Si20  1  0.798021  0.298021  0.852483  1
  Si  Si21  1  0.554461  0.054461  0.852483  1
  Si  Si22  1  0.054461  0.201979  0.500000  1
  Si  Si23  1  0.298021  0.445539  0.500000  1
  Si  Si24  1  0.945539  0.798021  0.500000  1
  Si  Si25  1  0.445539  0.945539  0.147517  1
  Si  Si26  1  0.201979  0.701979  0.147517  1
  Si  Si27  1  0.701979  0.554461  0.500000  1
