# generated using pymatgen
data_Ti10AlSiSn6
_symmetry_space_group_name_H-M   'P 1'
_cell_length_a   8.25482600
_cell_length_b   8.25482598
_cell_length_c   5.56819400
_cell_angle_alpha   90.00000000
_cell_angle_beta   90.00000000
_cell_angle_gamma   120.00000007
_symmetry_Int_Tables_number   1
_chemical_formula_structural   Ti10AlSiSn6
_chemical_formula_sum   'Ti10 Al1 Si1 Sn6'
_cell_volume   328.59491259
_cell_formula_units_Z   1
loop_
 _symmetry_equiv_pos_site_id
 _symmetry_equiv_pos_as_xyz
  1  'x, y, z'
loop_
 _atom_site_type_symbol
 _atom_site_label
 _atom_site_symmetry_multiplicity
 _atom_site_fract_x
 _atom_site_fract_y
 _atom_site_fract_z
 _atom_site_occupancy
  Ti  Ti0  1  0.333333  0.666667  0.000000  1
  Ti  Ti1  1  0.666667  0.333333  0.500000  1
  Ti  Ti2  1  0.666667  0.333333  0.000000  1
  Ti  Ti3  1  0.333333  0.666667  0.500000  1
  Ti  Ti4  1  0.265384  0.000000  0.238301  1
  Ti  Ti5  1  0.265384  0.265384  0.761699  1
  Ti  Ti6  1  0.000000  0.734616  0.761699  1
  Ti  Ti7  1  0.000000  0.265384  0.238301  1
  Ti  Ti8  1  0.734616  0.734616  0.238301  1
  Ti  Ti9  1  0.734616  0.000000  0.761699  1
  Al  Al10  1  0.000000  0.000000  0.500000  1
  Si  Si11  1  0.000000  0.000000  0.000000  1
  Sn  Sn12  1  0.610502  0.000000  0.254631  1
  Sn  Sn13  1  0.610502  0.610502  0.745369  1
  Sn  Sn14  1  0.000000  0.389498  0.745369  1
  Sn  Sn15  1  0.000000  0.610502  0.254631  1
  Sn  Sn16  1  0.389498  0.389498  0.254631  1
  Sn  Sn17  1  0.389498  0.000000  0.745369  1
