# generated using pymatgen
data_Nd4Al24Pd7Au2
_symmetry_space_group_name_H-M   'P 1'
_cell_length_a   7.62161736
_cell_length_b   7.61644532
_cell_length_c   13.37643407
_cell_angle_alpha   84.70162484
_cell_angle_beta   100.77762633
_cell_angle_gamma   119.81670393
_symmetry_Int_Tables_number   1
_chemical_formula_structural   Nd4Al24Pd7Au2
_chemical_formula_sum   'Nd4 Al24 Pd7 Au2'
_cell_volume   661.82069832
_cell_formula_units_Z   1
loop_
 _symmetry_equiv_pos_site_id
 _symmetry_equiv_pos_as_xyz
  1  'x, y, z'
loop_
 _atom_site_type_symbol
 _atom_site_label
 _atom_site_symmetry_multiplicity
 _atom_site_fract_x
 _atom_site_fract_y
 _atom_site_fract_z
 _atom_site_occupancy
  Nd  Nd0  1  0.438383  0.830582  0.809256  1
  Nd  Nd1  1  0.561617  0.169418  0.190744  1
  Nd  Nd2  1  0.767429  0.502176  0.809687  1
  Nd  Nd3  1  0.232571  0.497824  0.190313  1
  Al  Al4  1  0.479844  0.165650  0.947806  1
  Al  Al5  1  0.520156  0.834350  0.052194  1
  Al  Al6  1  0.015434  0.159948  0.560003  1
  Al  Al7  1  0.984566  0.840052  0.439997  1
  Al  Al8  1  0.352362  0.839872  0.558430  1
  Al  Al9  1  0.647638  0.160128  0.441570  1
  Al  Al10  1  0.618584  0.840747  0.329689  1
  Al  Al11  1  0.381416  0.159253  0.670311  1
  Al  Al12  1  0.052704  0.492076  0.670793  1
  Al  Al13  1  0.947296  0.507924  0.329207  1
  Al  Al14  1  0.738766  0.847770  0.669198  1
  Al  Al15  1  0.261234  0.152230  0.330802  1
  Al  Al16  1  0.147704  0.497591  0.947491  1
  Al  Al17  1  0.852296  0.502409  0.052509  1
  Al  Al18  1  0.820480  0.835350  0.957707  1
  Al  Al19  1  0.179520  0.164650  0.042293  1
  Al  Al20  1  0.303150  0.498792  0.437792  1
  Al  Al21  1  0.696850  0.501208  0.562208  1
  Al  Al22  1  0.102314  0.836454  0.184280  1
  Al  Al23  1  0.897686  0.163546  0.815720  1
  Al  Al24  1  0.303212  0.363510  0.817861  1
  Al  Al25  1  0.696788  0.636490  0.182139  1
  Al  Al26  1  0.101903  0.959224  0.815583  1
  Al  Al27  1  0.898097  0.040776  0.184417  1
  Pd  Pd28  1  0.171156  0.829061  0.999665  1
  Pd  Pd29  1  0.828844  0.170939  0.000335  1
  Pd  Pd30  1  0.293261  0.832957  0.364017  1
  Pd  Pd31  1  0.706739  0.167043  0.635983  1
  Pd  Pd32  1  0.045808  0.826324  0.635899  1
  Pd  Pd33  1  0.954192  0.173676  0.364101  1
  Pd  Pd34  1  0.500000  0.500000  0.000000  1
  Au  Au35  1  0.385899  0.505919  0.635734  1
  Au  Au36  1  0.614101  0.494081  0.364266  1
