# generated using pymatgen
data_Ce5Ho5(Al2Os3)2
_symmetry_space_group_name_H-M   'P 1'
_cell_length_a   8.39763128
_cell_length_b   8.44328050
_cell_length_c   8.42485228
_cell_angle_alpha   110.37140900
_cell_angle_beta   110.00419156
_cell_angle_gamma   109.81020402
_symmetry_Int_Tables_number   1
_chemical_formula_structural   Ce5Ho5(Al2Os3)2
_chemical_formula_sum   'Ce5 Ho5 Al4 Os6'
_cell_volume   449.49543309
_cell_formula_units_Z   1
loop_
 _symmetry_equiv_pos_site_id
 _symmetry_equiv_pos_as_xyz
  1  'x, y, z'
loop_
 _atom_site_type_symbol
 _atom_site_label
 _atom_site_symmetry_multiplicity
 _atom_site_fract_x
 _atom_site_fract_y
 _atom_site_fract_z
 _atom_site_occupancy
  Ce  Ce0  1  0.996005  0.710595  0.508970  1
  Ce  Ce1  1  0.506235  0.998116  0.710172  1
  Ce  Ce2  1  0.251173  0.190964  0.940491  1
  Ce  Ce3  1  0.938191  0.247898  0.188255  1
  Ce  Ce4  1  0.191014  0.940828  0.248677  1
  Ho  Ho5  1  0.773375  0.776021  0.774844  1
  Ho  Ho6  1  0.322368  0.569655  0.753499  1
  Ho  Ho7  1  0.749338  0.318228  0.570902  1
  Ho  Ho8  1  0.570298  0.746211  0.313230  1
  Ho  Ho9  1  0.723460  0.510900  0.998787  1
  Al  Al10  1  0.401833  0.400769  0.402413  1
  Al  Al11  1  0.098787  0.500224  0.001437  1
  Al  Al12  1  0.998118  0.095567  0.500243  1
  Al  Al13  1  0.499913  0.004168  0.098577  1
  Os  Os14  1  0.883060  0.120165  0.750710  1
  Os  Os15  1  0.749817  0.892236  0.120848  1
  Os  Os16  1  0.120406  0.750174  0.887283  1
  Os  Os17  1  0.240575  0.616130  0.377371  1
  Os  Os18  1  0.369541  0.234025  0.612570  1
  Os  Os19  1  0.616491  0.377125  0.240720  1
