# generated using pymatgen
data_CaEu3(AlIr)4
_symmetry_space_group_name_H-M   'P 1'
_cell_length_a   7.23777795
_cell_length_b   4.24717900
_cell_length_c   7.91839110
_cell_angle_alpha   90.00000000
_cell_angle_beta   89.94056641
_cell_angle_gamma   90.00000000
_symmetry_Int_Tables_number   1
_chemical_formula_structural   CaEu3(AlIr)4
_chemical_formula_sum   'Ca1 Eu3 Al4 Ir4'
_cell_volume   243.41230801
_cell_formula_units_Z   1
loop_
 _symmetry_equiv_pos_site_id
 _symmetry_equiv_pos_as_xyz
  1  'x, y, z'
loop_
 _atom_site_type_symbol
 _atom_site_label
 _atom_site_symmetry_multiplicity
 _atom_site_fract_x
 _atom_site_fract_y
 _atom_site_fract_z
 _atom_site_occupancy
  Ca  Ca0  1  0.020521  0.750001  0.819813  1
  Eu  Eu1  1  0.979474  0.250000  0.176613  1
  Eu  Eu2  1  0.479497  0.250000  0.319757  1
  Eu  Eu3  1  0.520486  0.750001  0.679581  1
  Al  Al4  1  0.645720  0.750001  0.064001  1
  Al  Al5  1  0.144684  0.750001  0.436703  1
  Al  Al6  1  0.857754  0.250000  0.568812  1
  Al  Al7  1  0.351791  0.250000  0.932872  1
  Ir  Ir8  1  0.289932  0.750001  0.114184  1
  Ir  Ir9  1  0.792114  0.750001  0.387075  1
  Ir  Ir10  1  0.209254  0.250000  0.614177  1
  Ir  Ir11  1  0.708781  0.250000  0.886413  1
