# generated using pymatgen
data_Sm7Ho(Si3Ni)4
_symmetry_space_group_name_H-M   'P 1'
_cell_length_a   8.02536800
_cell_length_b   8.01092839
_cell_length_c   8.45109800
_cell_angle_alpha   90.00000000
_cell_angle_beta   90.00000000
_cell_angle_gamma   119.94050439
_symmetry_Int_Tables_number   1
_chemical_formula_structural   Sm7Ho(Si3Ni)4
_chemical_formula_sum   'Sm7 Ho1 Si12 Ni4'
_cell_volume   470.81645153
_cell_formula_units_Z   1
loop_
 _symmetry_equiv_pos_site_id
 _symmetry_equiv_pos_as_xyz
  1  'x, y, z'
loop_
 _atom_site_type_symbol
 _atom_site_label
 _atom_site_symmetry_multiplicity
 _atom_site_fract_x
 _atom_site_fract_y
 _atom_site_fract_z
 _atom_site_occupancy
  Sm  Sm0  1  0.999988  0.000007  0.250000  1
  Sm  Sm1  1  0.999999  0.000024  0.750000  1
  Sm  Sm2  1  0.499942  0.500085  0.250000  1
  Sm  Sm3  1  0.499951  0.999887  0.250000  1
  Sm  Sm4  1  0.000019  0.500024  0.250000  1
  Sm  Sm5  1  0.499926  0.500071  0.750000  1
  Sm  Sm6  1  0.499900  0.999865  0.750000  1
  Ho  Ho7  1  0.999948  0.499960  0.750000  1
  Si  Si8  1  0.170575  0.827441  0.502422  1
  Si  Si9  1  0.170578  0.343170  0.502423  1
  Si  Si10  1  0.658627  0.829330  0.499862  1
  Si  Si11  1  0.829446  0.172577  0.502417  1
  Si  Si12  1  0.829441  0.656892  0.502416  1
  Si  Si13  1  0.341382  0.170708  0.499868  1
  Si  Si14  1  0.829446  0.172577  0.997583  1
  Si  Si15  1  0.829441  0.656892  0.997584  1
  Si  Si16  1  0.341382  0.170708  0.000132  1
  Si  Si17  1  0.170575  0.827441  0.997578  1
  Si  Si18  1  0.170578  0.343170  0.997577  1
  Si  Si19  1  0.658627  0.829330  0.000138  1
  Ni  Ni20  1  0.333741  0.666297  0.502560  1
  Ni  Ni21  1  0.666371  0.333624  0.502520  1
  Ni  Ni22  1  0.666371  0.333624  0.997480  1
  Ni  Ni23  1  0.333741  0.666297  0.997440  1
