# generated using pymatgen
data_K6CrBrO5
_symmetry_space_group_name_H-M   'P 1'
_cell_length_a   7.68197775
_cell_length_b   7.68194726
_cell_length_c   7.65740500
_cell_angle_alpha   60.10562256
_cell_angle_beta   60.10575331
_cell_angle_gamma   59.81850891
_symmetry_Int_Tables_number   1
_chemical_formula_structural   K6CrBrO5
_chemical_formula_sum   'K6 Cr1 Br1 O5'
_cell_volume   319.59634083
_cell_formula_units_Z   1
loop_
 _symmetry_equiv_pos_site_id
 _symmetry_equiv_pos_as_xyz
  1  'x, y, z'
loop_
 _atom_site_type_symbol
 _atom_site_label
 _atom_site_symmetry_multiplicity
 _atom_site_fract_x
 _atom_site_fract_y
 _atom_site_fract_z
 _atom_site_occupancy
  K  K0  1  0.487195  0.487186  0.012810  1
  K  K1  1  0.487084  0.012937  0.012894  1
  K  K2  1  0.012941  0.487074  0.012898  1
  K  K3  1  0.487083  0.012938  0.487084  1
  K  K4  1  0.012805  0.012806  0.487195  1
  K  K5  1  0.012942  0.487073  0.487086  1
  Cr  Cr6  1  0.500087  0.500117  0.499898  1
  Br  Br7  1  0.999998  0.999994  0.000004  1
  O  O8  1  0.593829  0.593825  0.222585  1
  O  O9  1  0.249996  0.249989  0.250008  1
  O  O10  1  0.589814  0.222414  0.593886  1
  O  O11  1  0.222396  0.589823  0.593891  1
  O  O12  1  0.593829  0.593825  0.589762  1
