# generated using pymatgen
data_NdDy(CrN3)2
_symmetry_space_group_name_H-M   'P 1'
_cell_length_a   7.03205021
_cell_length_b   7.03204997
_cell_length_c   5.89842919
_cell_angle_alpha   77.55768098
_cell_angle_beta   77.55768707
_cell_angle_gamma   86.55332303
_symmetry_Int_Tables_number   1
_chemical_formula_structural   NdDy(CrN3)2
_chemical_formula_sum   'Nd2 Dy2 Cr4 N12'
_cell_volume   278.10698653
_cell_formula_units_Z   2
loop_
 _symmetry_equiv_pos_site_id
 _symmetry_equiv_pos_as_xyz
  1  'x, y, z'
loop_
 _atom_site_type_symbol
 _atom_site_label
 _atom_site_symmetry_multiplicity
 _atom_site_fract_x
 _atom_site_fract_y
 _atom_site_fract_z
 _atom_site_occupancy
  Nd  Nd0  1  0.330627  0.669373  0.750000  1
  Nd  Nd1  1  0.669373  0.330627  0.250000  1
  Dy  Dy2  1  0.090844  0.909156  0.250000  1
  Dy  Dy3  1  0.909156  0.090844  0.750000  1
  Cr  Cr4  1  0.376064  0.198465  0.759901  1
  Cr  Cr5  1  0.623936  0.801535  0.240099  1
  Cr  Cr6  1  0.801535  0.623936  0.740099  1
  Cr  Cr7  1  0.198465  0.376064  0.259901  1
  N  N8  1  0.994936  0.778204  0.652038  1
  N  N9  1  0.875032  0.399329  0.835472  1
  N  N10  1  0.778204  0.994936  0.152038  1
  N  N11  1  0.124968  0.600671  0.164528  1
  N  N12  1  0.005064  0.221796  0.347962  1
  N  N13  1  0.221796  0.005064  0.847962  1
  N  N14  1  0.600671  0.124968  0.664528  1
  N  N15  1  0.627997  0.675164  0.995084  1
  N  N16  1  0.372003  0.324836  0.004916  1
  N  N17  1  0.399329  0.875032  0.335472  1
  N  N18  1  0.675164  0.627997  0.495084  1
  N  N19  1  0.324836  0.372003  0.504916  1
