# generated using pymatgen
data_Yb5(SiTe)2
_symmetry_space_group_name_H-M   'P 1'
_cell_length_a   8.57222500
_cell_length_b   8.57222587
_cell_length_c   7.83367900
_cell_angle_alpha   90.00000000
_cell_angle_beta   90.00000000
_cell_angle_gamma   125.91596547
_symmetry_Int_Tables_number   1
_chemical_formula_structural   Yb5(SiTe)2
_chemical_formula_sum   'Yb10 Si4 Te4'
_cell_volume   466.20041614
_cell_formula_units_Z   2
loop_
 _symmetry_equiv_pos_site_id
 _symmetry_equiv_pos_as_xyz
  1  'x, y, z'
loop_
 _atom_site_type_symbol
 _atom_site_label
 _atom_site_symmetry_multiplicity
 _atom_site_fract_x
 _atom_site_fract_y
 _atom_site_fract_z
 _atom_site_occupancy
  Yb  Yb0  1  0.043776  0.301911  0.328133  1
  Yb  Yb1  1  0.956224  0.698089  0.671867  1
  Yb  Yb2  1  0.456224  0.198089  0.828133  1
  Yb  Yb3  1  0.801911  0.543776  0.171867  1
  Yb  Yb4  1  0.543776  0.801911  0.171867  1
  Yb  Yb5  1  0.198089  0.456224  0.828133  1
  Yb  Yb6  1  0.698089  0.956224  0.671867  1
  Yb  Yb7  1  0.301911  0.043776  0.328133  1
  Yb  Yb8  1  0.000000  0.000000  0.000000  1
  Yb  Yb9  1  0.500000  0.500000  0.500000  1
  Si  Si10  1  0.385396  0.385396  0.113825  1
  Si  Si11  1  0.614604  0.614604  0.886175  1
  Si  Si12  1  0.114604  0.114604  0.613825  1
  Si  Si13  1  0.885396  0.885396  0.386175  1
  Te  Te14  1  0.792763  0.207237  0.000000  1
  Te  Te15  1  0.207237  0.792763  0.000000  1
  Te  Te16  1  0.707237  0.292763  0.500000  1
  Te  Te17  1  0.292763  0.707237  0.500000  1
