# generated using pymatgen
data_Y11Er5(CoAg)4
_symmetry_space_group_name_H-M   'P 1'
_cell_length_a   9.42613443
_cell_length_b   9.44078518
_cell_length_c   9.44078631
_cell_angle_alpha   60.07026427
_cell_angle_beta   60.05132251
_cell_angle_gamma   60.05132012
_symmetry_Int_Tables_number   1
_chemical_formula_structural   Y11Er5(CoAg)4
_chemical_formula_sum   'Y11 Er5 Co4 Ag4'
_cell_volume   594.84226397
_cell_formula_units_Z   1
loop_
 _symmetry_equiv_pos_site_id
 _symmetry_equiv_pos_as_xyz
  1  'x, y, z'
loop_
 _atom_site_type_symbol
 _atom_site_label
 _atom_site_symmetry_multiplicity
 _atom_site_fract_x
 _atom_site_fract_y
 _atom_site_fract_z
 _atom_site_occupancy
  Y  Y0  1  0.188911  0.811089  0.811089  1
  Y  Y1  1  0.188290  0.811399  0.188305  1
  Y  Y2  1  0.812007  0.188305  0.811399  1
  Y  Y3  1  0.188290  0.188305  0.811399  1
  Y  Y4  1  0.812007  0.811399  0.188305  1
  Y  Y5  1  0.937989  0.562011  0.562011  1
  Y  Y6  1  0.562336  0.937664  0.937664  1
  Y  Y7  1  0.562549  0.938009  0.561611  1
  Y  Y8  1  0.937831  0.561611  0.938009  1
  Y  Y9  1  0.562549  0.561611  0.938009  1
  Y  Y10  1  0.937831  0.938009  0.561611  1
  Er  Er11  1  0.346952  0.347253  0.347253  1
  Er  Er12  1  0.346671  0.347524  0.959134  1
  Er  Er13  1  0.346671  0.959134  0.347524  1
  Er  Er14  1  0.958542  0.347253  0.347253  1
  Er  Er15  1  0.811992  0.188008  0.188008  1
  Co  Co16  1  0.140369  0.142739  0.142739  1
  Co  Co17  1  0.142229  0.142590  0.572952  1
  Co  Co18  1  0.142229  0.572952  0.142590  1
  Co  Co19  1  0.574153  0.142739  0.142739  1
  Ag  Ag20  1  0.580710  0.580897  0.580897  1
  Ag  Ag21  1  0.580698  0.580556  0.258048  1
  Ag  Ag22  1  0.580698  0.258048  0.580556  1
  Ag  Ag23  1  0.257497  0.580897  0.580897  1
