# generated using pymatgen
data_SrCaGe(S2O7)4
_symmetry_space_group_name_H-M   'P 1'
_cell_length_a   13.07148500
_cell_length_b   7.02008691
_cell_length_c   13.56889783
_cell_angle_alpha   66.17141817
_cell_angle_beta   90.00000000
_cell_angle_gamma   90.00000000
_symmetry_Int_Tables_number   1
_chemical_formula_structural   SrCaGe(S2O7)4
_chemical_formula_sum   'Sr2 Ca2 Ge2 S16 O56'
_cell_volume   1138.98583519
_cell_formula_units_Z   2
loop_
 _symmetry_equiv_pos_site_id
 _symmetry_equiv_pos_as_xyz
  1  'x, y, z'
loop_
 _atom_site_type_symbol
 _atom_site_label
 _atom_site_symmetry_multiplicity
 _atom_site_fract_x
 _atom_site_fract_y
 _atom_site_fract_z
 _atom_site_occupancy
  Sr  Sr0  1  0.133933  0.856825  0.842185  1
  Sr  Sr1  1  0.366067  0.856825  0.342185  1
  Ca  Ca2  1  0.865279  0.138288  0.156608  1
  Ca  Ca3  1  0.634721  0.138288  0.656608  1
  Ge  Ge4  1  0.502342  0.499526  0.000784  1
  Ge  Ge5  1  0.997658  0.499526  0.500784  1
  S  S6  1  0.653130  0.215172  0.940727  1
  S  S7  1  0.846870  0.215172  0.440727  1
  S  S8  1  0.350659  0.786258  0.060135  1
  S  S9  1  0.149341  0.786258  0.560135  1
  S  S10  1  0.964892  0.680628  0.105162  1
  S  S11  1  0.535108  0.680628  0.605162  1
  S  S12  1  0.020874  0.314519  0.897285  1
  S  S13  1  0.479126  0.314519  0.397285  1
  S  S14  1  0.722274  0.627480  0.907737  1
  S  S15  1  0.777726  0.627480  0.407737  1
  S  S16  1  0.279064  0.377315  0.089785  1
  S  S17  1  0.220936  0.377315  0.589785  1
  S  S18  1  0.590084  0.233308  0.228723  1
  S  S19  1  0.909916  0.233308  0.728723  1
  S  S20  1  0.419940  0.766305  0.769468  1
  S  S21  1  0.080060  0.766305  0.269468  1
  O  O22  1  0.623483  0.127775  0.866485  1
  O  O23  1  0.876517  0.127775  0.366485  1
  O  O24  1  0.381623  0.868702  0.136096  1
  O  O25  1  0.118377  0.868702  0.636096  1
  O  O26  1  0.590620  0.283753  0.331982  1
  O  O27  1  0.909380  0.283753  0.831982  1
  O  O28  1  0.420932  0.708584  0.668942  1
  O  O29  1  0.079068  0.708584  0.168942  1
  O  O30  1  0.536960  0.040729  0.250115  1
  O  O31  1  0.963040  0.040729  0.750115  1
  O  O32  1  0.475383  0.957500  0.747036  1
  O  O33  1  0.024617  0.957500  0.247036  1
  O  O34  1  0.560943  0.249111  0.001191  1
  O  O35  1  0.939057  0.249111  0.501191  1
  O  O36  1  0.441665  0.749895  0.999632  1
  O  O37  1  0.058335  0.749895  0.499632  1
  O  O38  1  0.891130  0.809587  0.129364  1
  O  O39  1  0.608870  0.809587  0.629364  1
  O  O40  1  0.097580  0.188152  0.875374  1
  O  O41  1  0.402420  0.188152  0.375374  1
  O  O42  1  0.687520  0.453050  0.860614  1
  O  O43  1  0.812480  0.453050  0.360614  1
  O  O44  1  0.313104  0.549274  0.138708  1
  O  O45  1  0.186896  0.549274  0.638708  1
  O  O46  1  0.529078  0.420101  0.149409  1
  O  O47  1  0.970922  0.420101  0.649409  1
  O  O48  1  0.476888  0.578505  0.852399  1
  O  O49  1  0.023112  0.578505  0.352399  1
  O  O50  1  0.734831  0.118062  0.015330  1
  O  O51  1  0.765169  0.118062  0.515330  1
  O  O52  1  0.269705  0.889500  0.986024  1
  O  O53  1  0.230295  0.889500  0.486024  1
  O  O54  1  0.628643  0.645614  0.970519  1
  O  O55  1  0.871357  0.645614  0.470519  1
  O  O56  1  0.374375  0.355201  0.030735  1
  O  O57  1  0.125625  0.355201  0.530735  1
  O  O58  1  0.735752  0.811720  0.811140  1
  O  O59  1  0.764248  0.811720  0.311140  1
  O  O60  1  0.261736  0.193818  0.185726  1
  O  O61  1  0.238264  0.193818  0.685726  1
  O  O62  1  0.807004  0.543341  0.979074  1
  O  O63  1  0.692996  0.543341  0.479074  1
  O  O64  1  0.196215  0.464538  0.015775  1
  O  O65  1  0.303785  0.464538  0.515775  1
  O  O66  1  0.946220  0.458768  0.156832  1
  O  O67  1  0.553780  0.458768  0.656832  1
  O  O68  1  0.037915  0.536347  0.845321  1
  O  O69  1  0.462085  0.536347  0.345321  1
  O  O70  1  0.003091  0.759065  0.996338  1
  O  O71  1  0.496909  0.759065  0.496338  1
  O  O72  1  0.982091  0.236091  0.006181  1
  O  O73  1  0.517909  0.236091  0.506181  1
  O  O74  1  0.696127  0.245299  0.197464  1
  O  O75  1  0.803873  0.245299  0.697464  1
  O  O76  1  0.313535  0.762293  0.797594  1
  O  O77  1  0.186465  0.762293  0.297594  1
