# generated using pymatgen
data_CeY(PuB8)2
_symmetry_space_group_name_H-M   'P 1'
_cell_length_a   7.12730186
_cell_length_b   7.12701180
_cell_length_c   4.03356700
_cell_angle_alpha   90.00000000
_cell_angle_beta   90.00000000
_cell_angle_gamma   90.30247875
_symmetry_Int_Tables_number   1
_chemical_formula_structural   CeY(PuB8)2
_chemical_formula_sum   'Ce1 Y1 Pu2 B16'
_cell_volume   204.88768419
_cell_formula_units_Z   1
loop_
 _symmetry_equiv_pos_site_id
 _symmetry_equiv_pos_as_xyz
  1  'x, y, z'
loop_
 _atom_site_type_symbol
 _atom_site_label
 _atom_site_symmetry_multiplicity
 _atom_site_fract_x
 _atom_site_fract_y
 _atom_site_fract_z
 _atom_site_occupancy
  Ce  Ce0  1  0.813477  0.313866  0.000000  1
  Y  Y1  1  0.314606  0.185004  0.000000  1
  Pu  Pu2  1  0.187378  0.687226  0.000000  1
  Pu  Pu3  1  0.686471  0.813443  0.000000  1
  B  B4  1  0.322149  0.463321  0.500000  1
  B  B5  1  0.676100  0.539744  0.500000  1
  B  B6  1  0.538009  0.325178  0.500000  1
  B  B7  1  0.460446  0.678313  0.500000  1
  B  B8  1  0.000901  0.998410  0.201405  1
  B  B9  1  0.498819  0.501375  0.798578  1
  B  B10  1  0.000901  0.998410  0.798595  1
  B  B11  1  0.498819  0.501375  0.201422  1
  B  B12  1  0.588051  0.088341  0.500000  1
  B  B13  1  0.087070  0.412867  0.500000  1
  B  B14  1  0.913035  0.586588  0.500000  1
  B  B15  1  0.412611  0.913194  0.500000  1
  B  B16  1  0.038583  0.175318  0.500000  1
  B  B17  1  0.176980  0.959592  0.500000  1
  B  B18  1  0.823714  0.036884  0.500000  1
  B  B19  1  0.961879  0.821550  0.500000  1
