# generated using pymatgen
data_RbP2Au5S8
_symmetry_space_group_name_H-M   'P 1'
_cell_length_a   14.00171700
_cell_length_b   10.34632450
_cell_length_c   12.53122700
_cell_angle_alpha   74.39113812
_cell_angle_beta   90.00000000
_cell_angle_gamma   90.00000000
_symmetry_Int_Tables_number   1
_chemical_formula_structural   RbP2Au5S8
_chemical_formula_sum   'Rb4 P8 Au20 S32'
_cell_volume   1748.40412770
_cell_formula_units_Z   4
loop_
 _symmetry_equiv_pos_site_id
 _symmetry_equiv_pos_as_xyz
  1  'x, y, z'
loop_
 _atom_site_type_symbol
 _atom_site_label
 _atom_site_symmetry_multiplicity
 _atom_site_fract_x
 _atom_site_fract_y
 _atom_site_fract_z
 _atom_site_occupancy
  Rb  Rb0  1  0.247620  0.305382  0.330910  1
  Rb  Rb1  1  0.747620  0.694618  0.169090  1
  Rb  Rb2  1  0.752380  0.694618  0.669090  1
  Rb  Rb3  1  0.252380  0.305382  0.830910  1
  P  P4  1  0.184131  0.055137  0.116896  1
  P  P5  1  0.815869  0.944863  0.883104  1
  P  P6  1  0.057366  0.595379  0.705801  1
  P  P7  1  0.684131  0.944863  0.383104  1
  P  P8  1  0.557366  0.404621  0.794199  1
  P  P9  1  0.442634  0.595379  0.205801  1
  P  P10  1  0.942634  0.404621  0.294199  1
  P  P11  1  0.315869  0.055137  0.616896  1
  Au  Au12  1  0.455863  0.886198  0.451710  1
  Au  Au13  1  0.544137  0.113802  0.548290  1
  Au  Au14  1  0.737273  0.233354  0.959645  1
  Au  Au15  1  0.255206  0.756823  0.297537  1
  Au  Au16  1  0.762727  0.233354  0.459645  1
  Au  Au17  1  0.910610  0.060444  0.360338  1
  Au  Au18  1  0.094724  0.558945  0.430566  1
  Au  Au19  1  0.405276  0.558945  0.930566  1
  Au  Au20  1  0.744794  0.243177  0.702463  1
  Au  Au21  1  0.955863  0.113802  0.048290  1
  Au  Au22  1  0.905276  0.441055  0.569434  1
  Au  Au23  1  0.262727  0.766646  0.040355  1
  Au  Au24  1  0.237273  0.766646  0.540355  1
  Au  Au25  1  0.089390  0.939556  0.639662  1
  Au  Au26  1  0.044137  0.886198  0.951710  1
  Au  Au27  1  0.594724  0.441055  0.069434  1
  Au  Au28  1  0.755206  0.243177  0.202463  1
  Au  Au29  1  0.244794  0.756823  0.797537  1
  Au  Au30  1  0.410610  0.939556  0.139662  1
  Au  Au31  1  0.589390  0.060444  0.860338  1
  S  S32  1  0.692157  0.022767  0.526997  1
  S  S33  1  0.902083  0.779365  0.928759  1
  S  S34  1  0.626274  0.410394  0.648636  1
  S  S35  1  0.867497  0.081741  0.746334  1
  S  S36  1  0.466958  0.566357  0.756609  1
  S  S37  1  0.873726  0.410394  0.148636  1
  S  S38  1  0.986068  0.767514  0.628238  1
  S  S39  1  0.486068  0.232486  0.871762  1
  S  S40  1  0.668117  0.446271  0.901530  1
  S  S41  1  0.033042  0.566357  0.256609  1
  S  S42  1  0.373726  0.589606  0.351364  1
  S  S43  1  0.597917  0.779365  0.428759  1
  S  S44  1  0.097917  0.220635  0.071241  1
  S  S45  1  0.632503  0.081741  0.246334  1
  S  S46  1  0.831883  0.446271  0.401530  1
  S  S47  1  0.013932  0.232486  0.371762  1
  S  S48  1  0.318430  0.130750  0.129921  1
  S  S49  1  0.331883  0.553729  0.098470  1
  S  S50  1  0.181570  0.130750  0.629921  1
  S  S51  1  0.168117  0.553729  0.598470  1
  S  S52  1  0.533042  0.433643  0.243391  1
  S  S53  1  0.367497  0.918259  0.753666  1
  S  S54  1  0.132503  0.918259  0.253666  1
  S  S55  1  0.307843  0.977233  0.473003  1
  S  S56  1  0.126274  0.589606  0.851364  1
  S  S57  1  0.807843  0.022767  0.026997  1
  S  S58  1  0.818430  0.869250  0.370079  1
  S  S59  1  0.402083  0.220635  0.571241  1
  S  S60  1  0.192157  0.977233  0.973003  1
  S  S61  1  0.513932  0.767514  0.128238  1
  S  S62  1  0.681570  0.869250  0.870079  1
  S  S63  1  0.966958  0.433643  0.743391  1
