# generated using pymatgen
data_Lu4BCl6
_symmetry_space_group_name_H-M   'P 1'
_cell_length_a   3.76317100
_cell_length_b   12.34370900
_cell_length_c   12.80153200
_cell_angle_alpha   90.00000000
_cell_angle_beta   90.00000000
_cell_angle_gamma   90.00000000
_symmetry_Int_Tables_number   1
_chemical_formula_structural   Lu4BCl6
_chemical_formula_sum   'Lu8 B2 Cl12'
_cell_volume   594.65020677
_cell_formula_units_Z   2
loop_
 _symmetry_equiv_pos_site_id
 _symmetry_equiv_pos_as_xyz
  1  'x, y, z'
loop_
 _atom_site_type_symbol
 _atom_site_label
 _atom_site_symmetry_multiplicity
 _atom_site_fract_x
 _atom_site_fract_y
 _atom_site_fract_z
 _atom_site_occupancy
  Lu  Lu0  1  0.000000  0.104539  0.082840  1
  Lu  Lu1  1  0.000000  0.895461  0.917160  1
  Lu  Lu2  1  0.000000  0.604539  0.417160  1
  Lu  Lu3  1  0.000000  0.395461  0.582840  1
  Lu  Lu4  1  0.500000  0.125413  0.852515  1
  Lu  Lu5  1  0.500000  0.874587  0.147485  1
  Lu  Lu6  1  0.500000  0.625413  0.647485  1
  Lu  Lu7  1  0.500000  0.374587  0.352515  1
  B  B8  1  0.500000  0.000000  0.000000  1
  B  B9  1  0.500000  0.500000  0.500000  1
  Cl  Cl10  1  0.500000  0.267716  0.682338  1
  Cl  Cl11  1  0.500000  0.732284  0.317662  1
  Cl  Cl12  1  0.500000  0.767716  0.817662  1
  Cl  Cl13  1  0.500000  0.232284  0.182338  1
  Cl  Cl14  1  0.000000  0.257729  0.929778  1
  Cl  Cl15  1  0.000000  0.742271  0.070222  1
  Cl  Cl16  1  0.000000  0.478725  0.242355  1
  Cl  Cl17  1  0.000000  0.521275  0.757645  1
  Cl  Cl18  1  0.000000  0.978725  0.257645  1
  Cl  Cl19  1  0.000000  0.021275  0.742355  1
  Cl  Cl20  1  0.000000  0.242271  0.429778  1
  Cl  Cl21  1  0.000000  0.757729  0.570222  1
