# generated using pymatgen
data_Dy10Er2InCo4Ir
_symmetry_space_group_name_H-M   'P 1'
_cell_length_a   8.27358739
_cell_length_b   8.28094319
_cell_length_c   8.28067763
_cell_angle_alpha   111.21982928
_cell_angle_beta   110.68631348
_cell_angle_gamma   106.57992392
_symmetry_Int_Tables_number   1
_chemical_formula_structural   Dy10Er2InCo4Ir
_chemical_formula_sum   'Dy10 Er2 In1 Co4 Ir1'
_cell_volume   435.70887789
_cell_formula_units_Z   1
loop_
 _symmetry_equiv_pos_site_id
 _symmetry_equiv_pos_as_xyz
  1  'x, y, z'
loop_
 _atom_site_type_symbol
 _atom_site_label
 _atom_site_symmetry_multiplicity
 _atom_site_fract_x
 _atom_site_fract_y
 _atom_site_fract_z
 _atom_site_occupancy
  Dy  Dy0  1  0.023085  0.216475  0.806615  1
  Dy  Dy1  1  0.976915  0.783525  0.193385  1
  Dy  Dy2  1  0.183978  0.287077  0.470046  1
  Dy  Dy3  1  0.816022  0.712923  0.529954  1
  Dy  Dy4  1  0.183983  0.713932  0.896907  1
  Dy  Dy5  1  0.816017  0.286068  0.103093  1
  Dy  Dy6  1  0.316344  0.621388  0.306884  1
  Dy  Dy7  1  0.683656  0.378612  0.693116  1
  Dy  Dy8  1  0.316341  0.009456  0.694950  1
  Dy  Dy9  1  0.683659  0.990544  0.305050  1
  Er  Er10  1  0.409582  0.215962  0.193627  1
  Er  Er11  1  0.590418  0.784038  0.806373  1
  In  In12  1  0.500000  0.500000  0.000000  1
  Co  Co13  1  0.377769  0.000497  0.377268  1
  Co  Co14  1  0.622231  0.999503  0.622732  1
  Co  Co15  1  0.112419  0.611850  0.500568  1
  Co  Co16  1  0.887581  0.388150  0.499432  1
  Ir  Ir17  1  0.000000  0.000000  0.000000  1
