# generated using pymatgen
data_Rb4Ba2TiBi4
_symmetry_space_group_name_H-M   'P 1'
_cell_length_a   11.52277915
_cell_length_b   11.52277993
_cell_length_c   8.81535348
_cell_angle_alpha   88.62285296
_cell_angle_beta   88.62285279
_cell_angle_gamma   119.37105459
_symmetry_Int_Tables_number   1
_chemical_formula_structural   Rb4Ba2TiBi4
_chemical_formula_sum   'Rb8 Ba4 Ti2 Bi8'
_cell_volume   1018.84864160
_cell_formula_units_Z   2
loop_
 _symmetry_equiv_pos_site_id
 _symmetry_equiv_pos_as_xyz
  1  'x, y, z'
loop_
 _atom_site_type_symbol
 _atom_site_label
 _atom_site_symmetry_multiplicity
 _atom_site_fract_x
 _atom_site_fract_y
 _atom_site_fract_z
 _atom_site_occupancy
  Rb  Rb0  1  0.475933  0.948166  0.384572  1
  Rb  Rb1  1  0.948166  0.475933  0.884572  1
  Rb  Rb2  1  0.865161  0.724641  0.180225  1
  Rb  Rb3  1  0.271572  0.129191  0.224144  1
  Rb  Rb4  1  0.854634  0.138219  0.199431  1
  Rb  Rb5  1  0.129191  0.271572  0.724144  1
  Rb  Rb6  1  0.724641  0.865161  0.680225  1
  Rb  Rb7  1  0.138219  0.854634  0.699431  1
  Ba  Ba8  1  0.056203  0.528715  0.387693  1
  Ba  Ba9  1  0.477226  0.528850  0.380520  1
  Ba  Ba10  1  0.528715  0.056203  0.887693  1
  Ba  Ba11  1  0.528850  0.477226  0.880520  1
  Ti  Ti12  1  0.664320  0.334247  0.492656  1
  Ti  Ti13  1  0.334247  0.664320  0.992656  1
  Bi  Bi14  1  0.652966  0.333866  0.174772  1
  Bi  Bi15  1  0.333866  0.652966  0.674772  1
  Bi  Bi16  1  0.209238  0.404249  0.117509  1
  Bi  Bi17  1  0.599100  0.795613  0.080401  1
  Bi  Bi18  1  0.207543  0.800155  0.095746  1
  Bi  Bi19  1  0.795613  0.599100  0.580401  1
  Bi  Bi20  1  0.404249  0.209238  0.617509  1
  Bi  Bi21  1  0.800155  0.207543  0.595746  1
