# generated using pymatgen
data_NdHo3Ru4F28
_symmetry_space_group_name_H-M   'P 1'
_cell_length_a   5.57089222
_cell_length_b   8.93615749
_cell_length_c   11.98042200
_cell_angle_alpha   63.41937871
_cell_angle_beta   89.92943564
_cell_angle_gamma   90.13833503
_symmetry_Int_Tables_number   1
_chemical_formula_structural   NdHo3Ru4F28
_chemical_formula_sum   'Nd1 Ho3 Ru4 F28'
_cell_volume   533.37288479
_cell_formula_units_Z   1
loop_
 _symmetry_equiv_pos_site_id
 _symmetry_equiv_pos_as_xyz
  1  'x, y, z'
loop_
 _atom_site_type_symbol
 _atom_site_label
 _atom_site_symmetry_multiplicity
 _atom_site_fract_x
 _atom_site_fract_y
 _atom_site_fract_z
 _atom_site_occupancy
  Nd  Nd0  1  0.741641  0.812036  0.269209  1
  Ho  Ho1  1  0.757370  0.811982  0.769268  1
  Ho  Ho2  1  0.258486  0.189515  0.730245  1
  Ho  Ho3  1  0.241585  0.196988  0.228371  1
  Ru  Ru4  1  0.755681  0.275053  0.953240  1
  Ru  Ru5  1  0.253694  0.726042  0.549520  1
  Ru  Ru6  1  0.247066  0.726826  0.040612  1
  Ru  Ru7  1  0.746010  0.269198  0.456583  1
  F  F8  1  0.451335  0.703937  0.915584  1
  F  F9  1  0.953136  0.294088  0.580164  1
  F  F10  1  0.548495  0.296657  0.078323  1
  F  F11  1  0.054001  0.702368  0.423912  1
  F  F12  1  0.455176  0.281192  0.547940  1
  F  F13  1  0.952312  0.716964  0.951762  1
  F  F14  1  0.543170  0.712938  0.460705  1
  F  F15  1  0.045139  0.285772  0.045221  1
  F  F16  1  0.765876  0.512916  0.858125  1
  F  F17  1  0.263522  0.487001  0.643755  1
  F  F18  1  0.234746  0.488003  0.138569  1
  F  F19  1  0.732663  0.506522  0.360523  1
  F  F20  1  0.755832  0.037691  0.045639  1
  F  F21  1  0.254766  0.962098  0.456106  1
  F  F22  1  0.246599  0.964231  0.949662  1
  F  F23  1  0.745671  0.032181  0.549265  1
  F  F24  1  0.967774  0.731608  0.644416  1
  F  F25  1  0.473025  0.266960  0.856988  1
  F  F26  1  0.030766  0.268791  0.359070  1
  F  F27  1  0.532184  0.729218  0.134507  1
  F  F28  1  0.053259  0.745997  0.170538  1
  F  F29  1  0.541743  0.247368  0.329356  1
  F  F30  1  0.960522  0.249876  0.827643  1
  F  F31  1  0.456365  0.749984  0.675447  1
  F  F32  1  0.411160  0.979365  0.232481  1
  F  F33  1  0.928152  0.037380  0.267626  1
  F  F34  1  0.570496  0.025305  0.765659  1
  F  F35  1  0.070583  0.975953  0.733969  1
