# generated using pymatgen
data_TbDyFe2I
_symmetry_space_group_name_H-M   'P 1'
_cell_length_a   3.95897400
_cell_length_b   3.95897482
_cell_length_c   17.18831900
_cell_angle_alpha   90.00000000
_cell_angle_beta   90.00000000
_cell_angle_gamma   119.99999318
_symmetry_Int_Tables_number   1
_chemical_formula_structural   TbDyFe2I
_chemical_formula_sum   'Tb2 Dy2 Fe4 I2'
_cell_volume   233.30790587
_cell_formula_units_Z   2
loop_
 _symmetry_equiv_pos_site_id
 _symmetry_equiv_pos_as_xyz
  1  'x, y, z'
loop_
 _atom_site_type_symbol
 _atom_site_label
 _atom_site_symmetry_multiplicity
 _atom_site_fract_x
 _atom_site_fract_y
 _atom_site_fract_z
 _atom_site_occupancy
  Tb  Tb0  1  0.000000  0.000000  0.105073  1
  Tb  Tb1  1  0.000000  0.000000  0.605073  1
  Dy  Dy2  1  0.000000  0.000000  0.895227  1
  Dy  Dy3  1  0.000000  0.000000  0.395227  1
  Fe  Fe4  1  0.666667  0.333333  0.995111  1
  Fe  Fe5  1  0.333333  0.666667  0.495111  1
  Fe  Fe6  1  0.333333  0.666667  0.004219  1
  Fe  Fe7  1  0.666667  0.333333  0.504219  1
  I  I8  1  0.666667  0.333333  0.250370  1
  I  I9  1  0.333333  0.666667  0.750370  1
