# generated using pymatgen
data_NpNi3(AgO2)4
_symmetry_space_group_name_H-M   'P 1'
_cell_length_a   5.40062374
_cell_length_b   6.31359305
_cell_length_c   7.34841082
_cell_angle_alpha   64.06479156
_cell_angle_beta   104.93866326
_cell_angle_gamma   90.02209712
_symmetry_Int_Tables_number   1
_chemical_formula_structural   NpNi3(AgO2)4
_chemical_formula_sum   'Np1 Ni3 Ag4 O8'
_cell_volume   215.88362723
_cell_formula_units_Z   1
loop_
 _symmetry_equiv_pos_site_id
 _symmetry_equiv_pos_as_xyz
  1  'x, y, z'
loop_
 _atom_site_type_symbol
 _atom_site_label
 _atom_site_symmetry_multiplicity
 _atom_site_fract_x
 _atom_site_fract_y
 _atom_site_fract_z
 _atom_site_occupancy
  Np  Np0  1  0.499984  0.749975  0.500001  1
  Ni  Ni1  1  0.999919  0.015520  0.499958  1
  Ni  Ni2  1  0.500007  0.250033  0.500001  1
  Ni  Ni3  1  0.000085  0.484492  0.500040  1
  Ag  Ag4  1  0.997545  0.004943  0.989755  1
  Ag  Ag5  1  0.499943  0.249973  0.000010  1
  Ag  Ag6  1  0.002461  0.495138  0.010230  1
  Ag  Ag7  1  0.500034  0.749981  0.000000  1
  O  O8  1  0.890117  0.662584  0.671514  1
  O  O9  1  0.392414  0.911004  0.669350  1
  O  O10  1  0.882368  0.167630  0.661798  1
  O  O11  1  0.392510  0.415845  0.669322  1
  O  O12  1  0.109870  0.837453  0.328494  1
  O  O13  1  0.607491  0.084041  0.330709  1
  O  O14  1  0.117659  0.332479  0.338179  1
  O  O15  1  0.607596  0.588910  0.330640  1
