# generated using pymatgen
data_Pr3Pa(Sn5Rh3)2
_symmetry_space_group_name_H-M   'P 1'
_cell_length_a   13.65737530
_cell_length_b   13.65737573
_cell_length_c   7.32975154
_cell_angle_alpha   89.87313092
_cell_angle_beta   90.12686915
_cell_angle_gamma   161.04660597
_symmetry_Int_Tables_number   1
_chemical_formula_structural   Pr3Pa(Sn5Rh3)2
_chemical_formula_sum   'Pr3 Pa1 Sn10 Rh6'
_cell_volume   444.05550509
_cell_formula_units_Z   1
loop_
 _symmetry_equiv_pos_site_id
 _symmetry_equiv_pos_as_xyz
  1  'x, y, z'
loop_
 _atom_site_type_symbol
 _atom_site_label
 _atom_site_symmetry_multiplicity
 _atom_site_fract_x
 _atom_site_fract_y
 _atom_site_fract_z
 _atom_site_occupancy
  Pr  Pr0  1  0.173084  0.826916  0.251320  1
  Pr  Pr1  1  0.524344  0.475656  0.737860  1
  Pr  Pr2  1  0.826980  0.173020  0.753583  1
  Pa  Pa3  1  0.474879  0.525121  0.236595  1
  Sn  Sn4  1  0.704075  0.295925  0.549328  1
  Sn  Sn5  1  0.596138  0.403862  0.113669  1
  Sn  Sn6  1  0.048713  0.951287  0.400659  1
  Sn  Sn7  1  0.951824  0.048176  0.896471  1
  Sn  Sn8  1  0.710228  0.289772  0.973805  1
  Sn  Sn9  1  0.288846  0.711154  0.474072  1
  Sn  Sn10  1  0.296023  0.703977  0.048978  1
  Sn  Sn11  1  0.878494  0.121506  0.233688  1
  Sn  Sn12  1  0.120559  0.879441  0.734865  1
  Sn  Sn13  1  0.403370  0.596630  0.613810  1
  Rh  Rh14  1  0.399241  0.600759  0.001240  1
  Rh  Rh15  1  0.777300  0.222700  0.263958  1
  Rh  Rh16  1  0.222311  0.777689  0.763119  1
  Rh  Rh17  1  0.048420  0.951580  0.027565  1
  Rh  Rh18  1  0.605951  0.394049  0.483314  1
  Rh  Rh19  1  0.949219  0.050781  0.505898  1
