# generated using pymatgen
data_Nd4GaOsRu6
_symmetry_space_group_name_H-M   'P 1'
_cell_length_a   5.27970403
_cell_length_b   5.27970532
_cell_length_c   9.12747900
_cell_angle_alpha   90.00000000
_cell_angle_beta   90.00000000
_cell_angle_gamma   116.53818997
_symmetry_Int_Tables_number   1
_chemical_formula_structural   Nd4GaOsRu6
_chemical_formula_sum   'Nd4 Ga1 Os1 Ru6'
_cell_volume   227.62336478
_cell_formula_units_Z   1
loop_
 _symmetry_equiv_pos_site_id
 _symmetry_equiv_pos_as_xyz
  1  'x, y, z'
loop_
 _atom_site_type_symbol
 _atom_site_label
 _atom_site_symmetry_multiplicity
 _atom_site_fract_x
 _atom_site_fract_y
 _atom_site_fract_z
 _atom_site_occupancy
  Nd  Nd0  1  0.329558  0.670442  0.432355  1
  Nd  Nd1  1  0.663940  0.336060  0.566756  1
  Nd  Nd2  1  0.663940  0.336060  0.933244  1
  Nd  Nd3  1  0.329558  0.670442  0.067645  1
  Ga  Ga4  1  0.170208  0.829792  0.750000  1
  Os  Os5  1  0.845513  0.154487  0.250000  1
  Ru  Ru6  1  0.986464  0.013536  0.497943  1
  Ru  Ru7  1  0.986464  0.013536  0.002057  1
  Ru  Ru8  1  0.828239  0.643582  0.250000  1
  Ru  Ru9  1  0.356418  0.171761  0.250000  1
  Ru  Ru10  1  0.171531  0.331835  0.750000  1
  Ru  Ru11  1  0.668165  0.828469  0.750000  1
