# generated using pymatgen
data_LiY3Cd3Au2
_symmetry_space_group_name_H-M   'P 1'
_cell_length_a   7.84862800
_cell_length_b   7.84862730
_cell_length_c   3.82278500
_cell_angle_alpha   90.00000000
_cell_angle_beta   90.00000000
_cell_angle_gamma   119.99999453
_symmetry_Int_Tables_number   1
_chemical_formula_structural   LiY3Cd3Au2
_chemical_formula_sum   'Li1 Y3 Cd3 Au2'
_cell_volume   203.93791779
_cell_formula_units_Z   1
loop_
 _symmetry_equiv_pos_site_id
 _symmetry_equiv_pos_as_xyz
  1  'x, y, z'
loop_
 _atom_site_type_symbol
 _atom_site_label
 _atom_site_symmetry_multiplicity
 _atom_site_fract_x
 _atom_site_fract_y
 _atom_site_fract_z
 _atom_site_occupancy
  Li  Li0  1  0.000000  0.000000  0.000000  1
  Y  Y1  1  0.583734  0.000000  0.000000  1
  Y  Y2  1  0.000000  0.583734  0.000000  1
  Y  Y3  1  0.416266  0.416266  0.000000  1
  Cd  Cd4  1  0.244600  0.000000  0.500000  1
  Cd  Cd5  1  0.000000  0.244600  0.500000  1
  Cd  Cd6  1  0.755400  0.755400  0.500000  1
  Au  Au7  1  0.333333  0.666667  0.500000  1
  Au  Au8  1  0.666667  0.333333  0.500000  1
