# generated using pymatgen
data_Sm2HoLu(SeO3)6
_symmetry_space_group_name_H-M   'P 1'
_cell_length_a   7.15295043
_cell_length_b   8.18682568
_cell_length_c   9.10864723
_cell_angle_alpha   71.17788287
_cell_angle_beta   70.23443620
_cell_angle_gamma   66.16908137
_symmetry_Int_Tables_number   1
_chemical_formula_structural   Sm2HoLu(SeO3)6
_chemical_formula_sum   'Sm2 Ho1 Lu1 Se6 O18'
_cell_volume   448.33268446
_cell_formula_units_Z   1
loop_
 _symmetry_equiv_pos_site_id
 _symmetry_equiv_pos_as_xyz
  1  'x, y, z'
loop_
 _atom_site_type_symbol
 _atom_site_label
 _atom_site_symmetry_multiplicity
 _atom_site_fract_x
 _atom_site_fract_y
 _atom_site_fract_z
 _atom_site_occupancy
  Sm  Sm0  1  0.331754  0.731109  0.591257  1
  Sm  Sm1  1  0.666380  0.271515  0.408245  1
  Ho  Ho2  1  0.741450  0.734608  0.800295  1
  Lu  Lu3  1  0.258589  0.263448  0.199820  1
  Se  Se4  1  0.113519  0.246223  0.579977  1
  Se  Se5  1  0.425548  0.782991  0.193701  1
  Se  Se6  1  0.149223  0.744535  0.970197  1
  Se  Se7  1  0.852026  0.249208  0.033361  1
  Se  Se8  1  0.572848  0.221051  0.806736  1
  Se  Se9  1  0.887078  0.755419  0.416576  1
  O  O10  1  0.151543  0.021500  0.657914  1
  O  O11  1  0.172738  0.556689  0.122027  1
  O  O12  1  0.029856  0.704959  0.557505  1
  O  O13  1  0.342594  0.249964  0.429820  1
  O  O14  1  0.062291  0.695338  0.837545  1
  O  O15  1  0.593718  0.287813  0.149156  1
  O  O16  1  0.352699  0.208067  0.954700  1
  O  O17  1  0.360236  0.952634  0.296829  1
  O  O18  1  0.513750  0.602003  0.347091  1
  O  O19  1  0.482654  0.401809  0.653749  1
  O  O20  1  0.635697  0.052937  0.702716  1
  O  O21  1  0.648221  0.794281  0.049065  1
  O  O22  1  0.405874  0.710847  0.852814  1
  O  O23  1  0.940867  0.301533  0.163448  1
  O  O24  1  0.657542  0.749718  0.565505  1
  O  O25  1  0.972080  0.294794  0.438794  1
  O  O26  1  0.831501  0.434555  0.879074  1
  O  O27  1  0.847723  0.980453  0.342081  1
