# generated using pymatgen
data_YHo15Tl4(InCo)2
_symmetry_space_group_name_H-M   'P 1'
_cell_length_a   10.31161900
_cell_length_b   10.32581680
_cell_length_c   7.05881900
_cell_angle_alpha   90.03030556
_cell_angle_beta   90.00000000
_cell_angle_gamma   119.95452321
_symmetry_Int_Tables_number   1
_chemical_formula_structural   YHo15Tl4(InCo)2
_chemical_formula_sum   'Y1 Ho15 Tl4 In2 Co2'
_cell_volume   651.19747133
_cell_formula_units_Z   1
loop_
 _symmetry_equiv_pos_site_id
 _symmetry_equiv_pos_as_xyz
  1  'x, y, z'
loop_
 _atom_site_type_symbol
 _atom_site_label
 _atom_site_symmetry_multiplicity
 _atom_site_fract_x
 _atom_site_fract_y
 _atom_site_fract_z
 _atom_site_occupancy
  Y  Y0  1  0.535205  0.070409  0.503783  1
  Ho  Ho1  1  0.927251  0.464540  0.504774  1
  Ho  Ho2  1  0.537289  0.464540  0.504774  1
  Ho  Ho3  1  0.462933  0.925867  0.006795  1
  Ho  Ho4  1  0.073826  0.536980  0.006559  1
  Ho  Ho5  1  0.463155  0.536980  0.006559  1
  Ho  Ho6  1  0.178246  0.356490  0.709389  1
  Ho  Ho7  1  0.644005  0.821762  0.712084  1
  Ho  Ho8  1  0.177757  0.821762  0.712084  1
  Ho  Ho9  1  0.821818  0.643637  0.209711  1
  Ho  Ho10  1  0.356638  0.178967  0.208932  1
  Ho  Ho11  1  0.822328  0.178967  0.208932  1
  Ho  Ho12  1  0.666816  0.333632  0.896874  1
  Ho  Ho13  1  0.333188  0.666378  0.397087  1
  Ho  Ho14  1  0.999340  0.998679  0.490356  1
  Ho  Ho15  1  0.999148  0.998295  0.993948  1
  Tl  Tl16  1  0.836644  0.673288  0.755087  1
  Tl  Tl17  1  0.326202  0.163150  0.754978  1
  Tl  Tl18  1  0.836948  0.163150  0.754978  1
  Tl  Tl19  1  0.163135  0.326271  0.255547  1
  In  In20  1  0.674150  0.837503  0.253970  1
  In  In21  1  0.163353  0.837503  0.253970  1
  Co  Co22  1  0.667446  0.334889  0.277817  1
  Co  Co23  1  0.333178  0.666359  0.779053  1
