# generated using pymatgen
data_LaNd15(CdNi)4
_symmetry_space_group_name_H-M   'P 1'
_cell_length_a   9.85905991
_cell_length_b   9.85905908
_cell_length_c   9.85905892
_cell_angle_alpha   59.95557450
_cell_angle_beta   59.95557759
_cell_angle_gamma   59.95557693
_symmetry_Int_Tables_number   1
_chemical_formula_structural   LaNd15(CdNi)4
_chemical_formula_sum   'La1 Nd15 Cd4 Ni4'
_cell_volume   676.94545551
_cell_formula_units_Z   1
loop_
 _symmetry_equiv_pos_site_id
 _symmetry_equiv_pos_as_xyz
  1  'x, y, z'
loop_
 _atom_site_type_symbol
 _atom_site_label
 _atom_site_symmetry_multiplicity
 _atom_site_fract_x
 _atom_site_fract_y
 _atom_site_fract_z
 _atom_site_occupancy
  La  La0  1  0.344910  0.344910  0.344910  1
  Nd  Nd1  1  0.348619  0.348619  0.952181  1
  Nd  Nd2  1  0.348619  0.952181  0.348619  1
  Nd  Nd3  1  0.952181  0.348619  0.348619  1
  Nd  Nd4  1  0.812328  0.190331  0.190331  1
  Nd  Nd5  1  0.190584  0.810174  0.810174  1
  Nd  Nd6  1  0.190331  0.812328  0.190331  1
  Nd  Nd7  1  0.810174  0.190584  0.810174  1
  Nd  Nd8  1  0.190331  0.190331  0.812328  1
  Nd  Nd9  1  0.810174  0.810174  0.190584  1
  Nd  Nd10  1  0.940477  0.563198  0.563198  1
  Nd  Nd11  1  0.562427  0.936374  0.936374  1
  Nd  Nd12  1  0.563198  0.940477  0.563198  1
  Nd  Nd13  1  0.936374  0.562427  0.936374  1
  Nd  Nd14  1  0.563198  0.563198  0.940477  1
  Nd  Nd15  1  0.936374  0.936374  0.562427  1
  Cd  Cd16  1  0.580253  0.580253  0.580253  1
  Cd  Cd17  1  0.580283  0.580283  0.260165  1
  Cd  Cd18  1  0.580283  0.260165  0.580283  1
  Cd  Cd19  1  0.260165  0.580283  0.580283  1
  Ni  Ni20  1  0.142881  0.142881  0.142881  1
  Ni  Ni21  1  0.141164  0.141164  0.573507  1
  Ni  Ni22  1  0.141164  0.573507  0.141164  1
  Ni  Ni23  1  0.573507  0.141164  0.141164  1
