# generated using pymatgen
data_Ta3Nb9Al4(AuN)4
_symmetry_space_group_name_H-M   'P 1'
_cell_length_a   7.11140174
_cell_length_b   7.11232004
_cell_length_c   7.10645094
_cell_angle_alpha   89.95208433
_cell_angle_beta   90.06986157
_cell_angle_gamma   90.03924913
_symmetry_Int_Tables_number   1
_chemical_formula_structural   Ta3Nb9Al4(AuN)4
_chemical_formula_sum   'Ta3 Nb9 Al4 Au4 N4'
_cell_volume   359.43361448
_cell_formula_units_Z   1
loop_
 _symmetry_equiv_pos_site_id
 _symmetry_equiv_pos_as_xyz
  1  'x, y, z'
loop_
 _atom_site_type_symbol
 _atom_site_label
 _atom_site_symmetry_multiplicity
 _atom_site_fract_x
 _atom_site_fract_y
 _atom_site_fract_z
 _atom_site_occupancy
  Ta  Ta0  1  0.786001  0.957002  0.376450  1
  Ta  Ta1  1  0.714159  0.043212  0.876114  1
  Ta  Ta2  1  0.213719  0.456839  0.123873  1
  Nb  Nb3  1  0.285713  0.543412  0.623590  1
  Nb  Nb4  1  0.955812  0.375400  0.785079  1
  Nb  Nb5  1  0.044615  0.874914  0.715235  1
  Nb  Nb6  1  0.455625  0.123755  0.214572  1
  Nb  Nb7  1  0.544435  0.624661  0.285107  1
  Nb  Nb8  1  0.377651  0.786197  0.956835  1
  Nb  Nb9  1  0.876565  0.713726  0.043892  1
  Nb  Nb10  1  0.123029  0.213630  0.457080  1
  Nb  Nb11  1  0.622209  0.286685  0.542808  1
  Al  Al12  1  0.572552  0.428137  0.927544  1
  Al  Al13  1  0.427605  0.928028  0.572005  1
  Al  Al14  1  0.927396  0.571938  0.427820  1
  Al  Al15  1  0.072443  0.072128  0.071989  1
  Au  Au16  1  0.178272  0.820322  0.320857  1
  Au  Au17  1  0.321472  0.179790  0.821553  1
  Au  Au18  1  0.821516  0.319477  0.178577  1
  Au  Au19  1  0.679396  0.680775  0.678831  1
  N  N20  1  0.874571  0.120031  0.622959  1
  N  N21  1  0.625490  0.880092  0.123036  1
  N  N22  1  0.124100  0.621158  0.879587  1
  N  N23  1  0.375655  0.378690  0.374606  1
