# generated using pymatgen
data_DyY11TcRu3
_symmetry_space_group_name_H-M   'P 1'
_cell_length_a   6.34333065
_cell_length_b   7.39669870
_cell_length_c   9.23588000
_cell_angle_alpha   90.00000000
_cell_angle_beta   90.00000000
_cell_angle_gamma   89.82605398
_symmetry_Int_Tables_number   1
_chemical_formula_structural   DyY11TcRu3
_chemical_formula_sum   'Dy1 Y11 Tc1 Ru3'
_cell_volume   433.34277350
_cell_formula_units_Z   1
loop_
 _symmetry_equiv_pos_site_id
 _symmetry_equiv_pos_as_xyz
  1  'x, y, z'
loop_
 _atom_site_type_symbol
 _atom_site_label
 _atom_site_symmetry_multiplicity
 _atom_site_fract_x
 _atom_site_fract_y
 _atom_site_fract_z
 _atom_site_occupancy
  Dy  Dy0  1  0.364202  0.955125  0.750000  1
  Y  Y1  1  0.632562  0.041270  0.250000  1
  Y  Y2  1  0.133989  0.457159  0.750000  1
  Y  Y3  1  0.871909  0.542772  0.250000  1
  Y  Y4  1  0.167334  0.175695  0.064747  1
  Y  Y5  1  0.831592  0.824074  0.935207  1
  Y  Y6  1  0.665734  0.324573  0.936476  1
  Y  Y7  1  0.831592  0.824074  0.564793  1
  Y  Y8  1  0.332706  0.676074  0.064303  1
  Y  Y9  1  0.167334  0.175695  0.435253  1
  Y  Y10  1  0.332706  0.676074  0.435697  1
  Y  Y11  1  0.665734  0.324573  0.563524  1
  Tc  Tc12  1  0.462400  0.386006  0.250000  1
  Ru  Ru13  1  0.537275  0.618306  0.750000  1
  Ru  Ru14  1  0.964658  0.113735  0.750000  1
  Ru  Ru15  1  0.038275  0.884799  0.250000  1
