# generated using pymatgen
data_HfP4PbO14
_symmetry_space_group_name_H-M   'P 1'
_cell_length_a   5.07251843
_cell_length_b   7.20553889
_cell_length_c   8.55701912
_cell_angle_alpha   91.93820870
_cell_angle_beta   93.21929318
_cell_angle_gamma   106.62594684
_symmetry_Int_Tables_number   1
_chemical_formula_structural   HfP4PbO14
_chemical_formula_sum   'Hf1 P4 Pb1 O14'
_cell_volume   298.80537970
_cell_formula_units_Z   1
loop_
 _symmetry_equiv_pos_site_id
 _symmetry_equiv_pos_as_xyz
  1  'x, y, z'
loop_
 _atom_site_type_symbol
 _atom_site_label
 _atom_site_symmetry_multiplicity
 _atom_site_fract_x
 _atom_site_fract_y
 _atom_site_fract_z
 _atom_site_occupancy
  Hf  Hf0  1  0.500000  0.500000  0.500000  1
  P  P1  1  0.515844  0.136941  0.762884  1
  P  P2  1  0.120032  0.749231  0.693474  1
  P  P3  1  0.879968  0.250769  0.306526  1
  P  P4  1  0.484156  0.863059  0.237116  1
  Pb  Pb5  1  0.000000  0.000000  0.000000  1
  O  O6  1  0.383511  0.175947  0.913407  1
  O  O7  1  0.046932  0.750524  0.865915  1
  O  O8  1  0.776732  0.073594  0.794490  1
  O  O9  1  0.301177  0.616696  0.666486  1
  O  O10  1  0.573911  0.309096  0.658521  1
  O  O11  1  0.293843  0.966768  0.656333  1
  O  O12  1  0.867782  0.700264  0.577414  1
  O  O13  1  0.132218  0.299736  0.422586  1
  O  O14  1  0.706157  0.033232  0.343667  1
  O  O15  1  0.426089  0.690904  0.341479  1
  O  O16  1  0.698823  0.383304  0.333514  1
  O  O17  1  0.223268  0.926406  0.205510  1
  O  O18  1  0.953068  0.249476  0.134085  1
  O  O19  1  0.616489  0.824053  0.086593  1
