# generated using pymatgen
data_Tm3Zr3Zn23C
_symmetry_space_group_name_H-M   'P 1'
_cell_length_a   8.83308546
_cell_length_b   8.81237843
_cell_length_c   8.76754476
_cell_angle_alpha   60.32419723
_cell_angle_beta   60.08933843
_cell_angle_gamma   59.58645614
_symmetry_Int_Tables_number   1
_chemical_formula_structural   Tm3Zr3Zn23C
_chemical_formula_sum   'Tm3 Zr3 Zn23 C1'
_cell_volume   482.53747320
_cell_formula_units_Z   1
loop_
 _symmetry_equiv_pos_site_id
 _symmetry_equiv_pos_as_xyz
  1  'x, y, z'
loop_
 _atom_site_type_symbol
 _atom_site_label
 _atom_site_symmetry_multiplicity
 _atom_site_fract_x
 _atom_site_fract_y
 _atom_site_fract_z
 _atom_site_occupancy
  Tm  Tm0  1  0.699626  0.300374  0.302364  1
  Tm  Tm1  1  0.302364  0.697636  0.699626  1
  Tm  Tm2  1  0.306486  0.693514  0.306486  1
  Zr  Zr3  1  0.690832  0.309168  0.690832  1
  Zr  Zr4  1  0.320226  0.314927  0.685073  1
  Zr  Zr5  1  0.685073  0.679774  0.320226  1
  Zn  Zn6  1  0.126196  0.125524  0.114463  1
  Zn  Zn7  1  0.871510  0.881557  0.882405  1
  Zn  Zn8  1  0.118443  0.128490  0.635475  1
  Zn  Zn9  1  0.114463  0.633819  0.126196  1
  Zn  Zn10  1  0.874476  0.873804  0.366181  1
  Zn  Zn11  1  0.882405  0.364525  0.871510  1
  Zn  Zn12  1  0.635475  0.117595  0.118443  1
  Zn  Zn13  1  0.366181  0.885537  0.874476  1
  Zn  Zn14  1  0.501094  0.001095  0.998905  1
  Zn  Zn15  1  0.998905  0.498906  0.501094  1
  Zn  Zn16  1  0.000447  0.499553  0.000447  1
  Zn  Zn17  1  0.500447  0.999553  0.500447  1
  Zn  Zn18  1  0.998955  0.001045  0.501823  1
  Zn  Zn19  1  0.501823  0.498177  0.998955  1
  Zn  Zn20  1  0.330794  0.328687  0.330722  1
  Zn  Zn21  1  0.669167  0.667792  0.670006  1
  Zn  Zn22  1  0.332208  0.330833  0.006966  1
  Zn  Zn23  1  0.330722  0.009799  0.330794  1
  Zn  Zn24  1  0.671313  0.669206  0.990201  1
  Zn  Zn25  1  0.670006  0.993034  0.669167  1
  Zn  Zn26  1  0.006966  0.329994  0.332208  1
  Zn  Zn27  1  0.990201  0.669278  0.671313  1
  Zn  Zn28  1  0.001183  0.998817  0.001183  1
  C  C29  1  0.502013  0.497987  0.502013  1
