# generated using pymatgen
data_TlZn2Cl5
_symmetry_space_group_name_H-M   'P 1'
_cell_length_a   11.16425127
_cell_length_b   11.16425154
_cell_length_c   11.16425100
_cell_angle_alpha   59.99999862
_cell_angle_beta   59.99999783
_cell_angle_gamma   59.99999764
_symmetry_Int_Tables_number   1
_chemical_formula_structural   TlZn2Cl5
_chemical_formula_sum   'Tl4 Zn8 Cl20'
_cell_volume   983.95172136
_cell_formula_units_Z   4
loop_
 _symmetry_equiv_pos_site_id
 _symmetry_equiv_pos_as_xyz
  1  'x, y, z'
loop_
 _atom_site_type_symbol
 _atom_site_label
 _atom_site_symmetry_multiplicity
 _atom_site_fract_x
 _atom_site_fract_y
 _atom_site_fract_z
 _atom_site_occupancy
  Tl  Tl0  1  0.125000  0.625000  0.625000  1
  Tl  Tl1  1  0.625000  0.125000  0.625000  1
  Tl  Tl2  1  0.625000  0.625000  0.125000  1
  Tl  Tl3  1  0.625000  0.625000  0.625000  1
  Zn  Zn4  1  0.996136  0.334621  0.334621  1
  Zn  Zn5  1  0.334621  0.996136  0.334621  1
  Zn  Zn6  1  0.334621  0.334621  0.996136  1
  Zn  Zn7  1  0.334621  0.334621  0.334621  1
  Zn  Zn8  1  0.253864  0.915379  0.915379  1
  Zn  Zn9  1  0.915379  0.253864  0.915379  1
  Zn  Zn10  1  0.915379  0.915379  0.253864  1
  Zn  Zn11  1  0.915379  0.915379  0.915379  1
  Cl  Cl12  1  0.080995  0.080995  0.419005  1
  Cl  Cl13  1  0.419005  0.419005  0.080995  1
  Cl  Cl14  1  0.080995  0.419005  0.080995  1
  Cl  Cl15  1  0.419005  0.080995  0.419005  1
  Cl  Cl16  1  0.419005  0.080995  0.080995  1
  Cl  Cl17  1  0.080995  0.419005  0.419005  1
  Cl  Cl18  1  0.169005  0.169005  0.830995  1
  Cl  Cl19  1  0.830995  0.830995  0.169005  1
  Cl  Cl20  1  0.169005  0.830995  0.169005  1
  Cl  Cl21  1  0.830995  0.169005  0.830995  1
  Cl  Cl22  1  0.830995  0.169005  0.169005  1
  Cl  Cl23  1  0.169005  0.830995  0.830995  1
  Cl  Cl24  1  0.751163  0.416279  0.416279  1
  Cl  Cl25  1  0.416279  0.751163  0.416279  1
  Cl  Cl26  1  0.416279  0.416279  0.751163  1
  Cl  Cl27  1  0.416279  0.416279  0.416279  1
  Cl  Cl28  1  0.498837  0.833721  0.833721  1
  Cl  Cl29  1  0.833721  0.498837  0.833721  1
  Cl  Cl30  1  0.833721  0.833721  0.498837  1
  Cl  Cl31  1  0.833721  0.833721  0.833721  1
