# generated using pymatgen
data_La4YbPb4
_symmetry_space_group_name_H-M   'P 1'
_cell_length_a   8.52886800
_cell_length_b   8.63202200
_cell_length_c   16.61506700
_cell_angle_alpha   90.00000000
_cell_angle_beta   90.00000000
_cell_angle_gamma   90.00000000
_symmetry_Int_Tables_number   1
_chemical_formula_structural   La4YbPb4
_chemical_formula_sum   'La16 Yb4 Pb16'
_cell_volume   1223.22409838
_cell_formula_units_Z   4
loop_
 _symmetry_equiv_pos_site_id
 _symmetry_equiv_pos_as_xyz
  1  'x, y, z'
loop_
 _atom_site_type_symbol
 _atom_site_label
 _atom_site_symmetry_multiplicity
 _atom_site_fract_x
 _atom_site_fract_y
 _atom_site_fract_z
 _atom_site_occupancy
  La  La0  1  0.880613  0.659942  0.117316  1
  La  La1  1  0.380613  0.840058  0.382684  1
  La  La2  1  0.619387  0.159942  0.882684  1
  La  La3  1  0.119387  0.340058  0.617316  1
  La  La4  1  0.119387  0.340058  0.882684  1
  La  La5  1  0.619387  0.159942  0.617316  1
  La  La6  1  0.380613  0.840058  0.117316  1
  La  La7  1  0.880613  0.659942  0.382684  1
  La  La8  1  0.027920  0.180414  0.100134  1
  La  La9  1  0.527920  0.319586  0.399866  1
  La  La10  1  0.472080  0.680414  0.899866  1
  La  La11  1  0.972080  0.819586  0.600134  1
  La  La12  1  0.972080  0.819586  0.899866  1
  La  La13  1  0.472080  0.680414  0.600134  1
  La  La14  1  0.527920  0.319586  0.100134  1
  La  La15  1  0.027920  0.180414  0.399866  1
  Yb  Yb16  1  0.710158  0.996187  0.250000  1
  Yb  Yb17  1  0.210158  0.503813  0.250000  1
  Yb  Yb18  1  0.789842  0.496187  0.750000  1
  Yb  Yb19  1  0.289842  0.003813  0.750000  1
  Pb  Pb20  1  0.076774  0.882883  0.250000  1
  Pb  Pb21  1  0.576774  0.617117  0.250000  1
  Pb  Pb22  1  0.423226  0.382883  0.750000  1
  Pb  Pb23  1  0.923226  0.117117  0.750000  1
  Pb  Pb24  1  0.833749  0.356345  0.250000  1
  Pb  Pb25  1  0.333749  0.143655  0.250000  1
  Pb  Pb26  1  0.666251  0.856345  0.750000  1
  Pb  Pb27  1  0.166251  0.643655  0.750000  1
  Pb  Pb28  1  0.780335  0.467932  0.956127  1
  Pb  Pb29  1  0.280335  0.032068  0.543873  1
  Pb  Pb30  1  0.719665  0.967932  0.043873  1
  Pb  Pb31  1  0.219665  0.532068  0.456127  1
  Pb  Pb32  1  0.219665  0.532068  0.043873  1
  Pb  Pb33  1  0.719665  0.967932  0.456127  1
  Pb  Pb34  1  0.280335  0.032068  0.956127  1
  Pb  Pb35  1  0.780335  0.467932  0.543873  1
