# generated using pymatgen
data_Ti3Si2Ir
_symmetry_space_group_name_H-M   'P 1'
_cell_length_a   3.70500300
_cell_length_b   6.37810200
_cell_length_c   7.70965800
_cell_angle_alpha   90.00000000
_cell_angle_beta   90.00000000
_cell_angle_gamma   90.00000000
_symmetry_Int_Tables_number   1
_chemical_formula_structural   Ti3Si2Ir
_chemical_formula_sum   'Ti6 Si4 Ir2'
_cell_volume   182.18605735
_cell_formula_units_Z   2
loop_
 _symmetry_equiv_pos_site_id
 _symmetry_equiv_pos_as_xyz
  1  'x, y, z'
loop_
 _atom_site_type_symbol
 _atom_site_label
 _atom_site_symmetry_multiplicity
 _atom_site_fract_x
 _atom_site_fract_y
 _atom_site_fract_z
 _atom_site_occupancy
  Ti  Ti0  1  0.250000  0.027111  0.327757  1
  Ti  Ti1  1  0.250000  0.527111  0.172243  1
  Ti  Ti2  1  0.750000  0.969425  0.671276  1
  Ti  Ti3  1  0.750000  0.469425  0.828724  1
  Ti  Ti4  1  0.250000  0.148133  0.940407  1
  Ti  Ti5  1  0.250000  0.648133  0.559593  1
  Si  Si6  1  0.250000  0.252325  0.624493  1
  Si  Si7  1  0.250000  0.752325  0.875507  1
  Si  Si8  1  0.750000  0.739014  0.352439  1
  Si  Si9  1  0.750000  0.239014  0.147561  1
  Ir  Ir10  1  0.750000  0.863993  0.057280  1
  Ir  Ir11  1  0.750000  0.363993  0.442720  1
