# generated using pymatgen
data_Tb2DyCo7(P3Rh)2
_symmetry_space_group_name_H-M   'P 1'
_cell_length_a   3.72126100
_cell_length_b   10.66299900
_cell_length_c   12.37734500
_cell_angle_alpha   90.00000000
_cell_angle_beta   90.00000000
_cell_angle_gamma   90.00000000
_symmetry_Int_Tables_number   1
_chemical_formula_structural   Tb2DyCo7(P3Rh)2
_chemical_formula_sum   'Tb4 Dy2 Co14 P12 Rh4'
_cell_volume   491.13060287
_cell_formula_units_Z   2
loop_
 _symmetry_equiv_pos_site_id
 _symmetry_equiv_pos_as_xyz
  1  'x, y, z'
loop_
 _atom_site_type_symbol
 _atom_site_label
 _atom_site_symmetry_multiplicity
 _atom_site_fract_x
 _atom_site_fract_y
 _atom_site_fract_z
 _atom_site_occupancy
  Tb  Tb0  1  0.000000  0.500000  0.520213  1
  Tb  Tb1  1  0.500000  0.000000  0.479800  1
  Tb  Tb2  1  0.500000  0.813928  0.205574  1
  Tb  Tb3  1  0.500000  0.186072  0.205574  1
  Dy  Dy4  1  0.000000  0.686162  0.794408  1
  Dy  Dy5  1  0.000000  0.313838  0.794408  1
  Co  Co6  1  0.000000  0.500000  0.987730  1
  Co  Co7  1  0.500000  0.000000  0.012096  1
  Co  Co8  1  0.500000  0.332195  0.993550  1
  Co  Co9  1  0.500000  0.667805  0.993550  1
  Co  Co10  1  0.000000  0.167844  0.006212  1
  Co  Co11  1  0.000000  0.832156  0.006212  1
  Co  Co12  1  0.500000  0.299223  0.430234  1
  Co  Co13  1  0.500000  0.700777  0.430234  1
  Co  Co14  1  0.000000  0.200825  0.569898  1
  Co  Co15  1  0.000000  0.799175  0.569898  1
  Co  Co16  1  0.500000  0.880346  0.709493  1
  Co  Co17  1  0.500000  0.119654  0.709493  1
  Co  Co18  1  0.000000  0.619425  0.290633  1
  Co  Co19  1  0.000000  0.380575  0.290633  1
  P  P20  1  0.500000  0.500000  0.889638  1
  P  P21  1  0.000000  0.000000  0.110049  1
  P  P22  1  0.500000  0.500000  0.349478  1
  P  P23  1  0.000000  0.000000  0.650508  1
  P  P24  1  0.500000  0.302318  0.613527  1
  P  P25  1  0.500000  0.697682  0.613527  1
  P  P26  1  0.000000  0.197784  0.386733  1
  P  P27  1  0.000000  0.802216  0.386733  1
  P  P28  1  0.500000  0.844857  0.894941  1
  P  P29  1  0.500000  0.155143  0.894941  1
  P  P30  1  0.000000  0.654892  0.104895  1
  P  P31  1  0.000000  0.345108  0.104895  1
  Rh  Rh32  1  0.500000  0.500000  0.159736  1
  Rh  Rh33  1  0.000000  0.000000  0.840228  1
  Rh  Rh34  1  0.500000  0.500000  0.703462  1
  Rh  Rh35  1  0.000000  0.000000  0.296864  1
