# generated using pymatgen
data_ErTm7B24(RhW)2
_symmetry_space_group_name_H-M   'P 1'
_cell_length_a   3.61053600
_cell_length_b   9.14386898
_cell_length_c   11.54804603
_cell_angle_alpha   90.43714373
_cell_angle_beta   90.00000000
_cell_angle_gamma   90.00000000
_symmetry_Int_Tables_number   1
_chemical_formula_structural   ErTm7B24(RhW)2
_chemical_formula_sum   'Er1 Tm7 B24 Rh2 W2'
_cell_volume   381.23919171
_cell_formula_units_Z   1
loop_
 _symmetry_equiv_pos_site_id
 _symmetry_equiv_pos_as_xyz
  1  'x, y, z'
loop_
 _atom_site_type_symbol
 _atom_site_label
 _atom_site_symmetry_multiplicity
 _atom_site_fract_x
 _atom_site_fract_y
 _atom_site_fract_z
 _atom_site_occupancy
  Er  Er0  1  0.500000  0.319489  0.411975  1
  Tm  Tm1  1  0.500000  0.680673  0.588008  1
  Tm  Tm2  1  0.500000  0.175595  0.916515  1
  Tm  Tm3  1  0.500000  0.824392  0.083465  1
  Tm  Tm4  1  0.500000  0.444756  0.126843  1
  Tm  Tm5  1  0.500000  0.555261  0.873116  1
  Tm  Tm6  1  0.500000  0.055377  0.627348  1
  Tm  Tm7  1  0.500000  0.944474  0.372672  1
  B  B8  1  0.000000  0.107285  0.471983  1
  B  B9  1  0.000000  0.892410  0.528083  1
  B  B10  1  0.000000  0.395634  0.970338  1
  B  B11  1  0.000000  0.604385  0.029663  1
  B  B12  1  0.000000  0.132813  0.318255  1
  B  B13  1  0.000000  0.866967  0.681639  1
  B  B14  1  0.000000  0.367391  0.815895  1
  B  B15  1  0.000000  0.632681  0.184080  1
  B  B16  1  0.000000  0.051396  0.065398  1
  B  B17  1  0.000000  0.948555  0.934560  1
  B  B18  1  0.000000  0.446649  0.565533  1
  B  B19  1  0.000000  0.553670  0.434662  1
  B  B20  1  0.000000  0.483837  0.288798  1
  B  B21  1  0.000000  0.516398  0.711128  1
  B  B22  1  0.000000  0.021414  0.785755  1
  B  B23  1  0.000000  0.978522  0.214262  1
  B  B24  1  0.000000  0.251519  0.078569  1
  B  B25  1  0.000000  0.748514  0.921382  1
  B  B26  1  0.000000  0.250835  0.579034  1
  B  B27  1  0.000000  0.749113  0.421237  1
  B  B28  1  0.000000  0.297288  0.237162  1
  B  B29  1  0.000000  0.702658  0.762625  1
  B  B30  1  0.000000  0.208812  0.734385  1
  B  B31  1  0.000000  0.791184  0.265623  1
  Rh  Rh32  1  0.500000  0.361191  0.678625  1
  Rh  Rh33  1  0.500000  0.638955  0.321464  1
  W  W34  1  0.500000  0.139309  0.180841  1
  W  W35  1  0.500000  0.860599  0.819078  1
