# generated using pymatgen
data_Er11Tm9(OsPb2)4
_symmetry_space_group_name_H-M   'P 1'
_cell_length_a   7.88130106
_cell_length_b   8.97370200
_cell_length_c   12.41259700
_cell_angle_alpha   90.00000000
_cell_angle_beta   89.99307184
_cell_angle_gamma   90.00000000
_symmetry_Int_Tables_number   1
_chemical_formula_structural   Er11Tm9(OsPb2)4
_chemical_formula_sum   'Er11 Tm9 Os4 Pb8'
_cell_volume   877.87405303
_cell_formula_units_Z   1
loop_
 _symmetry_equiv_pos_site_id
 _symmetry_equiv_pos_as_xyz
  1  'x, y, z'
loop_
 _atom_site_type_symbol
 _atom_site_label
 _atom_site_symmetry_multiplicity
 _atom_site_fract_x
 _atom_site_fract_y
 _atom_site_fract_z
 _atom_site_occupancy
  Er  Er0  1  0.346926  0.250000  0.286104  1
  Er  Er1  1  0.153328  0.250000  0.786195  1
  Er  Er2  1  0.846899  0.750000  0.214013  1
  Er  Er3  1  0.115775  0.750000  0.809610  1
  Er  Er4  1  0.884100  0.250000  0.190339  1
  Er  Er5  1  0.615865  0.250000  0.690216  1
  Er  Er6  1  0.383975  0.750000  0.309809  1
  Er  Er7  1  0.551021  0.750000  0.995881  1
  Er  Er8  1  0.449062  0.250000  0.003785  1
  Er  Er9  1  0.050527  0.250000  0.504154  1
  Er  Er10  1  0.949013  0.750000  0.496312  1
  Tm  Tm11  1  0.652965  0.750000  0.713677  1
  Tm  Tm12  1  0.827594  0.462641  0.929297  1
  Tm  Tm13  1  0.172828  0.537347  0.070183  1
  Tm  Tm14  1  0.327418  0.537815  0.570687  1
  Tm  Tm15  1  0.172828  0.962653  0.070183  1
  Tm  Tm16  1  0.672376  0.462846  0.429540  1
  Tm  Tm17  1  0.827594  0.037359  0.929297  1
  Tm  Tm18  1  0.672376  0.037154  0.429540  1
  Tm  Tm19  1  0.327418  0.962185  0.570687  1
  Os  Os20  1  0.924973  0.750000  0.995467  1
  Os  Os21  1  0.075064  0.250000  0.004601  1
  Os  Os22  1  0.424726  0.250000  0.504677  1
  Os  Os23  1  0.575268  0.750000  0.495707  1
  Pb  Pb24  1  0.924173  0.004861  0.668930  1
  Pb  Pb25  1  0.075482  0.994834  0.331338  1
  Pb  Pb26  1  0.424936  0.994628  0.830793  1
  Pb  Pb27  1  0.075482  0.505166  0.331338  1
  Pb  Pb28  1  0.575450  0.005198  0.168956  1
  Pb  Pb29  1  0.924173  0.495139  0.668930  1
  Pb  Pb30  1  0.575450  0.494802  0.168956  1
  Pb  Pb31  1  0.424936  0.505372  0.830793  1
