# generated using pymatgen
data_Ag(RuO4)2
_symmetry_space_group_name_H-M   'P 1'
_cell_length_a   6.04218800
_cell_length_b   6.04218760
_cell_length_c   6.69363400
_cell_angle_alpha   90.00000000
_cell_angle_beta   90.00000000
_cell_angle_gamma   119.99999923
_symmetry_Int_Tables_number   1
_chemical_formula_structural   Ag(RuO4)2
_chemical_formula_sum   'Ag1 Ru2 O8'
_cell_volume   211.63185401
_cell_formula_units_Z   1
loop_
 _symmetry_equiv_pos_site_id
 _symmetry_equiv_pos_as_xyz
  1  'x, y, z'
loop_
 _atom_site_type_symbol
 _atom_site_label
 _atom_site_symmetry_multiplicity
 _atom_site_fract_x
 _atom_site_fract_y
 _atom_site_fract_z
 _atom_site_occupancy
  Ag  Ag0  1  0.000000  0.000000  0.500000  1
  Ru  Ru1  1  0.333333  0.666667  0.790018  1
  Ru  Ru2  1  0.666667  0.333333  0.209982  1
  O  O3  1  0.224054  0.867272  0.703568  1
  O  O4  1  0.132728  0.356782  0.703568  1
  O  O5  1  0.333333  0.666667  0.047643  1
  O  O6  1  0.356782  0.224054  0.296432  1
  O  O7  1  0.643218  0.775946  0.703568  1
  O  O8  1  0.666667  0.333333  0.952357  1
  O  O9  1  0.867272  0.643218  0.296432  1
  O  O10  1  0.775946  0.132728  0.296432  1
