# generated using pymatgen
data_GdYCrAsO8
_symmetry_space_group_name_H-M   'P 1'
_cell_length_a   6.04527638
_cell_length_b   6.03569062
_cell_length_c   10.17676100
_cell_angle_alpha   89.99704775
_cell_angle_beta   90.00110315
_cell_angle_gamma   116.38319467
_symmetry_Int_Tables_number   1
_chemical_formula_structural   GdYCrAsO8
_chemical_formula_sum   'Gd2 Y2 Cr2 As2 O16'
_cell_volume   332.64744511
_cell_formula_units_Z   2
loop_
 _symmetry_equiv_pos_site_id
 _symmetry_equiv_pos_as_xyz
  1  'x, y, z'
loop_
 _atom_site_type_symbol
 _atom_site_label
 _atom_site_symmetry_multiplicity
 _atom_site_fract_x
 _atom_site_fract_y
 _atom_site_fract_z
 _atom_site_occupancy
  Gd  Gd0  1  0.500021  0.250010  0.623404  1
  Gd  Gd1  1  0.999992  0.250014  0.876759  1
  Y  Y2  1  0.000004  0.749989  0.126633  1
  Y  Y3  1  0.500006  0.749995  0.373363  1
  Cr  Cr4  1  0.500050  0.749923  0.877301  1
  Cr  Cr5  1  0.999943  0.750003  0.623400  1
  As  As6  1  0.999998  0.249981  0.372916  1
  As  As7  1  0.499989  0.249996  0.126361  1
  O  O8  1  0.588407  0.516341  0.217300  1
  O  O9  1  0.080910  0.017391  0.712890  1
  O  O10  1  0.088850  0.517050  0.282570  1
  O  O11  1  0.585463  0.011488  0.782106  1
  O  O12  1  0.266290  0.336143  0.462861  1
  O  O13  1  0.762233  0.838054  0.972403  1
  O  O14  1  0.764891  0.339624  0.034702  1
  O  O15  1  0.268579  0.829147  0.535107  1
  O  O16  1  0.411581  0.983633  0.217294  1
  O  O17  1  0.919118  0.482721  0.712907  1
  O  O18  1  0.911153  0.982927  0.282571  1
  O  O19  1  0.414535  0.488492  0.782084  1
  O  O20  1  0.733713  0.163834  0.462858  1
  O  O21  1  0.237782  0.661962  0.972406  1
  O  O22  1  0.235090  0.160345  0.034700  1
  O  O23  1  0.731401  0.670937  0.535105  1
