# generated using pymatgen
data_Pr8Ho2Si5Pb
_symmetry_space_group_name_H-M   'P 1'
_cell_length_a   7.72557514
_cell_length_b   7.72557596
_cell_length_c   9.22967609
_cell_angle_alpha   114.74107271
_cell_angle_beta   114.74108128
_cell_angle_gamma   90.00000363
_symmetry_Int_Tables_number   1
_chemical_formula_structural   Pr8Ho2Si5Pb
_chemical_formula_sum   'Pr8 Ho2 Si5 Pb1'
_cell_volume   444.01691455
_cell_formula_units_Z   1
loop_
 _symmetry_equiv_pos_site_id
 _symmetry_equiv_pos_as_xyz
  1  'x, y, z'
loop_
 _atom_site_type_symbol
 _atom_site_label
 _atom_site_symmetry_multiplicity
 _atom_site_fract_x
 _atom_site_fract_y
 _atom_site_fract_z
 _atom_site_occupancy
  Pr  Pr0  1  0.977194  0.828374  0.280583  1
  Pr  Pr1  1  0.303389  0.452208  0.280583  1
  Pr  Pr2  1  0.828374  0.303389  0.280583  1
  Pr  Pr3  1  0.452208  0.977194  0.280583  1
  Pr  Pr4  1  0.047792  0.196611  0.719417  1
  Pr  Pr5  1  0.671626  0.522806  0.719417  1
  Pr  Pr6  1  0.196611  0.671626  0.719417  1
  Pr  Pr7  1  0.522806  0.047792  0.719417  1
  Ho  Ho8  1  0.516490  0.516490  0.032981  1
  Ho  Ho9  1  0.983510  0.983510  0.967019  1
  Si  Si10  1  0.250000  0.250000  0.500000  1
  Si  Si11  1  0.619638  0.880362  0.000000  1
  Si  Si12  1  0.380362  0.119638  0.000000  1
  Si  Si13  1  0.880362  0.380362  0.000000  1
  Si  Si14  1  0.119638  0.619638  0.000000  1
  Pb  Pb15  1  0.750000  0.750000  0.500000  1
