# generated using pymatgen
data_Tb3Dy2Lu5Sn6
_symmetry_space_group_name_H-M   'P 1'
_cell_length_a   8.89275321
_cell_length_b   8.89039670
_cell_length_c   6.44768300
_cell_angle_alpha   90.00000000
_cell_angle_beta   90.00000000
_cell_angle_gamma   119.83883553
_symmetry_Int_Tables_number   1
_chemical_formula_structural   Tb3Dy2Lu5Sn6
_chemical_formula_sum   'Tb3 Dy2 Lu5 Sn6'
_cell_volume   442.17551990
_cell_formula_units_Z   1
loop_
 _symmetry_equiv_pos_site_id
 _symmetry_equiv_pos_as_xyz
  1  'x, y, z'
loop_
 _atom_site_type_symbol
 _atom_site_label
 _atom_site_symmetry_multiplicity
 _atom_site_fract_x
 _atom_site_fract_y
 _atom_site_fract_z
 _atom_site_occupancy
  Tb  Tb0  1  0.238529  0.999664  0.750000  1
  Tb  Tb1  1  0.999619  0.238424  0.750000  1
  Tb  Tb2  1  0.999434  0.761340  0.250000  1
  Dy  Dy3  1  0.241481  0.241518  0.250000  1
  Dy  Dy4  1  0.761282  0.999487  0.250000  1
  Lu  Lu5  1  0.666702  0.333021  0.999639  1
  Lu  Lu6  1  0.333070  0.666714  0.999630  1
  Lu  Lu7  1  0.333070  0.666714  0.500370  1
  Lu  Lu8  1  0.666702  0.333021  0.500361  1
  Lu  Lu9  1  0.760091  0.760152  0.750000  1
  Sn  Sn10  1  0.398690  0.398693  0.750000  1
  Sn  Sn11  1  0.603533  0.998388  0.750000  1
  Sn  Sn12  1  0.998383  0.603541  0.750000  1
  Sn  Sn13  1  0.602579  0.602684  0.250000  1
  Sn  Sn14  1  0.397162  0.999775  0.250000  1
  Sn  Sn15  1  0.999672  0.396868  0.250000  1
