# generated using pymatgen
data_Nd6Cd4Pd12Pt
_symmetry_space_group_name_H-M   'P 1'
_cell_length_a   8.54728889
_cell_length_b   8.54728999
_cell_length_c   8.54729000
_cell_angle_alpha   109.47122302
_cell_angle_beta   109.47122563
_cell_angle_gamma   109.47121638
_symmetry_Int_Tables_number   1
_chemical_formula_structural   Nd6Cd4Pd12Pt
_chemical_formula_sum   'Nd6 Cd4 Pd12 Pt1'
_cell_volume   480.68808115
_cell_formula_units_Z   1
loop_
 _symmetry_equiv_pos_site_id
 _symmetry_equiv_pos_as_xyz
  1  'x, y, z'
loop_
 _atom_site_type_symbol
 _atom_site_label
 _atom_site_symmetry_multiplicity
 _atom_site_fract_x
 _atom_site_fract_y
 _atom_site_fract_z
 _atom_site_occupancy
  Nd  Nd0  1  0.700645  0.700645  0.000000  1
  Nd  Nd1  1  0.299355  0.000000  0.299355  1
  Nd  Nd2  1  0.000000  0.299355  0.299355  1
  Nd  Nd3  1  0.299355  0.299355  0.000000  1
  Nd  Nd4  1  0.700645  0.000000  0.700645  1
  Nd  Nd5  1  0.000000  0.700645  0.700645  1
  Cd  Cd6  1  0.000000  0.000000  0.500000  1
  Cd  Cd7  1  0.000000  0.500000  0.000000  1
  Cd  Cd8  1  0.500000  0.000000  0.000000  1
  Cd  Cd9  1  0.500000  0.500000  0.500000  1
  Pd  Pd10  1  0.342054  0.342054  0.684109  1
  Pd  Pd11  1  0.657946  0.000000  0.342054  1
  Pd  Pd12  1  0.000000  0.657946  0.342054  1
  Pd  Pd13  1  0.657946  0.342054  0.000000  1
  Pd  Pd14  1  0.342054  0.684109  0.342054  1
  Pd  Pd15  1  0.000000  0.342054  0.657946  1
  Pd  Pd16  1  0.342054  0.657946  0.000000  1
  Pd  Pd17  1  0.342054  0.000000  0.657946  1
  Pd  Pd18  1  0.684109  0.342054  0.342054  1
  Pd  Pd19  1  0.657946  0.657946  0.315891  1
  Pd  Pd20  1  0.657946  0.315891  0.657946  1
  Pd  Pd21  1  0.315891  0.657946  0.657946  1
  Pt  Pt22  1  0.000000  0.000000  0.000000  1
