# generated using pymatgen
data_Ce(DySi2)2
_symmetry_space_group_name_H-M   'P 1'
_cell_length_a   3.90456635
_cell_length_b   4.27153138
_cell_length_c   9.22671296
_cell_angle_alpha   76.61599946
_cell_angle_beta   77.78441885
_cell_angle_gamma   90.00000399
_symmetry_Int_Tables_number   1
_chemical_formula_structural   Ce(DySi2)2
_chemical_formula_sum   'Ce1 Dy2 Si4'
_cell_volume   146.12414008
_cell_formula_units_Z   1
loop_
 _symmetry_equiv_pos_site_id
 _symmetry_equiv_pos_as_xyz
  1  'x, y, z'
loop_
 _atom_site_type_symbol
 _atom_site_label
 _atom_site_symmetry_multiplicity
 _atom_site_fract_x
 _atom_site_fract_y
 _atom_site_fract_z
 _atom_site_occupancy
  Ce  Ce0  1  0.000002  0.000002  0.999998  1
  Dy  Dy1  1  0.683163  0.183163  0.633672  1
  Dy  Dy2  1  0.316838  0.816838  0.366325  1
  Si  Si3  1  0.851896  0.351896  0.296209  1
  Si  Si4  1  0.148101  0.648101  0.703796  1
  Si  Si5  1  0.566029  0.566029  0.867943  1
  Si  Si6  1  0.433972  0.433972  0.132058  1
