# generated using pymatgen
data_ErTm2MgCd2Ga3
_symmetry_space_group_name_H-M   'P 1'
_cell_length_a   7.19875947
_cell_length_b   7.18761352
_cell_length_c   4.40311400
_cell_angle_alpha   90.00000000
_cell_angle_beta   90.00000000
_cell_angle_gamma   120.01002839
_symmetry_Int_Tables_number   1
_chemical_formula_structural   ErTm2MgCd2Ga3
_chemical_formula_sum   'Er1 Tm2 Mg1 Cd2 Ga3'
_cell_volume   197.28271940
_cell_formula_units_Z   1
loop_
 _symmetry_equiv_pos_site_id
 _symmetry_equiv_pos_as_xyz
  1  'x, y, z'
loop_
 _atom_site_type_symbol
 _atom_site_label
 _atom_site_symmetry_multiplicity
 _atom_site_fract_x
 _atom_site_fract_y
 _atom_site_fract_z
 _atom_site_occupancy
  Er  Er0  1  0.999259  0.570918  0.000000  1
  Tm  Tm1  1  0.428362  0.428892  0.000000  1
  Tm  Tm2  1  0.573776  0.999937  0.000000  1
  Mg  Mg3  1  0.241279  0.000086  0.500000  1
  Cd  Cd4  1  0.001380  0.248498  0.500000  1
  Cd  Cd5  1  0.752684  0.751381  0.500000  1
  Ga  Ga6  1  0.663102  0.328648  0.500000  1
  Ga  Ga7  1  0.334963  0.671383  0.500000  1
  Ga  Ga8  1  0.005196  0.000257  0.000000  1
