# generated using pymatgen
data_Na4HoBiO6
_symmetry_space_group_name_H-M   'P 1'
_cell_length_a   5.84770363
_cell_length_b   5.84768658
_cell_length_c   5.92174481
_cell_angle_alpha   99.31636031
_cell_angle_beta   99.31704992
_cell_angle_gamma   120.10660824
_symmetry_Int_Tables_number   1
_chemical_formula_structural   Na4HoBiO6
_chemical_formula_sum   'Na4 Ho1 Bi1 O6'
_cell_volume   165.71104312
_cell_formula_units_Z   1
loop_
 _symmetry_equiv_pos_site_id
 _symmetry_equiv_pos_as_xyz
  1  'x, y, z'
loop_
 _atom_site_type_symbol
 _atom_site_label
 _atom_site_symmetry_multiplicity
 _atom_site_fract_x
 _atom_site_fract_y
 _atom_site_fract_z
 _atom_site_occupancy
  Na  Na0  1  0.499467  0.500525  0.000005  1
  Na  Na1  1  0.011784  0.988244  0.500004  1
  Na  Na2  1  0.656412  0.343596  0.500004  1
  Na  Na3  1  0.336201  0.663783  0.499992  1
  Ho  Ho4  1  0.833072  0.166917  0.999996  1
  Bi  Bi5  1  0.166884  0.833132  0.000003  1
  O  O6  1  0.941004  0.584991  0.216594  1
  O  O7  1  0.556486  0.929570  0.220400  1
  O  O8  1  0.214835  0.201575  0.220168  1
  O  O9  1  0.798425  0.785161  0.779825  1
  O  O10  1  0.070433  0.443515  0.779608  1
  O  O11  1  0.415001  0.058997  0.783405  1
