# generated using pymatgen
data_Tb3ScRuC6
_symmetry_space_group_name_H-M   'P 1'
_cell_length_a   8.48494200
_cell_length_b   8.48494132
_cell_length_c   5.15471500
_cell_angle_alpha   90.00000000
_cell_angle_beta   90.00000000
_cell_angle_gamma   120.00000314
_symmetry_Int_Tables_number   1
_chemical_formula_structural   Tb3ScRuC6
_chemical_formula_sum   'Tb6 Sc2 Ru2 C12'
_cell_volume   321.39047211
_cell_formula_units_Z   2
loop_
 _symmetry_equiv_pos_site_id
 _symmetry_equiv_pos_as_xyz
  1  'x, y, z'
loop_
 _atom_site_type_symbol
 _atom_site_label
 _atom_site_symmetry_multiplicity
 _atom_site_fract_x
 _atom_site_fract_y
 _atom_site_fract_z
 _atom_site_occupancy
  Tb  Tb0  1  0.624720  0.675529  0.750000  1
  Tb  Tb1  1  0.949191  0.624720  0.250000  1
  Tb  Tb2  1  0.675529  0.050809  0.250000  1
  Tb  Tb3  1  0.324471  0.949191  0.750000  1
  Tb  Tb4  1  0.050809  0.375280  0.750000  1
  Tb  Tb5  1  0.375280  0.324471  0.250000  1
  Sc  Sc6  1  0.000000  0.000000  0.500000  1
  Sc  Sc7  1  0.000000  0.000000  0.000000  1
  Ru  Ru8  1  0.666667  0.333333  0.750000  1
  Ru  Ru9  1  0.333333  0.666667  0.250000  1
  C  C10  1  0.969398  0.758350  0.750000  1
  C  C11  1  0.211049  0.969398  0.250000  1
  C  C12  1  0.758350  0.788951  0.250000  1
  C  C13  1  0.241650  0.211049  0.750000  1
  C  C14  1  0.788951  0.030602  0.750000  1
  C  C15  1  0.030602  0.241650  0.250000  1
  C  C16  1  0.874752  0.574757  0.750000  1
  C  C17  1  0.299995  0.874752  0.250000  1
  C  C18  1  0.574757  0.700005  0.250000  1
  C  C19  1  0.425243  0.299995  0.750000  1
  C  C20  1  0.125248  0.425243  0.250000  1
  C  C21  1  0.700005  0.125248  0.750000  1
