# generated using pymatgen
data_Nd3CrFeC6
_symmetry_space_group_name_H-M   'P 1'
_cell_length_a   8.24504800
_cell_length_b   8.24504748
_cell_length_c   5.18360800
_cell_angle_alpha   90.00000000
_cell_angle_beta   90.00000000
_cell_angle_gamma   119.99999406
_symmetry_Int_Tables_number   1
_chemical_formula_structural   Nd3CrFeC6
_chemical_formula_sum   'Nd6 Cr2 Fe2 C12'
_cell_volume   305.17514412
_cell_formula_units_Z   2
loop_
 _symmetry_equiv_pos_site_id
 _symmetry_equiv_pos_as_xyz
  1  'x, y, z'
loop_
 _atom_site_type_symbol
 _atom_site_label
 _atom_site_symmetry_multiplicity
 _atom_site_fract_x
 _atom_site_fract_y
 _atom_site_fract_z
 _atom_site_occupancy
  Nd  Nd0  1  0.615571  0.683831  0.750000  1
  Nd  Nd1  1  0.931740  0.615571  0.250000  1
  Nd  Nd2  1  0.683831  0.068260  0.250000  1
  Nd  Nd3  1  0.316169  0.931740  0.750000  1
  Nd  Nd4  1  0.068260  0.384429  0.750000  1
  Nd  Nd5  1  0.384429  0.316169  0.250000  1
  Cr  Cr6  1  0.000000  0.000000  0.500000  1
  Cr  Cr7  1  0.000000  0.000000  0.000000  1
  Fe  Fe8  1  0.666667  0.333333  0.750000  1
  Fe  Fe9  1  0.333333  0.666667  0.250000  1
  C  C10  1  0.954405  0.768443  0.750000  1
  C  C11  1  0.185962  0.954405  0.250000  1
  C  C12  1  0.768443  0.814038  0.250000  1
  C  C13  1  0.231557  0.185962  0.750000  1
  C  C14  1  0.814038  0.045595  0.750000  1
  C  C15  1  0.045595  0.231557  0.250000  1
  C  C16  1  0.861981  0.577048  0.750000  1
  C  C17  1  0.284932  0.861981  0.250000  1
  C  C18  1  0.577048  0.715068  0.250000  1
  C  C19  1  0.422952  0.284932  0.750000  1
  C  C20  1  0.138019  0.422952  0.250000  1
  C  C21  1  0.715068  0.138019  0.750000  1
