# generated using pymatgen
data_La4Mg3Cd(SnH)4
_symmetry_space_group_name_H-M   'P 1'
_cell_length_a   4.57465000
_cell_length_b   8.21606945
_cell_length_c   9.15328938
_cell_angle_alpha   89.64402010
_cell_angle_beta   90.00000000
_cell_angle_gamma   90.00000000
_symmetry_Int_Tables_number   1
_chemical_formula_structural   La4Mg3Cd(SnH)4
_chemical_formula_sum   'La4 Mg3 Cd1 Sn4 H4'
_cell_volume   344.02561880
_cell_formula_units_Z   1
loop_
 _symmetry_equiv_pos_site_id
 _symmetry_equiv_pos_as_xyz
  1  'x, y, z'
loop_
 _atom_site_type_symbol
 _atom_site_label
 _atom_site_symmetry_multiplicity
 _atom_site_fract_x
 _atom_site_fract_y
 _atom_site_fract_z
 _atom_site_occupancy
  La  La0  1  0.750000  0.488234  0.830433  1
  La  La1  1  0.250000  0.511564  0.172554  1
  La  La2  1  0.250000  0.013259  0.328024  1
  La  La3  1  0.750000  0.989866  0.670706  1
  Mg  Mg4  1  0.250000  0.673871  0.575340  1
  Mg  Mg5  1  0.250000  0.169916  0.926331  1
  Mg  Mg6  1  0.750000  0.829290  0.073960  1
  Cd  Cd7  1  0.750000  0.340485  0.422415  1
  Sn  Sn8  1  0.750000  0.199441  0.111725  1
  Sn  Sn9  1  0.250000  0.799240  0.886713  1
  Sn  Sn10  1  0.250000  0.302033  0.615495  1
  Sn  Sn11  1  0.750000  0.705106  0.385494  1
  H  H12  1  0.250000  0.932754  0.573768  1
  H  H13  1  0.750000  0.045904  0.423706  1
  H  H14  1  0.750000  0.569023  0.075314  1
  H  H15  1  0.250000  0.430013  0.928023  1
