# generated using pymatgen
data_Sr6SbRh4O15
_symmetry_space_group_name_H-M   'P 1'
_cell_length_a   7.22399511
_cell_length_b   7.22399461
_cell_length_c   7.22399631
_cell_angle_alpha   84.50585335
_cell_angle_beta   84.50585624
_cell_angle_gamma   84.50585860
_symmetry_Int_Tables_number   1
_chemical_formula_structural   Sr6SbRh4O15
_chemical_formula_sum   'Sr6 Sb1 Rh4 O15'
_cell_volume   372.10765595
_cell_formula_units_Z   1
loop_
 _symmetry_equiv_pos_site_id
 _symmetry_equiv_pos_as_xyz
  1  'x, y, z'
loop_
 _atom_site_type_symbol
 _atom_site_label
 _atom_site_symmetry_multiplicity
 _atom_site_fract_x
 _atom_site_fract_y
 _atom_site_fract_z
 _atom_site_occupancy
  Sr  Sr0  1  0.319562  0.680438  0.000000  1
  Sr  Sr1  1  0.680438  0.000000  0.319562  1
  Sr  Sr2  1  0.000000  0.319562  0.680438  1
  Sr  Sr3  1  0.134088  0.865912  0.500000  1
  Sr  Sr4  1  0.865912  0.500000  0.134088  1
  Sr  Sr5  1  0.500000  0.134088  0.865912  1
  Sb  Sb6  1  0.500000  0.500000  0.500000  1
  Rh  Rh7  1  0.903582  0.903582  0.903582  1
  Rh  Rh8  1  0.096418  0.096418  0.096418  1
  Rh  Rh9  1  0.705058  0.705058  0.705058  1
  Rh  Rh10  1  0.294942  0.294942  0.294942  1
  O  O11  1  0.265985  0.570407  0.361658  1
  O  O12  1  0.361658  0.265985  0.570407  1
  O  O13  1  0.570407  0.361658  0.265985  1
  O  O14  1  0.734015  0.638342  0.429593  1
  O  O15  1  0.429593  0.734015  0.638342  1
  O  O16  1  0.638342  0.429593  0.734015  1
  O  O17  1  0.000000  0.835243  0.164757  1
  O  O18  1  0.164757  0.000000  0.835243  1
  O  O19  1  0.835243  0.164757  0.000000  1
  O  O20  1  0.349035  0.023985  0.210709  1
  O  O21  1  0.210709  0.349035  0.023985  1
  O  O22  1  0.789291  0.976015  0.650965  1
  O  O23  1  0.976015  0.650965  0.789291  1
  O  O24  1  0.650965  0.789291  0.976015  1
  O  O25  1  0.023985  0.210709  0.349035  1
