# generated using pymatgen
data_TbNd8Y11Si16
_symmetry_space_group_name_H-M   'P 1'
_cell_length_a   7.76839005
_cell_length_b   7.76874607
_cell_length_c   14.52882622
_cell_angle_alpha   90.01498219
_cell_angle_beta   90.01301572
_cell_angle_gamma   89.99747678
_symmetry_Int_Tables_number   1
_chemical_formula_structural   TbNd8Y11Si16
_chemical_formula_sum   'Tb1 Nd8 Y11 Si16'
_cell_volume   876.82404779
_cell_formula_units_Z   1
loop_
 _symmetry_equiv_pos_site_id
 _symmetry_equiv_pos_as_xyz
  1  'x, y, z'
loop_
 _atom_site_type_symbol
 _atom_site_label
 _atom_site_symmetry_multiplicity
 _atom_site_fract_x
 _atom_site_fract_y
 _atom_site_fract_z
 _atom_site_occupancy
  Tb  Tb0  1  0.487416  0.365569  0.125009  1
  Nd  Nd1  1  0.633942  0.989785  0.454404  1
  Nd  Nd2  1  0.366045  0.010247  0.954396  1
  Nd  Nd3  1  0.989803  0.633948  0.545612  1
  Nd  Nd4  1  0.489769  0.866067  0.204405  1
  Nd  Nd5  1  0.510230  0.133936  0.704376  1
  Nd  Nd6  1  0.866068  0.489744  0.795606  1
  Nd  Nd7  1  0.133955  0.510241  0.295631  1
  Nd  Nd8  1  0.010181  0.366061  0.045578  1
  Y  Y9  1  0.987405  0.134564  0.624965  1
  Y  Y10  1  0.865446  0.012552  0.874988  1
  Y  Y11  1  0.134488  0.987381  0.375047  1
  Y  Y12  1  0.512572  0.634540  0.625014  1
  Y  Y13  1  0.365415  0.487418  0.874933  1
  Y  Y14  1  0.634571  0.512596  0.374972  1
  Y  Y15  1  0.012731  0.865429  0.124988  1
  Y  Y16  1  0.313910  0.313899  0.500005  1
  Y  Y17  1  0.186101  0.813926  0.749994  1
  Y  Y18  1  0.813868  0.186136  0.249982  1
  Y  Y19  1  0.686085  0.686130  0.000018  1
  Si  Si20  1  0.287490  0.930430  0.561375  1
  Si  Si21  1  0.712566  0.069493  0.061329  1
  Si  Si22  1  0.930462  0.287493  0.438630  1
  Si  Si23  1  0.430432  0.212367  0.311474  1
  Si  Si24  1  0.569534  0.787539  0.811358  1
  Si  Si25  1  0.212479  0.430446  0.688641  1
  Si  Si26  1  0.787559  0.569619  0.188680  1
  Si  Si27  1  0.069540  0.712558  0.938618  1
  Si  Si28  1  0.801599  0.839322  0.694120  1
  Si  Si29  1  0.198339  0.160546  0.194197  1
  Si  Si30  1  0.839319  0.801512  0.305873  1
  Si  Si31  1  0.339289  0.698436  0.444135  1
  Si  Si32  1  0.660809  0.301550  0.944072  1
  Si  Si33  1  0.698449  0.339312  0.555897  1
  Si  Si34  1  0.301440  0.660769  0.055806  1
  Si  Si35  1  0.160697  0.198439  0.805873  1
