# generated using pymatgen
data_Tb2Gd7Mg(SiB4)4
_symmetry_space_group_name_H-M   'P 1'
_cell_length_a   7.22333012
_cell_length_b   7.22344410
_cell_length_c   8.11674008
_cell_angle_alpha   90.01658564
_cell_angle_beta   89.99532444
_cell_angle_gamma   89.99468656
_symmetry_Int_Tables_number   1
_chemical_formula_structural   Tb2Gd7Mg(SiB4)4
_chemical_formula_sum   'Tb2 Gd7 Mg1 Si4 B16'
_cell_volume   423.50973384
_cell_formula_units_Z   1
loop_
 _symmetry_equiv_pos_site_id
 _symmetry_equiv_pos_as_xyz
  1  'x, y, z'
loop_
 _atom_site_type_symbol
 _atom_site_label
 _atom_site_symmetry_multiplicity
 _atom_site_fract_x
 _atom_site_fract_y
 _atom_site_fract_z
 _atom_site_occupancy
  Tb  Tb0  1  0.180078  0.317242  0.227812  1
  Tb  Tb1  1  0.500043  0.499923  0.499934  1
  Gd  Gd2  1  0.682884  0.180227  0.229694  1
  Gd  Gd3  1  0.317068  0.819941  0.770494  1
  Gd  Gd4  1  0.316906  0.819830  0.229650  1
  Gd  Gd5  1  0.820044  0.683068  0.229569  1
  Gd  Gd6  1  0.819912  0.683009  0.770624  1
  Gd  Gd7  1  0.682939  0.179981  0.770525  1
  Gd  Gd8  1  0.180050  0.316792  0.770401  1
  Mg  Mg9  1  0.000118  0.000069  0.499724  1
  Si  Si10  1  0.113957  0.616585  0.499615  1
  Si  Si11  1  0.886636  0.382748  0.499501  1
  Si  Si12  1  0.382457  0.114034  0.499938  1
  Si  Si13  1  0.616741  0.886602  0.499760  1
  B  B14  1  0.174383  0.038938  0.000140  1
  B  B15  1  0.825763  0.961114  0.000271  1
  B  B16  1  0.961267  0.174352  0.000132  1
  B  B17  1  0.327225  0.539880  0.999974  1
  B  B18  1  0.038896  0.825725  0.000203  1
  B  B19  1  0.672693  0.460070  0.000222  1
  B  B20  1  0.539809  0.672694  0.000299  1
  B  B21  1  0.459971  0.327242  0.000107  1
  B  B22  1  0.089843  0.588852  0.000188  1
  B  B23  1  0.910223  0.411032  0.000244  1
  B  B24  1  0.411050  0.089894  0.000004  1
  B  B25  1  0.588905  0.910188  0.000112  1
  B  B26  1  0.000086  0.999960  0.155827  1
  B  B27  1  0.000052  0.000099  0.844568  1
  B  B28  1  0.500107  0.499955  0.840379  1
  B  B29  1  0.499892  0.499956  0.160092  1
