# generated using pymatgen
data_Cs3Ti2Br9
_symmetry_space_group_name_H-M   'P 1'
_cell_length_a   7.87051462
_cell_length_b   7.86754581
_cell_length_c   19.30642800
_cell_angle_alpha   90.00000000
_cell_angle_beta   90.00000000
_cell_angle_gamma   120.23342007
_symmetry_Int_Tables_number   1
_chemical_formula_structural   Cs3Ti2Br9
_chemical_formula_sum   'Cs6 Ti4 Br18'
_cell_volume   1032.87711891
_cell_formula_units_Z   2
loop_
 _symmetry_equiv_pos_site_id
 _symmetry_equiv_pos_as_xyz
  1  'x, y, z'
loop_
 _atom_site_type_symbol
 _atom_site_label
 _atom_site_symmetry_multiplicity
 _atom_site_fract_x
 _atom_site_fract_y
 _atom_site_fract_z
 _atom_site_occupancy
  Cs  Cs0  1  0.666699  0.333321  0.926425  1
  Cs  Cs1  1  0.333301  0.666679  0.426425  1
  Cs  Cs2  1  0.999952  0.000075  0.250000  1
  Cs  Cs3  1  0.333301  0.666679  0.073575  1
  Cs  Cs4  1  0.000048  0.999925  0.750000  1
  Cs  Cs5  1  0.666699  0.333321  0.573575  1
  Ti  Ti6  1  0.333678  0.666085  0.665545  1
  Ti  Ti7  1  0.666322  0.333915  0.165545  1
  Ti  Ti8  1  0.333678  0.666085  0.834455  1
  Ti  Ti9  1  0.666322  0.333915  0.334455  1
  Br  Br10  1  0.489251  0.510863  0.750000  1
  Br  Br11  1  0.510749  0.489137  0.250000  1
  Br  Br12  1  0.178002  0.356116  0.906292  1
  Br  Br13  1  0.355922  0.177948  0.406312  1
  Br  Br14  1  0.644078  0.822052  0.906312  1
  Br  Br15  1  0.977956  0.488608  0.250000  1
  Br  Br16  1  0.488647  0.977861  0.750000  1
  Br  Br17  1  0.022044  0.511392  0.750000  1
  Br  Br18  1  0.822343  0.177687  0.406383  1
  Br  Br19  1  0.821998  0.643884  0.406292  1
  Br  Br20  1  0.178002  0.356116  0.593708  1
  Br  Br21  1  0.177657  0.822313  0.593617  1
  Br  Br22  1  0.355922  0.177948  0.093688  1
  Br  Br23  1  0.644078  0.822052  0.593688  1
  Br  Br24  1  0.511353  0.022139  0.250000  1
  Br  Br25  1  0.177657  0.822313  0.906383  1
  Br  Br26  1  0.821998  0.643884  0.093708  1
  Br  Br27  1  0.822343  0.177687  0.093617  1
