# generated using pymatgen
data_NdMoN2
_symmetry_space_group_name_H-M   'P 1'
_cell_length_a   3.32569900
_cell_length_b   5.88583400
_cell_length_c   10.82377100
_cell_angle_alpha   90.00000000
_cell_angle_beta   90.00000000
_cell_angle_gamma   90.00000000
_symmetry_Int_Tables_number   1
_chemical_formula_structural   NdMoN2
_chemical_formula_sum   'Nd4 Mo4 N8'
_cell_volume   211.87003801
_cell_formula_units_Z   4
loop_
 _symmetry_equiv_pos_site_id
 _symmetry_equiv_pos_as_xyz
  1  'x, y, z'
loop_
 _atom_site_type_symbol
 _atom_site_label
 _atom_site_symmetry_multiplicity
 _atom_site_fract_x
 _atom_site_fract_y
 _atom_site_fract_z
 _atom_site_occupancy
  Nd  Nd0  1  0.250000  0.580028  0.854604  1
  Nd  Nd1  1  0.750000  0.419972  0.145396  1
  Nd  Nd2  1  0.750000  0.919972  0.354604  1
  Nd  Nd3  1  0.250000  0.080028  0.645396  1
  Mo  Mo4  1  0.250000  0.938164  0.092088  1
  Mo  Mo5  1  0.750000  0.061836  0.907912  1
  Mo  Mo6  1  0.750000  0.561836  0.592088  1
  Mo  Mo7  1  0.250000  0.438164  0.407912  1
  N  N8  1  0.250000  0.660793  0.254702  1
  N  N9  1  0.750000  0.339207  0.745298  1
  N  N10  1  0.750000  0.839207  0.754702  1
  N  N11  1  0.250000  0.160793  0.245298  1
  N  N12  1  0.250000  0.742793  0.511941  1
  N  N13  1  0.750000  0.257207  0.488059  1
  N  N14  1  0.750000  0.757207  0.011941  1
  N  N15  1  0.250000  0.242793  0.988059  1
