# generated using pymatgen
data_Fe2CuI9
_symmetry_space_group_name_H-M   'P 1'
_cell_length_a   8.22644998
_cell_length_b   8.38595460
_cell_length_c   18.29785203
_cell_angle_alpha   84.88826033
_cell_angle_beta   90.96630339
_cell_angle_gamma   75.29421221
_symmetry_Int_Tables_number   1
_chemical_formula_structural   Fe2CuI9
_chemical_formula_sum   'Fe4 Cu2 I18'
_cell_volume   1215.07909207
_cell_formula_units_Z   2
loop_
 _symmetry_equiv_pos_site_id
 _symmetry_equiv_pos_as_xyz
  1  'x, y, z'
loop_
 _atom_site_type_symbol
 _atom_site_label
 _atom_site_symmetry_multiplicity
 _atom_site_fract_x
 _atom_site_fract_y
 _atom_site_fract_z
 _atom_site_occupancy
  Fe  Fe0  1  0.112031  0.711061  0.569365  1
  Fe  Fe1  1  0.887969  0.288939  0.430635  1
  Fe  Fe2  1  0.715046  0.302278  0.876707  1
  Fe  Fe3  1  0.284954  0.697722  0.123293  1
  Cu  Cu4  1  0.093396  0.220853  0.566135  1
  Cu  Cu5  1  0.906604  0.779147  0.433865  1
  I  I6  1  0.531052  0.868264  0.841332  1
  I  I7  1  0.468948  0.131736  0.158668  1
  I  I8  1  0.212120  0.422766  0.642577  1
  I  I9  1  0.787880  0.577234  0.357423  1
  I  I10  1  0.632285  0.554668  0.775275  1
  I  I11  1  0.367715  0.445332  0.224725  1
  I  I12  1  0.220433  0.922624  0.637371  1
  I  I13  1  0.779567  0.077376  0.362629  1
  I  I14  1  0.931840  0.100105  0.815223  1
  I  I15  1  0.068160  0.899895  0.184777  1
  I  I16  1  0.189737  0.623298  0.004106  1
  I  I17  1  0.810263  0.376702  0.995894  1
  I  I18  1  0.767859  0.298641  0.559995  1
  I  I19  1  0.232141  0.701359  0.440005  1
  I  I20  1  0.788588  0.791201  0.564172  1
  I  I21  1  0.211412  0.208799  0.435828  1
  I  I22  1  0.444932  0.192684  0.900350  1
  I  I23  1  0.555068  0.807316  0.099650  1
