# generated using pymatgen
data_DyHo9Ga2(SiB8)2
_symmetry_space_group_name_H-M   'P 1'
_cell_length_a   7.22518226
_cell_length_b   7.22518143
_cell_length_c   8.10928700
_cell_angle_alpha   90.00218846
_cell_angle_beta   90.00218978
_cell_angle_gamma   89.66798460
_symmetry_Int_Tables_number   1
_chemical_formula_structural   DyHo9Ga2(SiB8)2
_chemical_formula_sum   'Dy1 Ho9 Ga2 Si2 B16'
_cell_volume   423.32405007
_cell_formula_units_Z   1
loop_
 _symmetry_equiv_pos_site_id
 _symmetry_equiv_pos_as_xyz
  1  'x, y, z'
loop_
 _atom_site_type_symbol
 _atom_site_label
 _atom_site_symmetry_multiplicity
 _atom_site_fract_x
 _atom_site_fract_y
 _atom_site_fract_z
 _atom_site_occupancy
  Dy  Dy0  1  0.679266  0.179266  0.775751  1
  Ho  Ho1  1  0.679241  0.179241  0.223623  1
  Ho  Ho2  1  0.320680  0.820680  0.776476  1
  Ho  Ho3  1  0.320726  0.820726  0.223553  1
  Ho  Ho4  1  0.815621  0.684405  0.218848  1
  Ho  Ho5  1  0.815648  0.684356  0.781173  1
  Ho  Ho6  1  0.184356  0.315648  0.781173  1
  Ho  Ho7  1  0.184405  0.315621  0.218848  1
  Ho  Ho8  1  0.000099  0.999920  0.499926  1
  Ho  Ho9  1  0.499920  0.500099  0.499926  1
  Ga  Ga10  1  0.117656  0.617656  0.499977  1
  Ga  Ga11  1  0.882597  0.382597  0.499698  1
  Si  Si12  1  0.383787  0.115989  0.499794  1
  Si  Si13  1  0.615989  0.883787  0.499794  1
  B  B14  1  0.171977  0.039181  0.000081  1
  B  B15  1  0.828142  0.960655  0.000125  1
  B  B16  1  0.959613  0.172169  0.000090  1
  B  B17  1  0.327720  0.540555  0.000062  1
  B  B18  1  0.040555  0.827720  0.000062  1
  B  B19  1  0.672169  0.459613  0.000090  1
  B  B20  1  0.539181  0.671977  0.000081  1
  B  B21  1  0.460655  0.328142  0.000125  1
  B  B22  1  0.090450  0.590450  0.000030  1
  B  B23  1  0.909572  0.409572  0.000015  1
  B  B24  1  0.408627  0.091253  0.000173  1
  B  B25  1  0.591253  0.908627  0.000173  1
  B  B26  1  0.000014  0.999965  0.162862  1
  B  B27  1  0.000258  0.999857  0.837305  1
  B  B28  1  0.499857  0.500258  0.837305  1
  B  B29  1  0.499965  0.500014  0.162862  1
