# generated using pymatgen
data_Y7Tm3(AlSb)3
_symmetry_space_group_name_H-M   'P 1'
_cell_length_a   8.82586946
_cell_length_b   8.84145158
_cell_length_c   6.46317504
_cell_angle_alpha   90.00564879
_cell_angle_beta   89.98660510
_cell_angle_gamma   120.12101515
_symmetry_Int_Tables_number   1
_chemical_formula_structural   Y7Tm3(AlSb)3
_chemical_formula_sum   'Y7 Tm3 Al3 Sb3'
_cell_volume   436.24124743
_cell_formula_units_Z   1
loop_
 _symmetry_equiv_pos_site_id
 _symmetry_equiv_pos_as_xyz
  1  'x, y, z'
loop_
 _atom_site_type_symbol
 _atom_site_label
 _atom_site_symmetry_multiplicity
 _atom_site_fract_x
 _atom_site_fract_y
 _atom_site_fract_z
 _atom_site_occupancy
  Y  Y0  1  0.333139  0.677965  0.002113  1
  Y  Y1  1  0.235295  0.990920  0.250832  1
  Y  Y2  1  0.758506  0.000760  0.749559  1
  Y  Y3  1  0.989321  0.235506  0.250126  1
  Y  Y4  1  0.762288  0.762590  0.250305  1
  Y  Y5  1  0.245400  0.234942  0.749824  1
  Y  Y6  1  0.010284  0.767762  0.749331  1
  Tm  Tm7  1  0.666714  0.326369  0.497498  1
  Tm  Tm8  1  0.666672  0.325606  0.002616  1
  Tm  Tm9  1  0.332975  0.679102  0.497496  1
  Al  Al10  1  0.598715  0.000049  0.251338  1
  Al  Al11  1  0.405743  0.004387  0.748678  1
  Al  Al12  1  0.993827  0.598515  0.251185  1
  Sb  Sb13  1  0.388537  0.391403  0.251025  1
  Sb  Sb14  1  0.609839  0.606918  0.749168  1
  Sb  Sb15  1  0.002745  0.397203  0.748907  1
