# generated using pymatgen
data_Y2Ho2Zn10SiSn
_symmetry_space_group_name_H-M   'P 1'
_cell_length_a   8.25725874
_cell_length_b   8.25725955
_cell_length_c   8.86401000
_cell_angle_alpha   90.00000000
_cell_angle_beta   90.00000000
_cell_angle_gamma   149.67366878
_symmetry_Int_Tables_number   1
_chemical_formula_structural   Y2Ho2Zn10SiSn
_chemical_formula_sum   'Y2 Ho2 Zn10 Si1 Sn1'
_cell_volume   305.16054989
_cell_formula_units_Z   1
loop_
 _symmetry_equiv_pos_site_id
 _symmetry_equiv_pos_as_xyz
  1  'x, y, z'
loop_
 _atom_site_type_symbol
 _atom_site_label
 _atom_site_symmetry_multiplicity
 _atom_site_fract_x
 _atom_site_fract_y
 _atom_site_fract_z
 _atom_site_occupancy
  Y  Y0  1  0.000498  0.999502  0.482687  1
  Y  Y1  1  0.000498  0.999502  0.017313  1
  Ho  Ho2  1  0.198623  0.801377  0.250000  1
  Ho  Ho3  1  0.797955  0.202045  0.750000  1
  Zn  Zn4  1  0.811741  0.188259  0.391009  1
  Zn  Zn5  1  0.187181  0.812819  0.605884  1
  Zn  Zn6  1  0.811741  0.188259  0.108991  1
  Zn  Zn7  1  0.187181  0.812819  0.894116  1
  Zn  Zn8  1  0.649013  0.350987  0.472528  1
  Zn  Zn9  1  0.345148  0.654852  0.516965  1
  Zn  Zn10  1  0.649013  0.350987  0.027472  1
  Zn  Zn11  1  0.345148  0.654852  0.983035  1
  Zn  Zn12  1  0.402201  0.597799  0.250000  1
  Zn  Zn13  1  0.610064  0.389936  0.750000  1
  Si  Si14  1  0.555624  0.444376  0.250000  1
  Sn  Sn15  1  0.448373  0.551627  0.750000  1
