# generated using pymatgen
data_Tb2Al2IrPd
_symmetry_space_group_name_H-M   'P 1'
_cell_length_a   4.37416200
_cell_length_b   6.88159844
_cell_length_c   7.88041318
_cell_angle_alpha   90.15574446
_cell_angle_beta   90.00000000
_cell_angle_gamma   90.00000000
_symmetry_Int_Tables_number   1
_chemical_formula_structural   Tb2Al2IrPd
_chemical_formula_sum   'Tb4 Al4 Ir2 Pd2'
_cell_volume   237.20922495
_cell_formula_units_Z   2
loop_
 _symmetry_equiv_pos_site_id
 _symmetry_equiv_pos_as_xyz
  1  'x, y, z'
loop_
 _atom_site_type_symbol
 _atom_site_label
 _atom_site_symmetry_multiplicity
 _atom_site_fract_x
 _atom_site_fract_y
 _atom_site_fract_z
 _atom_site_occupancy
  Tb  Tb0  1  0.250000  0.535889  0.815667  1
  Tb  Tb1  1  0.750000  0.464111  0.184333  1
  Tb  Tb2  1  0.250000  0.027639  0.677490  1
  Tb  Tb3  1  0.750000  0.972361  0.322510  1
  Al  Al4  1  0.250000  0.638104  0.440087  1
  Al  Al5  1  0.750000  0.361896  0.559913  1
  Al  Al6  1  0.250000  0.144410  0.064532  1
  Al  Al7  1  0.750000  0.855590  0.935468  1
  Ir  Ir8  1  0.750000  0.731162  0.619375  1
  Ir  Ir9  1  0.250000  0.268838  0.380625  1
  Pd  Pd10  1  0.750000  0.227252  0.881915  1
  Pd  Pd11  1  0.250000  0.772748  0.118085  1
