# generated using pymatgen
data_IrRhO4
_symmetry_space_group_name_H-M   'P 1'
_cell_length_a   4.56056213
_cell_length_b   4.56056178
_cell_length_c   3.16072800
_cell_angle_alpha   90.00000000
_cell_angle_beta   90.00000000
_cell_angle_gamma   90.54743269
_symmetry_Int_Tables_number   1
_chemical_formula_structural   IrRhO4
_chemical_formula_sum   'Ir1 Rh1 O4'
_cell_volume   65.73611287
_cell_formula_units_Z   1
loop_
 _symmetry_equiv_pos_site_id
 _symmetry_equiv_pos_as_xyz
  1  'x, y, z'
loop_
 _atom_site_type_symbol
 _atom_site_label
 _atom_site_symmetry_multiplicity
 _atom_site_fract_x
 _atom_site_fract_y
 _atom_site_fract_z
 _atom_site_occupancy
  Ir  Ir0  1  0.500000  0.500000  0.000000  1
  Rh  Rh1  1  0.000000  0.000000  0.500000  1
  O  O2  1  0.803783  0.803783  0.000000  1
  O  O3  1  0.689409  0.310592  0.500000  1
  O  O4  1  0.196217  0.196217  0.000000  1
  O  O5  1  0.310591  0.689409  0.500000  1
