# generated using pymatgen
data_Dy12Ho4MgHg3Rh4
_symmetry_space_group_name_H-M   'P 1'
_cell_length_a   9.59431249
_cell_length_b   9.59130291
_cell_length_c   9.59130300
_cell_angle_alpha   59.99999624
_cell_angle_beta   60.01037228
_cell_angle_gamma   60.01037103
_symmetry_Int_Tables_number   1
_chemical_formula_structural   Dy12Ho4MgHg3Rh4
_chemical_formula_sum   'Dy12 Ho4 Mg1 Hg3 Rh4'
_cell_volume   624.19765499
_cell_formula_units_Z   1
loop_
 _symmetry_equiv_pos_site_id
 _symmetry_equiv_pos_as_xyz
  1  'x, y, z'
loop_
 _atom_site_type_symbol
 _atom_site_label
 _atom_site_symmetry_multiplicity
 _atom_site_fract_x
 _atom_site_fract_y
 _atom_site_fract_z
 _atom_site_occupancy
  Dy  Dy0  1  0.810408  0.189560  0.189560  1
  Dy  Dy1  1  0.186198  0.813020  0.813020  1
  Dy  Dy2  1  0.186198  0.813020  0.187761  1
  Dy  Dy3  1  0.810408  0.189560  0.810473  1
  Dy  Dy4  1  0.186198  0.187761  0.813020  1
  Dy  Dy5  1  0.810408  0.810473  0.189560  1
  Dy  Dy6  1  0.934374  0.564261  0.564261  1
  Dy  Dy7  1  0.563261  0.936191  0.936191  1
  Dy  Dy8  1  0.563261  0.936191  0.564358  1
  Dy  Dy9  1  0.934374  0.564261  0.937104  1
  Dy  Dy10  1  0.563261  0.564358  0.936191  1
  Dy  Dy11  1  0.934374  0.937104  0.564261  1
  Ho  Ho12  1  0.351041  0.348770  0.348770  1
  Ho  Ho13  1  0.351041  0.348770  0.951418  1
  Ho  Ho14  1  0.351041  0.951418  0.348770  1
  Ho  Ho15  1  0.942497  0.352501  0.352501  1
  Mg  Mg16  1  0.282302  0.572566  0.572566  1
  Hg  Hg17  1  0.581221  0.585865  0.585865  1
  Hg  Hg18  1  0.581221  0.585865  0.247050  1
  Hg  Hg19  1  0.581221  0.247050  0.585865  1
  Rh  Rh20  1  0.141426  0.144097  0.144097  1
  Rh  Rh21  1  0.141426  0.144097  0.570380  1
  Rh  Rh22  1  0.141426  0.570380  0.144097  1
  Rh  Rh23  1  0.571419  0.142860  0.142860  1
