# generated using pymatgen
data_Pa3Zn3Pd2Rh
_symmetry_space_group_name_H-M   'P 1'
_cell_length_a   7.24843500
_cell_length_b   7.24843575
_cell_length_c   3.90101300
_cell_angle_alpha   90.00000000
_cell_angle_beta   90.00000000
_cell_angle_gamma   119.99999202
_symmetry_Int_Tables_number   1
_chemical_formula_structural   Pa3Zn3Pd2Rh
_chemical_formula_sum   'Pa3 Zn3 Pd2 Rh1'
_cell_volume   177.49928440
_cell_formula_units_Z   1
loop_
 _symmetry_equiv_pos_site_id
 _symmetry_equiv_pos_as_xyz
  1  'x, y, z'
loop_
 _atom_site_type_symbol
 _atom_site_label
 _atom_site_symmetry_multiplicity
 _atom_site_fract_x
 _atom_site_fract_y
 _atom_site_fract_z
 _atom_site_occupancy
  Pa  Pa0  1  0.591144  0.583175  0.000000  1
  Pa  Pa1  1  0.416825  0.007967  0.000000  1
  Pa  Pa2  1  0.992033  0.408856  0.000000  1
  Zn  Zn3  1  0.247360  0.249513  0.500000  1
  Zn  Zn4  1  0.750487  0.997847  0.500000  1
  Zn  Zn5  1  0.002153  0.752640  0.500000  1
  Pd  Pd6  1  0.000000  0.000000  0.000000  1
  Pd  Pd7  1  0.333333  0.666667  0.500000  1
  Rh  Rh8  1  0.666667  0.333333  0.500000  1
