# generated using pymatgen
data_CeNd3Er4(ReB6)4
_symmetry_space_group_name_H-M   'P 1'
_cell_length_a   3.71749900
_cell_length_b   9.21328210
_cell_length_c   11.65210739
_cell_angle_alpha   89.94396930
_cell_angle_beta   90.00000000
_cell_angle_gamma   90.00000000
_symmetry_Int_Tables_number   1
_chemical_formula_structural   CeNd3Er4(ReB6)4
_chemical_formula_sum   'Ce1 Nd3 Er4 Re4 B24'
_cell_volume   399.08876368
_cell_formula_units_Z   1
loop_
 _symmetry_equiv_pos_site_id
 _symmetry_equiv_pos_as_xyz
  1  'x, y, z'
loop_
 _atom_site_type_symbol
 _atom_site_label
 _atom_site_symmetry_multiplicity
 _atom_site_fract_x
 _atom_site_fract_y
 _atom_site_fract_z
 _atom_site_occupancy
  Ce  Ce0  1  0.000000  0.176606  0.914289  1
  Nd  Nd1  1  0.000000  0.323104  0.414168  1
  Nd  Nd2  1  0.000000  0.677029  0.585714  1
  Nd  Nd3  1  0.000000  0.822544  0.085798  1
  Er  Er4  1  0.000000  0.943186  0.369071  1
  Er  Er5  1  0.000000  0.056938  0.630285  1
  Er  Er6  1  0.000000  0.443174  0.130257  1
  Er  Er7  1  0.000000  0.557078  0.869690  1
  Re  Re8  1  0.000000  0.639374  0.319260  1
  Re  Re9  1  0.000000  0.358829  0.682666  1
  Re  Re10  1  0.000000  0.139434  0.178525  1
  Re  Re11  1  0.000000  0.862623  0.820227  1
  B  B12  1  0.500000  0.554648  0.430711  1
  B  B13  1  0.500000  0.444509  0.570038  1
  B  B14  1  0.500000  0.056086  0.068015  1
  B  B15  1  0.500000  0.946759  0.930434  1
  B  B16  1  0.500000  0.750454  0.416113  1
  B  B17  1  0.500000  0.249675  0.584427  1
  B  B18  1  0.500000  0.250094  0.082188  1
  B  B19  1  0.500000  0.749975  0.915981  1
  B  B20  1  0.500000  0.791889  0.265869  1
  B  B21  1  0.500000  0.207710  0.735306  1
  B  B22  1  0.500000  0.291584  0.233250  1
  B  B23  1  0.500000  0.708604  0.766523  1
  B  B24  1  0.500000  0.629681  0.185871  1
  B  B25  1  0.500000  0.368646  0.815298  1
  B  B26  1  0.500000  0.129694  0.313406  1
  B  B27  1  0.500000  0.870538  0.686223  1
  B  B28  1  0.500000  0.984332  0.213220  1
  B  B29  1  0.500000  0.017002  0.787391  1
  B  B30  1  0.500000  0.483869  0.286422  1
  B  B31  1  0.500000  0.515344  0.713943  1
  B  B32  1  0.500000  0.597633  0.027005  1
  B  B33  1  0.500000  0.401262  0.972701  1
  B  B34  1  0.500000  0.096506  0.473121  1
  B  B35  1  0.500000  0.903589  0.526591  1
