# generated using pymatgen
data_Na3Tl2(AsO4)3
_symmetry_space_group_name_H-M   'P 1'
_cell_length_a   7.01137593
_cell_length_b   9.62761237
_cell_length_c   9.62761100
_cell_angle_alpha   89.68638246
_cell_angle_beta   106.88210503
_cell_angle_gamma   73.11789483
_symmetry_Int_Tables_number   1
_chemical_formula_structural   Na3Tl2(AsO4)3
_chemical_formula_sum   'Na6 Tl4 As6 O24'
_cell_volume   592.21371493
_cell_formula_units_Z   2
loop_
 _symmetry_equiv_pos_site_id
 _symmetry_equiv_pos_as_xyz
  1  'x, y, z'
loop_
 _atom_site_type_symbol
 _atom_site_label
 _atom_site_symmetry_multiplicity
 _atom_site_fract_x
 _atom_site_fract_y
 _atom_site_fract_z
 _atom_site_occupancy
  Na  Na0  1  0.249996  0.028391  0.028400  1
  Na  Na1  1  0.749994  0.272440  0.272446  1
  Na  Na2  1  0.500038  0.500049  0.500004  1
  Na  Na3  1  0.000047  0.499998  0.499965  1
  Na  Na4  1  0.249996  0.727566  0.727570  1
  Na  Na5  1  0.749995  0.971598  0.971609  1
  Tl  Tl6  1  0.159842  0.613927  0.077420  1
  Tl  Tl7  1  0.659839  0.922579  0.386069  1
  Tl  Tl8  1  0.340156  0.077417  0.613934  1
  Tl  Tl9  1  0.840158  0.386066  0.922581  1
  As  As10  1  0.636069  0.657925  0.138774  1
  As  As11  1  0.249999  0.272319  0.272323  1
  As  As12  1  0.136072  0.861212  0.342085  1
  As  As13  1  0.863925  0.138770  0.657927  1
  As  As14  1  0.750009  0.727681  0.727681  1
  As  As15  1  0.363929  0.342070  0.861232  1
  O  O16  1  0.408177  0.662684  0.002835  1
  O  O17  1  0.833911  0.590487  0.057443  1
  O  O18  1  0.032910  0.248781  0.145747  1
  O  O19  1  0.619253  0.840797  0.160082  1
  O  O20  1  0.119250  0.839917  0.159199  1
  O  O21  1  0.467087  0.145743  0.248775  1
  O  O22  1  0.295467  0.440443  0.266819  1
  O  O23  1  0.682217  0.555023  0.294727  1
  O  O24  1  0.908162  0.997171  0.337313  1
  O  O25  1  0.182209  0.705280  0.444969  1
  O  O26  1  0.333912  0.942555  0.409513  1
  O  O27  1  0.204529  0.266800  0.440436  1
  O  O28  1  0.795465  0.733183  0.559556  1
  O  O29  1  0.666096  0.057434  0.590498  1
  O  O30  1  0.817780  0.294727  0.555016  1
  O  O31  1  0.091816  0.002836  0.662688  1
  O  O32  1  0.317779  0.444989  0.705265  1
  O  O33  1  0.704531  0.559564  0.733198  1
  O  O34  1  0.532911  0.854253  0.751220  1
  O  O35  1  0.880743  0.160085  0.840798  1
  O  O36  1  0.380740  0.159204  0.839912  1
  O  O37  1  0.967089  0.751225  0.854255  1
  O  O38  1  0.166097  0.409502  0.942561  1
  O  O39  1  0.591814  0.337311  0.997158  1
