# generated using pymatgen
data_Er2Pu2Ge6Rh7
_symmetry_space_group_name_H-M   'P 1'
_cell_length_a   7.28183784
_cell_length_b   7.28843139
_cell_length_c   7.28843216
_cell_angle_alpha   109.53581235
_cell_angle_beta   109.45725360
_cell_angle_gamma   109.45725299
_symmetry_Int_Tables_number   1
_chemical_formula_structural   Er2Pu2Ge6Rh7
_chemical_formula_sum   'Er2 Pu2 Ge6 Rh7'
_cell_volume   297.63943044
_cell_formula_units_Z   1
loop_
 _symmetry_equiv_pos_site_id
 _symmetry_equiv_pos_as_xyz
  1  'x, y, z'
loop_
 _atom_site_type_symbol
 _atom_site_label
 _atom_site_symmetry_multiplicity
 _atom_site_fract_x
 _atom_site_fract_y
 _atom_site_fract_z
 _atom_site_occupancy
  Er  Er0  1  0.000000  0.000000  0.500000  1
  Er  Er1  1  0.000000  0.500000  0.000000  1
  Pu  Pu2  1  0.500000  0.000000  0.000000  1
  Pu  Pu3  1  0.500000  0.500000  0.500000  1
  Ge  Ge4  1  0.683665  0.681547  0.002118  1
  Ge  Ge5  1  0.316335  0.997882  0.318453  1
  Ge  Ge6  1  0.000000  0.320289  0.320289  1
  Ge  Ge7  1  0.316335  0.318453  0.997882  1
  Ge  Ge8  1  0.683665  0.002118  0.681547  1
  Ge  Ge9  1  0.000000  0.679711  0.679711  1
  Rh  Rh10  1  0.751702  0.249038  0.502664  1
  Rh  Rh11  1  0.751702  0.502664  0.249038  1
  Rh  Rh12  1  0.500000  0.250000  0.750000  1
  Rh  Rh13  1  0.248298  0.497336  0.750962  1
  Rh  Rh14  1  0.248298  0.750962  0.497336  1
  Rh  Rh15  1  0.500000  0.750000  0.250000  1
  Rh  Rh16  1  0.000000  0.000000  0.000000  1
