# generated using pymatgen
data_Hf4Fe3P6Ir5
_symmetry_space_group_name_H-M   'P 1'
_cell_length_a   12.54983132
_cell_length_b   12.64224427
_cell_length_c   3.77306500
_cell_angle_alpha   90.00000000
_cell_angle_beta   90.00000000
_cell_angle_gamma   120.07215552
_symmetry_Int_Tables_number   1
_chemical_formula_structural   Hf4Fe3P6Ir5
_chemical_formula_sum   'Hf8 Fe6 P12 Ir10'
_cell_volume   518.04889968
_cell_formula_units_Z   2
loop_
 _symmetry_equiv_pos_site_id
 _symmetry_equiv_pos_as_xyz
  1  'x, y, z'
loop_
 _atom_site_type_symbol
 _atom_site_label
 _atom_site_symmetry_multiplicity
 _atom_site_fract_x
 _atom_site_fract_y
 _atom_site_fract_z
 _atom_site_occupancy
  Hf  Hf0  1  0.812119  0.818465  0.500000  1
  Hf  Hf1  1  0.444982  0.437916  0.000000  1
  Hf  Hf2  1  0.998344  0.187089  0.500000  1
  Hf  Hf3  1  0.554236  0.992819  0.000000  1
  Hf  Hf4  1  0.341671  0.669829  0.000000  1
  Hf  Hf5  1  0.664280  0.329927  0.000000  1
  Hf  Hf6  1  0.999275  0.559596  0.000000  1
  Hf  Hf7  1  0.187076  0.009453  0.500000  1
  Fe  Fe8  1  0.629505  0.824547  0.000000  1
  Fe  Fe9  1  0.370039  0.195733  0.000000  1
  Fe  Fe10  1  0.998515  0.723940  0.500000  1
  Fe  Fe11  1  0.274889  0.275613  0.500000  1
  Fe  Fe12  1  0.874748  0.355801  0.500000  1
  Fe  Fe13  1  0.725371  0.999894  0.500000  1
  P  P14  1  0.993512  0.352845  0.000000  1
  P  P15  1  0.833803  0.510927  0.500000  1
  P  P16  1  0.690250  0.173185  0.500000  1
  P  P17  1  0.185016  0.177630  0.000000  1
  P  P18  1  0.650591  0.662291  0.000000  1
  P  P19  1  0.813216  0.992301  0.000000  1
  P  P20  1  0.534571  0.834239  0.500000  1
  P  P21  1  0.164997  0.691870  0.500000  1
  P  P22  1  0.349691  0.013697  0.000000  1
  P  P23  1  0.466006  0.300186  0.500000  1
  P  P24  1  0.997266  0.821815  0.000000  1
  P  P25  1  0.314768  0.478305  0.500000  1
  Ir  Ir26  1  0.817803  0.633927  0.000000  1
  Ir  Ir27  1  0.180922  0.819462  0.000000  1
  Ir  Ir28  1  0.363638  0.855831  0.500000  1
  Ir  Ir29  1  0.139416  0.499569  0.500000  1
  Ir  Ir30  1  0.638372  0.489841  0.500000  1
  Ir  Ir31  1  0.998936  0.002091  0.000000  1
  Ir  Ir32  1  0.520714  0.642913  0.500000  1
  Ir  Ir33  1  0.481090  0.124247  0.500000  1
  Ir  Ir34  1  0.185496  0.364291  0.000000  1
  Ir  Ir35  1  0.804873  0.177916  0.000000  1
