# generated using pymatgen
data_Pa8Co3Si12Au
_symmetry_space_group_name_H-M   'P 1'
_cell_length_a   8.03383000
_cell_length_b   8.03383011
_cell_length_c   7.87862900
_cell_angle_alpha   90.00000000
_cell_angle_beta   90.00000000
_cell_angle_gamma   119.99999954
_symmetry_Int_Tables_number   1
_chemical_formula_structural   Pa8Co3Si12Au
_chemical_formula_sum   'Pa8 Co3 Si12 Au1'
_cell_volume   440.37896387
_cell_formula_units_Z   1
loop_
 _symmetry_equiv_pos_site_id
 _symmetry_equiv_pos_as_xyz
  1  'x, y, z'
loop_
 _atom_site_type_symbol
 _atom_site_label
 _atom_site_symmetry_multiplicity
 _atom_site_fract_x
 _atom_site_fract_y
 _atom_site_fract_z
 _atom_site_occupancy
  Pa  Pa0  1  0.000000  0.000000  0.245639  1
  Pa  Pa1  1  0.000000  0.000000  0.749774  1
  Pa  Pa2  1  0.503838  0.496162  0.236936  1
  Pa  Pa3  1  0.503838  0.007676  0.236936  1
  Pa  Pa4  1  0.992324  0.496162  0.236936  1
  Pa  Pa5  1  0.505953  0.494047  0.758829  1
  Pa  Pa6  1  0.505953  0.011906  0.758829  1
  Pa  Pa7  1  0.988094  0.494047  0.758829  1
  Co  Co8  1  0.666667  0.333333  0.526262  1
  Co  Co9  1  0.666667  0.333333  0.013749  1
  Co  Co10  1  0.333333  0.666667  0.000959  1
  Si  Si11  1  0.160428  0.839572  0.500170  1
  Si  Si12  1  0.160428  0.320855  0.500170  1
  Si  Si13  1  0.679145  0.839572  0.500170  1
  Si  Si14  1  0.826521  0.173479  0.495874  1
  Si  Si15  1  0.826521  0.653042  0.495874  1
  Si  Si16  1  0.346958  0.173479  0.495874  1
  Si  Si17  1  0.831748  0.168252  0.998775  1
  Si  Si18  1  0.831748  0.663497  0.998775  1
  Si  Si19  1  0.336503  0.168252  0.998775  1
  Si  Si20  1  0.170716  0.829284  0.997817  1
  Si  Si21  1  0.170716  0.341431  0.997817  1
  Si  Si22  1  0.658569  0.829284  0.997817  1
  Au  Au23  1  0.333333  0.666667  0.498419  1
