# generated using pymatgen
data_Sc3Mn(Fe4P3)2
_symmetry_space_group_name_H-M   'P 1'
_cell_length_a   3.61713600
_cell_length_b   10.45279200
_cell_length_c   11.99600900
_cell_angle_alpha   90.00000000
_cell_angle_beta   90.00000000
_cell_angle_gamma   90.00000000
_symmetry_Int_Tables_number   1
_chemical_formula_structural   Sc3Mn(Fe4P3)2
_chemical_formula_sum   'Sc6 Mn2 Fe16 P12'
_cell_volume   453.55914653
_cell_formula_units_Z   2
loop_
 _symmetry_equiv_pos_site_id
 _symmetry_equiv_pos_as_xyz
  1  'x, y, z'
loop_
 _atom_site_type_symbol
 _atom_site_label
 _atom_site_symmetry_multiplicity
 _atom_site_fract_x
 _atom_site_fract_y
 _atom_site_fract_z
 _atom_site_occupancy
  Sc  Sc0  1  0.000000  0.500000  0.529036  1
  Sc  Sc1  1  0.500000  0.000000  0.470964  1
  Sc  Sc2  1  0.500000  0.823226  0.207200  1
  Sc  Sc3  1  0.500000  0.176774  0.207200  1
  Sc  Sc4  1  0.000000  0.676774  0.792800  1
  Sc  Sc5  1  0.000000  0.323226  0.792800  1
  Mn  Mn6  1  0.500000  0.500000  0.153226  1
  Mn  Mn7  1  0.000000  0.000000  0.846774  1
  Fe  Fe8  1  0.500000  0.500000  0.698779  1
  Fe  Fe9  1  0.000000  0.000000  0.301221  1
  Fe  Fe10  1  0.000000  0.500000  0.989068  1
  Fe  Fe11  1  0.500000  0.000000  0.010932  1
  Fe  Fe12  1  0.500000  0.327778  0.996592  1
  Fe  Fe13  1  0.500000  0.672222  0.996592  1
  Fe  Fe14  1  0.000000  0.172222  0.003408  1
  Fe  Fe15  1  0.000000  0.827778  0.003408  1
  Fe  Fe16  1  0.500000  0.299207  0.431676  1
  Fe  Fe17  1  0.500000  0.700793  0.431676  1
  Fe  Fe18  1  0.000000  0.200793  0.568324  1
  Fe  Fe19  1  0.000000  0.799207  0.568324  1
  Fe  Fe20  1  0.500000  0.880909  0.706239  1
  Fe  Fe21  1  0.500000  0.119091  0.706239  1
  Fe  Fe22  1  0.000000  0.619091  0.293761  1
  Fe  Fe23  1  0.000000  0.380909  0.293761  1
  P  P24  1  0.500000  0.500000  0.881574  1
  P  P25  1  0.000000  0.000000  0.118426  1
  P  P26  1  0.500000  0.500000  0.349165  1
  P  P27  1  0.000000  0.000000  0.650835  1
  P  P28  1  0.500000  0.310162  0.617637  1
  P  P29  1  0.500000  0.689838  0.617637  1
  P  P30  1  0.000000  0.189838  0.382363  1
  P  P31  1  0.000000  0.810162  0.382363  1
  P  P32  1  0.500000  0.845451  0.886567  1
  P  P33  1  0.500000  0.154549  0.886567  1
  P  P34  1  0.000000  0.654549  0.113433  1
  P  P35  1  0.000000  0.345451  0.113433  1
