# generated using pymatgen
data_Na2Pu2O7
_symmetry_space_group_name_H-M   'P 1'
_cell_length_a   7.56679195
_cell_length_b   7.56679164
_cell_length_c   6.75640211
_cell_angle_alpha   72.72423973
_cell_angle_beta   72.72424240
_cell_angle_gamma   63.32676239
_symmetry_Int_Tables_number   1
_chemical_formula_structural   Na2Pu2O7
_chemical_formula_sum   'Na4 Pu4 O14'
_cell_volume   323.95569153
_cell_formula_units_Z   2
loop_
 _symmetry_equiv_pos_site_id
 _symmetry_equiv_pos_as_xyz
  1  'x, y, z'
loop_
 _atom_site_type_symbol
 _atom_site_label
 _atom_site_symmetry_multiplicity
 _atom_site_fract_x
 _atom_site_fract_y
 _atom_site_fract_z
 _atom_site_occupancy
  Na  Na0  1  0.000000  0.000000  0.000000  1
  Na  Na1  1  0.500000  0.500000  0.000000  1
  Na  Na2  1  0.747411  0.252589  0.500000  1
  Na  Na3  1  0.252589  0.747411  0.500000  1
  Pu  Pu4  1  0.000000  0.500000  0.000000  1
  Pu  Pu5  1  0.500000  0.000000  0.000000  1
  Pu  Pu6  1  0.243706  0.243706  0.541759  1
  Pu  Pu7  1  0.756294  0.756294  0.458241  1
  O  O8  1  0.224844  0.224844  0.906251  1
  O  O9  1  0.775156  0.775156  0.093749  1
  O  O10  1  0.966987  0.550742  0.687966  1
  O  O11  1  0.550742  0.966987  0.687966  1
  O  O12  1  0.033013  0.449258  0.312034  1
  O  O13  1  0.449258  0.033013  0.312034  1
  O  O14  1  0.181088  0.626208  0.901409  1
  O  O15  1  0.626208  0.181088  0.901409  1
  O  O16  1  0.818912  0.373792  0.098591  1
  O  O17  1  0.373792  0.818912  0.098591  1
  O  O18  1  0.909966  0.909966  0.365965  1
  O  O19  1  0.090034  0.090034  0.634035  1
  O  O20  1  0.396578  0.396578  0.438392  1
  O  O21  1  0.603422  0.603422  0.561608  1
