# generated using pymatgen
data_SrNdMn(Si3Pd10)2
_symmetry_space_group_name_H-M   'P 1'
_cell_length_a   8.72990655
_cell_length_b   8.72990655
_cell_length_c   8.72990700
_cell_angle_alpha   60.00000208
_cell_angle_beta   60.00000207
_cell_angle_gamma   60.00000139
_symmetry_Int_Tables_number   1
_chemical_formula_structural   SrNdMn(Si3Pd10)2
_chemical_formula_sum   'Sr1 Nd1 Mn1 Si6 Pd20'
_cell_volume   470.45038359
_cell_formula_units_Z   1
loop_
 _symmetry_equiv_pos_site_id
 _symmetry_equiv_pos_as_xyz
  1  'x, y, z'
loop_
 _atom_site_type_symbol
 _atom_site_label
 _atom_site_symmetry_multiplicity
 _atom_site_fract_x
 _atom_site_fract_y
 _atom_site_fract_z
 _atom_site_occupancy
  Sr  Sr0  1  0.250000  0.250000  0.250000  1
  Nd  Nd1  1  0.750000  0.750000  0.750000  1
  Mn  Mn2  1  0.000000  0.000000  0.000000  1
  Si  Si3  1  0.733428  0.266572  0.266572  1
  Si  Si4  1  0.266572  0.733428  0.733428  1
  Si  Si5  1  0.266572  0.733428  0.266572  1
  Si  Si6  1  0.733428  0.266572  0.733428  1
  Si  Si7  1  0.266572  0.266572  0.733428  1
  Si  Si8  1  0.733428  0.733428  0.266572  1
  Pd  Pd9  1  0.343566  0.998338  0.998338  1
  Pd  Pd10  1  0.659759  0.998338  0.998338  1
  Pd  Pd11  1  0.998338  0.343566  0.659759  1
  Pd  Pd12  1  0.998338  0.659759  0.343566  1
  Pd  Pd13  1  0.998338  0.343566  0.998338  1
  Pd  Pd14  1  0.659759  0.998338  0.343566  1
  Pd  Pd15  1  0.998338  0.659759  0.998338  1
  Pd  Pd16  1  0.343566  0.998338  0.659759  1
  Pd  Pd17  1  0.998338  0.998338  0.343566  1
  Pd  Pd18  1  0.998338  0.998338  0.659759  1
  Pd  Pd19  1  0.659759  0.343566  0.998338  1
  Pd  Pd20  1  0.343566  0.659759  0.998338  1
  Pd  Pd21  1  0.386762  0.386762  0.386762  1
  Pd  Pd22  1  0.615234  0.615234  0.615234  1
  Pd  Pd23  1  0.386762  0.386762  0.839714  1
  Pd  Pd24  1  0.386762  0.839714  0.386762  1
  Pd  Pd25  1  0.615234  0.615234  0.154300  1
  Pd  Pd26  1  0.615234  0.154300  0.615234  1
  Pd  Pd27  1  0.839714  0.386762  0.386762  1
  Pd  Pd28  1  0.154300  0.615234  0.615234  1
