# generated using pymatgen
data_Zr6TaPt10
_symmetry_space_group_name_H-M   'P 1'
_cell_length_a   8.14271334
_cell_length_b   8.14271361
_cell_length_c   9.76171200
_cell_angle_alpha   90.00000000
_cell_angle_beta   90.00000000
_cell_angle_gamma   106.53932005
_symmetry_Int_Tables_number   1
_chemical_formula_structural   Zr6TaPt10
_chemical_formula_sum   'Zr12 Ta2 Pt20'
_cell_volume   620.45868163
_cell_formula_units_Z   2
loop_
 _symmetry_equiv_pos_site_id
 _symmetry_equiv_pos_as_xyz
  1  'x, y, z'
loop_
 _atom_site_type_symbol
 _atom_site_label
 _atom_site_symmetry_multiplicity
 _atom_site_fract_x
 _atom_site_fract_y
 _atom_site_fract_z
 _atom_site_occupancy
  Zr  Zr0  1  0.689614  0.310386  0.000000  1
  Zr  Zr1  1  0.310386  0.689614  0.000000  1
  Zr  Zr2  1  0.810386  0.189614  0.500000  1
  Zr  Zr3  1  0.189614  0.810386  0.500000  1
  Zr  Zr4  1  0.001633  0.501633  0.250000  1
  Zr  Zr5  1  0.998367  0.498367  0.750000  1
  Zr  Zr6  1  0.498367  0.998367  0.750000  1
  Zr  Zr7  1  0.501633  0.001633  0.250000  1
  Zr  Zr8  1  0.316777  0.316777  0.183289  1
  Zr  Zr9  1  0.683223  0.683223  0.816711  1
  Zr  Zr10  1  0.183223  0.183223  0.683289  1
  Zr  Zr11  1  0.816777  0.816777  0.316711  1
  Ta  Ta12  1  0.000000  0.000000  0.000000  1
  Ta  Ta13  1  0.500000  0.500000  0.500000  1
  Pt  Pt14  1  0.855876  0.144383  0.204830  1
  Pt  Pt15  1  0.144124  0.855617  0.795170  1
  Pt  Pt16  1  0.644124  0.355617  0.704830  1
  Pt  Pt17  1  0.644383  0.355876  0.295170  1
  Pt  Pt18  1  0.355876  0.644383  0.295170  1
  Pt  Pt19  1  0.355617  0.644124  0.704830  1
  Pt  Pt20  1  0.855617  0.144124  0.795170  1
  Pt  Pt21  1  0.144383  0.855876  0.204830  1
  Pt  Pt22  1  0.938431  0.650337  0.000007  1
  Pt  Pt23  1  0.061569  0.349663  0.999993  1
  Pt  Pt24  1  0.561569  0.849663  0.500007  1
  Pt  Pt25  1  0.150337  0.438431  0.499993  1
  Pt  Pt26  1  0.438431  0.150337  0.499993  1
  Pt  Pt27  1  0.849663  0.561569  0.500007  1
  Pt  Pt28  1  0.349663  0.061569  0.999993  1
  Pt  Pt29  1  0.650337  0.938431  0.000007  1
  Pt  Pt30  1  0.107160  0.107160  0.393880  1
  Pt  Pt31  1  0.892840  0.892840  0.606120  1
  Pt  Pt32  1  0.392840  0.392840  0.893880  1
  Pt  Pt33  1  0.607160  0.607160  0.106120  1
