# generated using pymatgen
data_Ho3Er3Ru2
_symmetry_space_group_name_H-M   'P 1'
_cell_length_a   7.29367319
_cell_length_b   9.08801600
_cell_length_c   6.26961516
_cell_angle_alpha   90.00000000
_cell_angle_beta   89.97396464
_cell_angle_gamma   90.00000000
_symmetry_Int_Tables_number   1
_chemical_formula_structural   Ho3Er3Ru2
_chemical_formula_sum   'Ho6 Er6 Ru4'
_cell_volume   415.58151492
_cell_formula_units_Z   2
loop_
 _symmetry_equiv_pos_site_id
 _symmetry_equiv_pos_as_xyz
  1  'x, y, z'
loop_
 _atom_site_type_symbol
 _atom_site_label
 _atom_site_symmetry_multiplicity
 _atom_site_fract_x
 _atom_site_fract_y
 _atom_site_fract_z
 _atom_site_occupancy
  Ho  Ho0  1  0.459841  0.750000  0.132633  1
  Ho  Ho1  1  0.176769  0.063792  0.167879  1
  Ho  Ho2  1  0.176769  0.436208  0.167879  1
  Ho  Ho3  1  0.959522  0.750000  0.367371  1
  Ho  Ho4  1  0.040100  0.250000  0.633046  1
  Ho  Ho5  1  0.540515  0.250000  0.866980  1
  Er  Er6  1  0.676667  0.064063  0.332385  1
  Er  Er7  1  0.676667  0.435937  0.332385  1
  Er  Er8  1  0.323461  0.564200  0.667708  1
  Er  Er9  1  0.323461  0.935800  0.667708  1
  Er  Er10  1  0.823115  0.564248  0.832007  1
  Er  Er11  1  0.823115  0.935752  0.832007  1
  Ru  Ru12  1  0.884152  0.250000  0.039551  1
  Ru  Ru13  1  0.385006  0.250000  0.460888  1
  Ru  Ru14  1  0.615526  0.750000  0.539740  1
  Ru  Ru15  1  0.115311  0.750000  0.959833  1
