# generated using pymatgen
data_Tb3Y5(Ho3Pb4)4
_symmetry_space_group_name_H-M   'P 1'
_cell_length_a   8.20508907
_cell_length_b   8.28396402
_cell_length_c   15.63251715
_cell_angle_alpha   90.00767949
_cell_angle_beta   90.01390073
_cell_angle_gamma   90.00409282
_symmetry_Int_Tables_number   1
_chemical_formula_structural   Tb3Y5(Ho3Pb4)4
_chemical_formula_sum   'Tb3 Y5 Ho12 Pb16'
_cell_volume   1062.55250578
_cell_formula_units_Z   1
loop_
 _symmetry_equiv_pos_site_id
 _symmetry_equiv_pos_as_xyz
  1  'x, y, z'
loop_
 _atom_site_type_symbol
 _atom_site_label
 _atom_site_symmetry_multiplicity
 _atom_site_fract_x
 _atom_site_fract_y
 _atom_site_fract_z
 _atom_site_occupancy
  Tb  Tb0  1  0.965782  0.823031  0.400003  1
  Tb  Tb1  1  0.534220  0.323047  0.599962  1
  Tb  Tb2  1  0.034259  0.176907  0.900018  1
  Y  Y3  1  0.534447  0.323209  0.899944  1
  Y  Y4  1  0.034422  0.176789  0.600076  1
  Y  Y5  1  0.465578  0.676758  0.399949  1
  Y  Y6  1  0.965559  0.823183  0.100104  1
  Y  Y7  1  0.465606  0.676835  0.100013  1
  Ho  Ho8  1  0.376604  0.840844  0.879278  1
  Ho  Ho9  1  0.876621  0.659190  0.620689  1
  Ho  Ho10  1  0.623377  0.159165  0.379274  1
  Ho  Ho11  1  0.123360  0.340882  0.120731  1
  Ho  Ho12  1  0.623394  0.159067  0.120782  1
  Ho  Ho13  1  0.123435  0.340949  0.379242  1
  Ho  Ho14  1  0.376570  0.840933  0.620752  1
  Ho  Ho15  1  0.876604  0.659131  0.879245  1
  Ho  Ho16  1  0.208286  0.504288  0.750037  1
  Ho  Ho17  1  0.708247  0.995727  0.749932  1
  Ho  Ho18  1  0.791732  0.495800  0.250025  1
  Ho  Ho19  1  0.291751  0.004290  0.249944  1
  Pb  Pb20  1  0.282095  0.033697  0.042819  1
  Pb  Pb21  1  0.782072  0.466235  0.457171  1
  Pb  Pb22  1  0.717950  0.966274  0.542805  1
  Pb  Pb23  1  0.218030  0.533789  0.957203  1
  Pb  Pb24  1  0.717972  0.966181  0.957254  1
  Pb  Pb25  1  0.217938  0.533878  0.542720  1
  Pb  Pb26  1  0.282089  0.033901  0.457265  1
  Pb  Pb27  1  0.782075  0.466172  0.042745  1
  Pb  Pb28  1  0.571673  0.627127  0.749929  1
  Pb  Pb29  1  0.071665  0.872868  0.750081  1
  Pb  Pb30  1  0.428321  0.372817  0.249965  1
  Pb  Pb31  1  0.928342  0.127125  0.250072  1
  Pb  Pb32  1  0.345357  0.151969  0.750064  1
  Pb  Pb33  1  0.845345  0.348029  0.749968  1
  Pb  Pb34  1  0.654597  0.847943  0.249989  1
  Pb  Pb35  1  0.154628  0.651967  0.249948  1
