# generated using pymatgen
data_Lu3ThHgRu
_symmetry_space_group_name_H-M   'P 1'
_cell_length_a   9.53460959
_cell_length_b   9.53460938
_cell_length_c   9.53461000
_cell_angle_alpha   59.99999786
_cell_angle_beta   59.99999857
_cell_angle_gamma   60.00000234
_symmetry_Int_Tables_number   1
_chemical_formula_structural   Lu3ThHgRu
_chemical_formula_sum   'Lu12 Th4 Hg4 Ru4'
_cell_volume   612.90582915
_cell_formula_units_Z   4
loop_
 _symmetry_equiv_pos_site_id
 _symmetry_equiv_pos_as_xyz
  1  'x, y, z'
loop_
 _atom_site_type_symbol
 _atom_site_label
 _atom_site_symmetry_multiplicity
 _atom_site_fract_x
 _atom_site_fract_y
 _atom_site_fract_z
 _atom_site_occupancy
  Lu  Lu0  1  0.812722  0.187278  0.187278  1
  Lu  Lu1  1  0.187278  0.812722  0.812722  1
  Lu  Lu2  1  0.187278  0.812722  0.187278  1
  Lu  Lu3  1  0.812722  0.187278  0.812722  1
  Lu  Lu4  1  0.187278  0.187278  0.812722  1
  Lu  Lu5  1  0.812722  0.812722  0.187278  1
  Lu  Lu6  1  0.934949  0.565051  0.565051  1
  Lu  Lu7  1  0.565051  0.934949  0.934949  1
  Lu  Lu8  1  0.565051  0.934949  0.565051  1
  Lu  Lu9  1  0.934949  0.565051  0.934949  1
  Lu  Lu10  1  0.565051  0.565051  0.934949  1
  Lu  Lu11  1  0.934949  0.934949  0.565051  1
  Th  Th12  1  0.349879  0.349879  0.349879  1
  Th  Th13  1  0.349879  0.349879  0.950362  1
  Th  Th14  1  0.349879  0.950362  0.349879  1
  Th  Th15  1  0.950362  0.349879  0.349879  1
  Hg  Hg16  1  0.586407  0.586407  0.586407  1
  Hg  Hg17  1  0.586407  0.586407  0.240779  1
  Hg  Hg18  1  0.586407  0.240779  0.586407  1
  Hg  Hg19  1  0.240779  0.586407  0.586407  1
  Ru  Ru20  1  0.142448  0.142448  0.142448  1
  Ru  Ru21  1  0.142448  0.142448  0.572653  1
  Ru  Ru22  1  0.142448  0.572653  0.142448  1
  Ru  Ru23  1  0.572653  0.142448  0.142448  1
