# generated using pymatgen
data_Tb20Ir3(Pt2Rh)3
_symmetry_space_group_name_H-M   'P 1'
_cell_length_a   11.07099322
_cell_length_b   11.06286709
_cell_length_c   6.36173432
_cell_angle_alpha   89.99747004
_cell_angle_beta   90.00709587
_cell_angle_gamma   90.00431616
_symmetry_Int_Tables_number   1
_chemical_formula_structural   Tb20Ir3(Pt2Rh)3
_chemical_formula_sum   'Tb20 Ir3 Pt6 Rh3'
_cell_volume   779.16565807
_cell_formula_units_Z   1
loop_
 _symmetry_equiv_pos_site_id
 _symmetry_equiv_pos_as_xyz
  1  'x, y, z'
loop_
 _atom_site_type_symbol
 _atom_site_label
 _atom_site_symmetry_multiplicity
 _atom_site_fract_x
 _atom_site_fract_y
 _atom_site_fract_z
 _atom_site_occupancy
  Tb  Tb0  1  0.293904  0.091365  0.376919  1
  Tb  Tb1  1  0.293961  0.908021  0.876618  1
  Tb  Tb2  1  0.705924  0.088712  0.876156  1
  Tb  Tb3  1  0.705965  0.911919  0.376288  1
  Tb  Tb4  1  0.585720  0.791988  0.876826  1
  Tb  Tb5  1  0.585178  0.208233  0.377060  1
  Tb  Tb6  1  0.410063  0.792069  0.381905  1
  Tb  Tb7  1  0.409539  0.207856  0.881605  1
  Tb  Tb8  1  0.209438  0.412969  0.617725  1
  Tb  Tb9  1  0.209709  0.587371  0.120819  1
  Tb  Tb10  1  0.794622  0.411001  0.123531  1
  Tb  Tb11  1  0.794912  0.588650  0.620572  1
  Tb  Tb12  1  0.912229  0.705923  0.124542  1
  Tb  Tb13  1  0.912515  0.294393  0.621470  1
  Tb  Tb14  1  0.092130  0.704924  0.622396  1
  Tb  Tb15  1  0.092376  0.294749  0.125380  1
  Tb  Tb16  1  0.999825  0.999275  0.500117  1
  Tb  Tb17  1  0.999790  0.000662  0.999957  1
  Tb  Tb18  1  0.497682  0.499478  0.000084  1
  Tb  Tb19  1  0.497724  0.500540  0.500224  1
  Ir  Ir20  1  0.346860  0.344210  0.249885  1
  Ir  Ir21  1  0.346042  0.655094  0.749546  1
  Ir  Ir22  1  0.999057  0.499911  0.376791  1
  Pt  Pt23  1  0.844078  0.152849  0.250757  1
  Pt  Pt24  1  0.844664  0.846205  0.750427  1
  Pt  Pt25  1  0.153391  0.154344  0.749028  1
  Pt  Pt26  1  0.154030  0.846542  0.249194  1
  Pt  Pt27  1  0.655036  0.345375  0.749719  1
  Pt  Pt28  1  0.654173  0.655187  0.249946  1
  Rh  Rh29  1  0.500407  0.999845  0.122898  1
  Rh  Rh30  1  0.500425  0.000195  0.623531  1
  Rh  Rh31  1  0.998632  0.500147  0.878084  1
