# generated using pymatgen
data_Dy4ErRh2
_symmetry_space_group_name_H-M   'P 1'
_cell_length_a   6.39944896
_cell_length_b   7.15987571
_cell_length_c   8.63341313
_cell_angle_alpha   96.79488245
_cell_angle_beta   111.75391073
_cell_angle_gamma   90.00000246
_symmetry_Int_Tables_number   1
_chemical_formula_structural   Dy4ErRh2
_chemical_formula_sum   'Dy8 Er2 Rh4'
_cell_volume   364.41208244
_cell_formula_units_Z   2
loop_
 _symmetry_equiv_pos_site_id
 _symmetry_equiv_pos_as_xyz
  1  'x, y, z'
loop_
 _atom_site_type_symbol
 _atom_site_label
 _atom_site_symmetry_multiplicity
 _atom_site_fract_x
 _atom_site_fract_y
 _atom_site_fract_z
 _atom_site_occupancy
  Dy  Dy0  1  0.792352  0.582573  0.812401  1
  Dy  Dy1  1  0.979952  0.917427  0.187599  1
  Dy  Dy2  1  0.207648  0.417427  0.187599  1
  Dy  Dy3  1  0.020048  0.082573  0.812401  1
  Dy  Dy4  1  0.209165  0.686907  0.563812  1
  Dy  Dy5  1  0.645352  0.813093  0.436188  1
  Dy  Dy6  1  0.790835  0.313093  0.436188  1
  Dy  Dy7  1  0.354648  0.186907  0.563812  1
  Er  Er8  1  0.423663  0.750000  0.000000  1
  Er  Er9  1  0.576337  0.250000  0.000000  1
  Rh  Rh10  1  0.596861  0.925469  0.780569  1
  Rh  Rh11  1  0.816291  0.574531  0.219431  1
  Rh  Rh12  1  0.403139  0.074531  0.219431  1
  Rh  Rh13  1  0.183709  0.425469  0.780569  1
