# generated using pymatgen
data_Y7Tm17(CoTc)4
_symmetry_space_group_name_H-M   'P 1'
_cell_length_a   6.29834120
_cell_length_b   9.16952100
_cell_length_c   14.09480900
_cell_angle_alpha   90.00000000
_cell_angle_beta   89.80573397
_cell_angle_gamma   90.00000000
_symmetry_Int_Tables_number   1
_chemical_formula_structural   Y7Tm17(CoTc)4
_chemical_formula_sum   'Y7 Tm17 Co4 Tc4'
_cell_volume   814.00961055
_cell_formula_units_Z   1
loop_
 _symmetry_equiv_pos_site_id
 _symmetry_equiv_pos_as_xyz
  1  'x, y, z'
loop_
 _atom_site_type_symbol
 _atom_site_label
 _atom_site_symmetry_multiplicity
 _atom_site_fract_x
 _atom_site_fract_y
 _atom_site_fract_z
 _atom_site_occupancy
  Y  Y0  1  0.033583  0.250000  0.148970  1
  Y  Y1  1  0.465946  0.250000  0.648612  1
  Y  Y2  1  0.965390  0.750000  0.851376  1
  Y  Y3  1  0.777607  0.750000  0.109596  1
  Y  Y4  1  0.277804  0.250000  0.390997  1
  Y  Y5  1  0.220421  0.250000  0.890937  1
  Y  Y6  1  0.721140  0.750000  0.608857  1
  Tm  Tm7  1  0.536346  0.750000  0.350671  1
  Tm  Tm8  1  0.412327  0.932437  0.785168  1
  Tm  Tm9  1  0.912512  0.067580  0.714848  1
  Tm  Tm10  1  0.587520  0.432678  0.215231  1
  Tm  Tm11  1  0.089638  0.568161  0.285341  1
  Tm  Tm12  1  0.587520  0.067322  0.215231  1
  Tm  Tm13  1  0.089638  0.931839  0.285341  1
  Tm  Tm14  1  0.412327  0.567563  0.785168  1
  Tm  Tm15  1  0.912512  0.432420  0.714848  1
  Tm  Tm16  1  0.237861  0.935566  0.537326  1
  Tm  Tm17  1  0.736984  0.063864  0.962135  1
  Tm  Tm18  1  0.762847  0.436265  0.461592  1
  Tm  Tm19  1  0.262443  0.564085  0.038113  1
  Tm  Tm20  1  0.762847  0.063735  0.461592  1
  Tm  Tm21  1  0.262443  0.935915  0.038113  1
  Tm  Tm22  1  0.237861  0.564434  0.537326  1
  Tm  Tm23  1  0.736984  0.436136  0.962135  1
  Co  Co24  1  0.371430  0.750000  0.183108  1
  Co  Co25  1  0.869432  0.250000  0.318041  1
  Co  Co26  1  0.630030  0.250000  0.818139  1
  Co  Co27  1  0.130940  0.750000  0.681924  1
  Tc  Tc28  1  0.933347  0.750000  0.434214  1
  Tc  Tc29  1  0.436154  0.250000  0.064785  1
  Tc  Tc30  1  0.063466  0.250000  0.565060  1
  Tc  Tc31  1  0.562701  0.750000  0.935205  1
