# generated using pymatgen
data_CaAc3(B8Ru7)2
_symmetry_space_group_name_H-M   'P 1'
_cell_length_a   6.51845643
_cell_length_b   6.51413843
_cell_length_c   10.20088900
_cell_angle_alpha   90.00000000
_cell_angle_beta   90.00000000
_cell_angle_gamma   89.92412788
_symmetry_Int_Tables_number   1
_chemical_formula_structural   CaAc3(B8Ru7)2
_chemical_formula_sum   'Ca1 Ac3 B16 Ru14'
_cell_volume   433.15106969
_cell_formula_units_Z   1
loop_
 _symmetry_equiv_pos_site_id
 _symmetry_equiv_pos_as_xyz
  1  'x, y, z'
loop_
 _atom_site_type_symbol
 _atom_site_label
 _atom_site_symmetry_multiplicity
 _atom_site_fract_x
 _atom_site_fract_y
 _atom_site_fract_z
 _atom_site_occupancy
  Ca  Ca0  1  0.260234  0.126750  0.000000  1
  Ac  Ac1  1  0.728327  0.888366  0.000000  1
  Ac  Ac2  1  0.118448  0.733798  0.500000  1
  Ac  Ac3  1  0.881127  0.262789  0.500000  1
  B  B4  1  0.500431  0.000619  0.590037  1
  B  B5  1  0.500431  0.000619  0.409963  1
  B  B6  1  0.897758  0.277211  0.169948  1
  B  B7  1  0.104637  0.721214  0.830111  1
  B  B8  1  0.499560  0.500635  0.340396  1
  B  B9  1  0.499549  0.500021  0.841798  1
  B  B10  1  0.279066  0.103130  0.673094  1
  B  B11  1  0.104637  0.721214  0.169889  1
  B  B12  1  0.279066  0.103130  0.326906  1
  B  B13  1  0.897758  0.277211  0.830052  1
  B  B14  1  0.499560  0.500635  0.659604  1
  B  B15  1  0.499549  0.500021  0.158202  1
  B  B16  1  0.000083  0.498571  0.911430  1
  B  B17  1  0.723436  0.896975  0.672543  1
  B  B18  1  0.723436  0.896975  0.327457  1
  B  B19  1  0.000083  0.498571  0.088570  1
  Ru  Ru20  1  0.206316  0.396356  0.755790  1
  Ru  Ru21  1  0.399286  0.284804  0.500000  1
  Ru  Ru22  1  0.399543  0.794735  0.252199  1
  Ru  Ru23  1  0.206316  0.396356  0.244210  1
  Ru  Ru24  1  0.600439  0.716712  0.500000  1
  Ru  Ru25  1  0.599559  0.205990  0.747521  1
  Ru  Ru26  1  0.284805  0.594943  0.000000  1
  Ru  Ru27  1  0.713838  0.401701  0.000000  1
  Ru  Ru28  1  0.794713  0.600298  0.246438  1
  Ru  Ru29  1  0.794713  0.600298  0.753562  1
  Ru  Ru30  1  0.399543  0.794735  0.747801  1
  Ru  Ru31  1  0.002096  0.999313  0.247545  1
  Ru  Ru32  1  0.599559  0.205990  0.252479  1
  Ru  Ru33  1  0.002096  0.999313  0.752455  1
