# generated using pymatgen
data_Tb4GeCl6
_symmetry_space_group_name_H-M   'P 1'
_cell_length_a   3.98974000
_cell_length_b   12.79882500
_cell_length_c   13.64606700
_cell_angle_alpha   90.00000000
_cell_angle_beta   90.00000000
_cell_angle_gamma   90.00000000
_symmetry_Int_Tables_number   1
_chemical_formula_structural   Tb4GeCl6
_chemical_formula_sum   'Tb8 Ge2 Cl12'
_cell_volume   696.82254771
_cell_formula_units_Z   2
loop_
 _symmetry_equiv_pos_site_id
 _symmetry_equiv_pos_as_xyz
  1  'x, y, z'
loop_
 _atom_site_type_symbol
 _atom_site_label
 _atom_site_symmetry_multiplicity
 _atom_site_fract_x
 _atom_site_fract_y
 _atom_site_fract_z
 _atom_site_occupancy
  Tb  Tb0  1  0.500000  0.121871  0.335782  1
  Tb  Tb1  1  0.500000  0.878129  0.664218  1
  Tb  Tb2  1  0.500000  0.621871  0.164218  1
  Tb  Tb3  1  0.500000  0.378129  0.835782  1
  Tb  Tb4  1  0.000000  0.124204  0.581941  1
  Tb  Tb5  1  0.000000  0.875796  0.418059  1
  Tb  Tb6  1  0.000000  0.624204  0.918059  1
  Tb  Tb7  1  0.000000  0.375796  0.081941  1
  Ge  Ge8  1  0.500000  0.000000  0.500000  1
  Ge  Ge9  1  0.500000  0.500000  0.000000  1
  Cl  Cl10  1  0.500000  0.244015  0.163632  1
  Cl  Cl11  1  0.500000  0.755985  0.836368  1
  Cl  Cl12  1  0.500000  0.744015  0.336368  1
  Cl  Cl13  1  0.500000  0.255985  0.663632  1
  Cl  Cl14  1  0.000000  0.250415  0.408775  1
  Cl  Cl15  1  0.000000  0.749585  0.591225  1
  Cl  Cl16  1  0.000000  0.750415  0.091225  1
  Cl  Cl17  1  0.000000  0.249585  0.908775  1
  Cl  Cl18  1  0.000000  0.005242  0.247293  1
  Cl  Cl19  1  0.000000  0.994758  0.752707  1
  Cl  Cl20  1  0.000000  0.505242  0.252707  1
  Cl  Cl21  1  0.000000  0.494758  0.747293  1
