# generated using pymatgen
data_Nd19ErSi15Ru
_symmetry_space_group_name_H-M   'P 1'
_cell_length_a   7.78190583
_cell_length_b   7.92449350
_cell_length_c   15.12606766
_cell_angle_alpha   89.75513811
_cell_angle_beta   89.58257480
_cell_angle_gamma   89.91236960
_symmetry_Int_Tables_number   1
_chemical_formula_structural   Nd19ErSi15Ru
_chemical_formula_sum   'Nd19 Er1 Si15 Ru1'
_cell_volume   932.75490963
_cell_formula_units_Z   1
loop_
 _symmetry_equiv_pos_site_id
 _symmetry_equiv_pos_as_xyz
  1  'x, y, z'
loop_
 _atom_site_type_symbol
 _atom_site_label
 _atom_site_symmetry_multiplicity
 _atom_site_fract_x
 _atom_site_fract_y
 _atom_site_fract_z
 _atom_site_occupancy
  Nd  Nd0  1  0.811980  0.334823  0.614239  1
  Nd  Nd1  1  0.457067  0.686033  0.897663  1
  Nd  Nd2  1  0.957983  0.815450  0.897950  1
  Nd  Nd3  1  0.185782  0.681528  0.120245  1
  Nd  Nd4  1  0.691280  0.818390  0.120696  1
  Nd  Nd5  1  0.306369  0.178095  0.877732  1
  Nd  Nd6  1  0.185450  0.678092  0.380635  1
  Nd  Nd7  1  0.044284  0.189276  0.103228  1
  Nd  Nd8  1  0.311869  0.179850  0.622779  1
  Nd  Nd9  1  0.858959  0.492027  0.260967  1
  Nd  Nd10  1  0.365552  0.006733  0.254812  1
  Nd  Nd11  1  0.537854  0.316504  0.398732  1
  Nd  Nd12  1  0.809874  0.317475  0.877706  1
  Nd  Nd13  1  0.963552  0.811881  0.598709  1
  Nd  Nd14  1  0.461831  0.685439  0.602175  1
  Nd  Nd15  1  0.038798  0.190251  0.401765  1
  Nd  Nd16  1  0.696155  0.809688  0.385100  1
  Nd  Nd17  1  0.639501  0.994441  0.747794  1
  Nd  Nd18  1  0.545792  0.311295  0.103174  1
  Er  Er19  1  0.137300  0.509954  0.747721  1
  Si  Si20  1  0.478783  0.602712  0.245520  1
  Si  Si21  1  0.252955  0.378218  0.247494  1
  Si  Si22  1  0.512559  0.403692  0.751387  1
  Si  Si23  1  0.630677  0.025403  0.958177  1
  Si  Si24  1  0.015960  0.103346  0.748172  1
  Si  Si25  1  0.752392  0.621245  0.750323  1
  Si  Si26  1  0.751136  0.119726  0.248099  1
  Si  Si27  1  0.364928  0.969783  0.462078  1
  Si  Si28  1  0.983021  0.902887  0.248502  1
  Si  Si29  1  0.364510  0.974483  0.041093  1
  Si  Si30  1  0.634013  0.024295  0.542437  1
  Si  Si31  1  0.132538  0.477031  0.954984  1
  Si  Si32  1  0.144402  0.476884  0.543875  1
  Si  Si33  1  0.865952  0.525973  0.038223  1
  Si  Si34  1  0.244927  0.870754  0.750411  1
  Ru  Ru35  1  0.864020  0.516342  0.455400  1
