# generated using pymatgen
data_EuGd3CI2
_symmetry_space_group_name_H-M   'P 1'
_cell_length_a   3.86470900
_cell_length_b   8.71309031
_cell_length_c   12.36456802
_cell_angle_alpha   92.51198635
_cell_angle_beta   90.00000000
_cell_angle_gamma   90.00000000
_symmetry_Int_Tables_number   1
_chemical_formula_structural   EuGd3CI2
_chemical_formula_sum   'Eu2 Gd6 C2 I4'
_cell_volume   415.95891480
_cell_formula_units_Z   2
loop_
 _symmetry_equiv_pos_site_id
 _symmetry_equiv_pos_as_xyz
  1  'x, y, z'
loop_
 _atom_site_type_symbol
 _atom_site_label
 _atom_site_symmetry_multiplicity
 _atom_site_fract_x
 _atom_site_fract_y
 _atom_site_fract_z
 _atom_site_occupancy
  Eu  Eu0  1  0.250000  0.788837  0.902233  1
  Eu  Eu1  1  0.750000  0.213975  0.093845  1
  Gd  Gd2  1  0.250000  0.922045  0.596559  1
  Gd  Gd3  1  0.750000  0.075773  0.402013  1
  Gd  Gd4  1  0.250000  0.891708  0.205211  1
  Gd  Gd5  1  0.750000  0.110945  0.794934  1
  Gd  Gd6  1  0.250000  0.308412  0.609886  1
  Gd  Gd7  1  0.750000  0.689849  0.392348  1
  C  C8  1  0.250000  0.870790  0.396328  1
  C  C9  1  0.750000  0.125415  0.603272  1
  I  I10  1  0.250000  0.387667  0.875095  1
  I  I11  1  0.750000  0.614838  0.125647  1
  I  I12  1  0.250000  0.375575  0.358992  1
  I  I13  1  0.750000  0.624171  0.643637  1
