# generated using pymatgen
data_Y3Tm9Ni4
_symmetry_space_group_name_H-M   'P 1'
_cell_length_a   6.28026466
_cell_length_b   6.75475196
_cell_length_c   9.44993900
_cell_angle_alpha   90.00000000
_cell_angle_beta   90.00000000
_cell_angle_gamma   90.12390165
_symmetry_Int_Tables_number   1
_chemical_formula_structural   Y3Tm9Ni4
_chemical_formula_sum   'Y3 Tm9 Ni4'
_cell_volume   400.88087867
_cell_formula_units_Z   1
loop_
 _symmetry_equiv_pos_site_id
 _symmetry_equiv_pos_as_xyz
  1  'x, y, z'
loop_
 _atom_site_type_symbol
 _atom_site_label
 _atom_site_symmetry_multiplicity
 _atom_site_fract_x
 _atom_site_fract_y
 _atom_site_fract_z
 _atom_site_occupancy
  Y  Y0  1  0.635409  0.029237  0.250000  1
  Y  Y1  1  0.365242  0.970302  0.750000  1
  Y  Y2  1  0.134750  0.470099  0.750000  1
  Tm  Tm3  1  0.863880  0.532912  0.250000  1
  Tm  Tm4  1  0.179118  0.179451  0.067047  1
  Tm  Tm5  1  0.820064  0.820317  0.934387  1
  Tm  Tm6  1  0.680690  0.321838  0.935194  1
  Tm  Tm7  1  0.820064  0.820317  0.565613  1
  Tm  Tm8  1  0.318452  0.678112  0.066334  1
  Tm  Tm9  1  0.179118  0.179451  0.432953  1
  Tm  Tm10  1  0.318452  0.678112  0.433666  1
  Tm  Tm11  1  0.680690  0.321838  0.564806  1
  Ni  Ni12  1  0.448711  0.396183  0.250000  1
  Ni  Ni13  1  0.557567  0.604827  0.750000  1
  Ni  Ni14  1  0.941291  0.105347  0.750000  1
  Ni  Ni15  1  0.056502  0.891660  0.250000  1
