# generated using pymatgen
data_Dy5GeIrO12
_symmetry_space_group_name_H-M   'P 1'
_cell_length_a   6.82727048
_cell_length_b   6.82726967
_cell_length_c   7.26328700
_cell_angle_alpha   74.48330830
_cell_angle_beta   74.48331018
_cell_angle_gamma   51.01342020
_symmetry_Int_Tables_number   1
_chemical_formula_structural   Dy5GeIrO12
_chemical_formula_sum   'Dy5 Ge1 Ir1 O12'
_cell_volume   251.32953937
_cell_formula_units_Z   1
loop_
 _symmetry_equiv_pos_site_id
 _symmetry_equiv_pos_as_xyz
  1  'x, y, z'
loop_
 _atom_site_type_symbol
 _atom_site_label
 _atom_site_symmetry_multiplicity
 _atom_site_fract_x
 _atom_site_fract_y
 _atom_site_fract_z
 _atom_site_occupancy
  Dy  Dy0  1  0.296048  0.308208  0.360279  1
  Dy  Dy1  1  0.691792  0.703952  0.639721  1
  Dy  Dy2  1  0.308959  0.305111  0.831055  1
  Dy  Dy3  1  0.694889  0.691041  0.168945  1
  Dy  Dy4  1  0.000661  0.999339  0.500000  1
  Ge  Ge5  1  0.245393  0.754607  0.000000  1
  Ir  Ir6  1  0.755699  0.244301  0.000000  1
  O  O7  1  0.903205  0.424160  0.917360  1
  O  O8  1  0.424071  0.899227  0.918595  1
  O  O9  1  0.100773  0.575929  0.081405  1
  O  O10  1  0.575840  0.096795  0.082640  1
  O  O11  1  0.095273  0.596513  0.576113  1
  O  O12  1  0.598700  0.098245  0.573756  1
  O  O13  1  0.901755  0.401300  0.426244  1
  O  O14  1  0.403487  0.904727  0.423887  1
  O  O15  1  0.009225  0.991083  0.820310  1
  O  O16  1  0.008917  0.990775  0.179690  1
  O  O17  1  0.492625  0.507309  0.818029  1
  O  O18  1  0.492691  0.507375  0.181971  1
