# generated using pymatgen
data_La2B2IrPt6Rh
_symmetry_space_group_name_H-M   'P 1'
_cell_length_a   5.53050630
_cell_length_b   5.50100253
_cell_length_c   7.65793200
_cell_angle_alpha   90.00000000
_cell_angle_beta   90.00000000
_cell_angle_gamma   119.82369537
_symmetry_Int_Tables_number   1
_chemical_formula_structural   La2B2IrPt6Rh
_chemical_formula_sum   'La2 B2 Ir1 Pt6 Rh1'
_cell_volume   202.12390803
_cell_formula_units_Z   1
loop_
 _symmetry_equiv_pos_site_id
 _symmetry_equiv_pos_as_xyz
  1  'x, y, z'
loop_
 _atom_site_type_symbol
 _atom_site_label
 _atom_site_symmetry_multiplicity
 _atom_site_fract_x
 _atom_site_fract_y
 _atom_site_fract_z
 _atom_site_occupancy
  La  La0  1  0.000000  0.000000  0.498284  1
  La  La1  1  0.000000  0.000000  0.999116  1
  B  B2  1  0.329692  0.664847  0.000704  1
  B  B3  1  0.670308  0.335153  0.000704  1
  Ir  Ir4  1  0.000000  0.500000  0.190294  1
  Pt  Pt5  1  0.306135  0.653068  0.500208  1
  Pt  Pt6  1  0.693865  0.346932  0.500208  1
  Pt  Pt7  1  0.500000  0.000000  0.202559  1
  Pt  Pt8  1  0.500000  0.000000  0.797720  1
  Pt  Pt9  1  0.500000  0.500000  0.202559  1
  Pt  Pt10  1  0.500000  0.500000  0.797720  1
  Rh  Rh11  1  0.000000  0.500000  0.809925  1
