# generated using pymatgen
data_Gd2Er2Ga4Ir3Au
_symmetry_space_group_name_H-M   'P 1'
_cell_length_a   4.39624800
_cell_length_b   6.79927178
_cell_length_c   7.75364300
_cell_angle_alpha   90.44250159
_cell_angle_beta   90.00000000
_cell_angle_gamma   90.00000000
_symmetry_Int_Tables_number   1
_chemical_formula_structural   Gd2Er2Ga4Ir3Au
_chemical_formula_sum   'Gd2 Er2 Ga4 Ir3 Au1'
_cell_volume   231.75944028
_cell_formula_units_Z   1
loop_
 _symmetry_equiv_pos_site_id
 _symmetry_equiv_pos_as_xyz
  1  'x, y, z'
loop_
 _atom_site_type_symbol
 _atom_site_label
 _atom_site_symmetry_multiplicity
 _atom_site_fract_x
 _atom_site_fract_y
 _atom_site_fract_z
 _atom_site_occupancy
  Gd  Gd0  1  0.250000  0.979747  0.311404  1
  Gd  Gd1  1  0.250000  0.487046  0.198471  1
  Er  Er2  1  0.750000  0.016363  0.682713  1
  Er  Er3  1  0.750000  0.532403  0.809197  1
  Ga  Ga4  1  0.250000  0.345595  0.562822  1
  Ga  Ga5  1  0.250000  0.823946  0.931833  1
  Ga  Ga6  1  0.750000  0.660404  0.428769  1
  Ga  Ga7  1  0.750000  0.155990  0.074837  1
  Ir  Ir8  1  0.250000  0.731568  0.608407  1
  Ir  Ir9  1  0.750000  0.769766  0.108756  1
  Ir  Ir10  1  0.750000  0.269781  0.392515  1
  Au  Au11  1  0.250000  0.227391  0.890277  1
