# generated using pymatgen
data_DyZr3(BRu)16
_symmetry_space_group_name_H-M   'P 1'
_cell_length_a   9.14638173
_cell_length_b   7.43547526
_cell_length_c   7.43547500
_cell_angle_alpha   90.00402373
_cell_angle_beta   113.98154314
_cell_angle_gamma   113.98154363
_symmetry_Int_Tables_number   1
_chemical_formula_structural   DyZr3(BRu)16
_chemical_formula_sum   'Dy1 Zr3 B16 Ru16'
_cell_volume   413.78045092
_cell_formula_units_Z   1
loop_
 _symmetry_equiv_pos_site_id
 _symmetry_equiv_pos_as_xyz
  1  'x, y, z'
loop_
 _atom_site_type_symbol
 _atom_site_label
 _atom_site_symmetry_multiplicity
 _atom_site_fract_x
 _atom_site_fract_y
 _atom_site_fract_z
 _atom_site_occupancy
  Dy  Dy0  1  0.249999  0.125000  0.875000  1
  Zr  Zr1  1  0.750000  0.875000  0.125000  1
  Zr  Zr2  1  0.249999  0.625000  0.375000  1
  Zr  Zr3  1  0.750000  0.375000  0.625000  1
  B  B4  1  0.915057  0.288308  0.068998  1
  B  B5  1  0.413464  0.567413  0.124436  1
  B  B6  1  0.086536  0.210973  0.153948  1
  B  B7  1  0.585684  0.153639  0.211580  1
  B  B8  1  0.413875  0.067413  0.288598  1
  B  B9  1  0.915057  0.626750  0.346058  1
  B  B10  1  0.584943  0.653943  0.373251  1
  B  B11  1  0.086536  0.875565  0.432588  1
  B  B12  1  0.914316  0.125895  0.567956  1
  B  B13  1  0.413875  0.346462  0.625279  1
  B  B14  1  0.086125  0.374722  0.653539  1
  B  B15  1  0.584943  0.931001  0.711693  1
  B  B16  1  0.413464  0.846051  0.789028  1
  B  B17  1  0.914316  0.788421  0.846361  1
  B  B18  1  0.585684  0.432045  0.874105  1
  B  B19  1  0.086125  0.711402  0.932586  1
  Ru  Ru20  1  0.872943  0.550107  0.033279  1
  Ru  Ru21  1  0.374392  0.834621  0.052816  1
  Ru  Ru22  1  0.125608  0.947185  0.165379  1
  Ru  Ru23  1  0.629313  0.467964  0.178728  1
  Ru  Ru24  1  0.374913  0.339355  0.324450  1
  Ru  Ru25  1  0.872943  0.322835  0.339664  1
  Ru  Ru26  1  0.627058  0.966721  0.449893  1
  Ru  Ru27  1  0.125608  0.178424  0.460229  1
  Ru  Ru28  1  0.870688  0.821273  0.532035  1
  Ru  Ru29  1  0.374913  0.035558  0.550462  1
  Ru  Ru30  1  0.125087  0.675549  0.660644  1
  Ru  Ru31  1  0.627058  0.660336  0.677164  1
  Ru  Ru32  1  0.374392  0.539770  0.821577  1
  Ru  Ru33  1  0.870688  0.049415  0.838652  1
  Ru  Ru34  1  0.629313  0.161349  0.950586  1
  Ru  Ru35  1  0.125087  0.449537  0.964443  1
