# generated using pymatgen
data_Tb3ErAl3ZnPt4
_symmetry_space_group_name_H-M   'P 1'
_cell_length_a   4.44069700
_cell_length_b   6.84469982
_cell_length_c   7.81621719
_cell_angle_alpha   89.98220872
_cell_angle_beta   90.00000000
_cell_angle_gamma   90.00000000
_symmetry_Int_Tables_number   1
_chemical_formula_structural   Tb3ErAl3ZnPt4
_chemical_formula_sum   'Tb3 Er1 Al3 Zn1 Pt4'
_cell_volume   237.57577008
_cell_formula_units_Z   1
loop_
 _symmetry_equiv_pos_site_id
 _symmetry_equiv_pos_as_xyz
  1  'x, y, z'
loop_
 _atom_site_type_symbol
 _atom_site_label
 _atom_site_symmetry_multiplicity
 _atom_site_fract_x
 _atom_site_fract_y
 _atom_site_fract_z
 _atom_site_occupancy
  Tb  Tb0  1  0.250000  0.473450  0.182708  1
  Tb  Tb1  1  0.750000  0.531525  0.819941  1
  Tb  Tb2  1  0.750000  0.027335  0.683711  1
  Er  Er3  1  0.250000  0.971741  0.313265  1
  Al  Al4  1  0.750000  0.146438  0.064519  1
  Al  Al5  1  0.750000  0.645502  0.438380  1
  Al  Al6  1  0.250000  0.350256  0.562707  1
  Zn  Zn7  1  0.250000  0.848632  0.933545  1
  Pt  Pt8  1  0.250000  0.726579  0.606550  1
  Pt  Pt9  1  0.750000  0.270649  0.384546  1
  Pt  Pt10  1  0.750000  0.772406  0.124914  1
  Pt  Pt11  1  0.250000  0.235488  0.885214  1
