# generated using pymatgen
data_Ho12Co4Si7Ge
_symmetry_space_group_name_H-M   'P 1'
_cell_length_a   4.08446000
_cell_length_b   11.10097024
_cell_length_c   11.33719461
_cell_angle_alpha   89.95341483
_cell_angle_beta   90.00000000
_cell_angle_gamma   90.00000000
_symmetry_Int_Tables_number   1
_chemical_formula_structural   Ho12Co4Si7Ge
_chemical_formula_sum   'Ho12 Co4 Si7 Ge1'
_cell_volume   514.04488740
_cell_formula_units_Z   1
loop_
 _symmetry_equiv_pos_site_id
 _symmetry_equiv_pos_as_xyz
  1  'x, y, z'
loop_
 _atom_site_type_symbol
 _atom_site_label
 _atom_site_symmetry_multiplicity
 _atom_site_fract_x
 _atom_site_fract_y
 _atom_site_fract_z
 _atom_site_occupancy
  Ho  Ho0  1  0.250000  0.373560  0.058748  1
  Ho  Ho1  1  0.750000  0.627928  0.945304  1
  Ho  Ho2  1  0.750000  0.874283  0.442713  1
  Ho  Ho3  1  0.250000  0.124770  0.556838  1
  Ho  Ho4  1  0.250000  0.701465  0.218924  1
  Ho  Ho5  1  0.750000  0.297236  0.780545  1
  Ho  Ho6  1  0.750000  0.200450  0.281446  1
  Ho  Ho7  1  0.250000  0.799872  0.718285  1
  Ho  Ho8  1  0.250000  0.441728  0.381174  1
  Ho  Ho9  1  0.750000  0.557920  0.616766  1
  Ho  Ho10  1  0.750000  0.942216  0.118489  1
  Ho  Ho11  1  0.250000  0.058097  0.881392  1
  Co  Co12  1  0.250000  0.135387  0.130500  1
  Co  Co13  1  0.750000  0.864625  0.869715  1
  Co  Co14  1  0.750000  0.636085  0.369799  1
  Co  Co15  1  0.250000  0.360920  0.627251  1
  Si  Si16  1  0.250000  0.684045  0.475787  1
  Si  Si17  1  0.750000  0.315528  0.523857  1
  Si  Si18  1  0.750000  0.184276  0.024190  1
  Si  Si19  1  0.250000  0.816909  0.975522  1
  Si  Si20  1  0.250000  0.005877  0.301888  1
  Si  Si21  1  0.750000  0.993918  0.698231  1
  Si  Si22  1  0.750000  0.506822  0.198201  1
  Ge  Ge23  1  0.250000  0.496082  0.804437  1
