# generated using pymatgen
data_K3Rb3Dy2F12
_symmetry_space_group_name_H-M   'P 1'
_cell_length_a   6.75321127
_cell_length_b   6.52588909
_cell_length_c   11.32317668
_cell_angle_alpha   55.29600736
_cell_angle_beta   90.02185946
_cell_angle_gamma   89.93731413
_symmetry_Int_Tables_number   1
_chemical_formula_structural   K3Rb3Dy2F12
_chemical_formula_sum   'K3 Rb3 Dy2 F12'
_cell_volume   410.24630777
_cell_formula_units_Z   1
loop_
 _symmetry_equiv_pos_site_id
 _symmetry_equiv_pos_as_xyz
  1  'x, y, z'
loop_
 _atom_site_type_symbol
 _atom_site_label
 _atom_site_symmetry_multiplicity
 _atom_site_fract_x
 _atom_site_fract_y
 _atom_site_fract_z
 _atom_site_occupancy
  K  K0  1  0.499634  0.498681  0.001456  1
  K  K1  1  0.999406  0.500467  0.499107  1
  K  K2  1  0.449863  0.733605  0.254508  1
  Rb  Rb3  1  0.050504  0.731479  0.753061  1
  Rb  Rb4  1  0.950558  0.265247  0.247308  1
  Rb  Rb5  1  0.548265  0.267442  0.747383  1
  Dy  Dy6  1  0.499351  0.002284  0.497579  1
  Dy  Dy7  1  0.999780  0.997834  0.002068  1
  F  F8  1  0.767143  0.770674  0.558620  1
  F  F9  1  0.234581  0.238134  0.437719  1
  F  F10  1  0.264499  0.233464  0.940312  1
  F  F11  1  0.730107  0.768377  0.065714  1
  F  F12  1  0.456539  0.873974  0.722367  1
  F  F13  1  0.543647  0.112531  0.275995  1
  F  F14  1  0.954600  0.124238  0.777661  1
  F  F15  1  0.057689  0.871018  0.225072  1
  F  F16  1  0.319284  0.686636  0.542080  1
  F  F17  1  0.673388  0.325343  0.449716  1
  F  F18  1  0.821158  0.315144  0.958496  1
  F  F19  1  0.180003  0.683427  0.043777  1
