# generated using pymatgen
data_CeNd4Zr(P2Ru3)6
_symmetry_space_group_name_H-M   'P 1'
_cell_length_a   12.73387965
_cell_length_b   12.74506354
_cell_length_c   4.00776800
_cell_angle_alpha   90.00000000
_cell_angle_beta   90.00000000
_cell_angle_gamma   120.15629630
_symmetry_Int_Tables_number   1
_chemical_formula_structural   CeNd4Zr(P2Ru3)6
_chemical_formula_sum   'Ce1 Nd4 Zr1 P12 Ru18'
_cell_volume   562.40581708
_cell_formula_units_Z   1
loop_
 _symmetry_equiv_pos_site_id
 _symmetry_equiv_pos_as_xyz
  1  'x, y, z'
loop_
 _atom_site_type_symbol
 _atom_site_label
 _atom_site_symmetry_multiplicity
 _atom_site_fract_x
 _atom_site_fract_y
 _atom_site_fract_z
 _atom_site_occupancy
  Ce  Ce0  1  0.667327  0.331773  0.000000  1
  Nd  Nd1  1  0.183033  0.182961  0.500000  1
  Nd  Nd2  1  0.817178  0.004505  0.500000  1
  Nd  Nd3  1  0.004343  0.817100  0.500000  1
  Nd  Nd4  1  0.331974  0.668259  0.000000  1
  Zr  Zr5  1  0.560949  0.562263  0.000000  1
  P  P6  1  0.813847  0.813615  0.000000  1
  P  P7  1  0.186537  0.999287  0.000000  1
  P  P8  1  0.999299  0.186456  0.000000  1
  P  P9  1  0.168898  0.476520  0.500000  1
  P  P10  1  0.523734  0.698589  0.500000  1
  P  P11  1  0.305645  0.829964  0.500000  1
  P  P12  1  0.698658  0.523755  0.500000  1
  P  P13  1  0.829761  0.305868  0.500000  1
  P  P14  1  0.476443  0.168756  0.500000  1
  P  P15  1  0.358335  0.358832  0.000000  1
  P  P16  1  0.624089  0.001828  0.000000  1
  P  P17  1  0.002932  0.624415  0.000000  1
  Ru  Ru18  1  0.444739  0.000107  0.000000  1
  Ru  Ru19  1  0.998696  0.443947  0.000000  1
  Ru  Ru20  1  0.724937  0.724497  0.500000  1
  Ru  Ru21  1  0.284633  0.999030  0.500000  1
  Ru  Ru22  1  0.998367  0.284343  0.500000  1
  Ru  Ru23  1  0.179547  0.376452  0.000000  1
  Ru  Ru24  1  0.623013  0.809664  0.000000  1
  Ru  Ru25  1  0.193538  0.815675  0.000000  1
  Ru  Ru26  1  0.809649  0.621653  0.000000  1
  Ru  Ru27  1  0.814442  0.193917  0.000000  1
  Ru  Ru28  1  0.377506  0.180639  0.000000  1
  Ru  Ru29  1  0.362960  0.488296  0.500000  1
  Ru  Ru30  1  0.509951  0.878679  0.500000  1
  Ru  Ru31  1  0.124627  0.633562  0.500000  1
  Ru  Ru32  1  0.875845  0.507352  0.500000  1
  Ru  Ru33  1  0.634056  0.127252  0.500000  1
  Ru  Ru34  1  0.492741  0.362394  0.500000  1
  Ru  Ru35  1  0.997771  0.997795  0.000000  1
