# generated using pymatgen
data_Er2Be25Ni
_symmetry_space_group_name_H-M   'P 1'
_cell_length_a   7.20592628
_cell_length_b   7.23531211
_cell_length_c   7.18591673
_cell_angle_alpha   59.95581970
_cell_angle_beta   59.79874038
_cell_angle_gamma   59.68187858
_symmetry_Int_Tables_number   1
_chemical_formula_structural   Er2Be25Ni
_chemical_formula_sum   'Er2 Be25 Ni1'
_cell_volume   263.78700261
_cell_formula_units_Z   1
loop_
 _symmetry_equiv_pos_site_id
 _symmetry_equiv_pos_as_xyz
  1  'x, y, z'
loop_
 _atom_site_type_symbol
 _atom_site_label
 _atom_site_symmetry_multiplicity
 _atom_site_fract_x
 _atom_site_fract_y
 _atom_site_fract_z
 _atom_site_occupancy
  Er  Er0  1  0.249147  0.252219  0.250530  1
  Er  Er1  1  0.749470  0.751897  0.750853  1
  Be  Be2  1  0.501323  0.500594  0.498677  1
  Be  Be3  1  0.999483  0.001587  0.000517  1
  Be  Be4  1  0.201955  0.440721  0.798045  1
  Be  Be5  1  0.566060  0.789417  0.433940  1
  Be  Be6  1  0.434710  0.207879  0.565290  1
  Be  Be7  1  0.292318  0.936328  0.707682  1
  Be  Be8  1  0.706842  0.063138  0.293158  1
  Be  Be9  1  0.934422  0.287484  0.065578  1
  Be  Be10  1  0.067381  0.714967  0.932619  1
  Be  Be11  1  0.207131  0.795630  0.560930  1
  Be  Be12  1  0.792387  0.204694  0.439067  1
  Be  Be13  1  0.439070  0.563692  0.792869  1
  Be  Be14  1  0.560933  0.436148  0.207613  1
  Be  Be15  1  0.710021  0.286286  0.936222  1
  Be  Be16  1  0.288809  0.711499  0.064229  1
  Be  Be17  1  0.063778  0.932529  0.289979  1
  Be  Be18  1  0.935771  0.064537  0.711191  1
  Be  Be19  1  0.560698  0.209042  0.792847  1
  Be  Be20  1  0.436813  0.791106  0.207814  1
  Be  Be21  1  0.792186  0.435734  0.563187  1
  Be  Be22  1  0.207153  0.562588  0.439302  1
  Be  Be23  1  0.937448  0.709857  0.289718  1
  Be  Be24  1  0.064324  0.289862  0.709759  1
  Be  Be25  1  0.290241  0.063945  0.935676  1
  Be  Be26  1  0.710282  0.937024  0.062552  1
  Ni  Ni27  1  0.799844  0.559598  0.200156  1
