# generated using pymatgen
data_Sc4Fe3Si4Ni
_symmetry_space_group_name_H-M   'P 1'
_cell_length_a   4.04793900
_cell_length_b   6.51478981
_cell_length_c   6.72116085
_cell_angle_alpha   90.32147566
_cell_angle_beta   90.00000000
_cell_angle_gamma   90.00000000
_symmetry_Int_Tables_number   1
_chemical_formula_structural   Sc4Fe3Si4Ni
_chemical_formula_sum   'Sc4 Fe3 Si4 Ni1'
_cell_volume   177.24411354
_cell_formula_units_Z   1
loop_
 _symmetry_equiv_pos_site_id
 _symmetry_equiv_pos_as_xyz
  1  'x, y, z'
loop_
 _atom_site_type_symbol
 _atom_site_label
 _atom_site_symmetry_multiplicity
 _atom_site_fract_x
 _atom_site_fract_y
 _atom_site_fract_z
 _atom_site_occupancy
  Sc  Sc0  1  0.750000  0.511198  0.811205  1
  Sc  Sc1  1  0.250000  0.993797  0.305673  1
  Sc  Sc2  1  0.750000  0.014865  0.693483  1
  Sc  Sc3  1  0.250000  0.483977  0.189838  1
  Fe  Fe4  1  0.250000  0.153205  0.938502  1
  Fe  Fe5  1  0.750000  0.845666  0.061515  1
  Fe  Fe6  1  0.750000  0.349823  0.441354  1
  Si  Si7  1  0.250000  0.797418  0.897559  1
  Si  Si8  1  0.250000  0.294596  0.609976  1
  Si  Si9  1  0.750000  0.201615  0.107671  1
  Si  Si10  1  0.750000  0.701118  0.381123  1
  Ni  Ni11  1  0.250000  0.652723  0.562102  1
