# generated using pymatgen
data_Sm2Lu4FeBr10
_symmetry_space_group_name_H-M   'P 1'
_cell_length_a   7.28689517
_cell_length_b   9.15887425
_cell_length_c   9.02478318
_cell_angle_alpha   106.99909398
_cell_angle_beta   95.69405229
_cell_angle_gamma   106.20526101
_symmetry_Int_Tables_number   1
_chemical_formula_structural   Sm2Lu4FeBr10
_chemical_formula_sum   'Sm2 Lu4 Fe1 Br10'
_cell_volume   542.28412735
_cell_formula_units_Z   1
loop_
 _symmetry_equiv_pos_site_id
 _symmetry_equiv_pos_as_xyz
  1  'x, y, z'
loop_
 _atom_site_type_symbol
 _atom_site_label
 _atom_site_symmetry_multiplicity
 _atom_site_fract_x
 _atom_site_fract_y
 _atom_site_fract_z
 _atom_site_occupancy
  Sm  Sm0  1  0.617460  0.045479  0.271990  1
  Sm  Sm1  1  0.382540  0.954521  0.728010  1
  Lu  Lu2  1  0.857181  0.134474  0.675587  1
  Lu  Lu3  1  0.525941  0.704582  0.407221  1
  Lu  Lu4  1  0.474059  0.295418  0.592779  1
  Lu  Lu5  1  0.142819  0.865526  0.324413  1
  Fe  Fe6  1  0.500000  0.000000  0.500000  1
  Br  Br7  1  0.414613  0.622181  0.668802  1
  Br  Br8  1  0.760509  0.087586  0.952445  1
  Br  Br9  1  0.239491  0.912414  0.047555  1
  Br  Br10  1  0.950699  0.822205  0.582886  1
  Br  Br11  1  0.283367  0.260698  0.843029  1
  Br  Br12  1  0.716633  0.739302  0.156971  1
  Br  Br13  1  0.049301  0.177795  0.417114  1
  Br  Br14  1  0.585387  0.377819  0.331198  1
  Br  Br15  1  0.850866  0.450048  0.770400  1
  Br  Br16  1  0.149134  0.549952  0.229600  1
