# generated using pymatgen
data_Nd8Dy3In9NiRh3
_symmetry_space_group_name_H-M   'P 1'
_cell_length_a   13.36508117
_cell_length_b   13.36445381
_cell_length_c   3.80592000
_cell_angle_alpha   90.00000000
_cell_angle_beta   90.00000000
_cell_angle_gamma   111.50829049
_symmetry_Int_Tables_number   1
_chemical_formula_structural   Nd8Dy3In9NiRh3
_chemical_formula_sum   'Nd8 Dy3 In9 Ni1 Rh3'
_cell_volume   632.46371314
_cell_formula_units_Z   1
loop_
 _symmetry_equiv_pos_site_id
 _symmetry_equiv_pos_as_xyz
  1  'x, y, z'
loop_
 _atom_site_type_symbol
 _atom_site_label
 _atom_site_symmetry_multiplicity
 _atom_site_fract_x
 _atom_site_fract_y
 _atom_site_fract_z
 _atom_site_occupancy
  Nd  Nd0  1  0.580243  0.921316  0.000000  1
  Nd  Nd1  1  0.627635  0.372598  0.000000  1
  Nd  Nd2  1  0.369855  0.627271  0.000000  1
  Nd  Nd3  1  0.841408  0.158321  0.000000  1
  Nd  Nd4  1  0.158342  0.840930  0.000000  1
  Nd  Nd5  1  0.999984  0.999831  0.000000  1
  Nd  Nd6  1  0.311474  0.311171  0.000000  1
  Nd  Nd7  1  0.689062  0.687630  0.000000  1
  Dy  Dy8  1  0.080062  0.420061  0.000000  1
  Dy  Dy9  1  0.919880  0.579860  0.000000  1
  Dy  Dy10  1  0.421275  0.080924  0.000000  1
  In  In11  1  0.843101  0.368663  0.500000  1
  In  In12  1  0.157095  0.631127  0.500000  1
  In  In13  1  0.365292  0.840922  0.500000  1
  In  In14  1  0.633057  0.160896  0.500000  1
  In  In15  1  0.078419  0.222522  0.500000  1
  In  In16  1  0.922177  0.777140  0.500000  1
  In  In17  1  0.222818  0.077912  0.500000  1
  In  In18  1  0.779624  0.920679  0.500000  1
  In  In19  1  0.498828  0.502409  0.500000  1
  Ni  Ni20  1  0.547202  0.753895  0.500000  1
  Rh  Rh21  1  0.241846  0.453187  0.500000  1
  Rh  Rh22  1  0.758828  0.549213  0.500000  1
  Rh  Rh23  1  0.452496  0.241519  0.500000  1
