# generated using pymatgen
data_Na4Mn5Co3S16
_symmetry_space_group_name_H-M   'P 1'
_cell_length_a   5.82763502
_cell_length_b   6.76107569
_cell_length_c   13.95427971
_cell_angle_alpha   89.92740039
_cell_angle_beta   90.49983965
_cell_angle_gamma   90.03468748
_symmetry_Int_Tables_number   1
_chemical_formula_structural   Na4Mn5Co3S16
_chemical_formula_sum   'Na4 Mn5 Co3 S16'
_cell_volume   549.79225170
_cell_formula_units_Z   1
loop_
 _symmetry_equiv_pos_site_id
 _symmetry_equiv_pos_as_xyz
  1  'x, y, z'
loop_
 _atom_site_type_symbol
 _atom_site_label
 _atom_site_symmetry_multiplicity
 _atom_site_fract_x
 _atom_site_fract_y
 _atom_site_fract_z
 _atom_site_occupancy
  Na  Na0  1  0.348595  0.999370  0.002584  1
  Na  Na1  1  0.651405  0.500630  0.497416  1
  Na  Na2  1  0.026177  0.998169  0.496470  1
  Na  Na3  1  0.973823  0.501831  0.003530  1
  Mn  Mn4  1  0.999664  0.000235  0.248695  1
  Mn  Mn5  1  0.998686  0.998395  0.750980  1
  Mn  Mn6  1  0.000336  0.499765  0.251305  1
  Mn  Mn7  1  0.001314  0.501605  0.749020  1
  Mn  Mn8  1  0.500000  0.250000  0.750000  1
  Co  Co9  1  0.500000  0.250000  0.250000  1
  Co  Co10  1  0.500000  0.750000  0.750000  1
  Co  Co11  1  0.500000  0.750000  0.250000  1
  S  S12  1  0.826503  0.249517  0.341115  1
  S  S13  1  0.825308  0.749830  0.659080  1
  S  S14  1  0.173446  0.750203  0.158894  1
  S  S15  1  0.166527  0.249251  0.844007  1
  S  S16  1  0.173497  0.250483  0.158885  1
  S  S17  1  0.174692  0.750170  0.840920  1
  S  S18  1  0.826554  0.749797  0.341106  1
  S  S19  1  0.833473  0.250749  0.655993  1
  S  S20  1  0.656950  0.000347  0.161729  1
  S  S21  1  0.663163  0.994390  0.841032  1
  S  S22  1  0.343050  0.499653  0.338271  1
  S  S23  1  0.336837  0.505610  0.658968  1
  S  S24  1  0.341539  0.999697  0.336732  1
  S  S25  1  0.335398  0.994949  0.660626  1
  S  S26  1  0.658461  0.500303  0.163268  1
  S  S27  1  0.664602  0.505051  0.839374  1
