# generated using pymatgen
data_Lu12Fe3CuSn
_symmetry_space_group_name_H-M   'P 1'
_cell_length_a   8.07151278
_cell_length_b   8.07151146
_cell_length_c   8.07151305
_cell_angle_alpha   107.18000218
_cell_angle_beta   110.71033272
_cell_angle_gamma   110.54738111
_symmetry_Int_Tables_number   1
_chemical_formula_structural   Lu12Fe3CuSn
_chemical_formula_sum   'Lu12 Fe3 Cu1 Sn1'
_cell_volume   404.31827381
_cell_formula_units_Z   1
loop_
 _symmetry_equiv_pos_site_id
 _symmetry_equiv_pos_as_xyz
  1  'x, y, z'
loop_
 _atom_site_type_symbol
 _atom_site_label
 _atom_site_symmetry_multiplicity
 _atom_site_fract_x
 _atom_site_fract_y
 _atom_site_fract_z
 _atom_site_occupancy
  Lu  Lu0  1  0.310668  0.306747  0.617415  1
  Lu  Lu1  1  0.689332  0.693253  0.382585  1
  Lu  Lu2  1  0.689332  0.306747  0.996078  1
  Lu  Lu3  1  0.310668  0.693253  0.003922  1
  Lu  Lu4  1  0.188689  0.411245  0.222554  1
  Lu  Lu5  1  0.811311  0.588755  0.777446  1
  Lu  Lu6  1  0.188689  0.966134  0.777446  1
  Lu  Lu7  1  0.928704  0.191055  0.737650  1
  Lu  Lu8  1  0.811311  0.033866  0.222554  1
  Lu  Lu9  1  0.071296  0.808945  0.262350  1
  Lu  Lu10  1  0.453406  0.191055  0.262350  1
  Lu  Lu11  1  0.546594  0.808945  0.737650  1
  Fe  Fe12  1  0.380833  0.380833  0.000000  1
  Fe  Fe13  1  0.619167  0.619167  0.000000  1
  Fe  Fe14  1  0.000000  0.000000  0.000000  1
  Cu  Cu15  1  0.500000  0.000000  0.500000  1
  Sn  Sn16  1  0.000000  0.500000  0.500000  1
