# generated using pymatgen
data_KMn4Ga5Se12
_symmetry_space_group_name_H-M   'P 1'
_cell_length_a   8.92210270
_cell_length_b   8.92542647
_cell_length_c   8.95776463
_cell_angle_alpha   107.31780784
_cell_angle_beta   107.69207495
_cell_angle_gamma   107.37563582
_symmetry_Int_Tables_number   1
_chemical_formula_structural   KMn4Ga5Se12
_chemical_formula_sum   'K1 Mn4 Ga5 Se12'
_cell_volume   586.42438896
_cell_formula_units_Z   1
loop_
 _symmetry_equiv_pos_site_id
 _symmetry_equiv_pos_as_xyz
  1  'x, y, z'
loop_
 _atom_site_type_symbol
 _atom_site_label
 _atom_site_symmetry_multiplicity
 _atom_site_fract_x
 _atom_site_fract_y
 _atom_site_fract_z
 _atom_site_occupancy
  K  K0  1  0.001181  0.999610  0.997053  1
  Mn  Mn1  1  0.632338  0.708591  0.396338  1
  Mn  Mn2  1  0.400657  0.637082  0.716628  1
  Mn  Mn3  1  0.710842  0.394216  0.633252  1
  Mn  Mn4  1  0.185188  0.561506  0.021358  1
  Ga  Ga5  1  0.485813  0.338412  0.942576  1
  Ga  Ga6  1  0.940179  0.491650  0.342645  1
  Ga  Ga7  1  0.334279  0.934741  0.482450  1
  Ga  Ga8  1  0.018796  0.185552  0.557024  1
  Ga  Ga9  1  0.557511  0.022359  0.183686  1
  Se  Se10  1  0.782486  0.928293  0.294535  1
  Se  Se11  1  0.301931  0.793675  0.928349  1
  Se  Se12  1  0.925695  0.289808  0.775816  1
  Se  Se13  1  0.070159  0.696441  0.233171  1
  Se  Se14  1  0.229575  0.075581  0.692746  1
  Se  Se15  1  0.700625  0.231826  0.077886  1
  Se  Se16  1  0.378095  0.434179  0.151814  1
  Se  Se17  1  0.151790  0.377751  0.442272  1
  Se  Se18  1  0.436248  0.148077  0.372633  1
  Se  Se19  1  0.862354  0.633124  0.561308  1
  Se  Se20  1  0.555360  0.859246  0.629844  1
  Se  Se21  1  0.633539  0.552922  0.861253  1
