# generated using pymatgen
data_Ba4Sr8Si15Hg
_symmetry_space_group_name_H-M   'P 1'
_cell_length_a   8.49221645
_cell_length_b   8.49221692
_cell_length_c   11.22480394
_cell_angle_alpha   89.29214570
_cell_angle_beta   89.29214358
_cell_angle_gamma   89.66315881
_symmetry_Int_Tables_number   1
_chemical_formula_structural   Ba4Sr8Si15Hg
_chemical_formula_sum   'Ba4 Sr8 Si15 Hg1'
_cell_volume   809.37071512
_cell_formula_units_Z   1
loop_
 _symmetry_equiv_pos_site_id
 _symmetry_equiv_pos_as_xyz
  1  'x, y, z'
loop_
 _atom_site_type_symbol
 _atom_site_label
 _atom_site_symmetry_multiplicity
 _atom_site_fract_x
 _atom_site_fract_y
 _atom_site_fract_z
 _atom_site_occupancy
  Ba  Ba0  1  0.665524  0.665524  0.998610  1
  Ba  Ba1  1  0.830882  0.179954  0.499292  1
  Ba  Ba2  1  0.179954  0.830882  0.499292  1
  Ba  Ba3  1  0.335633  0.335633  0.004223  1
  Sr  Sr4  1  0.497716  0.008192  0.749679  1
  Sr  Sr5  1  0.501019  0.995520  0.251090  1
  Sr  Sr6  1  0.008192  0.497716  0.749679  1
  Sr  Sr7  1  0.995520  0.501019  0.251090  1
  Sr  Sr8  1  0.008336  0.008336  0.836277  1
  Sr  Sr9  1  0.493157  0.493157  0.327591  1
  Sr  Sr10  1  0.492076  0.492076  0.664987  1
  Sr  Sr11  1  0.998574  0.998574  0.171707  1
  Si  Si12  1  0.201279  0.201279  0.652192  1
  Si  Si13  1  0.806397  0.806397  0.368634  1
  Si  Si14  1  0.293085  0.707873  0.159571  1
  Si  Si15  1  0.707873  0.293085  0.159571  1
  Si  Si16  1  0.706269  0.300757  0.842546  1
  Si  Si17  1  0.300757  0.706269  0.842546  1
  Si  Si18  1  0.203432  0.203432  0.340812  1
  Si  Si19  1  0.703804  0.100325  0.000498  1
  Si  Si20  1  0.298901  0.904529  0.999773  1
  Si  Si21  1  0.100325  0.703804  0.000498  1
  Si  Si22  1  0.574499  0.781698  0.491196  1
  Si  Si23  1  0.904529  0.298901  0.999773  1
  Si  Si24  1  0.200433  0.401911  0.496574  1
  Si  Si25  1  0.781698  0.574499  0.491196  1
  Si  Si26  1  0.401911  0.200433  0.496574  1
  Hg  Hg27  1  0.808224  0.808224  0.654528  1
