# generated using pymatgen
data_Tb2Er6Sc12Ga13Si3
_symmetry_space_group_name_H-M   'P 1'
_cell_length_a   7.22366191
_cell_length_b   7.48548390
_cell_length_c   14.41095661
_cell_angle_alpha   90.04952758
_cell_angle_beta   89.97859754
_cell_angle_gamma   90.15644775
_symmetry_Int_Tables_number   1
_chemical_formula_structural   Tb2Er6Sc12Ga13Si3
_chemical_formula_sum   'Tb2 Er6 Sc12 Ga13 Si3'
_cell_volume   779.23471349
_cell_formula_units_Z   1
loop_
 _symmetry_equiv_pos_site_id
 _symmetry_equiv_pos_as_xyz
  1  'x, y, z'
loop_
 _atom_site_type_symbol
 _atom_site_label
 _atom_site_symmetry_multiplicity
 _atom_site_fract_x
 _atom_site_fract_y
 _atom_site_fract_z
 _atom_site_occupancy
  Tb  Tb0  1  0.511575  0.320285  0.402926  1
  Tb  Tb1  1  0.489203  0.677146  0.595419  1
  Er  Er2  1  0.012239  0.179167  0.096427  1
  Er  Er3  1  0.987369  0.820270  0.905418  1
  Er  Er4  1  0.489315  0.677912  0.904941  1
  Er  Er5  1  0.987832  0.820589  0.595439  1
  Er  Er6  1  0.511442  0.319473  0.096685  1
  Er  Er7  1  0.011864  0.178904  0.402695  1
  Sc  Sc8  1  0.160532  0.504112  0.750506  1
  Sc  Sc9  1  0.837818  0.493591  0.249470  1
  Sc  Sc10  1  0.338314  0.006911  0.249534  1
  Sc  Sc11  1  0.665398  0.993883  0.750558  1
  Sc  Sc12  1  0.330787  0.173838  0.623102  1
  Sc  Sc13  1  0.670933  0.828396  0.376980  1
  Sc  Sc14  1  0.169101  0.671513  0.376125  1
  Sc  Sc15  1  0.670284  0.828042  0.122263  1
  Sc  Sc16  1  0.828976  0.329159  0.623852  1
  Sc  Sc17  1  0.331460  0.174291  0.877752  1
  Sc  Sc18  1  0.828305  0.329324  0.877170  1
  Sc  Sc19  1  0.169723  0.671603  0.122902  1
  Ga  Ga20  1  0.033170  0.118872  0.750507  1
  Ga  Ga21  1  0.967825  0.887464  0.249515  1
  Ga  Ga22  1  0.467382  0.613555  0.249254  1
  Ga  Ga23  1  0.532616  0.387833  0.750795  1
  Ga  Ga24  1  0.283483  0.871287  0.750739  1
  Ga  Ga25  1  0.158405  0.463538  0.540460  1
  Ga  Ga26  1  0.840283  0.534976  0.458091  1
  Ga  Ga27  1  0.337913  0.964669  0.458302  1
  Ga  Ga28  1  0.838610  0.533697  0.042008  1
  Ga  Ga29  1  0.662513  0.035197  0.540832  1
  Ga  Ga30  1  0.160085  0.464908  0.959417  1
  Ga  Ga31  1  0.661967  0.034413  0.959159  1
  Ga  Ga32  1  0.338383  0.965455  0.041622  1
  Si  Si33  1  0.715878  0.125877  0.249127  1
  Si  Si34  1  0.214263  0.373604  0.249144  1
  Si  Si35  1  0.784755  0.626245  0.750860  1
