# generated using pymatgen
data_Ho8In3Fe
_symmetry_space_group_name_H-M   'P 1'
_cell_length_a   10.31200903
_cell_length_b   10.31181435
_cell_length_c   6.96442304
_cell_angle_alpha   89.99151542
_cell_angle_beta   90.00839213
_cell_angle_gamma   119.99429006
_symmetry_Int_Tables_number   1
_chemical_formula_structural   Ho8In3Fe
_chemical_formula_sum   'Ho16 In6 Fe2'
_cell_volume   641.38548064
_cell_formula_units_Z   2
loop_
 _symmetry_equiv_pos_site_id
 _symmetry_equiv_pos_as_xyz
  1  'x, y, z'
loop_
 _atom_site_type_symbol
 _atom_site_label
 _atom_site_symmetry_multiplicity
 _atom_site_fract_x
 _atom_site_fract_y
 _atom_site_fract_z
 _atom_site_occupancy
  Ho  Ho0  1  0.534781  0.069699  0.504956  1
  Ho  Ho1  1  0.930316  0.465227  0.504961  1
  Ho  Ho2  1  0.534971  0.465024  0.504958  1
  Ho  Ho3  1  0.465126  0.930440  0.005102  1
  Ho  Ho4  1  0.069555  0.534875  0.005103  1
  Ho  Ho5  1  0.465211  0.534797  0.005170  1
  Ho  Ho6  1  0.178384  0.356673  0.712437  1
  Ho  Ho7  1  0.643332  0.821619  0.712439  1
  Ho  Ho8  1  0.178402  0.821598  0.712396  1
  Ho  Ho9  1  0.821660  0.643310  0.212362  1
  Ho  Ho10  1  0.356682  0.178338  0.212361  1
  Ho  Ho11  1  0.821628  0.178370  0.212443  1
  Ho  Ho12  1  0.666681  0.333324  0.894314  1
  Ho  Ho13  1  0.333291  0.666703  0.393840  1
  Ho  Ho14  1  0.000039  0.999962  0.494021  1
  Ho  Ho15  1  0.000077  0.999926  0.994298  1
  In  In16  1  0.837289  0.674343  0.752384  1
  In  In17  1  0.325653  0.162713  0.752379  1
  In  In18  1  0.837080  0.162911  0.752162  1
  In  In19  1  0.162762  0.325537  0.251644  1
  In  In20  1  0.674462  0.837239  0.251642  1
  In  In21  1  0.162735  0.837264  0.252342  1
  Fe  Fe22  1  0.666681  0.333317  0.282003  1
  Fe  Fe23  1  0.333200  0.666794  0.782321  1
