# generated using pymatgen
data_SmTh3Co3NiB16
_symmetry_space_group_name_H-M   'P 1'
_cell_length_a   6.92446442
_cell_length_b   6.92665024
_cell_length_c   6.92665012
_cell_angle_alpha   112.63084567
_cell_angle_beta   112.56614252
_cell_angle_gamma   103.39436820
_symmetry_Int_Tables_number   1
_chemical_formula_structural   SmTh3Co3NiB16
_chemical_formula_sum   'Sm1 Th3 Co3 Ni1 B16'
_cell_volume   253.58060828
_cell_formula_units_Z   1
loop_
 _symmetry_equiv_pos_site_id
 _symmetry_equiv_pos_as_xyz
  1  'x, y, z'
loop_
 _atom_site_type_symbol
 _atom_site_label
 _atom_site_symmetry_multiplicity
 _atom_site_fract_x
 _atom_site_fract_y
 _atom_site_fract_z
 _atom_site_occupancy
  Sm  Sm0  1  0.792994  0.791220  0.001774  1
  Th  Th1  1  0.746832  0.248122  0.498711  1
  Th  Th2  1  0.250493  0.752108  0.498385  1
  Th  Th3  1  0.210920  0.209372  0.001548  1
  Co  Co4  1  0.498841  0.270641  0.772141  1
  Co  Co5  1  0.498841  0.726699  0.228199  1
  Co  Co6  1  0.729436  0.498702  0.230734  1
  Ni  Ni7  1  0.270950  0.500414  0.770536  1
  B  B8  1  0.419007  0.417360  0.534262  1
  B  B9  1  0.882498  0.882181  0.463211  1
  B  B10  1  0.581692  0.118034  0.000783  1
  B  B11  1  0.116648  0.582963  0.001292  1
  B  B12  1  0.581692  0.580909  0.463658  1
  B  B13  1  0.116648  0.115356  0.533685  1
  B  B14  1  0.882498  0.419287  0.000317  1
  B  B15  1  0.419007  0.884745  0.001647  1
  B  B16  1  0.111923  0.274122  0.385482  1
  B  B17  1  0.888784  0.725168  0.613191  1
  B  B18  1  0.888784  0.275592  0.163616  1
  B  B19  1  0.111923  0.726442  0.837801  1
  B  B20  1  0.723644  0.887468  0.610813  1
  B  B21  1  0.276150  0.112185  0.388071  1
  B  B22  1  0.723644  0.112830  0.836176  1
  B  B23  1  0.276150  0.888080  0.163966  1
