# generated using pymatgen
data_Tm6Hg7Ir
_symmetry_space_group_name_H-M   'P 1'
_cell_length_a   8.07890655
_cell_length_b   8.13334319
_cell_length_c   8.26425063
_cell_angle_alpha   115.39368771
_cell_angle_beta   114.14248680
_cell_angle_gamma   111.84793512
_symmetry_Int_Tables_number   1
_chemical_formula_structural   Tm6Hg7Ir
_chemical_formula_sum   'Tm6 Hg7 Ir1'
_cell_volume   334.64835259
_cell_formula_units_Z   1
loop_
 _symmetry_equiv_pos_site_id
 _symmetry_equiv_pos_as_xyz
  1  'x, y, z'
loop_
 _atom_site_type_symbol
 _atom_site_label
 _atom_site_symmetry_multiplicity
 _atom_site_fract_x
 _atom_site_fract_y
 _atom_site_fract_z
 _atom_site_occupancy
  Tm  Tm0  1  0.364799  0.002177  0.284294  1
  Tm  Tm1  1  0.029756  0.243107  0.408829  1
  Tm  Tm2  1  0.241776  0.359536  0.942601  1
  Tm  Tm3  1  0.597113  0.029070  0.749646  1
  Tm  Tm4  1  0.035069  0.760220  0.611547  1
  Tm  Tm5  1  0.728280  0.590229  0.993583  1
  Hg  Hg6  1  0.987195  0.998884  0.976841  1
  Hg  Hg7  1  0.505452  0.511049  0.489990  1
  Hg  Hg8  1  0.099614  0.548335  0.243751  1
  Hg  Hg9  1  0.572440  0.258064  0.127210  1
  Hg  Hg10  1  0.721029  0.888749  0.421276  1
  Hg  Hg11  1  0.914224  0.449262  0.742863  1
  Hg  Hg12  1  0.451276  0.775194  0.925090  1
  Ir  Ir13  1  0.251976  0.086125  0.582480  1
