# generated using pymatgen
data_BaVSb12Os2Pd
_symmetry_space_group_name_H-M   'P 1'
_cell_length_a   8.27185074
_cell_length_b   8.21058617
_cell_length_c   8.28565590
_cell_angle_alpha   109.52936902
_cell_angle_beta   109.46715272
_cell_angle_gamma   109.10648851
_symmetry_Int_Tables_number   1
_chemical_formula_structural   BaVSb12Os2Pd
_chemical_formula_sum   'Ba1 V1 Sb12 Os2 Pd1'
_cell_volume   434.84111612
_cell_formula_units_Z   1
loop_
 _symmetry_equiv_pos_site_id
 _symmetry_equiv_pos_as_xyz
  1  'x, y, z'
loop_
 _atom_site_type_symbol
 _atom_site_label
 _atom_site_symmetry_multiplicity
 _atom_site_fract_x
 _atom_site_fract_y
 _atom_site_fract_z
 _atom_site_occupancy
  Ba  Ba0  1  0.000000  0.000000  0.000000  1
  V  V1  1  0.000000  0.500000  0.000000  1
  Sb  Sb2  1  0.348896  0.190089  0.849199  1
  Sb  Sb3  1  0.651104  0.809911  0.150801  1
  Sb  Sb4  1  0.653195  0.497884  0.836672  1
  Sb  Sb5  1  0.346805  0.502116  0.163328  1
  Sb  Sb6  1  0.193875  0.845700  0.347978  1
  Sb  Sb7  1  0.806125  0.154300  0.652022  1
  Sb  Sb8  1  0.502300  0.842849  0.661330  1
  Sb  Sb9  1  0.497700  0.157151  0.338670  1
  Sb  Sb10  1  0.837522  0.338947  0.184417  1
  Sb  Sb11  1  0.162478  0.661053  0.815583  1
  Sb  Sb12  1  0.840340  0.650748  0.501278  1
  Sb  Sb13  1  0.159660  0.349252  0.498722  1
  Os  Os14  1  0.500000  0.000000  0.000000  1
  Os  Os15  1  0.500000  0.500000  0.500000  1
  Pd  Pd16  1  0.000000  0.000000  0.500000  1
