# generated using pymatgen
data_PrNd15(YIr3)4
_symmetry_space_group_name_H-M   'P 1'
_cell_length_a   11.21919702
_cell_length_b   11.21795505
_cell_length_c   6.52798004
_cell_angle_alpha   89.98925028
_cell_angle_beta   90.00637791
_cell_angle_gamma   90.00087874
_symmetry_Int_Tables_number   1
_chemical_formula_structural   PrNd15(YIr3)4
_chemical_formula_sum   'Pr1 Nd15 Y4 Ir12'
_cell_volume   821.58835960
_cell_formula_units_Z   1
loop_
 _symmetry_equiv_pos_site_id
 _symmetry_equiv_pos_as_xyz
  1  'x, y, z'
loop_
 _atom_site_type_symbol
 _atom_site_label
 _atom_site_symmetry_multiplicity
 _atom_site_fract_x
 _atom_site_fract_y
 _atom_site_fract_z
 _atom_site_occupancy
  Pr  Pr0  1  0.289281  0.088094  0.380257  1
  Nd  Nd1  1  0.289609  0.911907  0.880614  1
  Nd  Nd2  1  0.710372  0.087950  0.880663  1
  Nd  Nd3  1  0.710400  0.912035  0.380660  1
  Nd  Nd4  1  0.587955  0.789614  0.880649  1
  Nd  Nd5  1  0.588129  0.210454  0.380634  1
  Nd  Nd6  1  0.412105  0.789453  0.380692  1
  Nd  Nd7  1  0.412174  0.210484  0.880666  1
  Nd  Nd8  1  0.210384  0.412135  0.619413  1
  Nd  Nd9  1  0.210409  0.587948  0.119362  1
  Nd  Nd10  1  0.789615  0.412059  0.119333  1
  Nd  Nd11  1  0.789613  0.587934  0.619328  1
  Nd  Nd12  1  0.912060  0.710391  0.119345  1
  Nd  Nd13  1  0.912027  0.289613  0.619338  1
  Nd  Nd14  1  0.087935  0.710381  0.619348  1
  Nd  Nd15  1  0.087820  0.289698  0.119188  1
  Y  Y16  1  0.999808  0.999919  0.500103  1
  Y  Y17  1  0.999966  0.999998  0.999967  1
  Y  Y18  1  0.500000  0.500001  0.000009  1
  Y  Y19  1  0.500026  0.500011  0.500042  1
  Ir  Ir20  1  0.849550  0.150438  0.250026  1
  Ir  Ir21  1  0.849573  0.849561  0.749991  1
  Ir  Ir22  1  0.150247  0.150540  0.750580  1
  Ir  Ir23  1  0.150328  0.849320  0.249845  1
  Ir  Ir24  1  0.650446  0.349555  0.750015  1
  Ir  Ir25  1  0.650437  0.650458  0.250001  1
  Ir  Ir26  1  0.349635  0.349831  0.249887  1
  Ir  Ir27  1  0.349549  0.650453  0.749988  1
  Ir  Ir28  1  0.500224  0.999899  0.120495  1
  Ir  Ir29  1  0.500326  0.999866  0.621046  1
  Ir  Ir30  1  0.000006  0.499984  0.879268  1
  Ir  Ir31  1  0.999991  0.500017  0.379247  1
