# generated using pymatgen
data_Pr6NdPt3
_symmetry_space_group_name_H-M   'P 1'
_cell_length_a   6.53701300
_cell_length_b   10.28221956
_cell_length_c   10.28221885
_cell_angle_alpha   119.98950047
_cell_angle_beta   90.00000000
_cell_angle_gamma   90.00000000
_symmetry_Int_Tables_number   1
_chemical_formula_structural   Pr6NdPt3
_chemical_formula_sum   'Pr12 Nd2 Pt6'
_cell_volume   598.59024557
_cell_formula_units_Z   2
loop_
 _symmetry_equiv_pos_site_id
 _symmetry_equiv_pos_as_xyz
  1  'x, y, z'
loop_
 _atom_site_type_symbol
 _atom_site_label
 _atom_site_symmetry_multiplicity
 _atom_site_fract_x
 _atom_site_fract_y
 _atom_site_fract_z
 _atom_site_occupancy
  Pr  Pr0  1  0.246152  0.127623  0.872377  1
  Pr  Pr1  1  0.245999  0.745026  0.872528  1
  Pr  Pr2  1  0.245999  0.127472  0.254974  1
  Pr  Pr3  1  0.746152  0.872377  0.127623  1
  Pr  Pr4  1  0.745999  0.254974  0.127472  1
  Pr  Pr5  1  0.745999  0.872528  0.745026  1
  Pr  Pr6  1  0.442138  0.537783  0.462217  1
  Pr  Pr7  1  0.441989  0.924398  0.462234  1
  Pr  Pr8  1  0.441989  0.537766  0.075602  1
  Pr  Pr9  1  0.942138  0.462217  0.537783  1
  Pr  Pr10  1  0.941989  0.075602  0.537766  1
  Pr  Pr11  1  0.941989  0.462234  0.924398  1
  Nd  Nd12  1  0.459093  0.333389  0.666611  1
  Nd  Nd13  1  0.959093  0.666611  0.333389  1
  Pt  Pt14  1  0.189988  0.810968  0.189032  1
  Pt  Pt15  1  0.189826  0.377985  0.189055  1
  Pt  Pt16  1  0.189826  0.810945  0.622015  1
  Pt  Pt17  1  0.689988  0.189032  0.810968  1
  Pt  Pt18  1  0.689826  0.622015  0.810945  1
  Pt  Pt19  1  0.689826  0.189055  0.377985  1
