# generated using pymatgen
data_Eu3BeN3
_symmetry_space_group_name_H-M   'P 1'
_cell_length_a   7.17423400
_cell_length_b   7.17423322
_cell_length_c   5.17318600
_cell_angle_alpha   90.00000000
_cell_angle_beta   90.00000000
_cell_angle_gamma   120.00000358
_symmetry_Int_Tables_number   1
_chemical_formula_structural   Eu3BeN3
_chemical_formula_sum   'Eu6 Be2 N6'
_cell_volume   230.58961185
_cell_formula_units_Z   2
loop_
 _symmetry_equiv_pos_site_id
 _symmetry_equiv_pos_as_xyz
  1  'x, y, z'
loop_
 _atom_site_type_symbol
 _atom_site_label
 _atom_site_symmetry_multiplicity
 _atom_site_fract_x
 _atom_site_fract_y
 _atom_site_fract_z
 _atom_site_occupancy
  Eu  Eu0  1  0.296122  0.935912  0.750000  1
  Eu  Eu1  1  0.639788  0.703878  0.750000  1
  Eu  Eu2  1  0.064088  0.360212  0.750000  1
  Eu  Eu3  1  0.703878  0.064088  0.250000  1
  Eu  Eu4  1  0.360212  0.296122  0.250000  1
  Eu  Eu5  1  0.935912  0.639788  0.250000  1
  Be  Be6  1  0.333333  0.666667  0.250000  1
  Be  Be7  1  0.666667  0.333333  0.750000  1
  N  N8  1  0.310522  0.894976  0.250000  1
  N  N9  1  0.584453  0.689478  0.250000  1
  N  N10  1  0.105024  0.415547  0.250000  1
  N  N11  1  0.689478  0.105024  0.750000  1
  N  N12  1  0.415547  0.310522  0.750000  1
  N  N13  1  0.894976  0.584453  0.750000  1
