# generated using pymatgen
data_TmZr3Fe8
_symmetry_space_group_name_H-M   'P 1'
_cell_length_a   8.70810266
_cell_length_b   8.70810300
_cell_length_c   8.70810229
_cell_angle_alpha   33.46979506
_cell_angle_beta   33.46979230
_cell_angle_gamma   33.46979572
_symmetry_Int_Tables_number   1
_chemical_formula_structural   TmZr3Fe8
_chemical_formula_sum   'Tm1 Zr3 Fe8'
_cell_volume   178.87015945
_cell_formula_units_Z   1
loop_
 _symmetry_equiv_pos_site_id
 _symmetry_equiv_pos_as_xyz
  1  'x, y, z'
loop_
 _atom_site_type_symbol
 _atom_site_label
 _atom_site_symmetry_multiplicity
 _atom_site_fract_x
 _atom_site_fract_y
 _atom_site_fract_z
 _atom_site_occupancy
  Tm  Tm0  1  0.125066  0.125066  0.125066  1
  Zr  Zr1  1  0.624872  0.624872  0.624872  1
  Zr  Zr2  1  0.999601  0.999601  0.999601  1
  Zr  Zr3  1  0.500634  0.500634  0.500634  1
  Fe  Fe4  1  0.561722  0.060765  0.561722  1
  Fe  Fe5  1  0.063168  0.564265  0.063168  1
  Fe  Fe6  1  0.060765  0.561722  0.561722  1
  Fe  Fe7  1  0.564265  0.063168  0.063168  1
  Fe  Fe8  1  0.812544  0.812544  0.812544  1
  Fe  Fe9  1  0.312472  0.312472  0.312472  1
  Fe  Fe10  1  0.561722  0.561722  0.060765  1
  Fe  Fe11  1  0.063168  0.063168  0.564265  1
