# generated using pymatgen
data_Tb8Ta10TiSi16Mo
_symmetry_space_group_name_H-M   'P 1'
_cell_length_a   7.04822518
_cell_length_b   7.04487009
_cell_length_c   13.02275337
_cell_angle_alpha   89.85799697
_cell_angle_beta   90.03648946
_cell_angle_gamma   89.97698400
_symmetry_Int_Tables_number   1
_chemical_formula_structural   Tb8Ta10TiSi16Mo
_chemical_formula_sum   'Tb8 Ta10 Ti1 Si16 Mo1'
_cell_volume   646.62742219
_cell_formula_units_Z   1
loop_
 _symmetry_equiv_pos_site_id
 _symmetry_equiv_pos_as_xyz
  1  'x, y, z'
loop_
 _atom_site_type_symbol
 _atom_site_label
 _atom_site_symmetry_multiplicity
 _atom_site_fract_x
 _atom_site_fract_y
 _atom_site_fract_z
 _atom_site_occupancy
  Tb  Tb0  1  0.341930  0.002123  0.468103  1
  Tb  Tb1  1  0.497272  0.841846  0.719190  1
  Tb  Tb2  1  0.501581  0.158675  0.217134  1
  Tb  Tb3  1  0.840806  0.496333  0.281984  1
  Tb  Tb4  1  0.159210  0.501569  0.782633  1
  Tb  Tb5  1  0.659223  0.996943  0.967825  1
  Tb  Tb6  1  0.003197  0.339912  0.532903  1
  Tb  Tb7  1  0.996887  0.660100  0.030423  1
  Ta  Ta8  1  0.328597  0.329749  0.999350  1
  Ta  Ta9  1  0.171397  0.828052  0.249358  1
  Ta  Ta10  1  0.827645  0.171770  0.750325  1
  Ta  Ta11  1  0.671605  0.671321  0.499545  1
  Ta  Ta12  1  0.490985  0.655546  0.124058  1
  Ta  Ta13  1  0.506047  0.345537  0.624994  1
  Ta  Ta14  1  0.653760  0.491766  0.875751  1
  Ta  Ta15  1  0.346611  0.507115  0.375943  1
  Ta  Ta16  1  0.844797  0.991656  0.374620  1
  Ta  Ta17  1  0.006602  0.153510  0.126310  1
  Ti  Ti18  1  0.992036  0.845125  0.625329  1
  Si  Si19  1  0.201177  0.129655  0.684696  1
  Si  Si20  1  0.367000  0.706132  0.931639  1
  Si  Si21  1  0.633311  0.296174  0.433253  1
  Si  Si22  1  0.703554  0.367697  0.066799  1
  Si  Si23  1  0.297631  0.634668  0.567715  1
  Si  Si24  1  0.797015  0.866345  0.182384  1
  Si  Si25  1  0.133386  0.202342  0.317348  1
  Si  Si26  1  0.870997  0.800817  0.816362  1
  Si  Si27  1  0.292434  0.956619  0.061991  1
  Si  Si28  1  0.544380  0.794195  0.313844  1
  Si  Si29  1  0.452569  0.205989  0.814485  1
  Si  Si30  1  0.794455  0.547962  0.685547  1
  Si  Si31  1  0.206259  0.454582  0.185701  1
  Si  Si32  1  0.709051  0.044002  0.565026  1
  Si  Si33  1  0.956812  0.289992  0.935921  1
  Si  Si34  1  0.045034  0.706518  0.436583  1
  Mo  Mo35  1  0.154751  0.007664  0.874929  1
