# generated using pymatgen
data_NaTcNiP2
_symmetry_space_group_name_H-M   'P 1'
_cell_length_a   6.53683440
_cell_length_b   6.53683520
_cell_length_c   6.53683500
_cell_angle_alpha   145.90679734
_cell_angle_beta   145.90680605
_cell_angle_gamma   48.98520747
_symmetry_Int_Tables_number   1
_chemical_formula_structural   NaTcNiP2
_chemical_formula_sum   'Na1 Tc1 Ni1 P2'
_cell_volume   87.37535298
_cell_formula_units_Z   1
loop_
 _symmetry_equiv_pos_site_id
 _symmetry_equiv_pos_as_xyz
  1  'x, y, z'
loop_
 _atom_site_type_symbol
 _atom_site_label
 _atom_site_symmetry_multiplicity
 _atom_site_fract_x
 _atom_site_fract_y
 _atom_site_fract_z
 _atom_site_occupancy
  Na  Na0  1  0.000000  0.000000  0.000000  1
  Tc  Tc1  1  0.750000  0.250000  0.500000  1
  Ni  Ni2  1  0.250000  0.750000  0.500000  1
  P  P3  1  0.642849  0.642849  0.000000  1
  P  P4  1  0.357151  0.357151  0.000000  1
