# generated using pymatgen
data_Li8TbY7(Sn3Sb)2
_symmetry_space_group_name_H-M   'P 1'
_cell_length_a   9.38775725
_cell_length_b   9.38894525
_cell_length_c   7.28747813
_cell_angle_alpha   90.06538811
_cell_angle_beta   89.85221205
_cell_angle_gamma   120.00015973
_symmetry_Int_Tables_number   1
_chemical_formula_structural   Li8TbY7(Sn3Sb)2
_chemical_formula_sum   'Li8 Tb1 Y7 Sn6 Sb2'
_cell_volume   556.26841787
_cell_formula_units_Z   1
loop_
 _symmetry_equiv_pos_site_id
 _symmetry_equiv_pos_as_xyz
  1  'x, y, z'
loop_
 _atom_site_type_symbol
 _atom_site_label
 _atom_site_symmetry_multiplicity
 _atom_site_fract_x
 _atom_site_fract_y
 _atom_site_fract_z
 _atom_site_occupancy
  Li  Li0  1  0.166304  0.832017  0.194457  1
  Li  Li1  1  0.334261  0.167908  0.694237  1
  Li  Li2  1  0.832298  0.665675  0.693961  1
  Li  Li3  1  0.166408  0.334299  0.194149  1
  Li  Li4  1  0.666190  0.833090  0.195174  1
  Li  Li5  1  0.833192  0.167082  0.694901  1
  Li  Li6  1  0.333627  0.666306  0.813060  1
  Li  Li7  1  0.667565  0.333759  0.313194  1
  Tb  Tb8  1  0.513087  0.489286  0.990593  1
  Y  Y9  1  0.023961  0.510769  0.490659  1
  Y  Y10  1  0.490934  0.975260  0.491964  1
  Y  Y11  1  0.515704  0.024672  0.991964  1
  Y  Y12  1  0.973934  0.484855  0.992667  1
  Y  Y13  1  0.488945  0.515125  0.492679  1
  Y  Y14  1  0.997029  0.000001  0.985454  1
  Y  Y15  1  0.997049  0.000043  0.485441  1
  Sn  Sn16  1  0.833661  0.666919  0.255101  1
  Sn  Sn17  1  0.166557  0.333043  0.754926  1
  Sn  Sn18  1  0.666794  0.833722  0.754857  1
  Sn  Sn19  1  0.833099  0.166352  0.254931  1
  Sn  Sn20  1  0.333310  0.667505  0.223775  1
  Sn  Sn21  1  0.666017  0.332475  0.723562  1
  Sb  Sb22  1  0.167140  0.834090  0.754095  1
  Sb  Sb23  1  0.332935  0.165747  0.254205  1
