# generated using pymatgen
data_RbHfCr9S16
_symmetry_space_group_name_H-M   'P 1'
_cell_length_a   6.97920444
_cell_length_b   9.30286463
_cell_length_c   9.45693900
_cell_angle_alpha   72.34517427
_cell_angle_beta   68.37890921
_cell_angle_gamma   79.21825228
_symmetry_Int_Tables_number   1
_chemical_formula_structural   RbHfCr9S16
_chemical_formula_sum   'Rb1 Hf1 Cr9 S16'
_cell_volume   541.95183825
_cell_formula_units_Z   1
loop_
 _symmetry_equiv_pos_site_id
 _symmetry_equiv_pos_as_xyz
  1  'x, y, z'
loop_
 _atom_site_type_symbol
 _atom_site_label
 _atom_site_symmetry_multiplicity
 _atom_site_fract_x
 _atom_site_fract_y
 _atom_site_fract_z
 _atom_site_occupancy
  Rb  Rb0  1  0.002530  0.003573  0.992680  1
  Hf  Hf1  1  0.840508  0.696275  0.470909  1
  Cr  Cr2  1  0.340969  0.679931  0.477543  1
  Cr  Cr3  1  0.657438  0.316578  0.524573  1
  Cr  Cr4  1  0.160630  0.315994  0.523852  1
  Cr  Cr5  1  0.815507  0.405868  0.164290  1
  Cr  Cr6  1  0.317920  0.403142  0.164440  1
  Cr  Cr7  1  0.682949  0.590442  0.839081  1
  Cr  Cr8  1  0.182248  0.587420  0.841361  1
  Cr  Cr9  1  0.499647  0.000119  0.500822  1
  Cr  Cr10  1  0.999435  0.000621  0.500897  1
  S  S11  1  0.784619  0.153433  0.353285  1
  S  S12  1  0.284641  0.153075  0.355124  1
  S  S13  1  0.703954  0.854458  0.664966  1
  S  S14  1  0.215653  0.843533  0.647045  1
  S  S15  1  0.960976  0.472084  0.341757  1
  S  S16  1  0.459374  0.474024  0.344793  1
  S  S17  1  0.533818  0.521193  0.658988  1
  S  S18  1  0.046070  0.521442  0.659127  1
  S  S19  1  0.617050  0.836428  0.318677  1
  S  S20  1  0.145582  0.836771  0.318679  1
  S  S21  1  0.874624  0.172986  0.664858  1
  S  S22  1  0.374766  0.171960  0.664990  1
  S  S23  1  0.342005  0.648158  0.991611  1
  S  S24  1  0.842576  0.649837  0.990675  1
  S  S25  1  0.156599  0.344003  0.013504  1
  S  S26  1  0.657913  0.346655  0.011475  1
