# generated using pymatgen
data_Tb2B2Ir5
_symmetry_space_group_name_H-M   'P 1'
_cell_length_a   5.46759588
_cell_length_b   5.46759595
_cell_length_c   11.07422531
_cell_angle_alpha   90.00000014
_cell_angle_beta   75.70814267
_cell_angle_gamma   120.00001096
_symmetry_Int_Tables_number   1
_chemical_formula_structural   Tb2B2Ir5
_chemical_formula_sum   'Tb4 B4 Ir10'
_cell_volume   274.81123652
_cell_formula_units_Z   2
loop_
 _symmetry_equiv_pos_site_id
 _symmetry_equiv_pos_as_xyz
  1  'x, y, z'
loop_
 _atom_site_type_symbol
 _atom_site_label
 _atom_site_symmetry_multiplicity
 _atom_site_fract_x
 _atom_site_fract_y
 _atom_site_fract_z
 _atom_site_occupancy
  Tb  Tb0  1  0.900533  0.950267  0.149202  1
  Tb  Tb1  1  0.696707  0.848353  0.454941  1
  Tb  Tb2  1  0.303294  0.151648  0.545058  1
  Tb  Tb3  1  0.099468  0.049734  0.850799  1
  B  B4  1  0.235160  0.617580  0.147261  1
  B  B5  1  0.567587  0.283794  0.148620  1
  B  B6  1  0.432414  0.716207  0.851380  1
  B  B7  1  0.764841  0.382421  0.852740  1
  Ir  Ir8  1  0.500000  0.500000  0.000000  1
  Ir  Ir9  1  0.000000  0.500002  0.000000  1
  Ir  Ir10  1  0.811984  0.405992  0.288892  1
  Ir  Ir11  1  0.305116  0.405993  0.288892  1
  Ir  Ir12  1  0.305117  0.899124  0.288892  1
  Ir  Ir13  1  0.000001  0.500000  0.500000  1
  Ir  Ir14  1  0.694885  0.100876  0.711109  1
  Ir  Ir15  1  0.694885  0.594008  0.711109  1
  Ir  Ir16  1  0.188017  0.594009  0.711109  1
  Ir  Ir17  1  0.500002  0.000000  0.000000  1
