# generated using pymatgen
data_Dy4Er4Tm4Co5Bi
_symmetry_space_group_name_H-M   'P 1'
_cell_length_a   8.26443514
_cell_length_b   8.26443414
_cell_length_c   8.26443441
_cell_angle_alpha   110.82673516
_cell_angle_beta   110.74105114
_cell_angle_gamma   106.87662538
_symmetry_Int_Tables_number   1
_chemical_formula_structural   Dy4Er4Tm4Co5Bi
_chemical_formula_sum   'Dy4 Er4 Tm4 Co5 Bi1'
_cell_volume   433.86305374
_cell_formula_units_Z   1
loop_
 _symmetry_equiv_pos_site_id
 _symmetry_equiv_pos_as_xyz
  1  'x, y, z'
loop_
 _atom_site_type_symbol
 _atom_site_label
 _atom_site_symmetry_multiplicity
 _atom_site_fract_x
 _atom_site_fract_y
 _atom_site_fract_z
 _atom_site_occupancy
  Dy  Dy0  1  0.287550  0.184341  0.471891  1
  Dy  Dy1  1  0.712450  0.815659  0.528109  1
  Dy  Dy2  1  0.287550  0.815659  0.103211  1
  Dy  Dy3  1  0.712450  0.184341  0.896789  1
  Er  Er4  1  0.208329  0.403114  0.194785  1
  Er  Er5  1  0.791671  0.596886  0.805215  1
  Er  Er6  1  0.208329  0.013543  0.805215  1
  Er  Er7  1  0.791671  0.986457  0.194785  1
  Tm  Tm8  1  0.622794  0.312130  0.310664  1
  Tm  Tm9  1  0.377206  0.687870  0.689336  1
  Tm  Tm10  1  0.001468  0.312130  0.689336  1
  Tm  Tm11  1  0.998532  0.687870  0.310664  1
  Co  Co12  1  0.000000  0.375817  0.375817  1
  Co  Co13  1  0.000000  0.624183  0.624183  1
  Co  Co14  1  0.387998  0.887998  0.500000  1
  Co  Co15  1  0.612002  0.112002  0.500000  1
  Co  Co16  1  0.000000  0.000000  0.000000  1
  Bi  Bi17  1  0.500000  0.500000  0.000000  1
