# generated using pymatgen
data_Tb6ErCo2Sn23Os4
_symmetry_space_group_name_H-M   'P 1'
_cell_length_a   9.81066314
_cell_length_b   9.85470637
_cell_length_c   10.07458747
_cell_angle_alpha   89.99831890
_cell_angle_beta   89.78410671
_cell_angle_gamma   120.15370099
_symmetry_Int_Tables_number   1
_chemical_formula_structural   Tb6ErCo2Sn23Os4
_chemical_formula_sum   'Tb6 Er1 Co2 Sn23 Os4'
_cell_volume   842.21133441
_cell_formula_units_Z   1
loop_
 _symmetry_equiv_pos_site_id
 _symmetry_equiv_pos_as_xyz
  1  'x, y, z'
loop_
 _atom_site_type_symbol
 _atom_site_label
 _atom_site_symmetry_multiplicity
 _atom_site_fract_x
 _atom_site_fract_y
 _atom_site_fract_z
 _atom_site_occupancy
  Tb  Tb0  1  0.999914  0.000109  0.000087  1
  Tb  Tb1  1  0.516191  0.481098  0.694537  1
  Tb  Tb2  1  0.483827  0.965066  0.305339  1
  Tb  Tb3  1  0.516166  0.035085  0.694608  1
  Tb  Tb4  1  0.035135  0.517629  0.303913  1
  Tb  Tb5  1  0.964679  0.482318  0.696023  1
  Er  Er6  1  0.485140  0.518643  0.304891  1
  Co  Co7  1  0.339049  0.170041  0.199791  1
  Co  Co8  1  0.661287  0.830675  0.800360  1
  Sn  Sn9  1  0.349053  0.002872  0.005008  1
  Sn  Sn10  1  0.650894  0.997203  0.995120  1
  Sn  Sn11  1  0.000082  0.349516  0.000043  1
  Sn  Sn12  1  0.999724  0.650522  0.000258  1
  Sn  Sn13  1  0.650697  0.653594  0.995012  1
  Sn  Sn14  1  0.349142  0.346475  0.005055  1
  Sn  Sn15  1  0.336104  0.668036  0.822257  1
  Sn  Sn16  1  0.663728  0.331940  0.177858  1
  Sn  Sn17  1  0.999926  0.000053  0.499933  1
  Sn  Sn18  1  0.780414  0.220433  0.461283  1
  Sn  Sn19  1  0.219537  0.779654  0.538692  1
  Sn  Sn20  1  0.779619  0.559938  0.461132  1
  Sn  Sn21  1  0.220174  0.440149  0.538092  1
  Sn  Sn22  1  0.437604  0.219600  0.454215  1
  Sn  Sn23  1  0.562389  0.780844  0.544846  1
  Sn  Sn24  1  0.336125  0.666874  0.124294  1
  Sn  Sn25  1  0.664634  0.332283  0.876643  1
  Sn  Sn26  1  0.120044  0.889180  0.276208  1
  Sn  Sn27  1  0.879680  0.110685  0.723753  1
  Sn  Sn28  1  0.121053  0.231678  0.276316  1
  Sn  Sn29  1  0.879557  0.768922  0.723833  1
  Sn  Sn30  1  0.764181  0.881871  0.277161  1
  Sn  Sn31  1  0.235106  0.117621  0.723064  1
  Os  Os32  1  0.829616  0.168051  0.200955  1
  Os  Os33  1  0.170496  0.831789  0.799259  1
  Os  Os34  1  0.828444  0.660760  0.201069  1
  Os  Os35  1  0.170592  0.338792  0.799094  1
