# generated using pymatgen
data_Er3Lu17(Ir2Ru)4
_symmetry_space_group_name_H-M   'P 1'
_cell_length_a   10.61171007
_cell_length_b   10.61464311
_cell_length_c   6.31601202
_cell_angle_alpha   89.99037728
_cell_angle_beta   90.00038431
_cell_angle_gamma   89.98644965
_symmetry_Int_Tables_number   1
_chemical_formula_structural   Er3Lu17(Ir2Ru)4
_chemical_formula_sum   'Er3 Lu17 Ir8 Ru4'
_cell_volume   711.43250251
_cell_formula_units_Z   1
loop_
 _symmetry_equiv_pos_site_id
 _symmetry_equiv_pos_as_xyz
  1  'x, y, z'
loop_
 _atom_site_type_symbol
 _atom_site_label
 _atom_site_symmetry_multiplicity
 _atom_site_fract_x
 _atom_site_fract_y
 _atom_site_fract_z
 _atom_site_occupancy
  Er  Er0  1  0.913497  0.293367  0.623286  1
  Er  Er1  1  0.086359  0.706623  0.623271  1
  Er  Er2  1  0.086491  0.293418  0.123203  1
  Lu  Lu3  1  0.293766  0.086165  0.377272  1
  Lu  Lu4  1  0.293786  0.913779  0.877197  1
  Lu  Lu5  1  0.706192  0.086175  0.877177  1
  Lu  Lu6  1  0.706330  0.913703  0.377158  1
  Lu  Lu7  1  0.586325  0.793705  0.877076  1
  Lu  Lu8  1  0.586277  0.206258  0.377068  1
  Lu  Lu9  1  0.413698  0.793732  0.377075  1
  Lu  Lu10  1  0.413751  0.206292  0.877050  1
  Lu  Lu11  1  0.206712  0.413717  0.622863  1
  Lu  Lu12  1  0.206471  0.586438  0.122902  1
  Lu  Lu13  1  0.793436  0.413852  0.122878  1
  Lu  Lu14  1  0.793376  0.586423  0.622884  1
  Lu  Lu15  1  0.913562  0.706360  0.122847  1
  Lu  Lu16  1  0.999983  0.999950  0.499879  1
  Lu  Lu17  1  0.999897  0.999800  0.000179  1
  Lu  Lu18  1  0.500014  0.500039  0.999873  1
  Lu  Lu19  1  0.500003  0.500014  0.500134  1
  Ir  Ir20  1  0.847022  0.152263  0.249449  1
  Ir  Ir21  1  0.847203  0.847569  0.750065  1
  Ir  Ir22  1  0.152923  0.152227  0.749416  1
  Ir  Ir23  1  0.152754  0.847607  0.249306  1
  Ir  Ir24  1  0.652217  0.347473  0.750149  1
  Ir  Ir25  1  0.652526  0.652566  0.249988  1
  Ir  Ir26  1  0.347826  0.347473  0.250176  1
  Ir  Ir27  1  0.347791  0.652528  0.750142  1
  Ru  Ru28  1  0.500023  0.000011  0.122379  1
  Ru  Ru29  1  0.500011  0.000003  0.622263  1
  Ru  Ru30  1  0.999895  0.500263  0.878027  1
  Ru  Ru31  1  0.999882  0.500208  0.377366  1
