# generated using pymatgen
data_TbDy4(In2Ir)2
_symmetry_space_group_name_H-M   'P 1'
_cell_length_a   3.66256700
_cell_length_b   8.01091600
_cell_length_c   18.32358000
_cell_angle_alpha   90.00000000
_cell_angle_beta   90.00000000
_cell_angle_gamma   90.00000000
_symmetry_Int_Tables_number   1
_chemical_formula_structural   TbDy4(In2Ir)2
_chemical_formula_sum   'Tb2 Dy8 In8 Ir4'
_cell_volume   537.62330282
_cell_formula_units_Z   2
loop_
 _symmetry_equiv_pos_site_id
 _symmetry_equiv_pos_as_xyz
  1  'x, y, z'
loop_
 _atom_site_type_symbol
 _atom_site_label
 _atom_site_symmetry_multiplicity
 _atom_site_fract_x
 _atom_site_fract_y
 _atom_site_fract_z
 _atom_site_occupancy
  Tb  Tb0  1  0.500000  0.500000  0.000000  1
  Tb  Tb1  1  0.500000  0.000000  0.500000  1
  Dy  Dy2  1  0.500000  0.382705  0.589343  1
  Dy  Dy3  1  0.500000  0.882705  0.910657  1
  Dy  Dy4  1  0.500000  0.117295  0.089343  1
  Dy  Dy5  1  0.500000  0.754697  0.721801  1
  Dy  Dy6  1  0.500000  0.254697  0.778199  1
  Dy  Dy7  1  0.500000  0.745303  0.221801  1
  Dy  Dy8  1  0.500000  0.245303  0.278199  1
  Dy  Dy9  1  0.500000  0.617295  0.410657  1
  In  In10  1  0.000000  0.793626  0.068355  1
  In  In11  1  0.000000  0.929065  0.349881  1
  In  In12  1  0.000000  0.070935  0.650119  1
  In  In13  1  0.000000  0.570935  0.849881  1
  In  In14  1  0.000000  0.706374  0.568355  1
  In  In15  1  0.000000  0.206374  0.931645  1
  In  In16  1  0.000000  0.293626  0.431645  1
  In  In17  1  0.000000  0.429065  0.150119  1
  Ir  Ir18  1  0.000000  0.979300  0.804781  1
  Ir  Ir19  1  0.000000  0.520700  0.304781  1
  Ir  Ir20  1  0.000000  0.479300  0.695219  1
  Ir  Ir21  1  0.000000  0.020700  0.195219  1
