# generated using pymatgen
data_Li6Al5ZnPt12
_symmetry_space_group_name_H-M   'P 1'
_cell_length_a   4.10695100
_cell_length_b   6.50633700
_cell_length_c   12.31816600
_cell_angle_alpha   90.00000000
_cell_angle_beta   90.00100458
_cell_angle_gamma   90.00000000
_symmetry_Int_Tables_number   1
_chemical_formula_structural   Li6Al5ZnPt12
_chemical_formula_sum   'Li6 Al5 Zn1 Pt12'
_cell_volume   329.15626658
_cell_formula_units_Z   1
loop_
 _symmetry_equiv_pos_site_id
 _symmetry_equiv_pos_as_xyz
  1  'x, y, z'
loop_
 _atom_site_type_symbol
 _atom_site_label
 _atom_site_symmetry_multiplicity
 _atom_site_fract_x
 _atom_site_fract_y
 _atom_site_fract_z
 _atom_site_occupancy
  Li  Li0  1  0.000000  0.000000  0.000000  1
  Li  Li1  1  0.499915  0.500001  0.164669  1
  Li  Li2  1  0.999832  0.000000  0.333122  1
  Li  Li3  1  0.499999  0.500001  0.500000  1
  Li  Li4  1  0.000168  0.000000  0.666879  1
  Li  Li5  1  0.500085  0.500001  0.835331  1
  Al  Al6  1  0.499866  0.000000  0.166617  1
  Al  Al7  1  0.999884  0.500001  0.332656  1
  Al  Al8  1  0.499999  0.000000  0.500000  1
  Al  Al9  1  0.000116  0.500001  0.667344  1
  Al  Al10  1  0.500137  0.000000  0.833383  1
  Zn  Zn11  1  0.000000  0.500001  0.000000  1
  Pt  Pt12  1  0.499999  0.243550  0.000000  1
  Pt  Pt13  1  0.499999  0.756451  0.000000  1
  Pt  Pt14  1  0.999869  0.246660  0.168083  1
  Pt  Pt15  1  0.999869  0.753341  0.168083  1
  Pt  Pt16  1  0.499884  0.250175  0.333898  1
  Pt  Pt17  1  0.499884  0.749825  0.333898  1
  Pt  Pt18  1  0.000000  0.250227  0.500000  1
  Pt  Pt19  1  0.000000  0.749773  0.500000  1
  Pt  Pt20  1  0.500116  0.250175  0.666101  1
  Pt  Pt21  1  0.500116  0.749825  0.666101  1
  Pt  Pt22  1  0.000131  0.246660  0.831917  1
  Pt  Pt23  1  0.000131  0.753341  0.831917  1
