# generated using pymatgen
data_Ca3Si3Pd
_symmetry_space_group_name_H-M   'P 1'
_cell_length_a   5.76001636
_cell_length_b   5.76001617
_cell_length_c   13.96236844
_cell_angle_alpha   70.57085587
_cell_angle_beta   70.57085645
_cell_angle_gamma   45.08920070
_symmetry_Int_Tables_number   1
_chemical_formula_structural   Ca3Si3Pd
_chemical_formula_sum   'Ca6 Si6 Pd2'
_cell_volume   306.05293414
_cell_formula_units_Z   2
loop_
 _symmetry_equiv_pos_site_id
 _symmetry_equiv_pos_as_xyz
  1  'x, y, z'
loop_
 _atom_site_type_symbol
 _atom_site_label
 _atom_site_symmetry_multiplicity
 _atom_site_fract_x
 _atom_site_fract_y
 _atom_site_fract_z
 _atom_site_occupancy
  Ca  Ca0  1  0.604018  0.604018  0.077403  1
  Ca  Ca1  1  0.395982  0.395982  0.922597  1
  Ca  Ca2  1  0.529002  0.529002  0.622693  1
  Ca  Ca3  1  0.470998  0.470998  0.377307  1
  Ca  Ca4  1  0.254752  0.254752  0.230742  1
  Ca  Ca5  1  0.745248  0.745248  0.769258  1
  Si  Si6  1  0.954867  0.954867  0.231873  1
  Si  Si7  1  0.045133  0.045133  0.768127  1
  Si  Si8  1  0.875068  0.875068  0.536595  1
  Si  Si9  1  0.124932  0.124932  0.463405  1
  Si  Si10  1  0.101497  0.101497  0.923035  1
  Si  Si11  1  0.898503  0.898503  0.076965  1
  Pd  Pd12  1  0.750636  0.750636  0.405625  1
  Pd  Pd13  1  0.249364  0.249364  0.594375  1
