# generated using pymatgen
data_CaZnH4
_symmetry_space_group_name_H-M   'P 1'
_cell_length_a   4.58894704
_cell_length_b   4.57873353
_cell_length_c   4.82224868
_cell_angle_alpha   121.37173947
_cell_angle_beta   58.18833518
_cell_angle_gamma   96.36922625
_symmetry_Int_Tables_number   1
_chemical_formula_structural   CaZnH4
_chemical_formula_sum   'Ca1 Zn1 H4'
_cell_volume   71.62476497
_cell_formula_units_Z   1
loop_
 _symmetry_equiv_pos_site_id
 _symmetry_equiv_pos_as_xyz
  1  'x, y, z'
loop_
 _atom_site_type_symbol
 _atom_site_label
 _atom_site_symmetry_multiplicity
 _atom_site_fract_x
 _atom_site_fract_y
 _atom_site_fract_z
 _atom_site_occupancy
  Ca  Ca0  1  0.680927  0.661182  0.187355  1
  Zn  Zn1  1  0.183145  0.158992  0.185638  1
  H  H2  1  0.204328  0.802364  0.187629  1
  H  H3  1  0.163348  0.506950  0.564535  1
  H  H4  1  0.541484  0.131466  0.806149  1
  H  H5  1  0.829033  0.187504  0.186564  1
