# generated using pymatgen
data_Er2Tm8In8AgPt3
_symmetry_space_group_name_H-M   'P 1'
_cell_length_a   3.58691900
_cell_length_b   8.13428258
_cell_length_c   18.20838214
_cell_angle_alpha   89.98455533
_cell_angle_beta   90.00000000
_cell_angle_gamma   90.00000000
_symmetry_Int_Tables_number   1
_chemical_formula_structural   Er2Tm8In8AgPt3
_chemical_formula_sum   'Er2 Tm8 In8 Ag1 Pt3'
_cell_volume   531.26617862
_cell_formula_units_Z   1
loop_
 _symmetry_equiv_pos_site_id
 _symmetry_equiv_pos_as_xyz
  1  'x, y, z'
loop_
 _atom_site_type_symbol
 _atom_site_label
 _atom_site_symmetry_multiplicity
 _atom_site_fract_x
 _atom_site_fract_y
 _atom_site_fract_z
 _atom_site_occupancy
  Er  Er0  1  0.000000  0.999012  0.998962  1
  Er  Er1  1  0.000000  0.500943  0.500671  1
  Tm  Tm2  1  0.000000  0.121251  0.422482  1
  Tm  Tm3  1  0.000000  0.885242  0.586198  1
  Tm  Tm4  1  0.000000  0.385154  0.914475  1
  Tm  Tm5  1  0.000000  0.617792  0.082614  1
  Tm  Tm6  1  0.000000  0.254641  0.214809  1
  Tm  Tm7  1  0.000000  0.756949  0.779116  1
  Tm  Tm8  1  0.000000  0.257344  0.721931  1
  Tm  Tm9  1  0.000000  0.722058  0.280384  1
  In  In10  1  0.500000  0.413263  0.352379  1
  In  In11  1  0.500000  0.577431  0.648707  1
  In  In12  1  0.500000  0.077502  0.851660  1
  In  In13  1  0.500000  0.922015  0.148731  1
  In  In14  1  0.500000  0.292995  0.063744  1
  In  In15  1  0.500000  0.708301  0.932305  1
  In  In16  1  0.500000  0.210704  0.569114  1
  In  In17  1  0.500000  0.793957  0.433722  1
  Ag  Ag18  1  0.500000  0.025354  0.302274  1
  Pt  Pt19  1  0.500000  0.975717  0.696868  1
  Pt  Pt20  1  0.500000  0.475972  0.803659  1
  Pt  Pt21  1  0.500000  0.526406  0.195193  1
