# generated using pymatgen
data_Na4FeNi3S4(O4F)4
_symmetry_space_group_name_H-M   'P 1'
_cell_length_a   6.60656273
_cell_length_b   8.57076900
_cell_length_c   7.16774500
_cell_angle_alpha   89.99997326
_cell_angle_beta   113.60227142
_cell_angle_gamma   89.99992495
_symmetry_Int_Tables_number   1
_chemical_formula_structural   Na4FeNi3S4(O4F)4
_chemical_formula_sum   'Na4 Fe1 Ni3 S4 O16 F4'
_cell_volume   371.90994754
_cell_formula_units_Z   1
loop_
 _symmetry_equiv_pos_site_id
 _symmetry_equiv_pos_as_xyz
  1  'x, y, z'
loop_
 _atom_site_type_symbol
 _atom_site_label
 _atom_site_symmetry_multiplicity
 _atom_site_fract_x
 _atom_site_fract_y
 _atom_site_fract_z
 _atom_site_occupancy
  Na  Na0  1  0.502395  0.838201  0.752264  1
  Na  Na1  1  0.001219  0.337155  0.752128  1
  Na  Na2  1  0.497662  0.161770  0.247542  1
  Na  Na3  1  0.998628  0.662916  0.247814  1
  Fe  Fe4  1  0.499715  0.499995  0.499931  1
  Ni  Ni5  1  0.499666  0.499707  0.999441  1
  Ni  Ni6  1  0.000752  0.000170  0.500209  1
  Ni  Ni7  1  0.000431  0.000095  0.000630  1
  S  S8  1  0.500541  0.179911  0.751796  1
  S  S9  1  0.006286  0.684311  0.751528  1
  S  S10  1  0.499630  0.820005  0.248251  1
  S  S11  1  0.993562  0.315777  0.248460  1
  O  O12  1  0.392217  0.281468  0.855123  1
  O  O13  1  0.896597  0.782349  0.856706  1
  O  O14  1  0.611686  0.276988  0.648008  1
  O  O15  1  0.115294  0.784540  0.648058  1
  O  O16  1  0.607461  0.718453  0.144643  1
  O  O17  1  0.103534  0.217721  0.143447  1
  O  O18  1  0.388252  0.723030  0.352025  1
  O  O19  1  0.884779  0.215452  0.351984  1
  O  O20  1  0.664023  0.076420  0.906768  1
  O  O21  1  0.171323  0.580903  0.905687  1
  O  O22  1  0.333311  0.078299  0.597319  1
  O  O23  1  0.842025  0.581917  0.597340  1
  O  O24  1  0.335856  0.923609  0.093283  1
  O  O25  1  0.828545  0.419012  0.094294  1
  O  O26  1  0.666838  0.921643  0.402570  1
  O  O27  1  0.157858  0.418157  0.402642  1
  F  F28  1  0.508357  0.587721  0.755092  1
  F  F29  1  0.999162  0.085897  0.749965  1
  F  F30  1  0.491451  0.412383  0.244674  1
  F  F31  1  0.000939  0.914023  0.250377  1
