# generated using pymatgen
data_Ca2Sm3Er(Si3Ru)8
_symmetry_space_group_name_H-M   'P 1'
_cell_length_a   10.15870602
_cell_length_b   10.15693163
_cell_length_c   8.18052308
_cell_angle_alpha   90.09033476
_cell_angle_beta   89.89648281
_cell_angle_gamma   132.51139524
_symmetry_Int_Tables_number   1
_chemical_formula_structural   Ca2Sm3Er(Si3Ru)8
_chemical_formula_sum   'Ca2 Sm3 Er1 Si24 Ru8'
_cell_volume   622.20422761
_cell_formula_units_Z   1
loop_
 _symmetry_equiv_pos_site_id
 _symmetry_equiv_pos_as_xyz
  1  'x, y, z'
loop_
 _atom_site_type_symbol
 _atom_site_label
 _atom_site_symmetry_multiplicity
 _atom_site_fract_x
 _atom_site_fract_y
 _atom_site_fract_z
 _atom_site_occupancy
  Ca  Ca0  1  0.998310  0.498320  0.250162  1
  Ca  Ca1  1  0.499714  0.499739  0.499564  1
  Sm  Sm2  1  0.497370  0.997287  0.250459  1
  Sm  Sm3  1  0.003327  0.503453  0.749612  1
  Sm  Sm4  1  0.501741  0.001829  0.749611  1
  Er  Er5  1  0.999684  0.999676  0.000636  1
  Si  Si6  1  0.387711  0.156258  0.005834  1
  Si  Si7  1  0.655118  0.886031  0.494034  1
  Si  Si8  1  0.114403  0.346079  0.505612  1
  Si  Si9  1  0.844829  0.612732  0.994651  1
  Si  Si10  1  0.612190  0.844068  0.994287  1
  Si  Si11  1  0.345271  0.113942  0.505540  1
  Si  Si12  1  0.885816  0.653997  0.495418  1
  Si  Si13  1  0.155321  0.387606  0.004642  1
  Si  Si14  1  0.609904  0.377976  0.229699  1
  Si  Si15  1  0.877478  0.109402  0.271217  1
  Si  Si16  1  0.890725  0.122561  0.728483  1
  Si  Si17  1  0.622234  0.390466  0.770446  1
  Si  Si18  1  0.390068  0.621981  0.770588  1
  Si  Si19  1  0.122397  0.890442  0.728387  1
  Si  Si20  1  0.706735  0.297418  0.001546  1
  Si  Si21  1  0.797954  0.206541  0.498283  1
  Si  Si22  1  0.293137  0.702766  0.002440  1
  Si  Si23  1  0.202235  0.793373  0.497549  1
  Si  Si24  1  0.169041  0.166674  0.333710  1
  Si  Si25  1  0.664782  0.666980  0.168296  1
  Si  Si26  1  0.331605  0.334502  0.831819  1
  Si  Si27  1  0.833028  0.829396  0.666274  1
  Si  Si28  1  0.377842  0.610685  0.230052  1
  Si  Si29  1  0.110518  0.877813  0.271091  1
  Ru  Ru30  1  0.627325  0.626984  0.875866  1
  Ru  Ru31  1  0.123395  0.123965  0.627473  1
  Ru  Ru32  1  0.875608  0.875428  0.372307  1
  Ru  Ru33  1  0.371881  0.372333  0.124319  1
  Ru  Ru34  1  0.331596  0.671683  0.501567  1
  Ru  Ru35  1  0.170150  0.832922  0.998721  1
  Ru  Ru36  1  0.669514  0.328472  0.500640  1
  Ru  Ru37  1  0.830044  0.168218  0.999166  1
