# generated using pymatgen
data_TbEr2RuI3
_symmetry_space_group_name_H-M   'P 1'
_cell_length_a   4.20293000
_cell_length_b   8.87571509
_cell_length_c   12.29697303
_cell_angle_alpha   94.75798733
_cell_angle_beta   90.00000000
_cell_angle_gamma   90.00000000
_symmetry_Int_Tables_number   1
_chemical_formula_structural   TbEr2RuI3
_chemical_formula_sum   'Tb2 Er4 Ru2 I6'
_cell_volume   457.14560078
_cell_formula_units_Z   2
loop_
 _symmetry_equiv_pos_site_id
 _symmetry_equiv_pos_as_xyz
  1  'x, y, z'
loop_
 _atom_site_type_symbol
 _atom_site_label
 _atom_site_symmetry_multiplicity
 _atom_site_fract_x
 _atom_site_fract_y
 _atom_site_fract_z
 _atom_site_occupancy
  Tb  Tb0  1  0.750000  0.269499  0.604964  1
  Tb  Tb1  1  0.250000  0.730501  0.395036  1
  Er  Er2  1  0.750000  0.877355  0.625678  1
  Er  Er3  1  0.250000  0.122645  0.374322  1
  Er  Er4  1  0.750000  0.892838  0.185220  1
  Er  Er5  1  0.250000  0.107162  0.814780  1
  Ru  Ru6  1  0.750000  0.939972  0.406066  1
  Ru  Ru7  1  0.250000  0.060028  0.593934  1
  I  I8  1  0.750000  0.418833  0.365203  1
  I  I9  1  0.250000  0.581167  0.634797  1
  I  I10  1  0.750000  0.865928  0.889233  1
  I  I11  1  0.250000  0.134072  0.110767  1
  I  I12  1  0.750000  0.359952  0.869190  1
  I  I13  1  0.250000  0.640048  0.130810  1
