# generated using pymatgen
data_Ho4Hf3RuF28
_symmetry_space_group_name_H-M   'P 1'
_cell_length_a   5.66150915
_cell_length_b   8.99984124
_cell_length_c   12.06291170
_cell_angle_alpha   62.60345526
_cell_angle_beta   89.99111300
_cell_angle_gamma   89.98250805
_symmetry_Int_Tables_number   1
_chemical_formula_structural   Ho4Hf3RuF28
_chemical_formula_sum   'Ho4 Hf3 Ru1 F28'
_cell_volume   545.70185693
_cell_formula_units_Z   1
loop_
 _symmetry_equiv_pos_site_id
 _symmetry_equiv_pos_as_xyz
  1  'x, y, z'
loop_
 _atom_site_type_symbol
 _atom_site_label
 _atom_site_symmetry_multiplicity
 _atom_site_fract_x
 _atom_site_fract_y
 _atom_site_fract_z
 _atom_site_occupancy
  Ho  Ho0  1  0.757572  0.813142  0.767941  1
  Ho  Ho1  1  0.256352  0.186124  0.729206  1
  Ho  Ho2  1  0.242242  0.187166  0.238388  1
  Ho  Ho3  1  0.743444  0.818307  0.266276  1
  Hf  Hf4  1  0.755713  0.273537  0.955507  1
  Hf  Hf5  1  0.255559  0.725713  0.544015  1
  Hf  Hf6  1  0.245293  0.726336  0.046004  1
  Ru  Ru7  1  0.742405  0.272725  0.454978  1
  F  F8  1  0.464334  0.708188  0.922433  1
  F  F9  1  0.942881  0.290693  0.582094  1
  F  F10  1  0.532251  0.289929  0.077738  1
  F  F11  1  0.036038  0.710671  0.419606  1
  F  F12  1  0.451027  0.279117  0.544267  1
  F  F13  1  0.952574  0.721334  0.951551  1
  F  F14  1  0.547577  0.717066  0.450815  1
  F  F15  1  0.044132  0.278514  0.052265  1
  F  F16  1  0.771944  0.523619  0.859062  1
  F  F17  1  0.266387  0.476035  0.639617  1
  F  F18  1  0.227832  0.476802  0.142682  1
  F  F19  1  0.733612  0.511516  0.361263  1
  F  F20  1  0.758304  0.023870  0.057849  1
  F  F21  1  0.261900  0.974806  0.444558  1
  F  F22  1  0.243707  0.974602  0.941543  1
  F  F23  1  0.742997  0.034187  0.546620  1
  F  F24  1  0.981461  0.735488  0.646045  1
  F  F25  1  0.487959  0.266326  0.848816  1
  F  F26  1  0.024990  0.269170  0.360822  1
  F  F27  1  0.517202  0.731337  0.151067  1
  F  F28  1  0.034858  0.747702  0.173125  1
  F  F29  1  0.547442  0.255443  0.324828  1
  F  F30  1  0.970564  0.252349  0.829640  1
  F  F31  1  0.467330  0.747663  0.671027  1
  F  F32  1  0.425184  0.974460  0.235670  1
  F  F33  1  0.925115  0.028220  0.268612  1
  F  F34  1  0.570437  0.025104  0.762703  1
  F  F35  1  0.071379  0.972738  0.731365  1
