# generated using pymatgen
data_Er9Mg(Cu2Sb)2
_symmetry_space_group_name_H-M   'P 1'
_cell_length_a   8.44583996
_cell_length_b   8.44583926
_cell_length_c   8.44584090
_cell_angle_alpha   125.92629246
_cell_angle_beta   125.92627907
_cell_angle_gamma   80.00932894
_symmetry_Int_Tables_number   1
_chemical_formula_structural   Er9Mg(Cu2Sb)2
_chemical_formula_sum   'Er9 Mg1 Cu4 Sb2'
_cell_volume   381.41880368
_cell_formula_units_Z   1
loop_
 _symmetry_equiv_pos_site_id
 _symmetry_equiv_pos_as_xyz
  1  'x, y, z'
loop_
 _atom_site_type_symbol
 _atom_site_label
 _atom_site_symmetry_multiplicity
 _atom_site_fract_x
 _atom_site_fract_y
 _atom_site_fract_z
 _atom_site_occupancy
  Er  Er0  1  0.000000  0.000000  0.000000  1
  Er  Er1  1  0.791298  0.305081  0.816332  1
  Er  Er2  1  0.208702  0.694919  0.183668  1
  Er  Er3  1  0.488748  0.974964  0.183668  1
  Er  Er4  1  0.305081  0.488748  0.513783  1
  Er  Er5  1  0.025036  0.208702  0.513783  1
  Er  Er6  1  0.511252  0.025036  0.816332  1
  Er  Er7  1  0.694919  0.511252  0.486217  1
  Er  Er8  1  0.974964  0.791298  0.486217  1
  Mg  Mg9  1  0.500000  0.500000  0.000000  1
  Cu  Cu10  1  0.127748  0.634184  0.761932  1
  Cu  Cu11  1  0.872252  0.365816  0.238068  1
  Cu  Cu12  1  0.634184  0.872252  0.506436  1
  Cu  Cu13  1  0.365816  0.127748  0.493564  1
  Sb  Sb14  1  0.245355  0.245355  0.000000  1
  Sb  Sb15  1  0.754645  0.754645  0.000000  1
