# generated using pymatgen
data_Sm12Si3BI12
_symmetry_space_group_name_H-M   'P 1'
_cell_length_a   10.71090595
_cell_length_b   10.58648897
_cell_length_c   10.58648800
_cell_angle_alpha   109.23192647
_cell_angle_beta   109.70946294
_cell_angle_gamma   109.70946699
_symmetry_Int_Tables_number   1
_chemical_formula_structural   Sm12Si3BI12
_chemical_formula_sum   'Sm12 Si3 B1 I12'
_cell_volume   921.34608788
_cell_formula_units_Z   1
loop_
 _symmetry_equiv_pos_site_id
 _symmetry_equiv_pos_as_xyz
  1  'x, y, z'
loop_
 _atom_site_type_symbol
 _atom_site_label
 _atom_site_symmetry_multiplicity
 _atom_site_fract_x
 _atom_site_fract_y
 _atom_site_fract_z
 _atom_site_occupancy
  Sm  Sm0  1  0.454213  0.487167  0.218831  1
  Sm  Sm1  1  0.750000  0.232361  0.267639  1
  Sm  Sm2  1  0.750000  0.016448  0.483552  1
  Sm  Sm3  1  0.233552  0.467103  0.483552  1
  Sm  Sm4  1  0.264619  0.731664  0.218831  1
  Sm  Sm5  1  0.045787  0.281169  0.012833  1
  Sm  Sm6  1  0.017639  0.035278  0.267639  1
  Sm  Sm7  1  0.467044  0.731664  0.012833  1
  Sm  Sm8  1  0.482361  0.232361  0.464722  1
  Sm  Sm9  1  0.032956  0.487167  0.768336  1
  Sm  Sm10  1  0.266448  0.016448  0.032897  1
  Sm  Sm11  1  0.235381  0.281169  0.768336  1
  Si  Si12  1  0.250000  0.250952  0.249048  1
  Si  Si13  1  0.499048  0.998097  0.249048  1
  Si  Si14  1  0.000952  0.250952  0.501903  1
  B  B15  1  0.250000  0.500000  0.000000  1
  I  I16  1  0.250000  0.758006  0.741994  1
  I  I17  1  0.515850  0.507917  0.759118  1
  I  I18  1  0.984150  0.740882  0.992083  1
  I  I19  1  0.743269  0.251201  0.759118  1
  I  I20  1  0.991994  0.983988  0.741994  1
  I  I21  1  0.250000  0.993020  0.506980  1
  I  I22  1  0.756980  0.513961  0.506980  1
  I  I23  1  0.507932  0.251201  0.992083  1
  I  I24  1  0.756731  0.740882  0.248799  1
  I  I25  1  0.743020  0.993020  0.986039  1
  I  I26  1  0.992068  0.507917  0.248799  1
  I  I27  1  0.508006  0.758006  0.516012  1
