# generated using pymatgen
data_BaCo2Pd4O11
_symmetry_space_group_name_H-M   'P 1'
_cell_length_a   5.96612263
_cell_length_b   5.96612164
_cell_length_c   13.70563348
_cell_angle_alpha   89.73522625
_cell_angle_beta   89.73522809
_cell_angle_gamma   120.11525125
_symmetry_Int_Tables_number   1
_chemical_formula_structural   BaCo2Pd4O11
_chemical_formula_sum   'Ba2 Co4 Pd8 O22'
_cell_volume   421.97806035
_cell_formula_units_Z   2
loop_
 _symmetry_equiv_pos_site_id
 _symmetry_equiv_pos_as_xyz
  1  'x, y, z'
loop_
 _atom_site_type_symbol
 _atom_site_label
 _atom_site_symmetry_multiplicity
 _atom_site_fract_x
 _atom_site_fract_y
 _atom_site_fract_z
 _atom_site_occupancy
  Ba  Ba0  1  0.667524  0.332476  0.250000  1
  Ba  Ba1  1  0.332476  0.667524  0.750000  1
  Co  Co2  1  0.331953  0.668047  0.250000  1
  Co  Co3  1  0.668047  0.331953  0.750000  1
  Co  Co4  1  0.500000  0.000000  0.000000  1
  Co  Co5  1  0.000000  0.500000  0.500000  1
  Pd  Pd6  1  0.000367  0.002134  0.145811  1
  Pd  Pd7  1  0.999633  0.997866  0.854189  1
  Pd  Pd8  1  0.002134  0.000367  0.645811  1
  Pd  Pd9  1  0.997866  0.999633  0.354189  1
  Pd  Pd10  1  0.000000  0.500000  0.000000  1
  Pd  Pd11  1  0.500000  0.500000  0.000000  1
  Pd  Pd12  1  0.500000  0.000000  0.500000  1
  Pd  Pd13  1  0.500000  0.500000  0.500000  1
  O  O14  1  0.822337  0.645799  0.082673  1
  O  O15  1  0.361260  0.168863  0.079742  1
  O  O16  1  0.807409  0.168083  0.079492  1
  O  O17  1  0.177663  0.354201  0.917327  1
  O  O18  1  0.638740  0.831137  0.920258  1
  O  O19  1  0.192591  0.831917  0.920508  1
  O  O20  1  0.168863  0.361260  0.579742  1
  O  O21  1  0.645799  0.822337  0.582673  1
  O  O22  1  0.168083  0.807409  0.579492  1
  O  O23  1  0.831137  0.638740  0.420258  1
  O  O24  1  0.354201  0.177663  0.417327  1
  O  O25  1  0.831917  0.192591  0.420508  1
  O  O26  1  0.149072  0.850928  0.250000  1
  O  O27  1  0.150578  0.303304  0.249775  1
  O  O28  1  0.696696  0.849422  0.250225  1
  O  O29  1  0.850928  0.149072  0.750000  1
  O  O30  1  0.849422  0.696696  0.750225  1
  O  O31  1  0.303304  0.150578  0.749775  1
  O  O32  1  0.339010  0.679423  0.076548  1
  O  O33  1  0.660990  0.320577  0.923452  1
  O  O34  1  0.679423  0.339010  0.576548  1
  O  O35  1  0.320577  0.660990  0.423452  1
