# generated using pymatgen
data_La3Hg5Pd
_symmetry_space_group_name_H-M   'P 1'
_cell_length_a   8.29719900
_cell_length_b   8.29719915
_cell_length_c   3.99495100
_cell_angle_alpha   90.00000000
_cell_angle_beta   90.00000000
_cell_angle_gamma   120.00000338
_symmetry_Int_Tables_number   1
_chemical_formula_structural   La3Hg5Pd
_chemical_formula_sum   'La3 Hg5 Pd1'
_cell_volume   238.17989217
_cell_formula_units_Z   1
loop_
 _symmetry_equiv_pos_site_id
 _symmetry_equiv_pos_as_xyz
  1  'x, y, z'
loop_
 _atom_site_type_symbol
 _atom_site_label
 _atom_site_symmetry_multiplicity
 _atom_site_fract_x
 _atom_site_fract_y
 _atom_site_fract_z
 _atom_site_occupancy
  La  La0  1  0.395502  0.414752  0.500000  1
  La  La1  1  0.585248  0.980750  0.500000  1
  La  La2  1  0.019250  0.604498  0.500000  1
  Hg  Hg3  1  0.666667  0.333333  0.000000  1
  Hg  Hg4  1  0.000000  0.000000  0.500000  1
  Hg  Hg5  1  0.721909  0.725866  0.000000  1
  Hg  Hg6  1  0.274134  0.996044  0.000000  1
  Hg  Hg7  1  0.003956  0.278091  0.000000  1
  Pd  Pd8  1  0.333333  0.666667  0.000000  1
