# generated using pymatgen
data_Mn2TcPb2O9
_symmetry_space_group_name_H-M   'P 1'
_cell_length_a   5.43291458
_cell_length_b   7.82595391
_cell_length_c   10.76107061
_cell_angle_alpha   92.30954293
_cell_angle_beta   97.25354377
_cell_angle_gamma   109.88650485
_symmetry_Int_Tables_number   1
_chemical_formula_structural   Mn2TcPb2O9
_chemical_formula_sum   'Mn4 Tc2 Pb4 O18'
_cell_volume   425.10655902
_cell_formula_units_Z   2
loop_
 _symmetry_equiv_pos_site_id
 _symmetry_equiv_pos_as_xyz
  1  'x, y, z'
loop_
 _atom_site_type_symbol
 _atom_site_label
 _atom_site_symmetry_multiplicity
 _atom_site_fract_x
 _atom_site_fract_y
 _atom_site_fract_z
 _atom_site_occupancy
  Mn  Mn0  1  0.397705  0.801590  0.499900  1
  Mn  Mn1  1  0.602295  0.198410  0.500100  1
  Mn  Mn2  1  0.807791  0.601656  0.513586  1
  Mn  Mn3  1  0.192209  0.398344  0.486414  1
  Tc  Tc4  1  0.189502  0.774388  0.044733  1
  Tc  Tc5  1  0.810498  0.225612  0.955267  1
  Pb  Pb6  1  0.919251  0.959740  0.291327  1
  Pb  Pb7  1  0.080749  0.040260  0.708673  1
  Pb  Pb8  1  0.487182  0.399083  0.230094  1
  Pb  Pb9  1  0.512818  0.600917  0.769906  1
  O  O10  1  0.448285  0.691587  0.074853  1
  O  O11  1  0.551715  0.308413  0.925147  1
  O  O12  1  0.937110  0.653877  0.125763  1
  O  O13  1  0.062890  0.346123  0.874237  1
  O  O14  1  0.073794  0.747168  0.882586  1
  O  O15  1  0.926206  0.252832  0.117414  1
  O  O16  1  0.292132  0.003344  0.102906  1
  O  O17  1  0.707868  0.996656  0.897094  1
  O  O18  1  0.201290  0.611384  0.600025  1
  O  O19  1  0.798710  0.388616  0.399975  1
  O  O20  1  0.577251  0.409474  0.602792  1
  O  O21  1  0.422749  0.590526  0.397208  1
  O  O22  1  0.578997  0.984994  0.397515  1
  O  O23  1  0.421003  0.015006  0.602485  1
  O  O24  1  0.726050  0.789117  0.609959  1
  O  O25  1  0.273950  0.210883  0.390041  1
  O  O26  1  0.047283  0.774197  0.420981  1
  O  O27  1  0.952717  0.225803  0.579019  1
