# generated using pymatgen
data_Yb5Sn3H
_symmetry_space_group_name_H-M   'P 1'
_cell_length_a   9.36404843
_cell_length_b   9.36404865
_cell_length_c   9.36404829
_cell_angle_alpha   128.43180092
_cell_angle_beta   128.43180733
_cell_angle_gamma   75.92655766
_symmetry_Int_Tables_number   1
_chemical_formula_structural   Yb5Sn3H
_chemical_formula_sum   'Yb10 Sn6 H2'
_cell_volume   489.93830758
_cell_formula_units_Z   2
loop_
 _symmetry_equiv_pos_site_id
 _symmetry_equiv_pos_as_xyz
  1  'x, y, z'
loop_
 _atom_site_type_symbol
 _atom_site_label
 _atom_site_symmetry_multiplicity
 _atom_site_fract_x
 _atom_site_fract_y
 _atom_site_fract_z
 _atom_site_occupancy
  Yb  Yb0  1  0.500000  0.500000  0.000000  1
  Yb  Yb1  1  0.000000  0.000000  0.000000  1
  Yb  Yb2  1  0.509665  0.009665  0.824272  1
  Yb  Yb3  1  0.185394  0.685394  0.175728  1
  Yb  Yb4  1  0.009665  0.185394  0.500000  1
  Yb  Yb5  1  0.685394  0.509665  0.500000  1
  Yb  Yb6  1  0.490335  0.990335  0.175728  1
  Yb  Yb7  1  0.814606  0.314606  0.824272  1
  Yb  Yb8  1  0.990335  0.814606  0.500000  1
  Yb  Yb9  1  0.314606  0.490335  0.500000  1
  Sn  Sn10  1  0.250000  0.250000  0.000000  1
  Sn  Sn11  1  0.750000  0.750000  0.000000  1
  Sn  Sn12  1  0.872572  0.372572  0.245146  1
  Sn  Sn13  1  0.127428  0.627428  0.754854  1
  Sn  Sn14  1  0.372572  0.127428  0.500000  1
  Sn  Sn15  1  0.627428  0.872572  0.500000  1
  H  H16  1  0.250000  0.750000  0.500000  1
  H  H17  1  0.750000  0.250000  0.500000  1
