# generated using pymatgen
data_Zr8Ta12Ga7Ge9
_symmetry_space_group_name_H-M   'P 1'
_cell_length_a   6.87717919
_cell_length_b   6.98031654
_cell_length_c   13.13073300
_cell_angle_alpha   90.05635746
_cell_angle_beta   90.06321785
_cell_angle_gamma   89.96680136
_symmetry_Int_Tables_number   1
_chemical_formula_structural   Zr8Ta12Ga7Ge9
_chemical_formula_sum   'Zr8 Ta12 Ga7 Ge9'
_cell_volume   630.33856839
_cell_formula_units_Z   1
loop_
 _symmetry_equiv_pos_site_id
 _symmetry_equiv_pos_as_xyz
  1  'x, y, z'
loop_
 _atom_site_type_symbol
 _atom_site_label
 _atom_site_symmetry_multiplicity
 _atom_site_fract_x
 _atom_site_fract_y
 _atom_site_fract_z
 _atom_site_occupancy
  Zr  Zr0  1  0.490287  0.672416  0.092523  1
  Zr  Zr1  1  0.990751  0.828081  0.407823  1
  Zr  Zr2  1  0.509318  0.328372  0.591990  1
  Zr  Zr3  1  0.008390  0.173712  0.909173  1
  Zr  Zr4  1  0.508336  0.327508  0.907859  1
  Zr  Zr5  1  0.004419  0.171091  0.592111  1
  Zr  Zr6  1  0.495211  0.671435  0.407313  1
  Zr  Zr7  1  0.993853  0.825538  0.092377  1
  Ta  Ta8  1  0.334888  0.013852  0.249185  1
  Ta  Ta9  1  0.834678  0.486632  0.249375  1
  Ta  Ta10  1  0.664221  0.986405  0.749573  1
  Ta  Ta11  1  0.164415  0.514619  0.751066  1
  Ta  Ta12  1  0.656555  0.173528  0.125717  1
  Ta  Ta13  1  0.156275  0.325787  0.373277  1
  Ta  Ta14  1  0.342728  0.826484  0.626652  1
  Ta  Ta15  1  0.844205  0.670865  0.874823  1
  Ta  Ta16  1  0.342279  0.829808  0.874511  1
  Ta  Ta17  1  0.841408  0.672810  0.625545  1
  Ta  Ta18  1  0.659184  0.172360  0.374720  1
  Ta  Ta19  1  0.156769  0.328723  0.124508  1
  Ga  Ga20  1  0.695099  0.851424  0.249576  1
  Ga  Ga21  1  0.195898  0.649250  0.251298  1
  Ga  Ga22  1  0.303529  0.150260  0.749343  1
  Ga  Ga23  1  0.804708  0.350337  0.749928  1
  Ga  Ga24  1  0.680947  0.963868  0.961148  1
  Ga  Ga25  1  0.180573  0.534866  0.538547  1
  Ga  Ga26  1  0.319456  0.034971  0.461442  1
  Ge  Ge27  1  0.817315  0.463724  0.038896  1
  Ge  Ge28  1  0.323223  0.037223  0.038398  1
  Ge  Ge29  1  0.824729  0.463840  0.461570  1
  Ge  Ge30  1  0.674765  0.963291  0.538150  1
  Ge  Ge31  1  0.182558  0.537954  0.961134  1
  Ge  Ge32  1  0.456187  0.391177  0.250340  1
  Ge  Ge33  1  0.957129  0.107206  0.249375  1
  Ge  Ge34  1  0.543444  0.608019  0.750504  1
  Ge  Ge35  1  0.042265  0.892566  0.750226  1
