# generated using pymatgen
data_CaLaNi6(BIr)2
_symmetry_space_group_name_H-M   'P 1'
_cell_length_a   5.23559664
_cell_length_b   5.23559647
_cell_length_c   7.02304900
_cell_angle_alpha   90.00000000
_cell_angle_beta   90.00000000
_cell_angle_gamma   122.22471874
_symmetry_Int_Tables_number   1
_chemical_formula_structural   CaLaNi6(BIr)2
_chemical_formula_sum   'Ca1 La1 Ni6 B2 Ir2'
_cell_volume   162.85815554
_cell_formula_units_Z   1
loop_
 _symmetry_equiv_pos_site_id
 _symmetry_equiv_pos_as_xyz
  1  'x, y, z'
loop_
 _atom_site_type_symbol
 _atom_site_label
 _atom_site_symmetry_multiplicity
 _atom_site_fract_x
 _atom_site_fract_y
 _atom_site_fract_z
 _atom_site_occupancy
  Ca  Ca0  1  0.000000  0.000000  0.500000  1
  La  La1  1  0.000000  0.000000  0.000000  1
  Ni  Ni2  1  0.332653  0.667347  0.000000  1
  Ni  Ni3  1  0.667347  0.332653  0.000000  1
  Ni  Ni4  1  0.500000  0.000000  0.295102  1
  Ni  Ni5  1  0.000000  0.500000  0.295102  1
  Ni  Ni6  1  0.500000  0.000000  0.704898  1
  Ni  Ni7  1  0.000000  0.500000  0.704898  1
  B  B8  1  0.671059  0.328941  0.500000  1
  B  B9  1  0.328941  0.671059  0.500000  1
  Ir  Ir10  1  0.500000  0.500000  0.291936  1
  Ir  Ir11  1  0.500000  0.500000  0.708064  1
