# generated using pymatgen
data_Tm6Al41Cr6
_symmetry_space_group_name_H-M   'P 1'
_cell_length_a   10.84593400
_cell_length_b   10.84593368
_cell_length_c   17.42144800
_cell_angle_alpha   90.00000000
_cell_angle_beta   90.00000000
_cell_angle_gamma   120.00000098
_symmetry_Int_Tables_number   1
_chemical_formula_structural   Tm6Al41Cr6
_chemical_formula_sum   'Tm12 Al82 Cr12'
_cell_volume   1774.79737671
_cell_formula_units_Z   2
loop_
 _symmetry_equiv_pos_site_id
 _symmetry_equiv_pos_as_xyz
  1  'x, y, z'
loop_
 _atom_site_type_symbol
 _atom_site_label
 _atom_site_symmetry_multiplicity
 _atom_site_fract_x
 _atom_site_fract_y
 _atom_site_fract_z
 _atom_site_occupancy
  Tm  Tm0  1  0.000000  0.533356  0.402356  1
  Tm  Tm1  1  0.466644  0.466644  0.402356  1
  Tm  Tm2  1  0.533356  0.000000  0.402356  1
  Tm  Tm3  1  0.000000  0.466644  0.597644  1
  Tm  Tm4  1  0.533356  0.533356  0.597644  1
  Tm  Tm5  1  0.466644  0.000000  0.597644  1
  Tm  Tm6  1  0.000000  0.464483  0.904503  1
  Tm  Tm7  1  0.535517  0.535517  0.904503  1
  Tm  Tm8  1  0.464483  0.000000  0.904503  1
  Tm  Tm9  1  0.000000  0.535517  0.095497  1
  Tm  Tm10  1  0.464483  0.464483  0.095497  1
  Tm  Tm11  1  0.535517  0.000000  0.095497  1
  Al  Al12  1  0.000000  0.749176  0.972234  1
  Al  Al13  1  0.250824  0.250824  0.972234  1
  Al  Al14  1  0.749176  0.000000  0.972234  1
  Al  Al15  1  0.000000  0.250824  0.027766  1
  Al  Al16  1  0.749176  0.749176  0.027766  1
  Al  Al17  1  0.250824  0.000000  0.027766  1
  Al  Al18  1  0.000000  0.251668  0.469675  1
  Al  Al19  1  0.748332  0.748332  0.469675  1
  Al  Al20  1  0.251668  0.000000  0.469675  1
  Al  Al21  1  0.000000  0.748332  0.530325  1
  Al  Al22  1  0.251668  0.251668  0.530325  1
  Al  Al23  1  0.748332  0.000000  0.530325  1
  Al  Al24  1  0.608237  0.766801  0.334707  1
  Al  Al25  1  0.233199  0.841437  0.334707  1
  Al  Al26  1  0.158563  0.391763  0.334707  1
  Al  Al27  1  0.391763  0.158563  0.334707  1
  Al  Al28  1  0.766801  0.608237  0.334707  1
  Al  Al29  1  0.841437  0.233199  0.334707  1
  Al  Al30  1  0.391763  0.233199  0.665293  1
  Al  Al31  1  0.766801  0.158563  0.665293  1
  Al  Al32  1  0.841437  0.608237  0.665293  1
  Al  Al33  1  0.608237  0.841437  0.665293  1
  Al  Al34  1  0.233199  0.391763  0.665293  1
  Al  Al35  1  0.158563  0.766801  0.665293  1
  Al  Al36  1  0.400265  0.234628  0.840142  1
  Al  Al37  1  0.765372  0.165637  0.840142  1
  Al  Al38  1  0.834363  0.599735  0.840142  1
  Al  Al39  1  0.599735  0.834363  0.840142  1
  Al  Al40  1  0.234628  0.400265  0.840142  1
  Al  Al41  1  0.165637  0.765372  0.840142  1
  Al  Al42  1  0.599735  0.765372  0.159858  1
  Al  Al43  1  0.234628  0.834363  0.159858  1
  Al  Al44  1  0.165637  0.400265  0.159858  1
  Al  Al45  1  0.400265  0.165637  0.159858  1
  Al  Al46  1  0.765372  0.599735  0.159858  1
  Al  Al47  1  0.834363  0.234628  0.159858  1
  Al  Al48  1  0.000000  0.150467  0.247899  1
  Al  Al49  1  0.849533  0.849533  0.247899  1
  Al  Al50  1  0.150467  0.000000  0.247899  1
  Al  Al51  1  0.000000  0.849533  0.752101  1
  Al  Al52  1  0.150467  0.150467  0.752101  1
  Al  Al53  1  0.849533  0.000000  0.752101  1
  Al  Al54  1  0.453455  0.850021  0.246005  1
  Al  Al55  1  0.149979  0.603434  0.246005  1
  Al  Al56  1  0.396566  0.546545  0.246005  1
  Al  Al57  1  0.546545  0.396566  0.246005  1
  Al  Al58  1  0.850021  0.453455  0.246005  1
  Al  Al59  1  0.603434  0.149979  0.246005  1
  Al  Al60  1  0.546545  0.149979  0.753995  1
  Al  Al61  1  0.850021  0.396566  0.753995  1
  Al  Al62  1  0.603434  0.453455  0.753995  1
  Al  Al63  1  0.453455  0.603434  0.753995  1
  Al  Al64  1  0.149979  0.546545  0.753995  1
  Al  Al65  1  0.396566  0.850021  0.753995  1
  Al  Al66  1  0.505756  0.752878  0.500000  1
  Al  Al67  1  0.247122  0.752878  0.500000  1
  Al  Al68  1  0.247122  0.494244  0.500000  1
  Al  Al69  1  0.494244  0.247122  0.500000  1
  Al  Al70  1  0.752878  0.505756  0.500000  1
  Al  Al71  1  0.752878  0.247122  0.500000  1
  Al  Al72  1  0.504505  0.252252  0.000000  1
  Al  Al73  1  0.747748  0.252252  0.000000  1
  Al  Al74  1  0.747748  0.495495  0.000000  1
  Al  Al75  1  0.495495  0.747748  0.000000  1
  Al  Al76  1  0.252252  0.504505  0.000000  1
  Al  Al77  1  0.252252  0.747748  0.000000  1
  Al  Al78  1  0.000000  0.845131  0.383868  1
  Al  Al79  1  0.154869  0.154869  0.383868  1
  Al  Al80  1  0.845131  0.000000  0.383868  1
  Al  Al81  1  0.000000  0.154869  0.616132  1
  Al  Al82  1  0.845131  0.845131  0.616132  1
  Al  Al83  1  0.154869  0.000000  0.616132  1
  Al  Al84  1  0.000000  0.154884  0.884108  1
  Al  Al85  1  0.845116  0.845116  0.884108  1
  Al  Al86  1  0.154884  0.000000  0.884108  1
  Al  Al87  1  0.000000  0.845116  0.115892  1
  Al  Al88  1  0.154884  0.154884  0.115892  1
  Al  Al89  1  0.845116  0.000000  0.115892  1
  Al  Al90  1  0.333333  0.666667  0.373329  1
  Al  Al91  1  0.666667  0.333333  0.373329  1
  Al  Al92  1  0.666667  0.333333  0.626671  1
  Al  Al93  1  0.333333  0.666667  0.626671  1
  Cr  Cr94  1  0.000000  0.000000  0.500000  1
  Cr  Cr95  1  0.000000  0.000000  0.000000  1
  Cr  Cr96  1  0.000000  0.737856  0.251442  1
  Cr  Cr97  1  0.262144  0.262144  0.251442  1
  Cr  Cr98  1  0.737856  0.000000  0.251442  1
  Cr  Cr99  1  0.000000  0.262144  0.748558  1
  Cr  Cr100  1  0.737856  0.737856  0.748558  1
  Cr  Cr101  1  0.262144  0.000000  0.748558  1
  Cr  Cr102  1  0.666667  0.333333  0.865680  1
  Cr  Cr103  1  0.333333  0.666667  0.865680  1
  Cr  Cr104  1  0.333333  0.666667  0.134320  1
  Cr  Cr105  1  0.666667  0.333333  0.134320  1
