# generated using pymatgen
data_Pr6MgCo16TcP12
_symmetry_space_group_name_H-M   'P 1'
_cell_length_a   3.78979700
_cell_length_b   10.73233800
_cell_length_c   12.49355300
_cell_angle_alpha   90.00000000
_cell_angle_beta   90.00000000
_cell_angle_gamma   90.00000000
_symmetry_Int_Tables_number   1
_chemical_formula_structural   Pr6MgCo16TcP12
_chemical_formula_sum   'Pr6 Mg1 Co16 Tc1 P12'
_cell_volume   508.15505815
_cell_formula_units_Z   1
loop_
 _symmetry_equiv_pos_site_id
 _symmetry_equiv_pos_as_xyz
  1  'x, y, z'
loop_
 _atom_site_type_symbol
 _atom_site_label
 _atom_site_symmetry_multiplicity
 _atom_site_fract_x
 _atom_site_fract_y
 _atom_site_fract_z
 _atom_site_occupancy
  Pr  Pr0  1  0.000000  0.500000  0.523758  1
  Pr  Pr1  1  0.500000  0.000000  0.474998  1
  Pr  Pr2  1  0.500000  0.817920  0.205743  1
  Pr  Pr3  1  0.500000  0.182080  0.205743  1
  Pr  Pr4  1  0.000000  0.679898  0.793149  1
  Pr  Pr5  1  0.000000  0.320102  0.793149  1
  Mg  Mg6  1  0.000000  0.000000  0.848848  1
  Co  Co7  1  0.500000  0.500000  0.705639  1
  Co  Co8  1  0.000000  0.000000  0.294463  1
  Co  Co9  1  0.000000  0.500000  0.990997  1
  Co  Co10  1  0.500000  0.000000  0.013504  1
  Co  Co11  1  0.500000  0.335765  0.996000  1
  Co  Co12  1  0.500000  0.664235  0.996000  1
  Co  Co13  1  0.000000  0.171192  0.006076  1
  Co  Co14  1  0.000000  0.828808  0.006076  1
  Co  Co15  1  0.500000  0.298246  0.428799  1
  Co  Co16  1  0.500000  0.701754  0.428799  1
  Co  Co17  1  0.000000  0.204804  0.566877  1
  Co  Co18  1  0.000000  0.795196  0.566877  1
  Co  Co19  1  0.500000  0.879486  0.704889  1
  Co  Co20  1  0.500000  0.120514  0.704889  1
  Co  Co21  1  0.000000  0.617502  0.291221  1
  Co  Co22  1  0.000000  0.382498  0.291221  1
  Tc  Tc23  1  0.500000  0.500000  0.157130  1
  P  P24  1  0.500000  0.500000  0.887274  1
  P  P25  1  0.000000  0.000000  0.112209  1
  P  P26  1  0.500000  0.500000  0.344727  1
  P  P27  1  0.000000  0.000000  0.650939  1
  P  P28  1  0.500000  0.305524  0.612132  1
  P  P29  1  0.500000  0.694476  0.612132  1
  P  P30  1  0.000000  0.195472  0.385213  1
  P  P31  1  0.000000  0.804528  0.385213  1
  P  P32  1  0.500000  0.840767  0.900281  1
  P  P33  1  0.500000  0.159233  0.900281  1
  P  P34  1  0.000000  0.651431  0.107379  1
  P  P35  1  0.000000  0.348569  0.107379  1
