# generated using pymatgen
data_MnAs4F18
_symmetry_space_group_name_H-M   'P 1'
_cell_length_a   13.17393700
_cell_length_b   7.49771055
_cell_length_c   10.43165800
_cell_angle_alpha   46.08122755
_cell_angle_beta   90.00000000
_cell_angle_gamma   90.00000000
_symmetry_Int_Tables_number   1
_chemical_formula_structural   MnAs4F18
_chemical_formula_sum   'Mn2 As8 F36'
_cell_volume   742.20762089
_cell_formula_units_Z   2
loop_
 _symmetry_equiv_pos_site_id
 _symmetry_equiv_pos_as_xyz
  1  'x, y, z'
loop_
 _atom_site_type_symbol
 _atom_site_label
 _atom_site_symmetry_multiplicity
 _atom_site_fract_x
 _atom_site_fract_y
 _atom_site_fract_z
 _atom_site_occupancy
  Mn  Mn0  1  0.000000  0.000000  0.000000  1
  Mn  Mn1  1  0.500000  0.000000  0.500000  1
  As  As2  1  0.215166  0.086259  0.483664  1
  As  As3  1  0.715166  0.913741  0.016336  1
  As  As4  1  0.500000  0.500000  0.000000  1
  As  As5  1  0.000000  0.500000  0.500000  1
  As  As6  1  0.500000  0.500000  0.500000  1
  As  As7  1  0.000000  0.500000  0.000000  1
  As  As8  1  0.284834  0.086259  0.983664  1
  As  As9  1  0.784834  0.913741  0.516336  1
  F  F10  1  0.743825  0.012371  0.315817  1
  F  F11  1  0.243825  0.987629  0.184183  1
  F  F12  1  0.256175  0.987629  0.684183  1
  F  F13  1  0.756175  0.012371  0.815817  1
  F  F14  1  0.969218  0.786474  0.941634  1
  F  F15  1  0.469218  0.213526  0.558366  1
  F  F16  1  0.030782  0.213526  0.058366  1
  F  F17  1  0.530782  0.786474  0.441634  1
  F  F18  1  0.879114  0.503379  0.928577  1
  F  F19  1  0.379114  0.496621  0.571423  1
  F  F20  1  0.120886  0.496621  0.071423  1
  F  F21  1  0.620886  0.503379  0.428577  1
  F  F22  1  0.046459  0.674265  0.783802  1
  F  F23  1  0.546459  0.325735  0.716198  1
  F  F24  1  0.953541  0.325735  0.216198  1
  F  F25  1  0.453541  0.674265  0.283802  1
  F  F26  1  0.751952  0.602760  0.649364  1
  F  F27  1  0.251952  0.397240  0.850636  1
  F  F28  1  0.967679  0.324104  0.730828  1
  F  F29  1  0.467679  0.675896  0.769172  1
  F  F30  1  0.032321  0.675896  0.269172  1
  F  F31  1  0.532321  0.324104  0.230828  1
  F  F32  1  0.051090  0.231371  0.561489  1
  F  F33  1  0.551090  0.768629  0.938511  1
  F  F34  1  0.948910  0.768629  0.438511  1
  F  F35  1  0.448910  0.231371  0.061489  1
  F  F36  1  0.881461  0.430225  0.469869  1
  F  F37  1  0.381461  0.569775  0.030131  1
  F  F38  1  0.118539  0.569775  0.530131  1
  F  F39  1  0.618539  0.430225  0.969869  1
  F  F40  1  0.248048  0.397240  0.350636  1
  F  F41  1  0.748048  0.602760  0.149364  1
  F  F42  1  0.660716  0.985866  0.554040  1
  F  F43  1  0.160716  0.014134  0.945960  1
  F  F44  1  0.839284  0.985866  0.054040  1
  F  F45  1  0.339284  0.014134  0.445960  1
