# generated using pymatgen
data_EuBe(GaCu2)4
_symmetry_space_group_name_H-M   'P 1'
_cell_length_a   8.26114468
_cell_length_b   8.26114407
_cell_length_c   8.26114500
_cell_angle_alpha   120.34584334
_cell_angle_beta   120.34584893
_cell_angle_gamma   89.40201370
_symmetry_Int_Tables_number   1
_chemical_formula_structural   EuBe(GaCu2)4
_chemical_formula_sum   'Eu2 Be2 Ga8 Cu16'
_cell_volume   396.55535557
_cell_formula_units_Z   2
loop_
 _symmetry_equiv_pos_site_id
 _symmetry_equiv_pos_as_xyz
  1  'x, y, z'
loop_
 _atom_site_type_symbol
 _atom_site_label
 _atom_site_symmetry_multiplicity
 _atom_site_fract_x
 _atom_site_fract_y
 _atom_site_fract_z
 _atom_site_occupancy
  Eu  Eu0  1  0.750000  0.750000  0.000000  1
  Eu  Eu1  1  0.250000  0.250000  0.000000  1
  Be  Be2  1  0.499999  0.000000  0.499999  1
  Be  Be3  1  0.000000  0.499999  0.499999  1
  Ga  Ga4  1  0.805174  0.305173  0.864757  1
  Ga  Ga5  1  0.440416  0.940417  0.135244  1
  Ga  Ga6  1  0.694828  0.559584  0.500000  1
  Ga  Ga7  1  0.059583  0.194827  0.500000  1
  Ga  Ga8  1  0.194828  0.694828  0.135244  1
  Ga  Ga9  1  0.559583  0.059583  0.864757  1
  Ga  Ga10  1  0.940417  0.805173  0.500000  1
  Ga  Ga11  1  0.305173  0.440417  0.500000  1
  Cu  Cu12  1  0.208809  0.058125  0.266934  1
  Cu  Cu13  1  0.791189  0.941876  0.733067  1
  Cu  Cu14  1  0.291190  0.558124  0.849314  1
  Cu  Cu15  1  0.708808  0.441875  0.150685  1
  Cu  Cu16  1  0.441877  0.291190  0.733067  1
  Cu  Cu17  1  0.558124  0.708808  0.266934  1
  Cu  Cu18  1  0.941876  0.208809  0.150687  1
  Cu  Cu19  1  0.058125  0.791190  0.849315  1
  Cu  Cu20  1  0.286335  0.786334  0.723929  1
  Cu  Cu21  1  0.062405  0.562406  0.276072  1
  Cu  Cu22  1  0.213666  0.937595  0.499999  1
  Cu  Cu23  1  0.437596  0.713667  0.500002  1
  Cu  Cu24  1  0.713667  0.213666  0.276072  1
  Cu  Cu25  1  0.937595  0.437596  0.723929  1
  Cu  Cu26  1  0.562406  0.286335  0.500002  1
  Cu  Cu27  1  0.786334  0.062405  0.499999  1
