# generated using pymatgen
data_Zr10BeSn(BiPb)3
_symmetry_space_group_name_H-M   'P 1'
_cell_length_a   8.86418000
_cell_length_b   8.86417944
_cell_length_c   6.00255500
_cell_angle_alpha   90.00000000
_cell_angle_beta   90.00000000
_cell_angle_gamma   119.99999461
_symmetry_Int_Tables_number   1
_chemical_formula_structural   Zr10BeSn(BiPb)3
_chemical_formula_sum   'Zr10 Be1 Sn1 Bi3 Pb3'
_cell_volume   408.45471065
_cell_formula_units_Z   1
loop_
 _symmetry_equiv_pos_site_id
 _symmetry_equiv_pos_as_xyz
  1  'x, y, z'
loop_
 _atom_site_type_symbol
 _atom_site_label
 _atom_site_symmetry_multiplicity
 _atom_site_fract_x
 _atom_site_fract_y
 _atom_site_fract_z
 _atom_site_occupancy
  Zr  Zr0  1  0.666667  0.333333  0.003357  1
  Zr  Zr1  1  0.333333  0.666667  0.003357  1
  Zr  Zr2  1  0.333333  0.666667  0.497642  1
  Zr  Zr3  1  0.666667  0.333333  0.497642  1
  Zr  Zr4  1  0.738427  0.738427  0.779269  1
  Zr  Zr5  1  0.261573  0.000000  0.779269  1
  Zr  Zr6  1  0.000000  0.261573  0.779269  1
  Zr  Zr7  1  0.266845  0.266845  0.219823  1
  Zr  Zr8  1  0.733155  0.000000  0.219823  1
  Zr  Zr9  1  0.000000  0.733155  0.219823  1
  Be  Be10  1  0.000000  0.000000  0.003785  1
  Sn  Sn11  1  0.000000  0.000000  0.495560  1
  Bi  Bi12  1  0.391984  0.391984  0.742644  1
  Bi  Bi13  1  0.608016  0.000000  0.742644  1
  Bi  Bi14  1  0.000000  0.608016  0.742644  1
  Pb  Pb15  1  0.613812  0.613812  0.257818  1
  Pb  Pb16  1  0.386188  0.000000  0.257818  1
  Pb  Pb17  1  0.000000  0.386188  0.257818  1
