# generated using pymatgen
data_YHo3Ga4(IrPd)2
_symmetry_space_group_name_H-M   'P 1'
_cell_length_a   4.42006700
_cell_length_b   6.85163818
_cell_length_c   7.68734520
_cell_angle_alpha   90.02643550
_cell_angle_beta   90.00000000
_cell_angle_gamma   90.00000000
_symmetry_Int_Tables_number   1
_chemical_formula_structural   YHo3Ga4(IrPd)2
_chemical_formula_sum   'Y1 Ho3 Ga4 Ir2 Pd2'
_cell_volume   232.80891720
_cell_formula_units_Z   1
loop_
 _symmetry_equiv_pos_site_id
 _symmetry_equiv_pos_as_xyz
  1  'x, y, z'
loop_
 _atom_site_type_symbol
 _atom_site_label
 _atom_site_symmetry_multiplicity
 _atom_site_fract_x
 _atom_site_fract_y
 _atom_site_fract_z
 _atom_site_occupancy
  Y  Y0  1  0.250000  0.024707  0.812225  1
  Ho  Ho1  1  0.250000  0.525152  0.687204  1
  Ho  Ho2  1  0.750000  0.985353  0.196137  1
  Ho  Ho3  1  0.750000  0.485395  0.304079  1
  Ga  Ga4  1  0.250000  0.161612  0.426831  1
  Ga  Ga5  1  0.250000  0.661412  0.073006  1
  Ga  Ga6  1  0.750000  0.832803  0.569893  1
  Ga  Ga7  1  0.750000  0.333098  0.929966  1
  Ir  Ir8  1  0.250000  0.771944  0.395013  1
  Ir  Ir9  1  0.250000  0.272642  0.105974  1
  Pd  Pd10  1  0.750000  0.223506  0.603944  1
  Pd  Pd11  1  0.750000  0.722376  0.895728  1
