# generated using pymatgen
data_Tb3DySiI6
_symmetry_space_group_name_H-M   'P 1'
_cell_length_a   4.21706100
_cell_length_b   14.04477523
_cell_length_c   14.81761324
_cell_angle_alpha   90.02078429
_cell_angle_beta   90.00000000
_cell_angle_gamma   90.00000000
_symmetry_Int_Tables_number   1
_chemical_formula_structural   Tb3DySiI6
_chemical_formula_sum   'Tb6 Dy2 Si2 I12'
_cell_volume   877.61270714
_cell_formula_units_Z   2
loop_
 _symmetry_equiv_pos_site_id
 _symmetry_equiv_pos_as_xyz
  1  'x, y, z'
loop_
 _atom_site_type_symbol
 _atom_site_label
 _atom_site_symmetry_multiplicity
 _atom_site_fract_x
 _atom_site_fract_y
 _atom_site_fract_z
 _atom_site_occupancy
  Tb  Tb0  1  0.500000  0.114157  0.347514  1
  Tb  Tb1  1  0.500000  0.885843  0.652486  1
  Tb  Tb2  1  0.000000  0.111551  0.574629  1
  Tb  Tb3  1  0.000000  0.888449  0.425371  1
  Tb  Tb4  1  0.000000  0.611496  0.925422  1
  Tb  Tb5  1  0.000000  0.388504  0.074578  1
  Dy  Dy6  1  0.500000  0.613960  0.152214  1
  Dy  Dy7  1  0.500000  0.386040  0.847786  1
  Si  Si8  1  0.500000  0.000000  0.500000  1
  Si  Si9  1  0.500000  0.500000  0.000000  1
  I  I10  1  0.500000  0.244955  0.161455  1
  I  I11  1  0.500000  0.755045  0.838545  1
  I  I12  1  0.500000  0.744806  0.338360  1
  I  I13  1  0.500000  0.255194  0.661640  1
  I  I14  1  0.000000  0.258693  0.413939  1
  I  I15  1  0.000000  0.741307  0.586061  1
  I  I16  1  0.000000  0.758308  0.086304  1
  I  I17  1  0.000000  0.241692  0.913696  1
  I  I18  1  0.000000  0.999202  0.240431  1
  I  I19  1  0.000000  0.000798  0.759569  1
  I  I20  1  0.000000  0.499573  0.259315  1
  I  I21  1  0.000000  0.500427  0.740685  1
