# generated using pymatgen
data_Dy5Co16Si4Tc3P8
_symmetry_space_group_name_H-M   'P 1'
_cell_length_a   12.11012627
_cell_length_b   12.11921350
_cell_length_c   3.71590200
_cell_angle_alpha   90.00000000
_cell_angle_beta   90.00000000
_cell_angle_gamma   119.95115971
_symmetry_Int_Tables_number   1
_chemical_formula_structural   Dy5Co16Si4Tc3P8
_chemical_formula_sum   'Dy5 Co16 Si4 Tc3 P8'
_cell_volume   472.53231919
_cell_formula_units_Z   1
loop_
 _symmetry_equiv_pos_site_id
 _symmetry_equiv_pos_as_xyz
  1  'x, y, z'
loop_
 _atom_site_type_symbol
 _atom_site_label
 _atom_site_symmetry_multiplicity
 _atom_site_fract_x
 _atom_site_fract_y
 _atom_site_fract_z
 _atom_site_occupancy
  Dy  Dy0  1  0.666494  0.333195  0.000000  1
  Dy  Dy1  1  0.333671  0.665026  0.000000  1
  Dy  Dy2  1  0.185858  0.185138  0.500000  1
  Dy  Dy3  1  0.816183  0.001382  0.500000  1
  Dy  Dy4  1  0.999245  0.813745  0.500000  1
  Co  Co5  1  0.824549  0.195160  0.000000  1
  Co  Co6  1  0.804223  0.628155  0.000000  1
  Co  Co7  1  0.371479  0.176959  0.000000  1
  Co  Co8  1  0.193522  0.820250  0.000000  1
  Co  Co9  1  0.625075  0.802618  0.000000  1
  Co  Co10  1  0.179437  0.376524  0.000000  1
  Co  Co11  1  0.646837  0.121197  0.500000  1
  Co  Co12  1  0.877903  0.524159  0.500000  1
  Co  Co13  1  0.474432  0.354364  0.500000  1
  Co  Co14  1  0.124504  0.641704  0.500000  1
  Co  Co15  1  0.523279  0.873921  0.500000  1
  Co  Co16  1  0.355035  0.483099  0.500000  1
  Co  Co17  1  0.718830  0.722925  0.500000  1
  Co  Co18  1  0.275390  0.999009  0.500000  1
  Co  Co19  1  0.005176  0.281496  0.500000  1
  Co  Co20  1  0.999365  0.000151  0.000000  1
  Si  Si21  1  0.837721  0.316244  0.500000  1
  Si  Si22  1  0.682953  0.520989  0.500000  1
  Si  Si23  1  0.478150  0.161702  0.500000  1
  Si  Si24  1  0.315788  0.836778  0.500000  1
  Tc  Tc25  1  0.552938  0.554772  0.000000  1
  Tc  Tc26  1  0.444938  0.998813  0.000000  1
  Tc  Tc27  1  0.000745  0.445663  0.000000  1
  P  P28  1  0.363854  0.363049  0.000000  1
  P  P29  1  0.636464  0.000170  0.000000  1
  P  P30  1  0.999387  0.635820  0.000000  1
  P  P31  1  0.521237  0.685857  0.500000  1
  P  P32  1  0.164418  0.479615  0.500000  1
  P  P33  1  0.820247  0.820772  0.000000  1
  P  P34  1  0.178694  0.998849  0.000000  1
  P  P35  1  0.001981  0.180731  0.000000  1
