# generated using pymatgen
data_PI15
_symmetry_space_group_name_H-M   'P 1'
_cell_length_a   8.95591300
_cell_length_b   10.50941400
_cell_length_c   20.91038500
_cell_angle_alpha   90.00000000
_cell_angle_beta   90.00000000
_cell_angle_gamma   90.00000000
_symmetry_Int_Tables_number   1
_chemical_formula_structural   PI15
_chemical_formula_sum   'P2 I30'
_cell_volume   1968.11465773
_cell_formula_units_Z   2
loop_
 _symmetry_equiv_pos_site_id
 _symmetry_equiv_pos_as_xyz
  1  'x, y, z'
loop_
 _atom_site_type_symbol
 _atom_site_label
 _atom_site_symmetry_multiplicity
 _atom_site_fract_x
 _atom_site_fract_y
 _atom_site_fract_z
 _atom_site_occupancy
  P  P0  1  0.250000  0.637821  0.637811  1
  P  P1  1  0.250000  0.137821  0.862189  1
  I  I2  1  0.750000  0.855950  0.172592  1
  I  I3  1  0.750000  0.355950  0.327408  1
  I  I4  1  0.250000  0.301463  0.186265  1
  I  I5  1  0.750000  0.927712  0.775803  1
  I  I6  1  0.750000  0.743169  0.314826  1
  I  I7  1  0.499984  0.746683  0.101179  1
  I  I8  1  0.250000  0.548063  0.254011  1
  I  I9  1  0.478792  0.765786  0.611534  1
  I  I10  1  0.250000  0.580407  0.750635  1
  I  I11  1  0.250000  0.140529  0.470768  1
  I  I12  1  0.750000  0.662926  0.440120  1
  I  I13  1  0.478792  0.265786  0.888466  1
  I  I14  1  0.250000  0.937592  0.922407  1
  I  I15  1  0.750000  0.243169  0.185174  1
  I  I16  1  0.499984  0.246683  0.398821  1
  I  I17  1  0.750000  0.195900  0.658900  1
  I  I18  1  0.250000  0.801463  0.313735  1
  I  I19  1  0.000016  0.246683  0.398821  1
  I  I20  1  0.750000  0.943530  0.571839  1
  I  I21  1  0.000016  0.746683  0.101179  1
  I  I22  1  0.250000  0.048063  0.245989  1
  I  I23  1  0.750000  0.162926  0.059880  1
  I  I24  1  0.750000  0.695900  0.841100  1
  I  I25  1  0.750000  0.427712  0.724197  1
  I  I26  1  0.250000  0.640529  0.029232  1
  I  I27  1  0.021208  0.765786  0.611534  1
  I  I28  1  0.750000  0.443530  0.928161  1
  I  I29  1  0.250000  0.437592  0.577593  1
  I  I30  1  0.250000  0.080407  0.749365  1
  I  I31  1  0.021208  0.265786  0.888466  1
