# generated using pymatgen
data_NaTlHg(P3Pd10)2
_symmetry_space_group_name_H-M   'P 1'
_cell_length_a   8.63875673
_cell_length_b   8.63875649
_cell_length_c   8.63875700
_cell_angle_alpha   60.00000187
_cell_angle_beta   60.00000281
_cell_angle_gamma   59.99999651
_symmetry_Int_Tables_number   1
_chemical_formula_structural   NaTlHg(P3Pd10)2
_chemical_formula_sum   'Na1 Tl1 Hg1 P6 Pd20'
_cell_volume   455.86761474
_cell_formula_units_Z   1
loop_
 _symmetry_equiv_pos_site_id
 _symmetry_equiv_pos_as_xyz
  1  'x, y, z'
loop_
 _atom_site_type_symbol
 _atom_site_label
 _atom_site_symmetry_multiplicity
 _atom_site_fract_x
 _atom_site_fract_y
 _atom_site_fract_z
 _atom_site_occupancy
  Na  Na0  1  0.000000  0.000000  0.000000  1
  Tl  Tl1  1  0.750000  0.750000  0.750000  1
  Hg  Hg2  1  0.250000  0.250000  0.250000  1
  P  P3  1  0.736683  0.263317  0.263317  1
  P  P4  1  0.263317  0.736683  0.736683  1
  P  P5  1  0.263317  0.736683  0.263317  1
  P  P6  1  0.736683  0.263317  0.736683  1
  P  P7  1  0.263317  0.263317  0.736683  1
  P  P8  1  0.736683  0.736683  0.263317  1
  Pd  Pd9  1  0.383709  0.383709  0.383709  1
  Pd  Pd10  1  0.615789  0.615789  0.615789  1
  Pd  Pd11  1  0.383709  0.383709  0.848872  1
  Pd  Pd12  1  0.383709  0.848872  0.383709  1
  Pd  Pd13  1  0.615789  0.615789  0.152633  1
  Pd  Pd14  1  0.615789  0.152633  0.615789  1
  Pd  Pd15  1  0.848872  0.383709  0.383709  1
  Pd  Pd16  1  0.152633  0.615789  0.615789  1
  Pd  Pd17  1  0.344008  0.000115  0.000115  1
  Pd  Pd18  1  0.655763  0.000115  0.000115  1
  Pd  Pd19  1  0.000115  0.344008  0.655763  1
  Pd  Pd20  1  0.000115  0.655763  0.344008  1
  Pd  Pd21  1  0.000115  0.344008  0.000115  1
  Pd  Pd22  1  0.655763  0.000115  0.344008  1
  Pd  Pd23  1  0.000115  0.655763  0.000115  1
  Pd  Pd24  1  0.344008  0.000115  0.655763  1
  Pd  Pd25  1  0.000115  0.000115  0.344008  1
  Pd  Pd26  1  0.000115  0.000115  0.655763  1
  Pd  Pd27  1  0.655763  0.344008  0.000115  1
  Pd  Pd28  1  0.344008  0.655763  0.000115  1
