# generated using pymatgen
data_Pr2Y2Zn10SiPb
_symmetry_space_group_name_H-M   'P 1'
_cell_length_a   8.43140961
_cell_length_b   8.43140871
_cell_length_c   8.95633400
_cell_angle_alpha   90.00000000
_cell_angle_beta   90.00000000
_cell_angle_gamma   149.72520336
_symmetry_Int_Tables_number   1
_chemical_formula_structural   Pr2Y2Zn10SiPb
_chemical_formula_sum   'Pr2 Y2 Zn10 Si1 Pb1'
_cell_volume   320.98776118
_cell_formula_units_Z   1
loop_
 _symmetry_equiv_pos_site_id
 _symmetry_equiv_pos_as_xyz
  1  'x, y, z'
loop_
 _atom_site_type_symbol
 _atom_site_label
 _atom_site_symmetry_multiplicity
 _atom_site_fract_x
 _atom_site_fract_y
 _atom_site_fract_z
 _atom_site_occupancy
  Pr  Pr0  1  0.001024  0.998976  0.483068  1
  Pr  Pr1  1  0.001024  0.998976  0.016932  1
  Y  Y2  1  0.201423  0.798577  0.250000  1
  Y  Y3  1  0.794651  0.205349  0.750000  1
  Zn  Zn4  1  0.812034  0.187966  0.390105  1
  Zn  Zn5  1  0.186773  0.813227  0.606665  1
  Zn  Zn6  1  0.812034  0.187966  0.109895  1
  Zn  Zn7  1  0.186773  0.813227  0.893335  1
  Zn  Zn8  1  0.651337  0.348663  0.472649  1
  Zn  Zn9  1  0.341192  0.658808  0.512801  1
  Zn  Zn10  1  0.651337  0.348663  0.027351  1
  Zn  Zn11  1  0.341192  0.658808  0.987199  1
  Zn  Zn12  1  0.404700  0.595300  0.250000  1
  Zn  Zn13  1  0.609761  0.390239  0.750000  1
  Si  Si14  1  0.559401  0.440599  0.250000  1
  Pb  Pb15  1  0.445347  0.554653  0.750000  1
