# generated using pymatgen
data_PrNdFe3Co9P7
_symmetry_space_group_name_H-M   'P 1'
_cell_length_a   9.08038600
_cell_length_b   9.08038604
_cell_length_c   3.66133900
_cell_angle_alpha   90.00000000
_cell_angle_beta   90.00000000
_cell_angle_gamma   119.99999985
_symmetry_Int_Tables_number   1
_chemical_formula_structural   PrNdFe3Co9P7
_chemical_formula_sum   'Pr1 Nd1 Fe3 Co9 P7'
_cell_volume   261.44431148
_cell_formula_units_Z   1
loop_
 _symmetry_equiv_pos_site_id
 _symmetry_equiv_pos_as_xyz
  1  'x, y, z'
loop_
 _atom_site_type_symbol
 _atom_site_label
 _atom_site_symmetry_multiplicity
 _atom_site_fract_x
 _atom_site_fract_y
 _atom_site_fract_z
 _atom_site_occupancy
  Pr  Pr0  1  0.333333  0.666667  0.000000  1
  Nd  Nd1  1  0.666667  0.333333  0.500000  1
  Fe  Fe2  1  0.214164  0.119812  0.500000  1
  Fe  Fe3  1  0.880188  0.094352  0.500000  1
  Fe  Fe4  1  0.905648  0.785836  0.500000  1
  Co  Co5  1  0.428482  0.369734  0.000000  1
  Co  Co6  1  0.630266  0.058748  0.000000  1
  Co  Co7  1  0.941252  0.571518  0.000000  1
  Co  Co8  1  0.153569  0.882496  0.000000  1
  Co  Co9  1  0.117504  0.271073  0.000000  1
  Co  Co10  1  0.728927  0.846431  0.000000  1
  Co  Co11  1  0.382784  0.952202  0.500000  1
  Co  Co12  1  0.047798  0.430584  0.500000  1
  Co  Co13  1  0.569416  0.617216  0.500000  1
  P  P14  1  0.405497  0.107268  0.000000  1
  P  P15  1  0.892732  0.298229  0.000000  1
  P  P16  1  0.701771  0.594503  0.000000  1
  P  P17  1  0.105143  0.709584  0.500000  1
  P  P18  1  0.290416  0.395560  0.500000  1
  P  P19  1  0.604440  0.894857  0.500000  1
  P  P20  1  0.000000  0.000000  0.000000  1
