# generated using pymatgen
data_CaPr3(Si5Os3)2
_symmetry_space_group_name_H-M   'P 1'
_cell_length_a   8.23550627
_cell_length_b   8.24283706
_cell_length_c   5.87026640
_cell_angle_alpha   70.39218135
_cell_angle_beta   70.42794693
_cell_angle_gamma   93.74343361
_symmetry_Int_Tables_number   1
_chemical_formula_structural   CaPr3(Si5Os3)2
_chemical_formula_sum   'Ca1 Pr3 Si10 Os6'
_cell_volume   346.53749458
_cell_formula_units_Z   1
loop_
 _symmetry_equiv_pos_site_id
 _symmetry_equiv_pos_as_xyz
  1  'x, y, z'
loop_
 _atom_site_type_symbol
 _atom_site_label
 _atom_site_symmetry_multiplicity
 _atom_site_fract_x
 _atom_site_fract_y
 _atom_site_fract_z
 _atom_site_occupancy
  Ca  Ca0  1  0.602850  0.868231  0.254266  1
  Pr  Pr1  1  0.867484  0.603675  0.753386  1
  Pr  Pr2  1  0.397729  0.132787  0.745641  1
  Pr  Pr3  1  0.132499  0.395929  0.246162  1
  Si  Si4  1  0.061394  0.261682  0.835535  1
  Si  Si5  1  0.739079  0.937818  0.667023  1
  Si  Si6  1  0.934427  0.740802  0.164198  1
  Si  Si7  1  0.259541  0.060112  0.337167  1
  Si  Si8  1  0.207710  0.789778  0.754753  1
  Si  Si9  1  0.788555  0.206435  0.248873  1
  Si  Si10  1  0.512888  0.489606  0.746668  1
  Si  Si11  1  0.492208  0.516124  0.246624  1
  Si  Si12  1  0.771848  0.225788  0.754878  1
  Si  Si13  1  0.230425  0.770889  0.247011  1
  Os  Os14  1  0.258242  0.543668  0.630222  1
  Os  Os15  1  0.459700  0.742338  0.865918  1
  Os  Os16  1  0.744112  0.456191  0.370106  1
  Os  Os17  1  0.539445  0.256626  0.132153  1
  Os  Os18  1  0.003419  0.997531  0.749871  1
  Os  Os19  1  0.996446  0.003991  0.249547  1
