# generated using pymatgen
data_Li4Y4Sn3Bi
_symmetry_space_group_name_H-M   'P 1'
_cell_length_a   9.43861684
_cell_length_b   9.44354066
_cell_length_c   7.30840275
_cell_angle_alpha   90.05798084
_cell_angle_beta   89.88397777
_cell_angle_gamma   119.98275388
_symmetry_Int_Tables_number   1
_chemical_formula_structural   Li4Y4Sn3Bi
_chemical_formula_sum   'Li8 Y8 Sn6 Bi2'
_cell_volume   564.24909463
_cell_formula_units_Z   2
loop_
 _symmetry_equiv_pos_site_id
 _symmetry_equiv_pos_as_xyz
  1  'x, y, z'
loop_
 _atom_site_type_symbol
 _atom_site_label
 _atom_site_symmetry_multiplicity
 _atom_site_fract_x
 _atom_site_fract_y
 _atom_site_fract_z
 _atom_site_occupancy
  Li  Li0  1  0.164397  0.828766  0.195500  1
  Li  Li1  1  0.335629  0.171234  0.695500  1
  Li  Li2  1  0.829493  0.663584  0.692078  1
  Li  Li3  1  0.165910  0.336416  0.192078  1
  Li  Li4  1  0.665509  0.831846  0.195893  1
  Li  Li5  1  0.833662  0.168154  0.695893  1
  Li  Li6  1  0.334457  0.664232  0.814639  1
  Li  Li7  1  0.670226  0.335768  0.314639  1
  Y  Y8  1  0.515439  0.492036  0.989590  1
  Y  Y9  1  0.023403  0.507964  0.489590  1
  Y  Y10  1  0.495107  0.975319  0.491461  1
  Y  Y11  1  0.519788  0.024681  0.991461  1
  Y  Y12  1  0.971711  0.482406  0.993077  1
  Y  Y13  1  0.489306  0.517594  0.493077  1
  Y  Y14  1  0.993169  0.000282  0.985455  1
  Y  Y15  1  0.992887  0.999718  0.485455  1
  Sn  Sn16  1  0.833414  0.667085  0.254874  1
  Sn  Sn17  1  0.166329  0.332915  0.754874  1
  Sn  Sn18  1  0.667073  0.833946  0.755146  1
  Sn  Sn19  1  0.833126  0.166054  0.255146  1
  Sn  Sn20  1  0.333544  0.667300  0.223713  1
  Sn  Sn21  1  0.666245  0.332700  0.723713  1
  Bi  Bi22  1  0.167106  0.834033  0.753576  1
  Bi  Bi23  1  0.333072  0.165967  0.253576  1
