# generated using pymatgen
data_Ho5AlZnRu3
_symmetry_space_group_name_H-M   'P 1'
_cell_length_a   8.30386001
_cell_length_b   8.30386019
_cell_length_c   8.24503346
_cell_angle_alpha   109.49039502
_cell_angle_beta   109.48656992
_cell_angle_gamma   109.72415301
_symmetry_Int_Tables_number   1
_chemical_formula_structural   Ho5AlZnRu3
_chemical_formula_sum   'Ho10 Al2 Zn2 Ru6'
_cell_volume   436.09230500
_cell_formula_units_Z   2
loop_
 _symmetry_equiv_pos_site_id
 _symmetry_equiv_pos_as_xyz
  1  'x, y, z'
loop_
 _atom_site_type_symbol
 _atom_site_label
 _atom_site_symmetry_multiplicity
 _atom_site_fract_x
 _atom_site_fract_y
 _atom_site_fract_z
 _atom_site_occupancy
  Ho  Ho0  1  0.251955  0.682393  0.434935  1
  Ho  Ho1  1  0.747457  0.817019  0.065065  1
  Ho  Ho2  1  0.432396  0.251263  0.683590  1
  Ho  Ho3  1  0.682280  0.432280  0.250000  1
  Ho  Ho4  1  0.067673  0.748806  0.816410  1
  Ho  Ho5  1  0.816578  0.066578  0.750000  1
  Ho  Ho6  1  0.218414  0.219336  0.218659  1
  Ho  Ho7  1  0.500677  0.999756  0.281341  1
  Ho  Ho8  1  0.281944  0.499579  0.999186  1
  Ho  Ho9  1  0.000393  0.282758  0.500814  1
  Al  Al10  1  0.911069  0.501599  0.002202  1
  Al  Al11  1  0.999396  0.908866  0.497798  1
  Zn  Zn12  1  0.589434  0.587706  0.587790  1
  Zn  Zn13  1  0.499915  0.001644  0.912210  1
  Ru  Ru14  1  0.243403  0.124242  0.872342  1
  Ru  Ru15  1  0.751900  0.371061  0.627658  1
  Ru  Ru16  1  0.882686  0.257389  0.128924  1
  Ru  Ru17  1  0.124433  0.874432  0.250000  1
  Ru  Ru18  1  0.628464  0.753763  0.371076  1
  Ru  Ru19  1  0.369532  0.619532  0.750000  1
