# generated using pymatgen
data_AgBi3(Ru2O7)2
_symmetry_space_group_name_H-M   'P 1'
_cell_length_a   7.36013175
_cell_length_b   7.36013229
_cell_length_c   7.24805268
_cell_angle_alpha   59.48714148
_cell_angle_beta   59.48714382
_cell_angle_gamma   60.00000167
_symmetry_Int_Tables_number   1
_chemical_formula_structural   AgBi3(Ru2O7)2
_chemical_formula_sum   'Ag1 Bi3 Ru4 O14'
_cell_volume   275.46543890
_cell_formula_units_Z   1
loop_
 _symmetry_equiv_pos_site_id
 _symmetry_equiv_pos_as_xyz
  1  'x, y, z'
loop_
 _atom_site_type_symbol
 _atom_site_label
 _atom_site_symmetry_multiplicity
 _atom_site_fract_x
 _atom_site_fract_y
 _atom_site_fract_z
 _atom_site_occupancy
  Ag  Ag0  1  0.125000  0.125000  0.625000  1
  Bi  Bi1  1  0.125000  0.625000  0.125000  1
  Bi  Bi2  1  0.625000  0.125000  0.125000  1
  Bi  Bi3  1  0.125000  0.125000  0.125000  1
  Ru  Ru4  1  0.625000  0.625000  0.125000  1
  Ru  Ru5  1  0.625000  0.125000  0.625000  1
  Ru  Ru6  1  0.125000  0.625000  0.625000  1
  Ru  Ru7  1  0.625000  0.625000  0.625000  1
  O  O8  1  0.245291  0.245291  0.264127  1
  O  O9  1  0.004709  0.004709  0.985873  1
  O  O10  1  0.566139  0.945027  0.543807  1
  O  O11  1  0.296801  0.706191  0.290817  1
  O  O12  1  0.543809  0.543809  0.959183  1
  O  O13  1  0.945027  0.566139  0.543807  1
  O  O14  1  0.543809  0.953199  0.959183  1
  O  O15  1  0.945027  0.945027  0.543807  1
  O  O16  1  0.953199  0.543809  0.959183  1
  O  O17  1  0.706191  0.296801  0.290817  1
  O  O18  1  0.304973  0.683861  0.706193  1
  O  O19  1  0.683861  0.304973  0.706193  1
  O  O20  1  0.304973  0.304973  0.706193  1
  O  O21  1  0.706191  0.706191  0.290817  1
