# generated using pymatgen
data_Nd3TmAu2
_symmetry_space_group_name_H-M   'P 1'
_cell_length_a   4.99844000
_cell_length_b   7.32765100
_cell_length_c   9.21049200
_cell_angle_alpha   90.00000000
_cell_angle_beta   90.00000000
_cell_angle_gamma   90.00000000
_symmetry_Int_Tables_number   1
_chemical_formula_structural   Nd3TmAu2
_chemical_formula_sum   'Nd6 Tm2 Au4'
_cell_volume   337.35106819
_cell_formula_units_Z   2
loop_
 _symmetry_equiv_pos_site_id
 _symmetry_equiv_pos_as_xyz
  1  'x, y, z'
loop_
 _atom_site_type_symbol
 _atom_site_label
 _atom_site_symmetry_multiplicity
 _atom_site_fract_x
 _atom_site_fract_y
 _atom_site_fract_z
 _atom_site_occupancy
  Nd  Nd0  1  0.750000  0.152713  0.083802  1
  Nd  Nd1  1  0.750000  0.652713  0.416198  1
  Nd  Nd2  1  0.250000  0.493638  0.174835  1
  Nd  Nd3  1  0.250000  0.993638  0.325165  1
  Nd  Nd4  1  0.750000  0.510962  0.821017  1
  Nd  Nd5  1  0.750000  0.010962  0.678983  1
  Tm  Tm6  1  0.250000  0.850251  0.917751  1
  Tm  Tm7  1  0.250000  0.350251  0.582249  1
  Au  Au8  1  0.250000  0.245275  0.891327  1
  Au  Au9  1  0.250000  0.745275  0.608673  1
  Au  Au10  1  0.750000  0.747161  0.088588  1
  Au  Au11  1  0.750000  0.247161  0.411412  1
