# generated using pymatgen
data_Y2ZnSi13Ir6
_symmetry_space_group_name_H-M   'P 1'
_cell_length_a   8.09623523
_cell_length_b   8.00741991
_cell_length_c   8.04051400
_cell_angle_alpha   56.72801769
_cell_angle_beta   56.74595464
_cell_angle_gamma   57.01595712
_symmetry_Int_Tables_number   1
_chemical_formula_structural   Y2ZnSi13Ir6
_chemical_formula_sum   'Y2 Zn1 Si13 Ir6'
_cell_volume   341.62075893
_cell_formula_units_Z   1
loop_
 _symmetry_equiv_pos_site_id
 _symmetry_equiv_pos_as_xyz
  1  'x, y, z'
loop_
 _atom_site_type_symbol
 _atom_site_label
 _atom_site_symmetry_multiplicity
 _atom_site_fract_x
 _atom_site_fract_y
 _atom_site_fract_z
 _atom_site_occupancy
  Y  Y0  1  0.500483  0.498020  0.502136  1
  Y  Y1  1  0.998983  0.000290  0.994911  1
  Zn  Zn2  1  0.856091  0.077748  0.662834  1
  Si  Si3  1  0.671678  0.853246  0.064729  1
  Si  Si4  1  0.061350  0.676918  0.848555  1
  Si  Si5  1  0.653362  0.820361  0.436969  1
  Si  Si6  1  0.247667  0.246809  0.254767  1
  Si  Si7  1  0.750831  0.754556  0.748190  1
  Si  Si8  1  0.170554  0.565124  0.351906  1
  Si  Si9  1  0.561879  0.354183  0.172385  1
  Si  Si10  1  0.352326  0.171928  0.561444  1
  Si  Si11  1  0.936044  0.326418  0.148585  1
  Si  Si12  1  0.330674  0.149450  0.932360  1
  Si  Si13  1  0.143859  0.937767  0.332069  1
  Si  Si14  1  0.825104  0.429916  0.656232  1
  Si  Si15  1  0.437455  0.647108  0.830517  1
  Ir  Ir16  1  0.748433  0.072044  0.417453  1
  Ir  Ir17  1  0.426136  0.750600  0.073981  1
  Ir  Ir18  1  0.070957  0.426954  0.750313  1
  Ir  Ir19  1  0.265790  0.917254  0.569659  1
  Ir  Ir20  1  0.560339  0.255509  0.938083  1
  Ir  Ir21  1  0.930006  0.567795  0.251922  1
