# generated using pymatgen
data_Lu4ScZn2Sb
_symmetry_space_group_name_H-M   'P 1'
_cell_length_a   8.34879918
_cell_length_b   8.34879965
_cell_length_c   8.34879950
_cell_angle_alpha   124.11358873
_cell_angle_beta   124.11359237
_cell_angle_gamma   83.01146700
_symmetry_Int_Tables_number   1
_chemical_formula_structural   Lu4ScZn2Sb
_chemical_formula_sum   'Lu8 Sc2 Zn4 Sb2'
_cell_volume   382.77811640
_cell_formula_units_Z   2
loop_
 _symmetry_equiv_pos_site_id
 _symmetry_equiv_pos_as_xyz
  1  'x, y, z'
loop_
 _atom_site_type_symbol
 _atom_site_label
 _atom_site_symmetry_multiplicity
 _atom_site_fract_x
 _atom_site_fract_y
 _atom_site_fract_z
 _atom_site_occupancy
  Lu  Lu0  1  0.512332  0.700623  0.500000  1
  Lu  Lu1  1  0.012332  0.512332  0.811708  1
  Lu  Lu2  1  0.700623  0.200623  0.188292  1
  Lu  Lu3  1  0.987668  0.487668  0.188292  1
  Lu  Lu4  1  0.200623  0.012332  0.500000  1
  Lu  Lu5  1  0.487668  0.299377  0.500000  1
  Lu  Lu6  1  0.799377  0.987668  0.500000  1
  Lu  Lu7  1  0.299377  0.799377  0.811708  1
  Sc  Sc8  1  0.000000  0.000000  0.000000  1
  Sc  Sc9  1  0.500000  0.500000  0.000000  1
  Zn  Zn10  1  0.363157  0.863157  0.226314  1
  Zn  Zn11  1  0.863157  0.636843  0.500000  1
  Zn  Zn12  1  0.636843  0.136843  0.773686  1
  Zn  Zn13  1  0.136843  0.363157  0.500000  1
  Sb  Sb14  1  0.750000  0.750000  0.000000  1
  Sb  Sb15  1  0.250000  0.250000  0.000000  1
