# generated using pymatgen
data_Ce3ErSi(PtRh)6
_symmetry_space_group_name_H-M   'P 1'
_cell_length_a   7.25639116
_cell_length_b   7.25639182
_cell_length_c   7.30051800
_cell_angle_alpha   109.59445128
_cell_angle_beta   109.59445312
_cell_angle_gamma   109.34770963
_symmetry_Int_Tables_number   1
_chemical_formula_structural   Ce3ErSi(PtRh)6
_chemical_formula_sum   'Ce3 Er1 Si1 Pt6 Rh6'
_cell_volume   295.46798818
_cell_formula_units_Z   1
loop_
 _symmetry_equiv_pos_site_id
 _symmetry_equiv_pos_as_xyz
  1  'x, y, z'
loop_
 _atom_site_type_symbol
 _atom_site_label
 _atom_site_symmetry_multiplicity
 _atom_site_fract_x
 _atom_site_fract_y
 _atom_site_fract_z
 _atom_site_occupancy
  Ce  Ce0  1  0.000000  0.500000  0.000000  1
  Ce  Ce1  1  0.500000  0.000000  0.000000  1
  Ce  Ce2  1  0.500000  0.500000  0.500000  1
  Er  Er3  1  0.000000  0.000000  0.500000  1
  Si  Si4  1  0.000000  0.000000  0.000000  1
  Pt  Pt5  1  0.750305  0.249695  0.500000  1
  Pt  Pt6  1  0.750305  0.500611  0.250305  1
  Pt  Pt7  1  0.499389  0.249695  0.749695  1
  Pt  Pt8  1  0.249695  0.499389  0.749695  1
  Pt  Pt9  1  0.249695  0.750305  0.500000  1
  Pt  Pt10  1  0.500611  0.750305  0.250305  1
  Rh  Rh11  1  0.724562  0.724562  0.000070  1
  Rh  Rh12  1  0.275438  0.000000  0.275508  1
  Rh  Rh13  1  0.000000  0.275438  0.275508  1
  Rh  Rh14  1  0.275438  0.275438  0.999930  1
  Rh  Rh15  1  0.724562  0.000000  0.724492  1
  Rh  Rh16  1  0.000000  0.724562  0.724492  1
