# generated using pymatgen
data_Rb3Er(BiSe3)2
_symmetry_space_group_name_H-M   'P 1'
_cell_length_a   7.46768994
_cell_length_b   7.46769149
_cell_length_c   8.36223501
_cell_angle_alpha   81.44177172
_cell_angle_beta   81.44177094
_cell_angle_gamma   120.01344753
_symmetry_Int_Tables_number   1
_chemical_formula_structural   Rb3Er(BiSe3)2
_chemical_formula_sum   'Rb3 Er1 Bi2 Se6'
_cell_volume   385.49324130
_cell_formula_units_Z   1
loop_
 _symmetry_equiv_pos_site_id
 _symmetry_equiv_pos_as_xyz
  1  'x, y, z'
loop_
 _atom_site_type_symbol
 _atom_site_label
 _atom_site_symmetry_multiplicity
 _atom_site_fract_x
 _atom_site_fract_y
 _atom_site_fract_z
 _atom_site_occupancy
  Rb  Rb0  1  0.668158  0.331842  0.500000  1
  Rb  Rb1  1  0.331842  0.668158  0.500000  1
  Rb  Rb2  1  0.000000  0.000000  0.500000  1
  Er  Er3  1  0.500000  0.500000  0.000000  1
  Bi  Bi4  1  0.833341  0.166659  0.000000  1
  Bi  Bi5  1  0.166659  0.833341  0.000000  1
  Se  Se6  1  0.757434  0.757434  0.198569  1
  Se  Se7  1  0.242566  0.242566  0.801431  1
  Se  Se8  1  0.433471  0.110246  0.198848  1
  Se  Se9  1  0.566529  0.889754  0.801152  1
  Se  Se10  1  0.889754  0.566529  0.801152  1
  Se  Se11  1  0.110246  0.433471  0.198848  1
