# generated using pymatgen
data_La7Sm(Sc3Pt4)4
_symmetry_space_group_name_H-M   'P 1'
_cell_length_a   7.68433216
_cell_length_b   7.52556468
_cell_length_c   13.78450836
_cell_angle_alpha   89.88545059
_cell_angle_beta   89.97295555
_cell_angle_gamma   90.05745993
_symmetry_Int_Tables_number   1
_chemical_formula_structural   La7Sm(Sc3Pt4)4
_chemical_formula_sum   'La7 Sm1 Sc12 Pt16'
_cell_volume   797.14140536
_cell_formula_units_Z   1
loop_
 _symmetry_equiv_pos_site_id
 _symmetry_equiv_pos_as_xyz
  1  'x, y, z'
loop_
 _atom_site_type_symbol
 _atom_site_label
 _atom_site_symmetry_multiplicity
 _atom_site_fract_x
 _atom_site_fract_y
 _atom_site_fract_z
 _atom_site_occupancy
  La  La0  1  0.010448  0.173433  0.097296  1
  La  La1  1  0.989686  0.826459  0.902168  1
  La  La2  1  0.489442  0.673571  0.902020  1
  La  La3  1  0.989501  0.825827  0.597139  1
  La  La4  1  0.510527  0.326362  0.097290  1
  La  La5  1  0.010750  0.173738  0.402591  1
  La  La6  1  0.510809  0.327654  0.403388  1
  Sm  Sm7  1  0.489410  0.673925  0.599259  1
  Sc  Sc8  1  0.165107  0.492912  0.749228  1
  Sc  Sc9  1  0.836318  0.507856  0.250309  1
  Sc  Sc10  1  0.336299  0.992552  0.250303  1
  Sc  Sc11  1  0.663085  0.006750  0.749151  1
  Sc  Sc12  1  0.333159  0.164087  0.625058  1
  Sc  Sc13  1  0.666502  0.834926  0.375628  1
  Sc  Sc14  1  0.167628  0.664166  0.374941  1
  Sc  Sc15  1  0.667028  0.836368  0.125515  1
  Sc  Sc16  1  0.831726  0.336785  0.624988  1
  Sc  Sc17  1  0.332956  0.163924  0.874409  1
  Sc  Sc18  1  0.832714  0.336334  0.874219  1
  Sc  Sc19  1  0.166910  0.663744  0.125453  1
  Pt  Pt20  1  0.033377  0.137063  0.749744  1
  Pt  Pt21  1  0.966490  0.862782  0.250157  1
  Pt  Pt22  1  0.466530  0.637299  0.249782  1
  Pt  Pt23  1  0.532753  0.364365  0.749074  1
  Pt  Pt24  1  0.293749  0.862415  0.748959  1
  Pt  Pt25  1  0.706874  0.136369  0.250080  1
  Pt  Pt26  1  0.206869  0.363910  0.250041  1
  Pt  Pt27  1  0.791851  0.636167  0.749067  1
  Pt  Pt28  1  0.168574  0.454605  0.546495  1
  Pt  Pt29  1  0.833433  0.548077  0.454811  1
  Pt  Pt30  1  0.335191  0.950773  0.454846  1
  Pt  Pt31  1  0.833781  0.547833  0.046052  1
  Pt  Pt32  1  0.664674  0.044804  0.546751  1
  Pt  Pt33  1  0.166013  0.452297  0.953799  1
  Pt  Pt34  1  0.665677  0.047502  0.953683  1
  Pt  Pt35  1  0.334159  0.952365  0.046304  1
