# generated using pymatgen
data_Ho5ThIr18
_symmetry_space_group_name_H-M   'P 1'
_cell_length_a   5.32253600
_cell_length_b   5.32254580
_cell_length_c   17.50405100
_cell_angle_alpha   90.00000000
_cell_angle_beta   90.00000000
_cell_angle_gamma   120.00033098
_symmetry_Int_Tables_number   1
_chemical_formula_structural   Ho5ThIr18
_chemical_formula_sum   'Ho5 Th1 Ir18'
_cell_volume   429.44323706
_cell_formula_units_Z   1
loop_
 _symmetry_equiv_pos_site_id
 _symmetry_equiv_pos_as_xyz
  1  'x, y, z'
loop_
 _atom_site_type_symbol
 _atom_site_label
 _atom_site_symmetry_multiplicity
 _atom_site_fract_x
 _atom_site_fract_y
 _atom_site_fract_z
 _atom_site_occupancy
  Ho  Ho0  1  0.333336  0.666667  0.958488  1
  Ho  Ho1  1  0.666666  0.333329  0.039189  1
  Ho  Ho2  1  0.666666  0.333329  0.460811  1
  Ho  Ho3  1  0.333336  0.666667  0.541512  1
  Ho  Ho4  1  0.333335  0.666663  0.750000  1
  Th  Th5  1  0.666655  0.333324  0.250000  1
  Ir  Ir6  1  0.167307  0.832689  0.374849  1
  Ir  Ir7  1  0.167306  0.334622  0.374849  1
  Ir  Ir8  1  0.665380  0.832688  0.374848  1
  Ir  Ir9  1  0.832677  0.167325  0.626278  1
  Ir  Ir10  1  0.832682  0.665362  0.626276  1
  Ir  Ir11  1  0.334645  0.167324  0.626275  1
  Ir  Ir12  1  0.832677  0.167325  0.873722  1
  Ir  Ir13  1  0.832682  0.665362  0.873724  1
  Ir  Ir14  1  0.334645  0.167324  0.873725  1
  Ir  Ir15  1  0.167307  0.832689  0.125151  1
  Ir  Ir16  1  0.167306  0.334622  0.125151  1
  Ir  Ir17  1  0.665380  0.832688  0.125152  1
  Ir  Ir18  1  0.333329  0.666668  0.250000  1
  Ir  Ir19  1  0.666652  0.333335  0.750000  1
  Ir  Ir20  1  0.000000  0.999987  0.250000  1
  Ir  Ir21  1  0.000023  0.000007  0.750000  1
  Ir  Ir22  1  0.000006  0.000001  0.500248  1
  Ir  Ir23  1  0.000006  0.000001  0.999752  1
