# generated using pymatgen
data_Ho3ErGa18(PdRu)3
_symmetry_space_group_name_H-M   'P 1'
_cell_length_a   7.60340288
_cell_length_b   7.60411872
_cell_length_c   9.55411714
_cell_angle_alpha   89.93206685
_cell_angle_beta   89.92944974
_cell_angle_gamma   120.08824487
_symmetry_Int_Tables_number   1
_chemical_formula_structural   Ho3ErGa18(PdRu)3
_chemical_formula_sum   'Ho3 Er1 Ga18 Pd3 Ru3'
_cell_volume   477.95823129
_cell_formula_units_Z   1
loop_
 _symmetry_equiv_pos_site_id
 _symmetry_equiv_pos_as_xyz
  1  'x, y, z'
loop_
 _atom_site_type_symbol
 _atom_site_label
 _atom_site_symmetry_multiplicity
 _atom_site_fract_x
 _atom_site_fract_y
 _atom_site_fract_z
 _atom_site_occupancy
  Ho  Ho0  1  0.997116  0.668504  0.251517  1
  Ho  Ho1  1  0.002695  0.331763  0.748251  1
  Ho  Ho2  1  0.668276  0.997352  0.251725  1
  Er  Er3  1  0.331632  0.002858  0.748407  1
  Ga  Ga4  1  0.129500  0.127498  0.249985  1
  Ga  Ga5  1  0.872665  0.870564  0.750015  1
  Ga  Ga6  1  0.004468  0.337579  0.081261  1
  Ga  Ga7  1  0.003065  0.665778  0.918723  1
  Ga  Ga8  1  0.999923  0.661881  0.578914  1
  Ga  Ga9  1  0.338237  0.000158  0.421214  1
  Ga  Ga10  1  0.001057  0.338472  0.419919  1
  Ga  Ga11  1  0.661354  0.998964  0.580121  1
  Ga  Ga12  1  0.662230  0.995546  0.918724  1
  Ga  Ga13  1  0.334408  0.997062  0.081167  1
  Ga  Ga14  1  0.339728  0.339152  0.564398  1
  Ga  Ga15  1  0.660759  0.660279  0.435644  1
  Ga  Ga16  1  0.660517  0.665485  0.067799  1
  Ga  Ga17  1  0.334524  0.339431  0.932178  1
  Ga  Ga18  1  0.336997  0.550444  0.250791  1
  Ga  Ga19  1  0.664427  0.453139  0.746609  1
  Ga  Ga20  1  0.546755  0.335511  0.253385  1
  Ga  Ga21  1  0.449500  0.663018  0.749209  1
  Pd  Pd22  1  0.671961  0.327951  0.999967  1
  Pd  Pd23  1  0.000638  0.999377  0.999971  1
  Pd  Pd24  1  0.999701  0.000326  0.500033  1
  Ru  Ru25  1  0.327457  0.672498  0.999882  1
  Ru  Ru26  1  0.327156  0.672848  0.500107  1
  Ru  Ru27  1  0.673255  0.326561  0.500080  1
