# generated using pymatgen
data_Tb18CdAgIr12
_symmetry_space_group_name_H-M   'P 1'
_cell_length_a   10.87265200
_cell_length_b   10.87265200
_cell_length_c   6.28110100
_cell_angle_alpha   90.00000000
_cell_angle_beta   90.00000000
_cell_angle_gamma   90.00000000
_symmetry_Int_Tables_number   1
_chemical_formula_structural   Tb18CdAgIr12
_chemical_formula_sum   'Tb18 Cd1 Ag1 Ir12'
_cell_volume   742.51760053
_cell_formula_units_Z   1
loop_
 _symmetry_equiv_pos_site_id
 _symmetry_equiv_pos_as_xyz
  1  'x, y, z'
loop_
 _atom_site_type_symbol
 _atom_site_label
 _atom_site_symmetry_multiplicity
 _atom_site_fract_x
 _atom_site_fract_y
 _atom_site_fract_z
 _atom_site_occupancy
  Tb  Tb0  1  0.282646  0.086194  0.378110  1
  Tb  Tb1  1  0.292781  0.913906  0.874711  1
  Tb  Tb2  1  0.707219  0.086094  0.874711  1
  Tb  Tb3  1  0.717354  0.913806  0.378110  1
  Tb  Tb4  1  0.583361  0.779402  0.878647  1
  Tb  Tb5  1  0.587937  0.206998  0.374298  1
  Tb  Tb6  1  0.412063  0.793002  0.374298  1
  Tb  Tb7  1  0.416639  0.220598  0.878647  1
  Tb  Tb8  1  0.206998  0.412063  0.625702  1
  Tb  Tb9  1  0.220598  0.583361  0.121353  1
  Tb  Tb10  1  0.779402  0.416639  0.121353  1
  Tb  Tb11  1  0.793002  0.587937  0.625702  1
  Tb  Tb12  1  0.913906  0.707219  0.125289  1
  Tb  Tb13  1  0.913806  0.282646  0.621890  1
  Tb  Tb14  1  0.086194  0.717354  0.621890  1
  Tb  Tb15  1  0.086094  0.292781  0.125289  1
  Tb  Tb16  1  0.000000  0.000000  0.000000  1
  Tb  Tb17  1  0.500000  0.500000  0.500000  1
  Cd  Cd18  1  0.000000  0.000000  0.500000  1
  Ag  Ag19  1  0.500000  0.500000  0.000000  1
  Ir  Ir20  1  0.844727  0.160119  0.235529  1
  Ir  Ir21  1  0.839881  0.844727  0.764471  1
  Ir  Ir22  1  0.160119  0.155273  0.764471  1
  Ir  Ir23  1  0.155273  0.839881  0.235529  1
  Ir  Ir24  1  0.660405  0.343249  0.734731  1
  Ir  Ir25  1  0.656751  0.660405  0.265269  1
  Ir  Ir26  1  0.343249  0.339595  0.265269  1
  Ir  Ir27  1  0.339595  0.656751  0.734731  1
  Ir  Ir28  1  0.500000  0.000000  0.117792  1
  Ir  Ir29  1  0.500000  0.000000  0.618350  1
  Ir  Ir30  1  0.000000  0.500000  0.882208  1
  Ir  Ir31  1  0.000000  0.500000  0.381650  1
