# generated using pymatgen
data_Lu12CdFe3Cu
_symmetry_space_group_name_H-M   'P 1'
_cell_length_a   8.06423019
_cell_length_b   8.06422827
_cell_length_c   8.06423035
_cell_angle_alpha   107.34756317
_cell_angle_beta   109.93409823
_cell_angle_gamma   111.15508246
_symmetry_Int_Tables_number   1
_chemical_formula_structural   Lu12CdFe3Cu
_chemical_formula_sum   'Lu12 Cd1 Fe3 Cu1'
_cell_volume   403.24576361
_cell_formula_units_Z   1
loop_
 _symmetry_equiv_pos_site_id
 _symmetry_equiv_pos_as_xyz
  1  'x, y, z'
loop_
 _atom_site_type_symbol
 _atom_site_label
 _atom_site_symmetry_multiplicity
 _atom_site_fract_x
 _atom_site_fract_y
 _atom_site_fract_z
 _atom_site_occupancy
  Lu  Lu0  1  0.310314  0.308234  0.618548  1
  Lu  Lu1  1  0.689686  0.691766  0.381452  1
  Lu  Lu2  1  0.689686  0.308234  0.997918  1
  Lu  Lu3  1  0.310314  0.691766  0.002082  1
  Lu  Lu4  1  0.187351  0.413998  0.226646  1
  Lu  Lu5  1  0.812649  0.586002  0.773354  1
  Lu  Lu6  1  0.187351  0.960704  0.773354  1
  Lu  Lu7  1  0.933184  0.190780  0.742405  1
  Lu  Lu8  1  0.812649  0.039296  0.226646  1
  Lu  Lu9  1  0.066816  0.809220  0.257595  1
  Lu  Lu10  1  0.448375  0.190780  0.257595  1
  Lu  Lu11  1  0.551625  0.809220  0.742405  1
  Cd  Cd12  1  0.000000  0.500000  0.500000  1
  Fe  Fe13  1  0.380433  0.380433  0.000000  1
  Fe  Fe14  1  0.619567  0.619567  0.000000  1
  Fe  Fe15  1  0.000000  0.000000  0.000000  1
  Cu  Cu16  1  0.500000  0.000000  0.500000  1
