# generated using pymatgen
data_Dy5IrOsRh
_symmetry_space_group_name_H-M   'P 1'
_cell_length_a   10.87357900
_cell_length_b   10.87357900
_cell_length_c   6.40679300
_cell_angle_alpha   90.00000000
_cell_angle_beta   90.00000000
_cell_angle_gamma   90.00000000
_symmetry_Int_Tables_number   1
_chemical_formula_structural   Dy5IrOsRh
_chemical_formula_sum   'Dy20 Ir4 Os4 Rh4'
_cell_volume   757.50537818
_cell_formula_units_Z   4
loop_
 _symmetry_equiv_pos_site_id
 _symmetry_equiv_pos_as_xyz
  1  'x, y, z'
loop_
 _atom_site_type_symbol
 _atom_site_label
 _atom_site_symmetry_multiplicity
 _atom_site_fract_x
 _atom_site_fract_y
 _atom_site_fract_z
 _atom_site_occupancy
  Dy  Dy0  1  0.294679  0.087191  0.377349  1
  Dy  Dy1  1  0.294679  0.912809  0.877349  1
  Dy  Dy2  1  0.705321  0.087191  0.877349  1
  Dy  Dy3  1  0.705321  0.912809  0.377349  1
  Dy  Dy4  1  0.585817  0.793691  0.878258  1
  Dy  Dy5  1  0.585817  0.206309  0.378258  1
  Dy  Dy6  1  0.414183  0.793691  0.378258  1
  Dy  Dy7  1  0.414183  0.206309  0.878258  1
  Dy  Dy8  1  0.206309  0.414183  0.621742  1
  Dy  Dy9  1  0.206309  0.585817  0.121742  1
  Dy  Dy10  1  0.793691  0.414183  0.121742  1
  Dy  Dy11  1  0.793691  0.585817  0.621742  1
  Dy  Dy12  1  0.912809  0.705321  0.122651  1
  Dy  Dy13  1  0.912809  0.294679  0.622651  1
  Dy  Dy14  1  0.087191  0.705321  0.622651  1
  Dy  Dy15  1  0.087191  0.294679  0.122651  1
  Dy  Dy16  1  0.000000  0.000000  0.500000  1
  Dy  Dy17  1  0.000000  0.000000  0.000000  1
  Dy  Dy18  1  0.500000  0.500000  0.000000  1
  Dy  Dy19  1  0.500000  0.500000  0.500000  1
  Ir  Ir20  1  0.652457  0.347543  0.750000  1
  Ir  Ir21  1  0.652457  0.652457  0.250000  1
  Ir  Ir22  1  0.347543  0.347543  0.250000  1
  Ir  Ir23  1  0.347543  0.652457  0.750000  1
  Os  Os24  1  0.500000  0.000000  0.123869  1
  Os  Os25  1  0.500000  0.000000  0.623869  1
  Os  Os26  1  0.000000  0.500000  0.876131  1
  Os  Os27  1  0.000000  0.500000  0.376131  1
  Rh  Rh28  1  0.848558  0.151442  0.250000  1
  Rh  Rh29  1  0.848558  0.848558  0.750000  1
  Rh  Rh30  1  0.151442  0.151442  0.750000  1
  Rh  Rh31  1  0.151442  0.848558  0.250000  1
