# generated using pymatgen
data_GdY3V4F28
_symmetry_space_group_name_H-M   'P 1'
_cell_length_a   5.52031647
_cell_length_b   8.82560861
_cell_length_c   11.79930300
_cell_angle_alpha   63.58390911
_cell_angle_beta   90.02352936
_cell_angle_gamma   90.01623279
_symmetry_Int_Tables_number   1
_chemical_formula_structural   GdY3V4F28
_chemical_formula_sum   'Gd1 Y3 V4 F28'
_cell_volume   514.84045298
_cell_formula_units_Z   1
loop_
 _symmetry_equiv_pos_site_id
 _symmetry_equiv_pos_as_xyz
  1  'x, y, z'
loop_
 _atom_site_type_symbol
 _atom_site_label
 _atom_site_symmetry_multiplicity
 _atom_site_fract_x
 _atom_site_fract_y
 _atom_site_fract_z
 _atom_site_occupancy
  Gd  Gd0  1  0.741709  0.808118  0.270834  1
  Y  Y1  1  0.758461  0.807709  0.770702  1
  Y  Y2  1  0.258458  0.192987  0.728925  1
  Y  Y3  1  0.241449  0.196175  0.228122  1
  V  V4  1  0.753525  0.274753  0.953485  1
  V  V5  1  0.253415  0.725879  0.547452  1
  V  V6  1  0.247176  0.726598  0.044006  1
  V  V7  1  0.746732  0.272092  0.455008  1
  F  F8  1  0.450430  0.704973  0.923275  1
  F  F9  1  0.951105  0.293771  0.575590  1
  F  F10  1  0.548562  0.295658  0.074249  1
  F  F11  1  0.051136  0.704232  0.426222  1
  F  F12  1  0.464550  0.285091  0.544589  1
  F  F13  1  0.963603  0.714028  0.955237  1
  F  F14  1  0.535493  0.712467  0.458675  1
  F  F15  1  0.035210  0.287205  0.043514  1
  F  F16  1  0.765273  0.506451  0.860889  1
  F  F17  1  0.264800  0.493424  0.639848  1
  F  F18  1  0.233870  0.494242  0.137622  1
  F  F19  1  0.733192  0.503519  0.362073  1
  F  F20  1  0.756855  0.045055  0.043763  1
  F  F21  1  0.256651  0.954941  0.457051  1
  F  F22  1  0.244023  0.956042  0.954297  1
  F  F23  1  0.743689  0.042598  0.544968  1
  F  F24  1  0.977669  0.730469  0.641900  1
  F  F25  1  0.479261  0.268820  0.858580  1
  F  F26  1  0.022110  0.268750  0.359837  1
  F  F27  1  0.522585  0.730034  0.138371  1
  F  F28  1  0.047451  0.746570  0.168647  1
  F  F29  1  0.543735  0.251074  0.331041  1
  F  F30  1  0.957047  0.252387  0.830516  1
  F  F31  1  0.455552  0.747237  0.671177  1
  F  F32  1  0.415908  0.974531  0.230918  1
  F  F33  1  0.921144  0.031699  0.268907  1
  F  F34  1  0.579044  0.027764  0.768316  1
  F  F35  1  0.079124  0.972662  0.731396  1
