# generated using pymatgen
data_CeEr4Ga2Ru3
_symmetry_space_group_name_H-M   'P 1'
_cell_length_a   8.38421371
_cell_length_b   8.30122331
_cell_length_c   8.27251700
_cell_angle_alpha   109.93452084
_cell_angle_beta   109.41273805
_cell_angle_gamma   110.13938272
_symmetry_Int_Tables_number   1
_chemical_formula_structural   CeEr4Ga2Ru3
_chemical_formula_sum   'Ce2 Er8 Ga4 Ru6'
_cell_volume   437.23936946
_cell_formula_units_Z   2
loop_
 _symmetry_equiv_pos_site_id
 _symmetry_equiv_pos_as_xyz
  1  'x, y, z'
loop_
 _atom_site_type_symbol
 _atom_site_label
 _atom_site_symmetry_multiplicity
 _atom_site_fract_x
 _atom_site_fract_y
 _atom_site_fract_z
 _atom_site_occupancy
  Ce  Ce0  1  0.944408  0.251701  0.195581  1
  Ce  Ce1  1  0.197270  0.942691  0.250930  1
  Er  Er2  1  0.778131  0.782130  0.776079  1
  Er  Er3  1  0.317566  0.567210  0.753931  1
  Er  Er4  1  0.750723  0.317294  0.568985  1
  Er  Er5  1  0.568431  0.747973  0.313949  1
  Er  Er6  1  0.721277  0.502985  0.998575  1
  Er  Er7  1  0.998820  0.721770  0.505439  1
  Er  Er8  1  0.500574  0.992743  0.718253  1
  Er  Er9  1  0.253408  0.187353  0.932183  1
  Ga  Ga10  1  0.417765  0.413120  0.410250  1
  Ga  Ga11  1  0.092245  0.493070  0.995965  1
  Ga  Ga12  1  0.998017  0.091416  0.504128  1
  Ga  Ga13  1  0.502598  0.008230  0.093366  1
  Ru  Ru14  1  0.864972  0.114440  0.742034  1
  Ru  Ru15  1  0.754281  0.897297  0.120597  1
  Ru  Ru16  1  0.123789  0.762570  0.902221  1
  Ru  Ru17  1  0.225949  0.596549  0.366967  1
  Ru  Ru18  1  0.361339  0.223868  0.599464  1
  Ru  Ru19  1  0.628435  0.385593  0.251103  1
