# generated using pymatgen
data_Ca4Tb3ScCd8
_symmetry_space_group_name_H-M   'P 1'
_cell_length_a   7.53085200
_cell_length_b   7.54405200
_cell_length_c   7.47101300
_cell_angle_alpha   90.00000000
_cell_angle_beta   90.00044888
_cell_angle_gamma   90.00000000
_symmetry_Int_Tables_number   1
_chemical_formula_structural   Ca4Tb3ScCd8
_chemical_formula_sum   'Ca4 Tb3 Sc1 Cd8'
_cell_volume   424.45170073
_cell_formula_units_Z   1
loop_
 _symmetry_equiv_pos_site_id
 _symmetry_equiv_pos_as_xyz
  1  'x, y, z'
loop_
 _atom_site_type_symbol
 _atom_site_label
 _atom_site_symmetry_multiplicity
 _atom_site_fract_x
 _atom_site_fract_y
 _atom_site_fract_z
 _atom_site_occupancy
  Ca  Ca0  1  0.749350  0.250000  0.000064  1
  Ca  Ca1  1  0.249345  0.750000  0.499981  1
  Ca  Ca2  1  0.750738  0.250000  0.500062  1
  Ca  Ca3  1  0.250577  0.750000  0.999970  1
  Tb  Tb4  1  0.250554  0.250000  0.000002  1
  Tb  Tb5  1  0.749461  0.750000  0.999991  1
  Tb  Tb6  1  0.750504  0.750000  0.500028  1
  Sc  Sc7  1  0.249946  0.250000  0.499774  1
  Cd  Cd8  1  0.003693  0.496301  0.252671  1
  Cd  Cd9  1  0.003693  0.003701  0.252671  1
  Cd  Cd10  1  0.496267  0.003737  0.254785  1
  Cd  Cd11  1  0.496267  0.496263  0.254785  1
  Cd  Cd12  1  0.496211  0.496313  0.745247  1
  Cd  Cd13  1  0.496211  0.003689  0.745247  1
  Cd  Cd14  1  0.003590  0.003731  0.747363  1
  Cd  Cd15  1  0.003590  0.496269  0.747363  1
