# generated using pymatgen
data_Mn2CrGaAg4F14
_symmetry_space_group_name_H-M   'P 1'
_cell_length_a   7.66641617
_cell_length_b   7.66641717
_cell_length_c   7.68083092
_cell_angle_alpha   120.95194616
_cell_angle_beta   118.90857064
_cell_angle_gamma   90.02243837
_symmetry_Int_Tables_number   1
_chemical_formula_structural   Mn2CrGaAg4F14
_chemical_formula_sum   'Mn2 Cr1 Ga1 Ag4 F14'
_cell_volume   319.71912763
_cell_formula_units_Z   1
loop_
 _symmetry_equiv_pos_site_id
 _symmetry_equiv_pos_as_xyz
  1  'x, y, z'
loop_
 _atom_site_type_symbol
 _atom_site_label
 _atom_site_symmetry_multiplicity
 _atom_site_fract_x
 _atom_site_fract_y
 _atom_site_fract_z
 _atom_site_occupancy
  Mn  Mn0  1  0.500000  0.000000  0.500000  1
  Mn  Mn1  1  0.000000  0.500000  0.500000  1
  Cr  Cr2  1  0.000000  0.500000  0.000000  1
  Ga  Ga3  1  0.000000  0.000000  0.500000  1
  Ag  Ag4  1  0.000000  0.000000  0.000000  1
  Ag  Ag5  1  0.500000  0.500000  0.000000  1
  Ag  Ag6  1  0.500000  0.000000  0.000000  1
  Ag  Ag7  1  0.500000  0.500000  0.500000  1
  F  F8  1  0.363692  0.099125  0.264343  1
  F  F9  1  0.665216  0.400649  0.264343  1
  F  F10  1  0.703210  0.327552  0.783006  1
  F  F11  1  0.956183  0.169276  0.378015  1
  F  F12  1  0.955454  0.579797  0.783006  1
  F  F13  1  0.708738  0.921831  0.378015  1
  F  F14  1  0.291262  0.078169  0.621985  1
  F  F15  1  0.044546  0.420203  0.216994  1
  F  F16  1  0.043817  0.830724  0.621985  1
  F  F17  1  0.296790  0.672448  0.216994  1
  F  F18  1  0.926403  0.750127  0.176530  1
  F  F19  1  0.636308  0.900875  0.735657  1
  F  F20  1  0.334784  0.599351  0.735657  1
  F  F21  1  0.073597  0.249873  0.823470  1
