# generated using pymatgen
data_K2CrSi4HO11
_symmetry_space_group_name_H-M   'P 1'
_cell_length_a   8.33681000
_cell_length_b   11.37015181
_cell_length_c   11.58904269
_cell_angle_alpha   68.56687866
_cell_angle_beta   90.00000000
_cell_angle_gamma   90.00000000
_symmetry_Int_Tables_number   1
_chemical_formula_structural   K2CrSi4HO11
_chemical_formula_sum   'K8 Cr4 Si16 H4 O44'
_cell_volume   1022.56512271
_cell_formula_units_Z   4
loop_
 _symmetry_equiv_pos_site_id
 _symmetry_equiv_pos_as_xyz
  1  'x, y, z'
loop_
 _atom_site_type_symbol
 _atom_site_label
 _atom_site_symmetry_multiplicity
 _atom_site_fract_x
 _atom_site_fract_y
 _atom_site_fract_z
 _atom_site_occupancy
  K  K0  1  0.750000  0.917720  0.585761  1
  K  K1  1  0.250000  0.976113  0.029379  1
  K  K2  1  0.750000  0.429395  0.937312  1
  K  K3  1  0.750000  0.527980  0.542249  1
  K  K4  1  0.250000  0.472020  0.457751  1
  K  K5  1  0.250000  0.570605  0.062688  1
  K  K6  1  0.750000  0.023887  0.970621  1
  K  K7  1  0.250000  0.082280  0.414239  1
  Cr  Cr8  1  0.996198  0.711987  0.211331  1
  Cr  Cr9  1  0.503802  0.711987  0.211331  1
  Cr  Cr10  1  0.496198  0.288013  0.788669  1
  Cr  Cr11  1  0.003802  0.288013  0.788669  1
  Si  Si12  1  0.937705  0.748538  0.901809  1
  Si  Si13  1  0.562295  0.748538  0.901809  1
  Si  Si14  1  0.933678  0.985698  0.250703  1
  Si  Si15  1  0.566322  0.985698  0.250703  1
  Si  Si16  1  0.441457  0.774228  0.465315  1
  Si  Si17  1  0.058543  0.774228  0.465315  1
  Si  Si18  1  0.442635  0.603191  0.735257  1
  Si  Si19  1  0.057365  0.603191  0.735257  1
  Si  Si20  1  0.942635  0.396809  0.264743  1
  Si  Si21  1  0.557365  0.396809  0.264743  1
  Si  Si22  1  0.941457  0.225772  0.534685  1
  Si  Si23  1  0.558543  0.225772  0.534685  1
  Si  Si24  1  0.433678  0.014302  0.749297  1
  Si  Si25  1  0.066322  0.014302  0.749297  1
  Si  Si26  1  0.437705  0.251462  0.098191  1
  Si  Si27  1  0.062295  0.251462  0.098191  1
  H  H28  1  0.250000  0.740697  0.291560  1
  H  H29  1  0.250000  0.410989  0.752583  1
  H  H30  1  0.750000  0.589011  0.247417  1
  H  H31  1  0.750000  0.259303  0.708440  1
  O  O32  1  0.250000  0.957766  0.764824  1
  O  O33  1  0.946299  0.890223  0.790316  1
  O  O34  1  0.553701  0.890223  0.790316  1
  O  O35  1  0.966101  0.912420  0.402068  1
  O  O36  1  0.533899  0.912420  0.402068  1
  O  O37  1  0.750000  0.703208  0.904575  1
  O  O38  1  0.250000  0.812442  0.464937  1
  O  O39  1  0.968491  0.898086  0.172924  1
  O  O40  1  0.531509  0.898086  0.172924  1
  O  O41  1  0.463626  0.647723  0.854543  1
  O  O42  1  0.036374  0.647723  0.854543  1
  O  O43  1  0.993036  0.721268  0.610060  1
  O  O44  1  0.506964  0.721268  0.610060  1
  O  O45  1  0.250000  0.586858  0.715984  1
  O  O46  1  0.477564  0.677433  0.397264  1
  O  O47  1  0.022436  0.677433  0.397264  1
  O  O48  1  0.250000  0.737592  0.208574  1
  O  O49  1  0.965792  0.475262  0.750850  1
  O  O50  1  0.534208  0.475262  0.750850  1
  O  O51  1  0.750000  0.679902  0.230911  1
  O  O52  1  0.008253  0.748154  0.028983  1
  O  O53  1  0.491747  0.748154  0.028983  1
  O  O54  1  0.991747  0.251846  0.971017  1
  O  O55  1  0.508253  0.251846  0.971017  1
  O  O56  1  0.250000  0.320098  0.769089  1
  O  O57  1  0.465792  0.524738  0.249150  1
  O  O58  1  0.034208  0.524738  0.249150  1
  O  O59  1  0.750000  0.262408  0.791426  1
  O  O60  1  0.977564  0.322567  0.602736  1
  O  O61  1  0.522436  0.322567  0.602736  1
  O  O62  1  0.750000  0.413142  0.284016  1
  O  O63  1  0.006964  0.278732  0.389940  1
  O  O64  1  0.493036  0.278732  0.389940  1
  O  O65  1  0.963626  0.352277  0.145457  1
  O  O66  1  0.536374  0.352277  0.145457  1
  O  O67  1  0.468491  0.101914  0.827076  1
  O  O68  1  0.031509  0.101914  0.827076  1
  O  O69  1  0.750000  0.187558  0.535063  1
  O  O70  1  0.250000  0.296792  0.095425  1
  O  O71  1  0.466101  0.087580  0.597932  1
  O  O72  1  0.033899  0.087580  0.597932  1
  O  O73  1  0.446299  0.109777  0.209684  1
  O  O74  1  0.053701  0.109777  0.209684  1
  O  O75  1  0.750000  0.042234  0.235176  1
