# generated using pymatgen
data_LaHo5CoCl10
_symmetry_space_group_name_H-M   'P 1'
_cell_length_a   7.10288044
_cell_length_b   8.87204040
_cell_length_c   8.86839600
_cell_angle_alpha   107.91362562
_cell_angle_beta   95.91694023
_cell_angle_gamma   106.46066696
_symmetry_Int_Tables_number   1
_chemical_formula_structural   LaHo5CoCl10
_chemical_formula_sum   'La1 Ho5 Co1 Cl10'
_cell_volume   498.76673194
_cell_formula_units_Z   1
loop_
 _symmetry_equiv_pos_site_id
 _symmetry_equiv_pos_as_xyz
  1  'x, y, z'
loop_
 _atom_site_type_symbol
 _atom_site_label
 _atom_site_symmetry_multiplicity
 _atom_site_fract_x
 _atom_site_fract_y
 _atom_site_fract_z
 _atom_site_occupancy
  La  La0  1  0.364893  0.944025  0.243728  1
  Ho  Ho1  1  0.861986  0.140548  0.184702  1
  Ho  Ho2  1  0.137998  0.860539  0.815972  1
  Ho  Ho3  1  0.529769  0.696355  0.896871  1
  Ho  Ho4  1  0.471408  0.301867  0.095481  1
  Ho  Ho5  1  0.630664  0.052981  0.768075  1
  Co  Co6  1  0.496774  0.997406  0.005135  1
  Cl  Cl7  1  0.758008  0.086665  0.458396  1
  Cl  Cl8  1  0.262852  0.922848  0.559886  1
  Cl  Cl9  1  0.940015  0.823022  0.069833  1
  Cl  Cl10  1  0.044441  0.171310  0.919724  1
  Cl  Cl11  1  0.277114  0.261317  0.337079  1
  Cl  Cl12  1  0.719549  0.756477  0.659060  1
  Cl  Cl13  1  0.590558  0.368986  0.833252  1
  Cl  Cl14  1  0.415502  0.615173  0.154089  1
  Cl  Cl15  1  0.843174  0.448813  0.273220  1
  Cl  Cl16  1  0.155296  0.551672  0.725498  1
