# generated using pymatgen
data_Hf2TaNb3Si7Ni16
_symmetry_space_group_name_H-M   'P 1'
_cell_length_a   7.99736230
_cell_length_b   7.99813711
_cell_length_c   8.00048813
_cell_angle_alpha   59.92763937
_cell_angle_beta   59.98950295
_cell_angle_gamma   60.02857671
_symmetry_Int_Tables_number   1
_chemical_formula_structural   Hf2TaNb3Si7Ni16
_chemical_formula_sum   'Hf2 Ta1 Nb3 Si7 Ni16'
_cell_volume   361.70807213
_cell_formula_units_Z   1
loop_
 _symmetry_equiv_pos_site_id
 _symmetry_equiv_pos_as_xyz
  1  'x, y, z'
loop_
 _atom_site_type_symbol
 _atom_site_label
 _atom_site_symmetry_multiplicity
 _atom_site_fract_x
 _atom_site_fract_y
 _atom_site_fract_z
 _atom_site_occupancy
  Hf  Hf0  1  0.795991  0.794329  0.205658  1
  Hf  Hf1  1  0.795381  0.206168  0.793845  1
  Ta  Ta2  1  0.204518  0.798278  0.201725  1
  Nb  Nb3  1  0.798004  0.204184  0.204100  1
  Nb  Nb4  1  0.206326  0.795895  0.795716  1
  Nb  Nb5  1  0.203664  0.200560  0.799379  1
  Si  Si6  1  0.503039  0.499711  0.500291  1
  Si  Si7  1  0.497006  0.003211  0.501976  1
  Si  Si8  1  0.002177  0.497962  0.996755  1
  Si  Si9  1  0.001645  0.996903  0.498897  1
  Si  Si10  1  0.495774  0.000369  0.999658  1
  Si  Si11  1  0.005661  0.499326  0.500727  1
  Si  Si12  1  0.497570  0.501040  0.003115  1
  Ni  Ni13  1  0.166465  0.168889  0.495392  1
  Ni  Ni14  1  0.496320  0.167323  0.167432  1
  Ni  Ni15  1  0.168576  0.167497  0.169384  1
  Ni  Ni16  1  0.505279  0.830605  0.832650  1
  Ni  Ni17  1  0.831092  0.832598  0.832684  1
  Ni  Ni18  1  0.832530  0.831072  0.502989  1
  Ni  Ni19  1  0.166573  0.497158  0.168878  1
  Ni  Ni20  1  0.616144  0.148825  0.615934  1
  Ni  Ni21  1  0.380938  0.384021  0.851177  1
  Ni  Ni22  1  0.852905  0.381293  0.380813  1
  Ni  Ni23  1  0.383514  0.384740  0.383094  1
  Ni  Ni24  1  0.151307  0.616889  0.615268  1
  Ni  Ni25  1  0.615035  0.619185  0.618689  1
  Ni  Ni26  1  0.615094  0.616449  0.149189  1
  Ni  Ni27  1  0.380774  0.850828  0.383500  1
  Ni  Ni28  1  0.830700  0.504690  0.831085  1
