# generated using pymatgen
data_HoIrO4
_symmetry_space_group_name_H-M   'P 1'
_cell_length_a   5.33003700
_cell_length_b   7.38646180
_cell_length_c   7.62001983
_cell_angle_alpha   81.08227563
_cell_angle_beta   90.00000000
_cell_angle_gamma   90.00000000
_symmetry_Int_Tables_number   1
_chemical_formula_structural   HoIrO4
_chemical_formula_sum   'Ho4 Ir4 O16'
_cell_volume   296.37462989
_cell_formula_units_Z   4
loop_
 _symmetry_equiv_pos_site_id
 _symmetry_equiv_pos_as_xyz
  1  'x, y, z'
loop_
 _atom_site_type_symbol
 _atom_site_label
 _atom_site_symmetry_multiplicity
 _atom_site_fract_x
 _atom_site_fract_y
 _atom_site_fract_z
 _atom_site_occupancy
  Ho  Ho0  1  0.718642  0.887774  0.349958  1
  Ho  Ho1  1  0.281358  0.112226  0.650042  1
  Ho  Ho2  1  0.781358  0.387774  0.349958  1
  Ho  Ho3  1  0.218642  0.612226  0.650042  1
  Ir  Ir4  1  0.770906  0.300861  0.839362  1
  Ir  Ir5  1  0.229094  0.699139  0.160638  1
  Ir  Ir6  1  0.270906  0.199139  0.160638  1
  Ir  Ir7  1  0.729094  0.800861  0.839362  1
  O  O8  1  0.905833  0.806917  0.062543  1
  O  O9  1  0.094167  0.193083  0.937457  1
  O  O10  1  0.378297  0.943775  0.168665  1
  O  O11  1  0.621703  0.056225  0.831335  1
  O  O12  1  0.121703  0.443775  0.168665  1
  O  O13  1  0.878297  0.556225  0.831335  1
  O  O14  1  0.594167  0.306917  0.062543  1
  O  O15  1  0.405833  0.693083  0.937457  1
  O  O16  1  0.974956  0.324939  0.610237  1
  O  O17  1  0.025044  0.675061  0.389763  1
  O  O18  1  0.474956  0.175061  0.389763  1
  O  O19  1  0.525044  0.824939  0.610237  1
  O  O20  1  0.517863  0.618073  0.309664  1
  O  O21  1  0.482137  0.381927  0.690336  1
  O  O22  1  0.982137  0.118073  0.309664  1
  O  O23  1  0.017863  0.881927  0.690336  1
