# generated using pymatgen
data_ThAg3(NO3)8
_symmetry_space_group_name_H-M   'P 1'
_cell_length_a   7.89971538
_cell_length_b   7.89971557
_cell_length_c   7.89971573
_cell_angle_alpha   86.47371467
_cell_angle_beta   86.47371329
_cell_angle_gamma   86.47370894
_symmetry_Int_Tables_number   1
_chemical_formula_structural   ThAg3(NO3)8
_chemical_formula_sum   'Th1 Ag3 N8 O24'
_cell_volume   490.29563212
_cell_formula_units_Z   1
loop_
 _symmetry_equiv_pos_site_id
 _symmetry_equiv_pos_as_xyz
  1  'x, y, z'
loop_
 _atom_site_type_symbol
 _atom_site_label
 _atom_site_symmetry_multiplicity
 _atom_site_fract_x
 _atom_site_fract_y
 _atom_site_fract_z
 _atom_site_occupancy
  Th  Th0  1  0.000000  0.000000  0.000000  1
  Ag  Ag1  1  0.000000  0.500000  0.500000  1
  Ag  Ag2  1  0.500000  0.500000  0.000000  1
  Ag  Ag3  1  0.500000  0.000000  0.500000  1
  N  N4  1  0.336115  0.336115  0.336115  1
  N  N5  1  0.317371  0.165007  0.844911  1
  N  N6  1  0.165007  0.844911  0.317371  1
  N  N7  1  0.844911  0.317371  0.165007  1
  N  N8  1  0.663885  0.663885  0.663885  1
  N  N9  1  0.155089  0.682629  0.834993  1
  N  N10  1  0.834993  0.155089  0.682629  1
  N  N11  1  0.682629  0.834993  0.155089  1
  O  O12  1  0.777781  0.265329  0.035161  1
  O  O13  1  0.219669  0.972112  0.224498  1
  O  O14  1  0.232928  0.791585  0.448325  1
  O  O15  1  0.224498  0.219669  0.972112  1
  O  O16  1  0.232448  0.312797  0.462937  1
  O  O17  1  0.462937  0.232448  0.312797  1
  O  O18  1  0.312797  0.462937  0.232448  1
  O  O19  1  0.208415  0.551675  0.767072  1
  O  O20  1  0.964839  0.222219  0.734671  1
  O  O21  1  0.734671  0.964839  0.222219  1
  O  O22  1  0.027888  0.775502  0.780331  1
  O  O23  1  0.551675  0.767072  0.208415  1
  O  O24  1  0.780331  0.027888  0.775502  1
  O  O25  1  0.767072  0.208415  0.551675  1
  O  O26  1  0.775502  0.780331  0.027888  1
  O  O27  1  0.222219  0.734671  0.964839  1
  O  O28  1  0.767552  0.687203  0.537063  1
  O  O29  1  0.537063  0.767552  0.687203  1
  O  O30  1  0.687203  0.537063  0.767552  1
  O  O31  1  0.791585  0.448325  0.232928  1
  O  O32  1  0.035161  0.777781  0.265329  1
  O  O33  1  0.265329  0.035161  0.777781  1
  O  O34  1  0.972112  0.224498  0.219669  1
  O  O35  1  0.448325  0.232928  0.791585  1
