# generated using pymatgen
data_LiNd8Zn2Si12Pd
_symmetry_space_group_name_H-M   'P 1'
_cell_length_a   8.21849000
_cell_length_b   8.21849026
_cell_length_c   8.51923400
_cell_angle_alpha   90.00000000
_cell_angle_beta   90.00000000
_cell_angle_gamma   119.99999090
_symmetry_Int_Tables_number   1
_chemical_formula_structural   LiNd8Zn2Si12Pd
_chemical_formula_sum   'Li1 Nd8 Zn2 Si12 Pd1'
_cell_volume   498.32800550
_cell_formula_units_Z   1
loop_
 _symmetry_equiv_pos_site_id
 _symmetry_equiv_pos_as_xyz
  1  'x, y, z'
loop_
 _atom_site_type_symbol
 _atom_site_label
 _atom_site_symmetry_multiplicity
 _atom_site_fract_x
 _atom_site_fract_y
 _atom_site_fract_z
 _atom_site_occupancy
  Li  Li0  1  0.666667  0.333333  0.996177  1
  Nd  Nd1  1  0.498566  0.501434  0.751238  1
  Nd  Nd2  1  0.499551  0.500449  0.248869  1
  Nd  Nd3  1  0.002867  0.501434  0.751238  1
  Nd  Nd4  1  0.000898  0.500449  0.248869  1
  Nd  Nd5  1  0.498566  0.997133  0.751238  1
  Nd  Nd6  1  0.499551  0.999102  0.248869  1
  Nd  Nd7  1  0.000000  0.000000  0.751230  1
  Nd  Nd8  1  0.000000  0.000000  0.248933  1
  Zn  Zn9  1  0.333333  0.666667  0.002927  1
  Zn  Zn10  1  0.333333  0.666667  0.498158  1
  Si  Si11  1  0.831386  0.168614  0.000693  1
  Si  Si12  1  0.164545  0.835455  0.999444  1
  Si  Si13  1  0.337228  0.168614  0.000693  1
  Si  Si14  1  0.163826  0.836174  0.499859  1
  Si  Si15  1  0.670910  0.835455  0.999444  1
  Si  Si16  1  0.832132  0.167868  0.500339  1
  Si  Si17  1  0.831386  0.662772  0.000693  1
  Si  Si18  1  0.672347  0.836174  0.499859  1
  Si  Si19  1  0.164545  0.329090  0.999444  1
  Si  Si20  1  0.335736  0.167868  0.500339  1
  Si  Si21  1  0.163826  0.327653  0.499859  1
  Si  Si22  1  0.832132  0.664264  0.500339  1
  Pd  Pd23  1  0.666667  0.333333  0.501251  1
