# generated using pymatgen
data_Lu8Co(CuSi4)3
_symmetry_space_group_name_H-M   'P 1'
_cell_length_a   7.98244500
_cell_length_b   7.98244548
_cell_length_c   7.87357900
_cell_angle_alpha   90.00000000
_cell_angle_beta   90.00000000
_cell_angle_gamma   119.99999386
_symmetry_Int_Tables_number   1
_chemical_formula_structural   Lu8Co(CuSi4)3
_chemical_formula_sum   'Lu8 Co1 Cu3 Si12'
_cell_volume   434.48495631
_cell_formula_units_Z   1
loop_
 _symmetry_equiv_pos_site_id
 _symmetry_equiv_pos_as_xyz
  1  'x, y, z'
loop_
 _atom_site_type_symbol
 _atom_site_label
 _atom_site_symmetry_multiplicity
 _atom_site_fract_x
 _atom_site_fract_y
 _atom_site_fract_z
 _atom_site_occupancy
  Lu  Lu0  1  0.000000  0.000000  0.250008  1
  Lu  Lu1  1  0.000000  0.000000  0.750053  1
  Lu  Lu2  1  0.995319  0.497659  0.253777  1
  Lu  Lu3  1  0.502341  0.497659  0.253777  1
  Lu  Lu4  1  0.502677  0.005354  0.746276  1
  Lu  Lu5  1  0.502341  0.004681  0.253777  1
  Lu  Lu6  1  0.502677  0.497323  0.746276  1
  Lu  Lu7  1  0.994646  0.497323  0.746276  1
  Co  Co8  1  0.666667  0.333333  0.499645  1
  Cu  Cu9  1  0.333333  0.666667  0.999264  1
  Cu  Cu10  1  0.333333  0.666667  0.498851  1
  Cu  Cu11  1  0.666667  0.333333  0.001865  1
  Si  Si12  1  0.168945  0.337890  0.000031  1
  Si  Si13  1  0.662110  0.831055  0.000031  1
  Si  Si14  1  0.167063  0.334124  0.500193  1
  Si  Si15  1  0.337412  0.168706  0.999953  1
  Si  Si16  1  0.168945  0.831055  0.000031  1
  Si  Si17  1  0.665876  0.832937  0.500193  1
  Si  Si18  1  0.831294  0.662588  0.999953  1
  Si  Si19  1  0.346919  0.173460  0.499872  1
  Si  Si20  1  0.167063  0.832937  0.500193  1
  Si  Si21  1  0.826540  0.653081  0.499872  1
  Si  Si22  1  0.831294  0.168706  0.999953  1
  Si  Si23  1  0.826540  0.173460  0.499872  1
