# generated using pymatgen
data_NdLu2Ga9Ru2
_symmetry_space_group_name_H-M   'P 1'
_cell_length_a   8.10154493
_cell_length_b   8.10154445
_cell_length_c   8.10154623
_cell_angle_alpha   149.30795641
_cell_angle_beta   108.62329652
_cell_angle_gamma   79.67288476
_symmetry_Int_Tables_number   1
_chemical_formula_structural   NdLu2Ga9Ru2
_chemical_formula_sum   'Nd1 Lu2 Ga9 Ru2'
_cell_volume   252.15733201
_cell_formula_units_Z   1
loop_
 _symmetry_equiv_pos_site_id
 _symmetry_equiv_pos_as_xyz
  1  'x, y, z'
loop_
 _atom_site_type_symbol
 _atom_site_label
 _atom_site_symmetry_multiplicity
 _atom_site_fract_x
 _atom_site_fract_y
 _atom_site_fract_z
 _atom_site_occupancy
  Nd  Nd0  1  0.500000  0.500000  0.000000  1
  Lu  Lu1  1  0.194551  0.194551  0.000000  1
  Lu  Lu2  1  0.805449  0.805449  0.000000  1
  Ga  Ga3  1  0.654157  0.368213  0.285944  1
  Ga  Ga4  1  0.345843  0.631787  0.714056  1
  Ga  Ga5  1  0.082269  0.368213  0.714056  1
  Ga  Ga6  1  0.917731  0.631787  0.285944  1
  Ga  Ga7  1  0.521743  0.158527  0.363215  1
  Ga  Ga8  1  0.478257  0.841473  0.636785  1
  Ga  Ga9  1  0.795313  0.158527  0.636785  1
  Ga  Ga10  1  0.204687  0.841473  0.363215  1
  Ga  Ga11  1  0.000000  0.500000  0.500000  1
  Ru  Ru12  1  0.173919  0.000000  0.173919  1
  Ru  Ru13  1  0.826081  0.000000  0.826081  1
