# generated using pymatgen
data_Tb11Tm5Mg2(Co2Hg)2
_symmetry_space_group_name_H-M   'P 1'
_cell_length_a   9.50515321
_cell_length_b   9.50515311
_cell_length_c   9.47914700
_cell_angle_alpha   60.09046848
_cell_angle_beta   60.09046881
_cell_angle_gamma   60.38888015
_symmetry_Int_Tables_number   1
_chemical_formula_structural   Tb11Tm5Mg2(Co2Hg)2
_chemical_formula_sum   'Tb11 Tm5 Mg2 Co4 Hg2'
_cell_volume   608.17513453
_cell_formula_units_Z   1
loop_
 _symmetry_equiv_pos_site_id
 _symmetry_equiv_pos_as_xyz
  1  'x, y, z'
loop_
 _atom_site_type_symbol
 _atom_site_label
 _atom_site_symmetry_multiplicity
 _atom_site_fract_x
 _atom_site_fract_y
 _atom_site_fract_z
 _atom_site_occupancy
  Tb  Tb0  1  0.810286  0.810286  0.189714  1
  Tb  Tb1  1  0.937813  0.559998  0.562561  1
  Tb  Tb2  1  0.559998  0.937813  0.939628  1
  Tb  Tb3  1  0.559999  0.937813  0.562561  1
  Tb  Tb4  1  0.937813  0.559998  0.939628  1
  Tb  Tb5  1  0.561319  0.561318  0.938682  1
  Tb  Tb6  1  0.938718  0.938718  0.561282  1
  Tb  Tb7  1  0.345916  0.345916  0.343107  1
  Tb  Tb8  1  0.345916  0.345916  0.965060  1
  Tb  Tb9  1  0.347404  0.959387  0.346604  1
  Tb  Tb10  1  0.959387  0.347404  0.346604  1
  Tm  Tm11  1  0.813575  0.184460  0.186785  1
  Tm  Tm12  1  0.184460  0.813575  0.815180  1
  Tm  Tm13  1  0.184460  0.813575  0.186785  1
  Tm  Tm14  1  0.813575  0.184460  0.815180  1
  Tm  Tm15  1  0.184441  0.184441  0.815559  1
  Mg  Mg16  1  0.581594  0.273002  0.572702  1
  Mg  Mg17  1  0.273002  0.581594  0.572702  1
  Co  Co18  1  0.140080  0.140080  0.140377  1
  Co  Co19  1  0.140080  0.140080  0.579465  1
  Co  Co20  1  0.139596  0.578631  0.140887  1
  Co  Co21  1  0.578631  0.139596  0.140887  1
  Hg  Hg22  1  0.580969  0.580969  0.588546  1
  Hg  Hg23  1  0.580969  0.580969  0.249516  1
