# generated using pymatgen
data_HfZr7Co11Si16Pt
_symmetry_space_group_name_H-M   'P 1'
_cell_length_a   5.25978913
_cell_length_b   6.80034257
_cell_length_c   13.85512164
_cell_angle_alpha   90.07314607
_cell_angle_beta   89.99408051
_cell_angle_gamma   89.85810468
_symmetry_Int_Tables_number   1
_chemical_formula_structural   HfZr7Co11Si16Pt
_chemical_formula_sum   'Hf1 Zr7 Co11 Si16 Pt1'
_cell_volume   495.57316261
_cell_formula_units_Z   1
loop_
 _symmetry_equiv_pos_site_id
 _symmetry_equiv_pos_as_xyz
  1  'x, y, z'
loop_
 _atom_site_type_symbol
 _atom_site_label
 _atom_site_symmetry_multiplicity
 _atom_site_fract_x
 _atom_site_fract_y
 _atom_site_fract_z
 _atom_site_occupancy
  Hf  Hf0  1  0.771709  0.602424  0.850223  1
  Zr  Zr1  1  0.235063  0.398718  0.151259  1
  Zr  Zr2  1  0.730371  0.100810  0.149506  1
  Zr  Zr3  1  0.269412  0.099757  0.644257  1
  Zr  Zr4  1  0.765898  0.400942  0.644293  1
  Zr  Zr5  1  0.231510  0.600690  0.354839  1
  Zr  Zr6  1  0.732693  0.898830  0.354611  1
  Zr  Zr7  1  0.265056  0.900549  0.852069  1
  Co  Co8  1  0.505776  0.226012  0.480340  1
  Co  Co9  1  0.773142  0.998238  0.749548  1
  Co  Co10  1  0.491747  0.221322  0.980491  1
  Co  Co11  1  0.724927  0.500395  0.251191  1
  Co  Co12  1  0.494831  0.773705  0.519401  1
  Co  Co13  1  0.005488  0.274023  0.480353  1
  Co  Co14  1  0.004725  0.727388  0.019219  1
  Co  Co15  1  0.224843  0.999087  0.251614  1
  Co  Co16  1  0.277546  0.503306  0.750330  1
  Co  Co17  1  0.505954  0.772949  0.019986  1
  Co  Co18  1  0.994871  0.726013  0.519445  1
  Si  Si19  1  0.228117  0.010339  0.074414  1
  Si  Si20  1  0.719211  0.518891  0.432642  1
  Si  Si21  1  0.782007  0.018719  0.566776  1
  Si  Si22  1  0.481108  0.754380  0.189573  1
  Si  Si23  1  0.018802  0.254990  0.802695  1
  Si  Si24  1  0.518648  0.246781  0.811225  1
  Si  Si25  1  0.218874  0.981359  0.432863  1
  Si  Si26  1  0.295556  0.528425  0.931156  1
  Si  Si27  1  0.980483  0.745532  0.188392  1
  Si  Si28  1  0.710255  0.489428  0.072788  1
  Si  Si29  1  0.280688  0.481344  0.566929  1
  Si  Si30  1  0.481067  0.245801  0.314002  1
  Si  Si31  1  0.019808  0.746440  0.686230  1
  Si  Si32  1  0.768637  0.969597  0.928875  1
  Si  Si33  1  0.519616  0.754335  0.686702  1
  Si  Si34  1  0.980228  0.253817  0.313711  1
  Pt  Pt35  1  0.991332  0.274665  0.978053  1
