# generated using pymatgen
data_Li3Pr4ZnAs8
_symmetry_space_group_name_H-M   'P 1'
_cell_length_a   4.02592300
_cell_length_b   4.02419101
_cell_length_c   21.20056018
_cell_angle_alpha   89.98817677
_cell_angle_beta   90.00000000
_cell_angle_gamma   90.00000000
_symmetry_Int_Tables_number   1
_chemical_formula_structural   Li3Pr4ZnAs8
_chemical_formula_sum   'Li3 Pr4 Zn1 As8'
_cell_volume   343.47203100
_cell_formula_units_Z   1
loop_
 _symmetry_equiv_pos_site_id
 _symmetry_equiv_pos_as_xyz
  1  'x, y, z'
loop_
 _atom_site_type_symbol
 _atom_site_label
 _atom_site_symmetry_multiplicity
 _atom_site_fract_x
 _atom_site_fract_y
 _atom_site_fract_z
 _atom_site_occupancy
  Li  Li0  1  0.250000  0.225223  0.249956  1
  Li  Li1  1  0.750000  0.725169  0.250029  1
  Li  Li2  1  0.750000  0.775069  0.750086  1
  Pr  Pr3  1  0.250000  0.771614  0.613286  1
  Pr  Pr4  1  0.750000  0.229474  0.383819  1
  Pr  Pr5  1  0.750000  0.271498  0.886779  1
  Pr  Pr6  1  0.250000  0.730011  0.116076  1
  Zn  Zn7  1  0.250000  0.275358  0.749977  1
  As  As8  1  0.250000  0.774652  0.826731  1
  As  As9  1  0.750000  0.225385  0.171054  1
  As  As10  1  0.750000  0.274399  0.673266  1
  As  As11  1  0.250000  0.725557  0.329012  1
  As  As12  1  0.250000  0.272314  0.501176  1
  As  As13  1  0.250000  0.225699  0.999590  1
  As  As14  1  0.750000  0.773190  0.998837  1
  As  As15  1  0.750000  0.725388  0.500325  1
