# generated using pymatgen
data_PrSmRu2F14
_symmetry_space_group_name_H-M   'P 1'
_cell_length_a   5.68092600
_cell_length_b   9.15931940
_cell_length_c   12.26572649
_cell_angle_alpha   62.99709795
_cell_angle_beta   90.00000000
_cell_angle_gamma   90.00000000
_symmetry_Int_Tables_number   1
_chemical_formula_structural   PrSmRu2F14
_chemical_formula_sum   'Pr2 Sm2 Ru4 F28'
_cell_volume   568.65031917
_cell_formula_units_Z   2
loop_
 _symmetry_equiv_pos_site_id
 _symmetry_equiv_pos_as_xyz
  1  'x, y, z'
loop_
 _atom_site_type_symbol
 _atom_site_label
 _atom_site_symmetry_multiplicity
 _atom_site_fract_x
 _atom_site_fract_y
 _atom_site_fract_z
 _atom_site_occupancy
  Pr  Pr0  1  0.241287  0.192941  0.231796  1
  Pr  Pr1  1  0.741287  0.807059  0.268204  1
  Sm  Sm2  1  0.758420  0.809967  0.767993  1
  Sm  Sm3  1  0.258420  0.190033  0.732007  1
  Ru  Ru4  1  0.755114  0.275119  0.952662  1
  Ru  Ru5  1  0.255114  0.724881  0.547338  1
  Ru  Ru6  1  0.246876  0.728578  0.039984  1
  Ru  Ru7  1  0.746876  0.271422  0.460016  1
  F  F8  1  0.445627  0.707047  0.916690  1
  F  F9  1  0.945627  0.292953  0.583310  1
  F  F10  1  0.556820  0.294496  0.076875  1
  F  F11  1  0.056820  0.705504  0.423125  1
  F  F12  1  0.458270  0.282737  0.546728  1
  F  F13  1  0.958270  0.717263  0.953272  1
  F  F14  1  0.540173  0.713264  0.459584  1
  F  F15  1  0.040173  0.286736  0.040416  1
  F  F16  1  0.762050  0.509053  0.858440  1
  F  F17  1  0.262050  0.490947  0.641560  1
  F  F18  1  0.237540  0.494775  0.135231  1
  F  F19  1  0.737540  0.505225  0.364769  1
  F  F20  1  0.758080  0.042406  0.045488  1
  F  F21  1  0.258080  0.957594  0.454512  1
  F  F22  1  0.243744  0.961717  0.949296  1
  F  F23  1  0.743744  0.038283  0.550704  1
  F  F24  1  0.974124  0.732623  0.639205  1
  F  F25  1  0.474124  0.267377  0.860795  1
  F  F26  1  0.029778  0.268460  0.368694  1
  F  F27  1  0.529778  0.731540  0.131306  1
  F  F28  1  0.052856  0.746804  0.166880  1
  F  F29  1  0.552856  0.253196  0.333120  1
  F  F30  1  0.953372  0.253179  0.828457  1
  F  F31  1  0.453372  0.746821  0.671543  1
  F  F32  1  0.408603  0.967336  0.230314  1
  F  F33  1  0.908603  0.032664  0.269686  1
  F  F34  1  0.577267  0.026578  0.767396  1
  F  F35  1  0.077267  0.973422  0.732604  1
