# generated using pymatgen
data_NdSm7(Si3Au)4
_symmetry_space_group_name_H-M   'P 1'
_cell_length_a   8.25879000
_cell_length_b   8.25879091
_cell_length_c   8.50062800
_cell_angle_alpha   90.00000000
_cell_angle_beta   90.00000000
_cell_angle_gamma   119.99999634
_symmetry_Int_Tables_number   1
_chemical_formula_structural   NdSm7(Si3Au)4
_chemical_formula_sum   'Nd1 Sm7 Si12 Au4'
_cell_volume   502.12813186
_cell_formula_units_Z   1
loop_
 _symmetry_equiv_pos_site_id
 _symmetry_equiv_pos_as_xyz
  1  'x, y, z'
loop_
 _atom_site_type_symbol
 _atom_site_label
 _atom_site_symmetry_multiplicity
 _atom_site_fract_x
 _atom_site_fract_y
 _atom_site_fract_z
 _atom_site_occupancy
  Nd  Nd0  1  0.000000  0.000000  0.250000  1
  Sm  Sm1  1  0.499882  0.500118  0.750000  1
  Sm  Sm2  1  0.500112  0.499888  0.250000  1
  Sm  Sm3  1  0.000237  0.500118  0.750000  1
  Sm  Sm4  1  0.999777  0.499888  0.250000  1
  Sm  Sm5  1  0.499882  0.999763  0.750000  1
  Sm  Sm6  1  0.500112  0.000223  0.250000  1
  Sm  Sm7  1  0.000000  0.000000  0.750000  1
  Si  Si8  1  0.835976  0.164024  0.998272  1
  Si  Si9  1  0.164025  0.835975  0.999186  1
  Si  Si10  1  0.328048  0.164024  0.998272  1
  Si  Si11  1  0.164025  0.835975  0.500814  1
  Si  Si12  1  0.671950  0.835975  0.999186  1
  Si  Si13  1  0.835976  0.164024  0.501728  1
  Si  Si14  1  0.835976  0.671952  0.998272  1
  Si  Si15  1  0.671950  0.835975  0.500814  1
  Si  Si16  1  0.164025  0.328050  0.999186  1
  Si  Si17  1  0.328048  0.164024  0.501728  1
  Si  Si18  1  0.164025  0.328050  0.500814  1
  Si  Si19  1  0.835976  0.671952  0.501728  1
  Au  Au20  1  0.666667  0.333333  0.999823  1
  Au  Au21  1  0.333333  0.666667  0.000733  1
  Au  Au22  1  0.333333  0.666667  0.499267  1
  Au  Au23  1  0.666667  0.333333  0.500177  1
