# generated using pymatgen
data_Dy4Ho8Co4CuSn
_symmetry_space_group_name_H-M   'P 1'
_cell_length_a   8.27589884
_cell_length_b   8.27589770
_cell_length_c   8.27589807
_cell_angle_alpha   106.87297421
_cell_angle_beta   110.28268746
_cell_angle_gamma   111.29051225
_symmetry_Int_Tables_number   1
_chemical_formula_structural   Dy4Ho8Co4CuSn
_chemical_formula_sum   'Dy4 Ho8 Co4 Cu1 Sn1'
_cell_volume   435.63396096
_cell_formula_units_Z   1
loop_
 _symmetry_equiv_pos_site_id
 _symmetry_equiv_pos_as_xyz
  1  'x, y, z'
loop_
 _atom_site_type_symbol
 _atom_site_label
 _atom_site_symmetry_multiplicity
 _atom_site_fract_x
 _atom_site_fract_y
 _atom_site_fract_z
 _atom_site_occupancy
  Dy  Dy0  1  0.199881  0.215022  0.414902  1
  Dy  Dy1  1  0.800119  0.784978  0.585098  1
  Dy  Dy2  1  0.199881  0.784978  0.984858  1
  Dy  Dy3  1  0.800119  0.215022  0.015142  1
  Ho  Ho4  1  0.476336  0.291032  0.185304  1
  Ho  Ho5  1  0.105728  0.291032  0.814696  1
  Ho  Ho6  1  0.894272  0.708968  0.185304  1
  Ho  Ho7  1  0.523664  0.708968  0.814696  1
  Ho  Ho8  1  0.305507  0.620330  0.314823  1
  Ho  Ho9  1  0.305507  0.990684  0.685177  1
  Ho  Ho10  1  0.694493  0.379670  0.685177  1
  Ho  Ho11  1  0.694493  0.009316  0.314823  1
  Co  Co12  1  0.500000  0.612626  0.112626  1
  Co  Co13  1  0.500000  0.387374  0.887374  1
  Co  Co14  1  0.376924  0.000000  0.376924  1
  Co  Co15  1  0.623076  0.000000  0.623076  1
  Cu  Cu16  1  0.000000  0.000000  0.000000  1
  Sn  Sn17  1  0.000000  0.500000  0.500000  1
