# generated using pymatgen
data_Ho3Tm5In3Rh
_symmetry_space_group_name_H-M   'P 1'
_cell_length_a   10.33111700
_cell_length_b   10.33111658
_cell_length_c   6.99858500
_cell_angle_alpha   90.00000000
_cell_angle_beta   90.00000000
_cell_angle_gamma   120.00000454
_symmetry_Int_Tables_number   1
_chemical_formula_structural   Ho3Tm5In3Rh
_chemical_formula_sum   'Ho6 Tm10 In6 Rh2'
_cell_volume   646.89738533
_cell_formula_units_Z   2
loop_
 _symmetry_equiv_pos_site_id
 _symmetry_equiv_pos_as_xyz
  1  'x, y, z'
loop_
 _atom_site_type_symbol
 _atom_site_label
 _atom_site_symmetry_multiplicity
 _atom_site_fract_x
 _atom_site_fract_y
 _atom_site_fract_z
 _atom_site_occupancy
  Ho  Ho0  1  0.532481  0.064964  0.515745  1
  Ho  Ho1  1  0.935036  0.467519  0.515745  1
  Ho  Ho2  1  0.532481  0.467519  0.515745  1
  Ho  Ho3  1  0.467519  0.935036  0.015745  1
  Ho  Ho4  1  0.064964  0.532481  0.015745  1
  Ho  Ho5  1  0.467519  0.532481  0.015745  1
  Tm  Tm6  1  0.176424  0.352848  0.719937  1
  Tm  Tm7  1  0.647152  0.823576  0.719937  1
  Tm  Tm8  1  0.176424  0.823576  0.719937  1
  Tm  Tm9  1  0.823576  0.647152  0.219937  1
  Tm  Tm10  1  0.352848  0.176424  0.219937  1
  Tm  Tm11  1  0.823576  0.176424  0.219937  1
  Tm  Tm12  1  0.666667  0.333333  0.896823  1
  Tm  Tm13  1  0.333333  0.666667  0.396823  1
  Tm  Tm14  1  0.000000  0.000000  0.500597  1
  Tm  Tm15  1  0.000000  0.000000  0.000597  1
  In  In16  1  0.837412  0.674825  0.762422  1
  In  In17  1  0.325175  0.162588  0.762422  1
  In  In18  1  0.837412  0.162588  0.762422  1
  In  In19  1  0.162588  0.325175  0.262422  1
  In  In20  1  0.674825  0.837412  0.262422  1
  In  In21  1  0.162588  0.837412  0.262422  1
  Rh  Rh22  1  0.666667  0.333333  0.287272  1
  Rh  Rh23  1  0.333333  0.666667  0.787272  1
