# generated using pymatgen
data_Yb4Si4Pd7Pt
_symmetry_space_group_name_H-M   'P 1'
_cell_length_a   5.57398524
_cell_length_b   6.93062269
_cell_length_c   7.33654919
_cell_angle_alpha   89.88259821
_cell_angle_beta   90.03536869
_cell_angle_gamma   90.47176727
_symmetry_Int_Tables_number   1
_chemical_formula_structural   Yb4Si4Pd7Pt
_chemical_formula_sum   'Yb4 Si4 Pd7 Pt1'
_cell_volume   283.40936145
_cell_formula_units_Z   1
loop_
 _symmetry_equiv_pos_site_id
 _symmetry_equiv_pos_as_xyz
  1  'x, y, z'
loop_
 _atom_site_type_symbol
 _atom_site_label
 _atom_site_symmetry_multiplicity
 _atom_site_fract_x
 _atom_site_fract_y
 _atom_site_fract_z
 _atom_site_occupancy
  Yb  Yb0  1  0.131496  0.750917  0.480590  1
  Yb  Yb1  1  0.368179  0.751480  0.978669  1
  Yb  Yb2  1  0.630159  0.249961  0.019951  1
  Yb  Yb3  1  0.868384  0.248251  0.520682  1
  Si  Si4  1  0.126002  0.247133  0.876047  1
  Si  Si5  1  0.369788  0.249390  0.377243  1
  Si  Si6  1  0.632993  0.753318  0.623296  1
  Si  Si7  1  0.869959  0.751188  0.122532  1
  Pd  Pd8  1  0.106207  0.052939  0.172959  1
  Pd  Pd9  1  0.104224  0.449490  0.171994  1
  Pd  Pd10  1  0.395737  0.052691  0.671660  1
  Pd  Pd11  1  0.395389  0.449319  0.672186  1
  Pd  Pd12  1  0.604329  0.552050  0.328300  1
  Pd  Pd13  1  0.602642  0.948021  0.327522  1
  Pd  Pd14  1  0.898693  0.548230  0.827247  1
  Pt  Pt15  1  0.895821  0.945623  0.829121  1
