# generated using pymatgen
data_Er6Zn16Ag7P
_symmetry_space_group_name_H-M   'P 1'
_cell_length_a   9.11681204
_cell_length_b   9.11670683
_cell_length_c   9.11665592
_cell_angle_alpha   60.21481979
_cell_angle_beta   60.21568457
_cell_angle_gamma   60.21316670
_symmetry_Int_Tables_number   1
_chemical_formula_structural   Er6Zn16Ag7P
_chemical_formula_sum   'Er6 Zn16 Ag7 P1'
_cell_volume   538.40144448
_cell_formula_units_Z   1
loop_
 _symmetry_equiv_pos_site_id
 _symmetry_equiv_pos_as_xyz
  1  'x, y, z'
loop_
 _atom_site_type_symbol
 _atom_site_label
 _atom_site_symmetry_multiplicity
 _atom_site_fract_x
 _atom_site_fract_y
 _atom_site_fract_z
 _atom_site_occupancy
  Er  Er0  1  0.709250  0.290950  0.290951  1
  Er  Er1  1  0.709725  0.290367  0.709743  1
  Er  Er2  1  0.709736  0.709749  0.290364  1
  Er  Er3  1  0.290363  0.709724  0.709733  1
  Er  Er4  1  0.290946  0.709246  0.290961  1
  Er  Er5  1  0.290954  0.290960  0.709248  1
  Zn  Zn6  1  0.877999  0.877989  0.877996  1
  Zn  Zn7  1  0.504352  0.998933  0.998927  1
  Zn  Zn8  1  0.499851  0.000859  0.499868  1
  Zn  Zn9  1  0.499825  0.499884  0.000877  1
  Zn  Zn10  1  0.000841  0.499892  0.499841  1
  Zn  Zn11  1  0.998931  0.504354  0.998932  1
  Zn  Zn12  1  0.998944  0.998965  0.504329  1
  Zn  Zn13  1  0.998229  0.998251  0.998245  1
  Zn  Zn14  1  0.012438  0.328900  0.328886  1
  Zn  Zn15  1  0.328905  0.012436  0.328896  1
  Zn  Zn16  1  0.328907  0.328911  0.012395  1
  Zn  Zn17  1  0.328786  0.328778  0.328751  1
  Zn  Zn18  1  0.986605  0.671165  0.671195  1
  Zn  Zn19  1  0.671177  0.986587  0.671202  1
  Zn  Zn20  1  0.671169  0.671175  0.986635  1
  Zn  Zn21  1  0.670975  0.670984  0.670964  1
  Ag  Ag22  1  0.638559  0.120078  0.120042  1
  Ag  Ag23  1  0.120078  0.638572  0.120036  1
  Ag  Ag24  1  0.120129  0.119988  0.638581  1
  Ag  Ag25  1  0.120646  0.120659  0.120689  1
  Ag  Ag26  1  0.361469  0.879985  0.880035  1
  Ag  Ag27  1  0.880048  0.361461  0.880070  1
  Ag  Ag28  1  0.879976  0.880039  0.361426  1
  P  P29  1  0.500187  0.500161  0.500182  1
