# generated using pymatgen
data_Er3TmMn3VB16
_symmetry_space_group_name_H-M   'P 1'
_cell_length_a   3.40080000
_cell_length_b   5.89987087
_cell_length_c   11.40209206
_cell_angle_alpha   90.02534450
_cell_angle_beta   90.00000000
_cell_angle_gamma   90.00000000
_symmetry_Int_Tables_number   1
_chemical_formula_structural   Er3TmMn3VB16
_chemical_formula_sum   'Er3 Tm1 Mn3 V1 B16'
_cell_volume   228.77475477
_cell_formula_units_Z   1
loop_
 _symmetry_equiv_pos_site_id
 _symmetry_equiv_pos_as_xyz
  1  'x, y, z'
loop_
 _atom_site_type_symbol
 _atom_site_label
 _atom_site_symmetry_multiplicity
 _atom_site_fract_x
 _atom_site_fract_y
 _atom_site_fract_z
 _atom_site_occupancy
  Er  Er0  1  0.500000  0.373240  0.148972  1
  Er  Er1  1  0.500000  0.626517  0.849983  1
  Er  Er2  1  0.500000  0.124068  0.651957  1
  Tm  Tm3  1  0.500000  0.874482  0.348694  1
  Mn  Mn4  1  0.500000  0.623876  0.582699  1
  Mn  Mn5  1  0.500000  0.128531  0.915316  1
  Mn  Mn6  1  0.500000  0.871702  0.082286  1
  V  V7  1  0.500000  0.375171  0.418730  1
  B  B8  1  0.000000  0.112444  0.045931  1
  B  B9  1  0.000000  0.887796  0.952805  1
  B  B10  1  0.000000  0.389499  0.549270  1
  B  B11  1  0.000000  0.616974  0.455256  1
  B  B12  1  0.000000  0.133916  0.468887  1
  B  B13  1  0.000000  0.862432  0.533973  1
  B  B14  1  0.000000  0.362300  0.967557  1
  B  B15  1  0.000000  0.637829  0.031659  1
  B  B16  1  0.000000  0.023521  0.190583  1
  B  B17  1  0.000000  0.975216  0.808654  1
  B  B18  1  0.000000  0.477237  0.692403  1
  B  B19  1  0.000000  0.527286  0.307248  1
  B  B20  1  0.000000  0.214108  0.313659  1
  B  B21  1  0.000000  0.780765  0.683992  1
  B  B22  1  0.000000  0.281813  0.816280  1
  B  B23  1  0.000000  0.719275  0.183206  1
