# generated using pymatgen
data_Sm8AlPt24
_symmetry_space_group_name_H-M   'P 1'
_cell_length_a   8.45256400
_cell_length_b   8.45256400
_cell_length_c   8.45256400
_cell_angle_alpha   90.00000000
_cell_angle_beta   90.00000000
_cell_angle_gamma   90.00000000
_symmetry_Int_Tables_number   1
_chemical_formula_structural   Sm8AlPt24
_chemical_formula_sum   'Sm8 Al1 Pt24'
_cell_volume   603.90051970
_cell_formula_units_Z   1
loop_
 _symmetry_equiv_pos_site_id
 _symmetry_equiv_pos_as_xyz
  1  'x, y, z'
loop_
 _atom_site_type_symbol
 _atom_site_label
 _atom_site_symmetry_multiplicity
 _atom_site_fract_x
 _atom_site_fract_y
 _atom_site_fract_z
 _atom_site_occupancy
  Sm  Sm0  1  0.251105  0.251105  0.251105  1
  Sm  Sm1  1  0.748895  0.748895  0.748895  1
  Sm  Sm2  1  0.748895  0.748895  0.251105  1
  Sm  Sm3  1  0.748895  0.251105  0.748895  1
  Sm  Sm4  1  0.251105  0.251105  0.748895  1
  Sm  Sm5  1  0.251105  0.748895  0.251105  1
  Sm  Sm6  1  0.251105  0.748895  0.748895  1
  Sm  Sm7  1  0.748895  0.251105  0.251105  1
  Al  Al8  1  0.000000  0.000000  0.000000  1
  Pt  Pt9  1  0.261650  0.500000  0.000000  1
  Pt  Pt10  1  0.738350  0.500000  0.000000  1
  Pt  Pt11  1  0.000000  0.261650  0.500000  1
  Pt  Pt12  1  0.500000  0.261650  0.000000  1
  Pt  Pt13  1  0.000000  0.738350  0.500000  1
  Pt  Pt14  1  0.500000  0.738350  0.000000  1
  Pt  Pt15  1  0.500000  0.000000  0.261650  1
  Pt  Pt16  1  0.261650  0.000000  0.500000  1
  Pt  Pt17  1  0.500000  0.000000  0.738350  1
  Pt  Pt18  1  0.738350  0.000000  0.500000  1
  Pt  Pt19  1  0.000000  0.500000  0.261650  1
  Pt  Pt20  1  0.000000  0.500000  0.738350  1
  Pt  Pt21  1  0.253577  0.500000  0.500000  1
  Pt  Pt22  1  0.746423  0.500000  0.500000  1
  Pt  Pt23  1  0.500000  0.253577  0.500000  1
  Pt  Pt24  1  0.500000  0.746423  0.500000  1
  Pt  Pt25  1  0.500000  0.500000  0.253577  1
  Pt  Pt26  1  0.500000  0.500000  0.746423  1
  Pt  Pt27  1  0.293900  0.000000  0.000000  1
  Pt  Pt28  1  0.706100  0.000000  0.000000  1
  Pt  Pt29  1  0.000000  0.293900  0.000000  1
  Pt  Pt30  1  0.000000  0.706100  0.000000  1
  Pt  Pt31  1  0.000000  0.000000  0.293900  1
  Pt  Pt32  1  0.000000  0.000000  0.706100  1
