# generated using pymatgen
data_Ho3TmCoOs7
_symmetry_space_group_name_H-M   'P 1'
_cell_length_a   5.27821261
_cell_length_b   5.27883568
_cell_length_c   8.81348348
_cell_angle_alpha   89.92592622
_cell_angle_beta   89.92471221
_cell_angle_gamma   59.50585743
_symmetry_Int_Tables_number   1
_chemical_formula_structural   Ho3TmCoOs7
_chemical_formula_sum   'Ho3 Tm1 Co1 Os7'
_cell_volume   211.60146344
_cell_formula_units_Z   1
loop_
 _symmetry_equiv_pos_site_id
 _symmetry_equiv_pos_as_xyz
  1  'x, y, z'
loop_
 _atom_site_type_symbol
 _atom_site_label
 _atom_site_symmetry_multiplicity
 _atom_site_fract_x
 _atom_site_fract_y
 _atom_site_fract_z
 _atom_site_occupancy
  Ho  Ho0  1  0.665870  0.666117  0.433772  1
  Ho  Ho1  1  0.665641  0.665859  0.066395  1
  Ho  Ho2  1  0.330062  0.330361  0.937194  1
  Tm  Tm3  1  0.330377  0.330714  0.562804  1
  Co  Co4  1  0.174517  0.174448  0.250671  1
  Os  Os5  1  0.992665  0.993182  0.497596  1
  Os  Os6  1  0.992400  0.992904  0.002633  1
  Os  Os7  1  0.827281  0.347468  0.749259  1
  Os  Os8  1  0.348467  0.826731  0.749256  1
  Os  Os9  1  0.834818  0.834866  0.749433  1
  Os  Os10  1  0.177871  0.659737  0.250493  1
  Os  Os11  1  0.660033  0.177612  0.250490  1
