# generated using pymatgen
data_Dy5Y3TiV3O20
_symmetry_space_group_name_H-M   'P 1'
_cell_length_a   3.73094900
_cell_length_b   10.41411350
_cell_length_c   11.28878033
_cell_angle_alpha   90.10245395
_cell_angle_beta   90.00000000
_cell_angle_gamma   90.00000000
_symmetry_Int_Tables_number   1
_chemical_formula_structural   Dy5Y3TiV3O20
_chemical_formula_sum   'Dy5 Y3 Ti1 V3 O20'
_cell_volume   438.61951151
_cell_formula_units_Z   1
loop_
 _symmetry_equiv_pos_site_id
 _symmetry_equiv_pos_as_xyz
  1  'x, y, z'
loop_
 _atom_site_type_symbol
 _atom_site_label
 _atom_site_symmetry_multiplicity
 _atom_site_fract_x
 _atom_site_fract_y
 _atom_site_fract_z
 _atom_site_occupancy
  Dy  Dy0  1  0.750000  0.363626  0.445463  1
  Dy  Dy1  1  0.750000  0.381570  0.773599  1
  Dy  Dy2  1  0.750000  0.880574  0.725531  1
  Dy  Dy3  1  0.250000  0.617161  0.224589  1
  Dy  Dy4  1  0.250000  0.117681  0.275449  1
  Y  Y5  1  0.250000  0.136181  0.943825  1
  Y  Y6  1  0.250000  0.637110  0.554690  1
  Y  Y7  1  0.750000  0.862614  0.055730  1
  Ti  Ti8  1  0.750000  0.326223  0.119502  1
  V  V9  1  0.250000  0.171185  0.618652  1
  V  V10  1  0.250000  0.671264  0.880996  1
  V  V11  1  0.750000  0.828493  0.380919  1
  O  O12  1  0.250000  0.226029  0.457559  1
  O  O13  1  0.250000  0.726355  0.042008  1
  O  O14  1  0.750000  0.774381  0.542505  1
  O  O15  1  0.750000  0.276579  0.956896  1
  O  O16  1  0.250000  0.493606  0.394811  1
  O  O17  1  0.250000  0.994940  0.105750  1
  O  O18  1  0.750000  0.505765  0.605661  1
  O  O19  1  0.750000  0.006520  0.894144  1
  O  O20  1  0.250000  0.264405  0.117440  1
  O  O21  1  0.250000  0.764803  0.383172  1
  O  O22  1  0.750000  0.735105  0.883036  1
  O  O23  1  0.750000  0.235287  0.616173  1
  O  O24  1  0.250000  0.008563  0.654236  1
  O  O25  1  0.250000  0.508423  0.845599  1
  O  O26  1  0.750000  0.991729  0.346293  1
  O  O27  1  0.750000  0.492969  0.154736  1
  O  O28  1  0.250000  0.258417  0.769276  1
  O  O29  1  0.250000  0.758674  0.730738  1
  O  O30  1  0.750000  0.742854  0.230317  1
  O  O31  1  0.750000  0.240920  0.270703  1
