# generated using pymatgen
data_Tm4AlPt11
_symmetry_space_group_name_H-M   'P 1'
_cell_length_a   4.15453400
_cell_length_b   5.77759479
_cell_length_c   11.50932506
_cell_angle_alpha   87.05587022
_cell_angle_beta   90.00000000
_cell_angle_gamma   90.00000000
_symmetry_Int_Tables_number   1
_chemical_formula_structural   Tm4AlPt11
_chemical_formula_sum   'Tm4 Al1 Pt11'
_cell_volume   275.89615409
_cell_formula_units_Z   1
loop_
 _symmetry_equiv_pos_site_id
 _symmetry_equiv_pos_as_xyz
  1  'x, y, z'
loop_
 _atom_site_type_symbol
 _atom_site_label
 _atom_site_symmetry_multiplicity
 _atom_site_fract_x
 _atom_site_fract_y
 _atom_site_fract_z
 _atom_site_occupancy
  Tm  Tm0  1  0.500000  0.758107  0.373304  1
  Tm  Tm1  1  0.500000  0.712264  0.863755  1
  Tm  Tm2  1  0.500000  0.287736  0.136245  1
  Tm  Tm3  1  0.500000  0.241893  0.626696  1
  Al  Al4  1  0.000000  0.000000  0.000000  1
  Pt  Pt5  1  0.000000  0.018401  0.241480  1
  Pt  Pt6  1  0.000000  0.981599  0.758520  1
  Pt  Pt7  1  0.000000  0.500000  0.000000  1
  Pt  Pt8  1  0.000000  0.500000  0.500000  1
  Pt  Pt9  1  0.000000  0.522122  0.248573  1
  Pt  Pt10  1  0.000000  0.477878  0.751427  1
  Pt  Pt11  1  0.500000  0.254677  0.377540  1
  Pt  Pt12  1  0.500000  0.211078  0.891082  1
  Pt  Pt13  1  0.500000  0.788922  0.108918  1
  Pt  Pt14  1  0.500000  0.745323  0.622460  1
  Pt  Pt15  1  0.000000  0.000000  0.500000  1
