# generated using pymatgen
data_Ba4H10PtAuF2
_symmetry_space_group_name_H-M   'P 1'
_cell_length_a   7.92002492
_cell_length_b   7.91340909
_cell_length_c   6.09192648
_cell_angle_alpha   89.97596069
_cell_angle_beta   89.97715617
_cell_angle_gamma   134.63465381
_symmetry_Int_Tables_number   1
_chemical_formula_structural   Ba4H10PtAuF2
_chemical_formula_sum   'Ba4 H10 Pt1 Au1 F2'
_cell_volume   271.69476412
_cell_formula_units_Z   1
loop_
 _symmetry_equiv_pos_site_id
 _symmetry_equiv_pos_as_xyz
  1  'x, y, z'
loop_
 _atom_site_type_symbol
 _atom_site_label
 _atom_site_symmetry_multiplicity
 _atom_site_fract_x
 _atom_site_fract_y
 _atom_site_fract_z
 _atom_site_occupancy
  Ba  Ba0  1  0.356685  0.643822  0.999972  1
  Ba  Ba1  1  0.856812  0.143230  0.500005  1
  Ba  Ba2  1  0.643315  0.356178  0.000028  1
  Ba  Ba3  1  0.143188  0.856770  0.499995  1
  H  H4  1  0.499479  0.000106  0.749228  1
  H  H5  1  0.500521  0.999894  0.250772  1
  H  H6  1  0.120426  0.891822  0.999864  1
  H  H7  1  0.609138  0.381180  0.500072  1
  H  H8  1  0.879574  0.108178  0.000136  1
  H  H9  1  0.390862  0.618820  0.499928  1
  H  H10  1  0.698987  0.698172  0.300899  1
  H  H11  1  0.301013  0.301828  0.699101  1
  H  H12  1  0.698939  0.698153  0.698864  1
  H  H13  1  0.301061  0.301847  0.301136  1
  Pt  Pt14  1  0.500000  0.500000  0.500000  1
  Au  Au15  1  0.000000  0.000000  0.000000  1
  F  F16  1  0.999980  0.500448  0.250049  1
  F  F17  1  0.000020  0.499552  0.749951  1
