# generated using pymatgen
data_Sc10In8Co3Au
_symmetry_space_group_name_H-M   'P 1'
_cell_length_a   3.36406400
_cell_length_b   7.68562613
_cell_length_c   17.37833707
_cell_angle_alpha   90.20102002
_cell_angle_beta   90.00000000
_cell_angle_gamma   90.00000000
_symmetry_Int_Tables_number   1
_chemical_formula_structural   Sc10In8Co3Au
_chemical_formula_sum   'Sc10 In8 Co3 Au1'
_cell_volume   449.31306499
_cell_formula_units_Z   1
loop_
 _symmetry_equiv_pos_site_id
 _symmetry_equiv_pos_as_xyz
  1  'x, y, z'
loop_
 _atom_site_type_symbol
 _atom_site_label
 _atom_site_symmetry_multiplicity
 _atom_site_fract_x
 _atom_site_fract_y
 _atom_site_fract_z
 _atom_site_occupancy
  Sc  Sc0  1  0.500000  0.500650  0.502364  1
  Sc  Sc1  1  0.500000  0.000006  0.997534  1
  Sc  Sc2  1  0.500000  0.870885  0.421726  1
  Sc  Sc3  1  0.500000  0.121480  0.592807  1
  Sc  Sc4  1  0.500000  0.623090  0.908590  1
  Sc  Sc5  1  0.500000  0.379615  0.086515  1
  Sc  Sc6  1  0.500000  0.270402  0.273951  1
  Sc  Sc7  1  0.500000  0.753935  0.722085  1
  Sc  Sc8  1  0.500000  0.256360  0.778554  1
  Sc  Sc9  1  0.500000  0.721246  0.216448  1
  In  In10  1  0.000000  0.202586  0.438141  1
  In  In11  1  0.000000  0.798683  0.570846  1
  In  In12  1  0.000000  0.299665  0.931539  1
  In  In13  1  0.000000  0.702279  0.064738  1
  In  In14  1  0.000000  0.566264  0.351264  1
  In  In15  1  0.000000  0.431359  0.652754  1
  In  In16  1  0.000000  0.932664  0.847669  1
  In  In17  1  0.000000  0.074760  0.145587  1
  Co  Co18  1  0.000000  0.033630  0.695367  1
  Co  Co19  1  0.000000  0.534745  0.805456  1
  Co  Co20  1  0.000000  0.461936  0.193286  1
  Au  Au21  1  0.000000  0.963764  0.302779  1
