# generated using pymatgen
data_Er5Tm3(TcBr4)2
_symmetry_space_group_name_H-M   'P 1'
_cell_length_a   8.89288824
_cell_length_b   8.90370513
_cell_length_c   6.54442542
_cell_angle_alpha   89.44998733
_cell_angle_beta   89.52027959
_cell_angle_gamma   89.23495424
_symmetry_Int_Tables_number   1
_chemical_formula_structural   Er5Tm3(TcBr4)2
_chemical_formula_sum   'Er5 Tm3 Tc2 Br8'
_cell_volume   518.09766420
_cell_formula_units_Z   1
loop_
 _symmetry_equiv_pos_site_id
 _symmetry_equiv_pos_as_xyz
  1  'x, y, z'
loop_
 _atom_site_type_symbol
 _atom_site_label
 _atom_site_symmetry_multiplicity
 _atom_site_fract_x
 _atom_site_fract_y
 _atom_site_fract_z
 _atom_site_occupancy
  Er  Er0  1  0.901465  0.247724  0.510411  1
  Er  Er1  1  0.752568  0.903018  0.507538  1
  Er  Er2  1  0.247562  0.096741  0.491951  1
  Er  Er3  1  0.097236  0.247127  0.991909  1
  Er  Er4  1  0.903117  0.752453  0.007702  1
  Tm  Tm5  1  0.246411  0.901915  0.011161  1
  Tm  Tm6  1  0.753762  0.097514  0.988592  1
  Tm  Tm7  1  0.098018  0.753803  0.488975  1
  Tc  Tc8  1  0.993990  0.005878  0.249648  1
  Tc  Tc9  1  0.006229  0.993819  0.749896  1
  Br  Br10  1  0.419506  0.816460  0.406743  1
  Br  Br11  1  0.580143  0.182968  0.593593  1
  Br  Br12  1  0.183343  0.580720  0.093310  1
  Br  Br13  1  0.816305  0.419252  0.908280  1
  Br  Br14  1  0.416068  0.189765  0.094868  1
  Br  Br15  1  0.584288  0.810004  0.905118  1
  Br  Br16  1  0.809384  0.585045  0.405346  1
  Br  Br17  1  0.190605  0.415794  0.594958  1
