# generated using pymatgen
data_Ce9Dy3(CoSi)8
_symmetry_space_group_name_H-M   'P 1'
_cell_length_a   5.51665000
_cell_length_b   7.88576443
_cell_length_c   12.31171900
_cell_angle_alpha   90.00000000
_cell_angle_beta   90.00000000
_cell_angle_gamma   89.98113092
_symmetry_Int_Tables_number   1
_chemical_formula_structural   Ce9Dy3(CoSi)8
_chemical_formula_sum   'Ce9 Dy3 Co8 Si8'
_cell_volume   535.59671130
_cell_formula_units_Z   1
loop_
 _symmetry_equiv_pos_site_id
 _symmetry_equiv_pos_as_xyz
  1  'x, y, z'
loop_
 _atom_site_type_symbol
 _atom_site_label
 _atom_site_symmetry_multiplicity
 _atom_site_fract_x
 _atom_site_fract_y
 _atom_site_fract_z
 _atom_site_occupancy
  Ce  Ce0  1  0.656248  0.254269  0.250000  1
  Ce  Ce1  1  0.157117  0.398375  0.408657  1
  Ce  Ce2  1  0.159028  0.100739  0.590493  1
  Ce  Ce3  1  0.839421  0.902704  0.092021  1
  Ce  Ce4  1  0.839398  0.600253  0.909744  1
  Ce  Ce5  1  0.839398  0.600253  0.590256  1
  Ce  Ce6  1  0.839421  0.902704  0.407979  1
  Ce  Ce7  1  0.159028  0.100739  0.909507  1
  Ce  Ce8  1  0.157117  0.398375  0.091343  1
  Dy  Dy9  1  0.344593  0.746117  0.750000  1
  Dy  Dy10  1  0.347881  0.752936  0.250000  1
  Dy  Dy11  1  0.654223  0.245179  0.750000  1
  Co  Co12  1  0.380043  0.044721  0.413053  1
  Co  Co13  1  0.374832  0.457572  0.585824  1
  Co  Co14  1  0.624982  0.539788  0.087048  1
  Co  Co15  1  0.621843  0.955988  0.913033  1
  Co  Co16  1  0.380043  0.044721  0.086947  1
  Co  Co17  1  0.374832  0.457572  0.914176  1
  Co  Co18  1  0.624982  0.539788  0.412952  1
  Co  Co19  1  0.621843  0.955988  0.586967  1
  Si  Si20  1  0.645850  0.250188  0.502204  1
  Si  Si21  1  0.353820  0.749453  0.000739  1
  Si  Si22  1  0.353820  0.749453  0.499261  1
  Si  Si23  1  0.645850  0.250188  0.997796  1
  Si  Si24  1  0.838593  0.896253  0.750000  1
  Si  Si25  1  0.841932  0.608517  0.250000  1
  Si  Si26  1  0.161714  0.396769  0.750000  1
  Si  Si27  1  0.162147  0.100396  0.250000  1
