# generated using pymatgen
data_Er17Lu3Sn16
_symmetry_space_group_name_H-M   'P 1'
_cell_length_a   8.00288135
_cell_length_b   8.08828435
_cell_length_c   15.35123100
_cell_angle_alpha   90.00000000
_cell_angle_beta   90.00000000
_cell_angle_gamma   89.96603798
_symmetry_Int_Tables_number   1
_chemical_formula_structural   Er17Lu3Sn16
_chemical_formula_sum   'Er17 Lu3 Sn16'
_cell_volume   993.67856104
_cell_formula_units_Z   1
loop_
 _symmetry_equiv_pos_site_id
 _symmetry_equiv_pos_as_xyz
  1  'x, y, z'
loop_
 _atom_site_type_symbol
 _atom_site_label
 _atom_site_symmetry_multiplicity
 _atom_site_fract_x
 _atom_site_fract_y
 _atom_site_fract_z
 _atom_site_occupancy
  Er  Er0  1  0.377987  0.839443  0.879005  1
  Er  Er1  1  0.877974  0.660568  0.620946  1
  Er  Er2  1  0.622242  0.160702  0.379087  1
  Er  Er3  1  0.121897  0.339570  0.120907  1
  Er  Er4  1  0.622242  0.160702  0.120913  1
  Er  Er5  1  0.121897  0.339570  0.379093  1
  Er  Er6  1  0.377987  0.839443  0.620995  1
  Er  Er7  1  0.877974  0.660568  0.879054  1
  Er  Er8  1  0.533618  0.322769  0.900175  1
  Er  Er9  1  0.033637  0.177239  0.599864  1
  Er  Er10  1  0.466434  0.677154  0.400177  1
  Er  Er11  1  0.966295  0.822682  0.099803  1
  Er  Er12  1  0.466434  0.677154  0.099823  1
  Er  Er13  1  0.966295  0.822682  0.400197  1
  Er  Er14  1  0.533618  0.322769  0.599825  1
  Er  Er15  1  0.033637  0.177239  0.900136  1
  Er  Er16  1  0.290868  0.004279  0.250000  1
  Lu  Lu17  1  0.209272  0.504314  0.750000  1
  Lu  Lu18  1  0.709253  0.995613  0.750000  1
  Lu  Lu19  1  0.790650  0.495610  0.250000  1
  Sn  Sn20  1  0.282845  0.033058  0.042434  1
  Sn  Sn21  1  0.782847  0.466903  0.457344  1
  Sn  Sn22  1  0.717152  0.966958  0.542708  1
  Sn  Sn23  1  0.217165  0.533089  0.957290  1
  Sn  Sn24  1  0.717152  0.966958  0.957292  1
  Sn  Sn25  1  0.217165  0.533089  0.542710  1
  Sn  Sn26  1  0.282845  0.033058  0.457566  1
  Sn  Sn27  1  0.782847  0.466903  0.042656  1
  Sn  Sn28  1  0.574885  0.622724  0.750000  1
  Sn  Sn29  1  0.074824  0.877237  0.750000  1
  Sn  Sn30  1  0.425167  0.377673  0.250000  1
  Sn  Sn31  1  0.924597  0.122787  0.250000  1
  Sn  Sn32  1  0.342750  0.149063  0.750000  1
  Sn  Sn33  1  0.842677  0.351070  0.750000  1
  Sn  Sn34  1  0.657523  0.850968  0.250000  1
  Sn  Sn35  1  0.157346  0.648390  0.250000  1
