# generated using pymatgen
data_Th3AlGa2Ir3
_symmetry_space_group_name_H-M   'P 1'
_cell_length_a   7.26268195
_cell_length_b   7.26268202
_cell_length_c   4.12660800
_cell_angle_alpha   90.00000000
_cell_angle_beta   90.00000000
_cell_angle_gamma   120.26860487
_symmetry_Int_Tables_number   1
_chemical_formula_structural   Th3AlGa2Ir3
_chemical_formula_sum   'Th3 Al1 Ga2 Ir3'
_cell_volume   187.99056354
_cell_formula_units_Z   1
loop_
 _symmetry_equiv_pos_site_id
 _symmetry_equiv_pos_as_xyz
  1  'x, y, z'
loop_
 _atom_site_type_symbol
 _atom_site_label
 _atom_site_symmetry_multiplicity
 _atom_site_fract_x
 _atom_site_fract_y
 _atom_site_fract_z
 _atom_site_occupancy
  Th  Th0  1  0.416681  0.998797  0.500000  1
  Th  Th1  1  0.998797  0.416681  0.500000  1
  Th  Th2  1  0.586388  0.586388  0.500000  1
  Al  Al3  1  0.230444  0.230444  0.000000  1
  Ga  Ga4  1  0.766135  0.001428  0.000000  1
  Ga  Ga5  1  0.001428  0.766135  0.000000  1
  Ir  Ir6  1  0.331841  0.660028  0.000000  1
  Ir  Ir7  1  0.660028  0.331841  0.000000  1
  Ir  Ir8  1  0.008259  0.008259  0.500000  1
