# generated using pymatgen
data_Dy2Ho4Al24Os7Ru
_symmetry_space_group_name_H-M   'P 1'
_cell_length_a   8.82629220
_cell_length_b   8.82629182
_cell_length_c   9.56439400
_cell_angle_alpha   89.99964965
_cell_angle_beta   90.00034902
_cell_angle_gamma   120.02445691
_symmetry_Int_Tables_number   1
_chemical_formula_structural   Dy2Ho4Al24Os7Ru
_chemical_formula_sum   'Dy2 Ho4 Al24 Os7 Ru1'
_cell_volume   645.11567047
_cell_formula_units_Z   1
loop_
 _symmetry_equiv_pos_site_id
 _symmetry_equiv_pos_as_xyz
  1  'x, y, z'
loop_
 _atom_site_type_symbol
 _atom_site_label
 _atom_site_symmetry_multiplicity
 _atom_site_fract_x
 _atom_site_fract_y
 _atom_site_fract_z
 _atom_site_occupancy
  Dy  Dy0  1  0.806590  0.613127  0.750634  1
  Dy  Dy1  1  0.386873  0.193410  0.750634  1
  Ho  Ho2  1  0.193559  0.806441  0.249330  1
  Ho  Ho3  1  0.193542  0.387083  0.249319  1
  Ho  Ho4  1  0.612917  0.806458  0.249319  1
  Ho  Ho5  1  0.806424  0.193576  0.750630  1
  Al  Al6  1  0.560540  0.439460  0.249765  1
  Al  Al7  1  0.560561  0.121104  0.249763  1
  Al  Al8  1  0.878896  0.439439  0.249763  1
  Al  Al9  1  0.439210  0.560790  0.750241  1
  Al  Al10  1  0.439470  0.878664  0.750244  1
  Al  Al11  1  0.121336  0.560530  0.750244  1
  Al  Al12  1  0.324544  0.162267  0.423523  1
  Al  Al13  1  0.837727  0.162273  0.423639  1
  Al  Al14  1  0.837733  0.675456  0.423523  1
  Al  Al15  1  0.675344  0.837786  0.576291  1
  Al  Al16  1  0.162333  0.837667  0.576275  1
  Al  Al17  1  0.162214  0.324656  0.576291  1
  Al  Al18  1  0.675245  0.837740  0.923809  1
  Al  Al19  1  0.162380  0.837620  0.923822  1
  Al  Al20  1  0.162260  0.324755  0.923809  1
  Al  Al21  1  0.324633  0.162312  0.076402  1
  Al  Al22  1  0.837682  0.162318  0.076284  1
  Al  Al23  1  0.837688  0.675367  0.076402  1
  Al  Al24  1  0.666744  0.333256  0.515972  1
  Al  Al25  1  0.333337  0.666663  0.483974  1
  Al  Al26  1  0.333338  0.666662  0.015980  1
  Al  Al27  1  0.666748  0.333252  0.984099  1
  Al  Al28  1  0.999997  0.000003  0.248226  1
  Al  Al29  1  0.999896  0.000104  0.751782  1
  Os  Os30  1  0.999998  0.000002  0.499863  1
  Os  Os31  1  0.499864  0.500136  0.499684  1
  Os  Os32  1  0.500014  0.999758  0.499772  1
  Os  Os33  1  0.000242  0.499986  0.499772  1
  Os  Os34  1  0.499862  0.500138  0.000328  1
  Os  Os35  1  0.500019  0.999757  0.000237  1
  Os  Os36  1  0.000243  0.499981  0.000237  1
  Ru  Ru37  1  0.999997  0.000003  0.000116  1
