# generated using pymatgen
data_Gd4Tm(SiB4)2
_symmetry_space_group_name_H-M   'P 1'
_cell_length_a   7.25717400
_cell_length_b   7.25717400
_cell_length_c   8.16146500
_cell_angle_alpha   90.00000000
_cell_angle_beta   90.00000000
_cell_angle_gamma   90.00000000
_symmetry_Int_Tables_number   1
_chemical_formula_structural   Gd4Tm(SiB4)2
_chemical_formula_sum   'Gd8 Tm2 Si4 B16'
_cell_volume   429.83640418
_cell_formula_units_Z   2
loop_
 _symmetry_equiv_pos_site_id
 _symmetry_equiv_pos_as_xyz
  1  'x, y, z'
loop_
 _atom_site_type_symbol
 _atom_site_label
 _atom_site_symmetry_multiplicity
 _atom_site_fract_x
 _atom_site_fract_y
 _atom_site_fract_z
 _atom_site_occupancy
  Gd  Gd0  1  0.680607  0.180607  0.225736  1
  Gd  Gd1  1  0.319393  0.819393  0.774264  1
  Gd  Gd2  1  0.319393  0.819393  0.225736  1
  Gd  Gd3  1  0.819393  0.680607  0.225736  1
  Gd  Gd4  1  0.819393  0.680607  0.774264  1
  Gd  Gd5  1  0.680607  0.180607  0.774264  1
  Gd  Gd6  1  0.180607  0.319393  0.774264  1
  Gd  Gd7  1  0.180607  0.319393  0.225736  1
  Tm  Tm8  1  0.000000  0.000000  0.500000  1
  Tm  Tm9  1  0.500000  0.500000  0.500000  1
  Si  Si10  1  0.115376  0.615376  0.500000  1
  Si  Si11  1  0.884624  0.384624  0.500000  1
  Si  Si12  1  0.384624  0.115376  0.500000  1
  Si  Si13  1  0.615376  0.884624  0.500000  1
  B  B14  1  0.172055  0.039266  0.000000  1
  B  B15  1  0.827945  0.960734  0.000000  1
  B  B16  1  0.960734  0.172055  0.000000  1
  B  B17  1  0.327945  0.539266  0.000000  1
  B  B18  1  0.039266  0.827945  0.000000  1
  B  B19  1  0.672055  0.460734  0.000000  1
  B  B20  1  0.539266  0.672055  0.000000  1
  B  B21  1  0.460734  0.327945  0.000000  1
  B  B22  1  0.090015  0.590015  0.000000  1
  B  B23  1  0.909985  0.409985  0.000000  1
  B  B24  1  0.409985  0.090015  0.000000  1
  B  B25  1  0.590015  0.909985  0.000000  1
  B  B26  1  0.000000  0.000000  0.160380  1
  B  B27  1  0.000000  0.000000  0.839620  1
  B  B28  1  0.500000  0.500000  0.839620  1
  B  B29  1  0.500000  0.500000  0.160380  1
