# generated using pymatgen
data_Tb3Ho2CoSb2
_symmetry_space_group_name_H-M   'P 1'
_cell_length_a   7.91028100
_cell_length_b   8.78764900
_cell_length_c   12.24741700
_cell_angle_alpha   90.00000000
_cell_angle_beta   90.00000000
_cell_angle_gamma   90.00000000
_symmetry_Int_Tables_number   1
_chemical_formula_structural   Tb3Ho2CoSb2
_chemical_formula_sum   'Tb12 Ho8 Co4 Sb8'
_cell_volume   851.35191677
_cell_formula_units_Z   4
loop_
 _symmetry_equiv_pos_site_id
 _symmetry_equiv_pos_as_xyz
  1  'x, y, z'
loop_
 _atom_site_type_symbol
 _atom_site_label
 _atom_site_symmetry_multiplicity
 _atom_site_fract_x
 _atom_site_fract_y
 _atom_site_fract_z
 _atom_site_occupancy
  Tb  Tb0  1  0.153746  0.750000  0.202920  1
  Tb  Tb1  1  0.653746  0.250000  0.297080  1
  Tb  Tb2  1  0.846254  0.250000  0.797080  1
  Tb  Tb3  1  0.346254  0.750000  0.702920  1
  Tb  Tb4  1  0.454001  0.750000  0.997794  1
  Tb  Tb5  1  0.954001  0.250000  0.502206  1
  Tb  Tb6  1  0.545999  0.250000  0.002206  1
  Tb  Tb7  1  0.045999  0.750000  0.497794  1
  Tb  Tb8  1  0.621746  0.750000  0.306847  1
  Tb  Tb9  1  0.121746  0.250000  0.193153  1
  Tb  Tb10  1  0.378254  0.250000  0.693153  1
  Tb  Tb11  1  0.878254  0.750000  0.806847  1
  Ho  Ho12  1  0.822394  0.964397  0.064953  1
  Ho  Ho13  1  0.322394  0.035603  0.435047  1
  Ho  Ho14  1  0.177606  0.464397  0.935047  1
  Ho  Ho15  1  0.677606  0.535603  0.564953  1
  Ho  Ho16  1  0.177606  0.035603  0.935047  1
  Ho  Ho17  1  0.677606  0.964397  0.564953  1
  Ho  Ho18  1  0.822394  0.535603  0.064953  1
  Ho  Ho19  1  0.322394  0.464397  0.435047  1
  Co  Co20  1  0.434451  0.750000  0.490664  1
  Co  Co21  1  0.934451  0.250000  0.009336  1
  Co  Co22  1  0.565549  0.250000  0.509336  1
  Co  Co23  1  0.065549  0.750000  0.990664  1
  Sb  Sb24  1  0.928391  0.991952  0.326920  1
  Sb  Sb25  1  0.428391  0.008048  0.173080  1
  Sb  Sb26  1  0.071609  0.491952  0.673080  1
  Sb  Sb27  1  0.571609  0.508048  0.826920  1
  Sb  Sb28  1  0.071609  0.008048  0.673080  1
  Sb  Sb29  1  0.571609  0.991952  0.826920  1
  Sb  Sb30  1  0.928391  0.508048  0.326920  1
  Sb  Sb31  1  0.428391  0.491952  0.173080  1
