# generated using pymatgen
data_Er6Tm9Sc(In3Co)2
_symmetry_space_group_name_H-M   'P 1'
_cell_length_a   10.19017500
_cell_length_b   10.18865513
_cell_length_c   6.95052043
_cell_angle_alpha   90.14604210
_cell_angle_beta   90.00000000
_cell_angle_gamma   120.00493146
_symmetry_Int_Tables_number   1
_chemical_formula_structural   Er6Tm9Sc(In3Co)2
_chemical_formula_sum   'Er6 Tm9 Sc1 In6 Co2'
_cell_volume   624.91794560
_cell_formula_units_Z   1
loop_
 _symmetry_equiv_pos_site_id
 _symmetry_equiv_pos_as_xyz
  1  'x, y, z'
loop_
 _atom_site_type_symbol
 _atom_site_label
 _atom_site_symmetry_multiplicity
 _atom_site_fract_x
 _atom_site_fract_y
 _atom_site_fract_z
 _atom_site_occupancy
  Er  Er0  1  0.534784  0.069567  0.513711  1
  Er  Er1  1  0.933246  0.465308  0.513778  1
  Er  Er2  1  0.532062  0.465308  0.513778  1
  Er  Er3  1  0.465418  0.930837  0.013720  1
  Er  Er4  1  0.069753  0.532277  0.010458  1
  Er  Er5  1  0.462524  0.532277  0.010458  1
  Tm  Tm6  1  0.643097  0.822086  0.720521  1
  Tm  Tm7  1  0.178988  0.822086  0.720521  1
  Tm  Tm8  1  0.821210  0.642419  0.220944  1
  Tm  Tm9  1  0.356949  0.178381  0.220013  1
  Tm  Tm10  1  0.821432  0.178381  0.220013  1
  Tm  Tm11  1  0.666544  0.333087  0.902851  1
  Tm  Tm12  1  0.332459  0.664919  0.405010  1
  Tm  Tm13  1  0.000904  0.001807  0.502610  1
  Tm  Tm14  1  0.000661  0.001322  0.000049  1
  Sc  Sc15  1  0.179599  0.359199  0.720654  1
  In  In16  1  0.837220  0.674438  0.761095  1
  In  In17  1  0.322324  0.166117  0.760197  1
  In  In18  1  0.843795  0.166117  0.760197  1
  In  In19  1  0.163028  0.326057  0.267597  1
  In  In20  1  0.673558  0.836752  0.261984  1
  In  In21  1  0.163193  0.836752  0.261984  1
  Co  Co22  1  0.666536  0.333070  0.288510  1
  Co  Co23  1  0.330717  0.661434  0.787347  1
