# generated using pymatgen
data_Sr3YOs6O19
_symmetry_space_group_name_H-M   'P 1'
_cell_length_a   8.09243560
_cell_length_b   7.94816289
_cell_length_c   7.94816283
_cell_angle_alpha   109.10060899
_cell_angle_beta   109.83934059
_cell_angle_gamma   109.83934243
_symmetry_Int_Tables_number   1
_chemical_formula_structural   Sr3YOs6O19
_chemical_formula_sum   'Sr3 Y1 Os6 O19'
_cell_volume   391.73971824
_cell_formula_units_Z   1
loop_
 _symmetry_equiv_pos_site_id
 _symmetry_equiv_pos_as_xyz
  1  'x, y, z'
loop_
 _atom_site_type_symbol
 _atom_site_label
 _atom_site_symmetry_multiplicity
 _atom_site_fract_x
 _atom_site_fract_y
 _atom_site_fract_z
 _atom_site_occupancy
  Sr  Sr0  1  0.003898  0.003228  0.308100  1
  Sr  Sr1  1  0.000671  0.304872  0.996772  1
  Sr  Sr2  1  0.695799  0.691900  0.695128  1
  Y  Y3  1  0.281724  0.000000  0.000000  1
  Os  Os4  1  0.362805  0.498933  0.861171  1
  Os  Os5  1  0.863872  0.362239  0.501067  1
  Os  Os6  1  0.501633  0.138829  0.637761  1
  Os  Os7  1  0.136584  0.638394  0.501648  1
  Os  Os8  1  0.498189  0.863254  0.361606  1
  Os  Os9  1  0.634936  0.498352  0.136746  1
  O  O10  1  0.335851  0.004476  0.324403  1
  O  O11  1  0.331375  0.319927  0.995524  1
  O  O12  1  0.011448  0.675597  0.680073  1
  O  O13  1  0.667201  0.673724  0.003363  1
  O  O14  1  0.993477  0.329638  0.326276  1
  O  O15  1  0.663838  0.996637  0.670362  1
  O  O16  1  0.024856  0.000000  0.000000  1
  O  O17  1  0.359739  0.292507  0.639803  1
  O  O18  1  0.067231  0.347295  0.707493  1
  O  O19  1  0.719936  0.360197  0.652705  1
  O  O20  1  0.358776  0.645156  0.707979  1
  O  O21  1  0.290401  0.942241  0.659775  1
  O  O22  1  0.630626  0.340225  0.282465  1
  O  O23  1  0.281536  0.643147  0.348913  1
  O  O24  1  0.713621  0.062823  0.354844  1
  O  O25  1  0.932625  0.651087  0.294234  1
  O  O26  1  0.638390  0.705766  0.356853  1
  O  O27  1  0.650797  0.292021  0.937177  1
  O  O28  1  0.348160  0.717535  0.057759  1
