# generated using pymatgen
data_DyLu5TcOs
_symmetry_space_group_name_H-M   'P 1'
_cell_length_a   7.33937500
_cell_length_b   8.84510700
_cell_length_c   6.17229100
_cell_angle_alpha   90.00000000
_cell_angle_beta   90.00000000
_cell_angle_gamma   90.00000000
_symmetry_Int_Tables_number   1
_chemical_formula_structural   DyLu5TcOs
_chemical_formula_sum   'Dy2 Lu10 Tc2 Os2'
_cell_volume   400.69005397
_cell_formula_units_Z   2
loop_
 _symmetry_equiv_pos_site_id
 _symmetry_equiv_pos_as_xyz
  1  'x, y, z'
loop_
 _atom_site_type_symbol
 _atom_site_label
 _atom_site_symmetry_multiplicity
 _atom_site_fract_x
 _atom_site_fract_y
 _atom_site_fract_z
 _atom_site_occupancy
  Dy  Dy0  1  0.538377  0.250000  0.877915  1
  Dy  Dy1  1  0.038377  0.250000  0.622085  1
  Lu  Lu2  1  0.674814  0.060681  0.339138  1
  Lu  Lu3  1  0.174814  0.439319  0.160862  1
  Lu  Lu4  1  0.325214  0.564014  0.663019  1
  Lu  Lu5  1  0.825214  0.935986  0.836981  1
  Lu  Lu6  1  0.325214  0.935986  0.663019  1
  Lu  Lu7  1  0.825214  0.564014  0.836981  1
  Lu  Lu8  1  0.674814  0.439319  0.339138  1
  Lu  Lu9  1  0.174814  0.060681  0.160862  1
  Lu  Lu10  1  0.459958  0.750000  0.128949  1
  Lu  Lu11  1  0.959958  0.750000  0.371051  1
  Tc  Tc12  1  0.882551  0.250000  0.041564  1
  Tc  Tc13  1  0.382551  0.250000  0.458436  1
  Os  Os14  1  0.119055  0.750000  0.960710  1
  Os  Os15  1  0.619055  0.750000  0.539290  1
