# generated using pymatgen
data_Tm3ThMgIr
_symmetry_space_group_name_H-M   'P 1'
_cell_length_a   9.72076934
_cell_length_b   9.72076974
_cell_length_c   9.72076900
_cell_angle_alpha   59.99999910
_cell_angle_beta   59.99999775
_cell_angle_gamma   59.99999592
_symmetry_Int_Tables_number   1
_chemical_formula_structural   Tm3ThMgIr
_chemical_formula_sum   'Tm12 Th4 Mg4 Ir4'
_cell_volume   649.51157496
_cell_formula_units_Z   4
loop_
 _symmetry_equiv_pos_site_id
 _symmetry_equiv_pos_as_xyz
  1  'x, y, z'
loop_
 _atom_site_type_symbol
 _atom_site_label
 _atom_site_symmetry_multiplicity
 _atom_site_fract_x
 _atom_site_fract_y
 _atom_site_fract_z
 _atom_site_occupancy
  Tm  Tm0  1  0.063436  0.436564  0.436564  1
  Tm  Tm1  1  0.436564  0.063436  0.063436  1
  Tm  Tm2  1  0.436564  0.063436  0.436564  1
  Tm  Tm3  1  0.063436  0.436564  0.063436  1
  Tm  Tm4  1  0.436564  0.436564  0.063436  1
  Tm  Tm5  1  0.063436  0.063436  0.436564  1
  Tm  Tm6  1  0.183346  0.816654  0.816654  1
  Tm  Tm7  1  0.816654  0.183346  0.183346  1
  Tm  Tm8  1  0.816654  0.183346  0.816654  1
  Tm  Tm9  1  0.183346  0.816654  0.183346  1
  Tm  Tm10  1  0.816654  0.816654  0.183346  1
  Tm  Tm11  1  0.183346  0.183346  0.816654  1
  Th  Th12  1  0.599175  0.599175  0.599175  1
  Th  Th13  1  0.599175  0.599175  0.202474  1
  Th  Th14  1  0.599175  0.202474  0.599175  1
  Th  Th15  1  0.202474  0.599175  0.599175  1
  Mg  Mg16  1  0.831149  0.831149  0.831149  1
  Mg  Mg17  1  0.831149  0.831149  0.506552  1
  Mg  Mg18  1  0.831149  0.506552  0.831149  1
  Mg  Mg19  1  0.506552  0.831149  0.831149  1
  Ir  Ir20  1  0.392569  0.392569  0.392569  1
  Ir  Ir21  1  0.392569  0.392569  0.822292  1
  Ir  Ir22  1  0.392569  0.822292  0.392569  1
  Ir  Ir23  1  0.822292  0.392569  0.392569  1
