# generated using pymatgen
data_Hf6Al16CoNi5Rh
_symmetry_space_group_name_H-M   'P 1'
_cell_length_a   8.55188915
_cell_length_b   8.54832519
_cell_length_c   8.54832529
_cell_angle_alpha   59.92150133
_cell_angle_beta   59.98620295
_cell_angle_gamma   59.98620359
_symmetry_Int_Tables_number   1
_chemical_formula_structural   Hf6Al16CoNi5Rh
_chemical_formula_sum   'Hf6 Al16 Co1 Ni5 Rh1'
_cell_volume   441.53012475
_cell_formula_units_Z   1
loop_
 _symmetry_equiv_pos_site_id
 _symmetry_equiv_pos_as_xyz
  1  'x, y, z'
loop_
 _atom_site_type_symbol
 _atom_site_label
 _atom_site_symmetry_multiplicity
 _atom_site_fract_x
 _atom_site_fract_y
 _atom_site_fract_z
 _atom_site_occupancy
  Hf  Hf0  1  0.687358  0.686921  0.313079  1
  Hf  Hf1  1  0.312642  0.686921  0.313079  1
  Hf  Hf2  1  0.690546  0.309454  0.309454  1
  Hf  Hf3  1  0.312642  0.313079  0.686921  1
  Hf  Hf4  1  0.687358  0.313079  0.686921  1
  Hf  Hf5  1  0.309454  0.690546  0.690546  1
  Al  Al6  1  0.881495  0.874919  0.362091  1
  Al  Al7  1  0.881495  0.362091  0.874919  1
  Al  Al8  1  0.361423  0.879288  0.879288  1
  Al  Al9  1  0.880000  0.879288  0.879288  1
  Al  Al10  1  0.118505  0.125081  0.637909  1
  Al  Al11  1  0.118505  0.637909  0.125081  1
  Al  Al12  1  0.638577  0.120712  0.120712  1
  Al  Al13  1  0.120000  0.120712  0.120712  1
  Al  Al14  1  0.665706  0.664362  0.004225  1
  Al  Al15  1  0.665706  0.004225  0.664362  1
  Al  Al16  1  0.005356  0.663997  0.663997  1
  Al  Al17  1  0.666649  0.663997  0.663997  1
  Al  Al18  1  0.334294  0.335638  0.995775  1
  Al  Al19  1  0.334294  0.995775  0.335638  1
  Al  Al20  1  0.994644  0.336003  0.336003  1
  Al  Al21  1  0.333351  0.336003  0.336003  1
  Co  Co22  1  0.000000  0.500000  0.500000  1
  Ni  Ni23  1  0.000000  0.000000  0.500000  1
  Ni  Ni24  1  0.500000  0.000000  0.500000  1
  Ni  Ni25  1  0.500000  0.500000  0.000000  1
  Ni  Ni26  1  0.000000  0.500000  0.000000  1
  Ni  Ni27  1  0.500000  0.000000  0.000000  1
  Rh  Rh28  1  0.000000  0.000000  0.000000  1
