# generated using pymatgen
data_Th14Re3NiIr2
_symmetry_space_group_name_H-M   'P 1'
_cell_length_a   10.10400715
_cell_length_b   9.96563422
_cell_length_c   6.31884427
_cell_angle_alpha   90.12866635
_cell_angle_beta   89.68655076
_cell_angle_gamma   120.03618313
_symmetry_Int_Tables_number   1
_chemical_formula_structural   Th14Re3NiIr2
_chemical_formula_sum   'Th14 Re3 Ni1 Ir2'
_cell_volume   550.81003117
_cell_formula_units_Z   1
loop_
 _symmetry_equiv_pos_site_id
 _symmetry_equiv_pos_as_xyz
  1  'x, y, z'
loop_
 _atom_site_type_symbol
 _atom_site_label
 _atom_site_symmetry_multiplicity
 _atom_site_fract_x
 _atom_site_fract_y
 _atom_site_fract_z
 _atom_site_occupancy
  Th  Th0  1  0.454846  0.534387  0.295840  1
  Th  Th1  1  0.075306  0.532561  0.291742  1
  Th  Th2  1  0.915945  0.461024  0.795853  1
  Th  Th3  1  0.260099  0.128619  0.503508  1
  Th  Th4  1  0.544159  0.083963  0.798242  1
  Th  Th5  1  0.747564  0.874611  0.007222  1
  Th  Th6  1  0.666721  0.336142  0.287145  1
  Th  Th7  1  0.128002  0.872145  0.003354  1
  Th  Th8  1  0.461539  0.921735  0.295819  1
  Th  Th9  1  0.549159  0.469099  0.797221  1
  Th  Th10  1  0.869539  0.122037  0.505503  1
  Th  Th11  1  0.124642  0.246687  0.002913  1
  Th  Th12  1  0.873499  0.750438  0.497626  1
  Th  Th13  1  0.333421  0.665621  0.789133  1
  Re  Re14  1  0.819502  0.195954  0.054376  1
  Re  Re15  1  0.622685  0.805437  0.553303  1
  Re  Re16  1  0.374029  0.191191  0.047234  1
  Ni  Ni17  1  0.816722  0.629603  0.054849  1
  Ir  Ir18  1  0.181122  0.372697  0.554098  1
  Ir  Ir19  1  0.181497  0.806050  0.549019  1
