# generated using pymatgen
data_CeYCdPt2
_symmetry_space_group_name_H-M   'P 1'
_cell_length_a   7.78478900
_cell_length_b   7.84452100
_cell_length_c   3.73834900
_cell_angle_alpha   90.00000000
_cell_angle_beta   90.00000000
_cell_angle_gamma   90.00000000
_symmetry_Int_Tables_number   1
_chemical_formula_structural   CeYCdPt2
_chemical_formula_sum   'Ce2 Y2 Cd2 Pt4'
_cell_volume   228.29327539
_cell_formula_units_Z   2
loop_
 _symmetry_equiv_pos_site_id
 _symmetry_equiv_pos_as_xyz
  1  'x, y, z'
loop_
 _atom_site_type_symbol
 _atom_site_label
 _atom_site_symmetry_multiplicity
 _atom_site_fract_x
 _atom_site_fract_y
 _atom_site_fract_z
 _atom_site_occupancy
  Ce  Ce0  1  0.833270  0.669408  0.500000  1
  Ce  Ce1  1  0.666730  0.169408  0.500000  1
  Y  Y2  1  0.169868  0.330807  0.500000  1
  Y  Y3  1  0.330132  0.830807  0.500000  1
  Cd  Cd4  1  0.495998  0.501856  0.000000  1
  Cd  Cd5  1  0.004002  0.001856  0.000000  1
  Pt  Pt6  1  0.637032  0.867406  0.000000  1
  Pt  Pt7  1  0.126127  0.630523  0.000000  1
  Pt  Pt8  1  0.862968  0.367406  0.000000  1
  Pt  Pt9  1  0.373873  0.130523  0.000000  1
