# generated using pymatgen
data_La2GaSiPd4
_symmetry_space_group_name_H-M   'P 1'
_cell_length_a   5.85693500
_cell_length_b   7.01264200
_cell_length_c   7.73607400
_cell_angle_alpha   90.00000000
_cell_angle_beta   90.00000000
_cell_angle_gamma   90.00000000
_symmetry_Int_Tables_number   1
_chemical_formula_structural   La2GaSiPd4
_chemical_formula_sum   'La4 Ga2 Si2 Pd8'
_cell_volume   317.74058302
_cell_formula_units_Z   2
loop_
 _symmetry_equiv_pos_site_id
 _symmetry_equiv_pos_as_xyz
  1  'x, y, z'
loop_
 _atom_site_type_symbol
 _atom_site_label
 _atom_site_symmetry_multiplicity
 _atom_site_fract_x
 _atom_site_fract_y
 _atom_site_fract_z
 _atom_site_occupancy
  La  La0  1  0.348142  0.750000  0.032364  1
  La  La1  1  0.151858  0.750000  0.532364  1
  La  La2  1  0.650151  0.250000  0.967578  1
  La  La3  1  0.849849  0.250000  0.467578  1
  Ga  Ga4  1  0.347661  0.250000  0.626223  1
  Ga  Ga5  1  0.152339  0.250000  0.126223  1
  Si  Si6  1  0.653258  0.750000  0.377389  1
  Si  Si7  1  0.846742  0.750000  0.877389  1
  Pd  Pd8  1  0.893758  0.555369  0.171659  1
  Pd  Pd9  1  0.606242  0.944631  0.671659  1
  Pd  Pd10  1  0.077003  0.049305  0.826563  1
  Pd  Pd11  1  0.422997  0.450695  0.326563  1
  Pd  Pd12  1  0.077003  0.450695  0.826563  1
  Pd  Pd13  1  0.422997  0.049305  0.326563  1
  Pd  Pd14  1  0.893758  0.944631  0.171659  1
  Pd  Pd15  1  0.606242  0.555369  0.671659  1
