# generated using pymatgen
data_Y16Lu4Ir11Ru
_symmetry_space_group_name_H-M   'P 1'
_cell_length_a   10.87885900
_cell_length_b   10.87885900
_cell_length_c   6.37186800
_cell_angle_alpha   90.00000000
_cell_angle_beta   90.00000000
_cell_angle_gamma   90.00000000
_symmetry_Int_Tables_number   1
_chemical_formula_structural   Y16Lu4Ir11Ru
_chemical_formula_sum   'Y16 Lu4 Ir11 Ru1'
_cell_volume   754.10785792
_cell_formula_units_Z   1
loop_
 _symmetry_equiv_pos_site_id
 _symmetry_equiv_pos_as_xyz
  1  'x, y, z'
loop_
 _atom_site_type_symbol
 _atom_site_label
 _atom_site_symmetry_multiplicity
 _atom_site_fract_x
 _atom_site_fract_y
 _atom_site_fract_z
 _atom_site_occupancy
  Y  Y0  1  0.291146  0.087329  0.377762  1
  Y  Y1  1  0.291289  0.912680  0.879344  1
  Y  Y2  1  0.708711  0.087320  0.879344  1
  Y  Y3  1  0.708854  0.912671  0.377762  1
  Y  Y4  1  0.587320  0.791289  0.879344  1
  Y  Y5  1  0.587329  0.208854  0.377762  1
  Y  Y6  1  0.412671  0.791146  0.377762  1
  Y  Y7  1  0.412680  0.208711  0.879344  1
  Y  Y8  1  0.209791  0.412158  0.621352  1
  Y  Y9  1  0.209789  0.587838  0.121218  1
  Y  Y10  1  0.790211  0.412162  0.121218  1
  Y  Y11  1  0.790209  0.587842  0.621352  1
  Y  Y12  1  0.912162  0.709789  0.121218  1
  Y  Y13  1  0.912158  0.290209  0.621352  1
  Y  Y14  1  0.087842  0.709791  0.621352  1
  Y  Y15  1  0.087838  0.290211  0.121218  1
  Lu  Lu16  1  0.000000  0.000000  0.499791  1
  Lu  Lu17  1  0.000000  0.000000  0.000069  1
  Lu  Lu18  1  0.500000  0.500000  0.000069  1
  Lu  Lu19  1  0.500000  0.500000  0.499791  1
  Ir  Ir20  1  0.849831  0.150651  0.250052  1
  Ir  Ir21  1  0.849873  0.849512  0.749970  1
  Ir  Ir22  1  0.150127  0.150488  0.749970  1
  Ir  Ir23  1  0.150169  0.849349  0.250052  1
  Ir  Ir24  1  0.650488  0.349873  0.749970  1
  Ir  Ir25  1  0.650651  0.650169  0.250052  1
  Ir  Ir26  1  0.349349  0.349831  0.250052  1
  Ir  Ir27  1  0.349512  0.650127  0.749970  1
  Ir  Ir28  1  0.500000  0.000000  0.624470  1
  Ir  Ir29  1  0.000000  0.500000  0.876072  1
  Ir  Ir30  1  0.000000  0.500000  0.376055  1
  Ru  Ru31  1  0.500000  0.000000  0.124892  1
