# generated using pymatgen
data_Dy2Y6Cu3Si12Rh
_symmetry_space_group_name_H-M   'P 1'
_cell_length_a   8.04354600
_cell_length_b   8.04533552
_cell_length_c   8.13659004
_cell_angle_alpha   89.98995996
_cell_angle_beta   90.00000000
_cell_angle_gamma   119.99263413
_symmetry_Int_Tables_number   1
_chemical_formula_structural   Dy2Y6Cu3Si12Rh
_chemical_formula_sum   'Dy2 Y6 Cu3 Si12 Rh1'
_cell_volume   456.03376377
_cell_formula_units_Z   1
loop_
 _symmetry_equiv_pos_site_id
 _symmetry_equiv_pos_as_xyz
  1  'x, y, z'
loop_
 _atom_site_type_symbol
 _atom_site_label
 _atom_site_symmetry_multiplicity
 _atom_site_fract_x
 _atom_site_fract_y
 _atom_site_fract_z
 _atom_site_occupancy
  Dy  Dy0  1  0.500751  0.499255  0.748290  1
  Dy  Dy1  1  0.998504  0.499255  0.748290  1
  Y  Y2  1  0.000014  0.000028  0.250203  1
  Y  Y3  1  0.999992  0.999984  0.749887  1
  Y  Y4  1  0.999151  0.499591  0.251570  1
  Y  Y5  1  0.500441  0.499591  0.251570  1
  Y  Y6  1  0.500489  0.000979  0.748538  1
  Y  Y7  1  0.500434  0.000867  0.251567  1
  Cu  Cu8  1  0.333225  0.666451  0.998778  1
  Cu  Cu9  1  0.333447  0.666895  0.501052  1
  Cu  Cu10  1  0.666722  0.333443  0.999140  1
  Si  Si11  1  0.169106  0.338211  0.999310  1
  Si  Si12  1  0.661740  0.830633  0.999805  1
  Si  Si13  1  0.168144  0.336287  0.500777  1
  Si  Si14  1  0.337798  0.168877  0.999876  1
  Si  Si15  1  0.168894  0.830633  0.999805  1
  Si  Si16  1  0.664113  0.832128  0.500373  1
  Si  Si17  1  0.830767  0.661535  0.999438  1
  Si  Si18  1  0.336044  0.168184  0.500071  1
  Si  Si19  1  0.168016  0.832128  0.500373  1
  Si  Si20  1  0.832122  0.664245  0.500384  1
  Si  Si21  1  0.831078  0.168877  0.999876  1
  Si  Si22  1  0.832140  0.168184  0.500071  1
  Rh  Rh23  1  0.666869  0.333737  0.500952  1
