# generated using pymatgen
data_CaPrGaIr2
_symmetry_space_group_name_H-M   'P 1'
_cell_length_a   5.73347583
_cell_length_b   5.73347591
_cell_length_c   5.73347605
_cell_angle_alpha   137.83910778
_cell_angle_beta   118.77787206
_cell_angle_gamma   77.13361777
_symmetry_Int_Tables_number   1
_chemical_formula_structural   CaPrGaIr2
_chemical_formula_sum   'Ca1 Pr1 Ga1 Ir2'
_cell_volume   107.96035053
_cell_formula_units_Z   1
loop_
 _symmetry_equiv_pos_site_id
 _symmetry_equiv_pos_as_xyz
  1  'x, y, z'
loop_
 _atom_site_type_symbol
 _atom_site_label
 _atom_site_symmetry_multiplicity
 _atom_site_fract_x
 _atom_site_fract_y
 _atom_site_fract_z
 _atom_site_occupancy
  Ca  Ca0  1  0.295933  0.795933  0.500000  1
  Pr  Pr1  1  0.699894  0.199895  0.500000  1
  Ga  Ga2  1  0.001815  0.001815  0.000000  1
  Ir  Ir3  1  0.733546  0.501178  0.232369  1
  Ir  Ir4  1  0.268810  0.501178  0.767631  1
