# generated using pymatgen
data_Nd5Ho2Sc3(In2Pt)4
_symmetry_space_group_name_H-M   'P 1'
_cell_length_a   3.65075900
_cell_length_b   8.21517228
_cell_length_c   18.08564973
_cell_angle_alpha   89.46971451
_cell_angle_beta   90.00000000
_cell_angle_gamma   90.00000000
_symmetry_Int_Tables_number   1
_chemical_formula_structural   Nd5Ho2Sc3(In2Pt)4
_chemical_formula_sum   'Nd5 Ho2 Sc3 In8 Pt4'
_cell_volume   542.39459710
_cell_formula_units_Z   1
loop_
 _symmetry_equiv_pos_site_id
 _symmetry_equiv_pos_as_xyz
  1  'x, y, z'
loop_
 _atom_site_type_symbol
 _atom_site_label
 _atom_site_symmetry_multiplicity
 _atom_site_fract_x
 _atom_site_fract_y
 _atom_site_fract_z
 _atom_site_occupancy
  Nd  Nd0  1  0.000000  0.767026  0.786147  1
  Nd  Nd1  1  0.000000  0.268611  0.708072  1
  Nd  Nd2  1  0.000000  0.734342  0.291384  1
  Nd  Nd3  1  0.000000  0.995682  0.997230  1
  Nd  Nd4  1  0.000000  0.501414  0.500416  1
  Ho  Ho5  1  0.000000  0.617481  0.088208  1
  Ho  Ho6  1  0.000000  0.239364  0.216839  1
  Sc  Sc7  1  0.000000  0.116306  0.411894  1
  Sc  Sc8  1  0.000000  0.884609  0.587407  1
  Sc  Sc9  1  0.000000  0.380070  0.910510  1
  In  In10  1  0.500000  0.397858  0.351371  1
  In  In11  1  0.500000  0.600579  0.650546  1
  In  In12  1  0.500000  0.098963  0.845723  1
  In  In13  1  0.500000  0.919553  0.154820  1
  In  In14  1  0.500000  0.302309  0.058876  1
  In  In15  1  0.500000  0.680514  0.938723  1
  In  In16  1  0.500000  0.179304  0.553163  1
  In  In17  1  0.500000  0.822526  0.446430  1
  Pt  Pt18  1  0.500000  0.034218  0.308770  1
  Pt  Pt19  1  0.500000  0.972896  0.689030  1
  Pt  Pt20  1  0.500000  0.468231  0.807358  1
  Pt  Pt21  1  0.500000  0.518145  0.197080  1
