# generated using pymatgen
data_YTm3ReSi4Rh
_symmetry_space_group_name_H-M   'P 1'
_cell_length_a   5.67635081
_cell_length_b   5.67634959
_cell_length_c   9.98513380
_cell_angle_alpha   63.62210137
_cell_angle_beta   63.62210533
_cell_angle_gamma   43.61121383
_symmetry_Int_Tables_number   1
_chemical_formula_structural   YTm3ReSi4Rh
_chemical_formula_sum   'Y1 Tm3 Re1 Si4 Rh1'
_cell_volume   194.85931556
_cell_formula_units_Z   1
loop_
 _symmetry_equiv_pos_site_id
 _symmetry_equiv_pos_as_xyz
  1  'x, y, z'
loop_
 _atom_site_type_symbol
 _atom_site_label
 _atom_site_symmetry_multiplicity
 _atom_site_fract_x
 _atom_site_fract_y
 _atom_site_fract_z
 _atom_site_occupancy
  Y  Y0  1  0.812287  0.812287  0.108751  1
  Tm  Tm1  1  0.006681  0.006681  0.321895  1
  Tm  Tm2  1  0.183820  0.183820  0.889406  1
  Tm  Tm3  1  0.996031  0.996031  0.677752  1
  Re  Re4  1  0.728965  0.728965  0.627330  1
  Si  Si5  1  0.358078  0.358078  0.561975  1
  Si  Si6  1  0.494935  0.494935  0.877234  1
  Si  Si7  1  0.639588  0.639588  0.439109  1
  Si  Si8  1  0.508961  0.508961  0.122623  1
  Rh  Rh9  1  0.270656  0.270656  0.373925  1
