# generated using pymatgen
data_CePaCo12P7
_symmetry_space_group_name_H-M   'P 1'
_cell_length_a   9.02430700
_cell_length_b   9.02430715
_cell_length_c   3.60870400
_cell_angle_alpha   90.00000000
_cell_angle_beta   90.00000000
_cell_angle_gamma   119.99999676
_symmetry_Int_Tables_number   1
_chemical_formula_structural   CePaCo12P7
_chemical_formula_sum   'Ce1 Pa1 Co12 P7'
_cell_volume   254.51280459
_cell_formula_units_Z   1
loop_
 _symmetry_equiv_pos_site_id
 _symmetry_equiv_pos_as_xyz
  1  'x, y, z'
loop_
 _atom_site_type_symbol
 _atom_site_label
 _atom_site_symmetry_multiplicity
 _atom_site_fract_x
 _atom_site_fract_y
 _atom_site_fract_z
 _atom_site_occupancy
  Ce  Ce0  1  0.666667  0.333333  0.500000  1
  Pa  Pa1  1  0.333333  0.666667  0.000000  1
  Co  Co2  1  0.377918  0.439345  0.500000  1
  Co  Co3  1  0.152097  0.272779  0.000000  1
  Co  Co4  1  0.120683  0.847903  0.000000  1
  Co  Co5  1  0.727221  0.879317  0.000000  1
  Co  Co6  1  0.873144  0.766619  0.500000  1
  Co  Co7  1  0.893475  0.126856  0.500000  1
  Co  Co8  1  0.061428  0.622082  0.500000  1
  Co  Co9  1  0.939527  0.377250  0.000000  1
  Co  Co10  1  0.233381  0.106525  0.500000  1
  Co  Co11  1  0.560655  0.938572  0.500000  1
  Co  Co12  1  0.622750  0.562279  0.000000  1
  Co  Co13  1  0.437721  0.060473  0.000000  1
  P  P14  1  0.603728  0.707257  0.500000  1
  P  P15  1  0.103527  0.396272  0.500000  1
  P  P16  1  0.890436  0.599497  0.000000  1
  P  P17  1  0.292743  0.896473  0.500000  1
  P  P18  1  0.000000  0.000000  0.000000  1
  P  P19  1  0.709060  0.109564  0.000000  1
  P  P20  1  0.400503  0.290940  0.000000  1
