# generated using pymatgen
data_Mg3Ni(AsO2)8
_symmetry_space_group_name_H-M   'P 1'
_cell_length_a   8.41053352
_cell_length_b   8.41053352
_cell_length_c   5.80167500
_cell_angle_alpha   90.00000000
_cell_angle_beta   90.00000000
_cell_angle_gamma   90.13132916
_symmetry_Int_Tables_number   1
_chemical_formula_structural   Mg3Ni(AsO2)8
_chemical_formula_sum   'Mg3 Ni1 As8 O16'
_cell_volume   410.39243659
_cell_formula_units_Z   1
loop_
 _symmetry_equiv_pos_site_id
 _symmetry_equiv_pos_as_xyz
  1  'x, y, z'
loop_
 _atom_site_type_symbol
 _atom_site_label
 _atom_site_symmetry_multiplicity
 _atom_site_fract_x
 _atom_site_fract_y
 _atom_site_fract_z
 _atom_site_occupancy
  Mg  Mg0  1  0.500000  0.000000  0.250000  1
  Mg  Mg1  1  0.000000  0.500000  0.750000  1
  Mg  Mg2  1  0.500000  0.000000  0.750000  1
  Ni  Ni3  1  0.000000  0.500000  0.250000  1
  As  As4  1  0.171240  0.187856  0.000688  1
  As  As5  1  0.187058  0.827902  0.500246  1
  As  As6  1  0.828760  0.812144  0.000688  1
  As  As7  1  0.812942  0.172098  0.500246  1
  As  As8  1  0.327902  0.687058  0.999754  1
  As  As9  1  0.672098  0.312942  0.999754  1
  As  As10  1  0.687856  0.671240  0.499312  1
  As  As11  1  0.312144  0.328760  0.499312  1
  O  O12  1  0.316653  0.183347  0.250000  1
  O  O13  1  0.183035  0.683035  0.750000  1
  O  O14  1  0.683347  0.816653  0.250000  1
  O  O15  1  0.816965  0.316965  0.750000  1
  O  O16  1  0.683931  0.816069  0.750000  1
  O  O17  1  0.817203  0.317203  0.250000  1
  O  O18  1  0.316069  0.183931  0.750000  1
  O  O19  1  0.182797  0.682797  0.250000  1
  O  O20  1  0.632114  0.107763  0.000040  1
  O  O21  1  0.106821  0.366843  0.500477  1
  O  O22  1  0.367886  0.892237  0.000040  1
  O  O23  1  0.893179  0.633157  0.500477  1
  O  O24  1  0.866843  0.606821  0.999523  1
  O  O25  1  0.133157  0.393179  0.999523  1
  O  O26  1  0.607763  0.132114  0.499960  1
  O  O27  1  0.392237  0.867886  0.499960  1
