# generated using pymatgen
data_SrCa3(H6Pd)2
_symmetry_space_group_name_H-M   'P 1'
_cell_length_a   7.25328197
_cell_length_b   7.25328214
_cell_length_c   5.30924803
_cell_angle_alpha   89.99056809
_cell_angle_beta   89.99057282
_cell_angle_gamma   137.00364308
_symmetry_Int_Tables_number   1
_chemical_formula_structural   SrCa3(H6Pd)2
_chemical_formula_sum   'Sr1 Ca3 H12 Pd2'
_cell_volume   190.48282300
_cell_formula_units_Z   1
loop_
 _symmetry_equiv_pos_site_id
 _symmetry_equiv_pos_as_xyz
  1  'x, y, z'
loop_
 _atom_site_type_symbol
 _atom_site_label
 _atom_site_symmetry_multiplicity
 _atom_site_fract_x
 _atom_site_fract_y
 _atom_site_fract_z
 _atom_site_occupancy
  Sr  Sr0  1  0.148751  0.851249  0.500000  1
  Ca  Ca1  1  0.654974  0.345026  0.000000  1
  Ca  Ca2  1  0.350541  0.649459  0.000000  1
  Ca  Ca3  1  0.849331  0.150669  0.500000  1
  H  H4  1  0.874786  0.125214  0.000000  1
  H  H5  1  0.123915  0.876085  0.000000  1
  H  H6  1  0.623107  0.376893  0.500000  1
  H  H7  1  0.373316  0.626684  0.500000  1
  H  H8  1  0.998478  0.489965  0.243286  1
  H  H9  1  0.996600  0.488026  0.757176  1
  H  H10  1  0.510035  0.001522  0.756714  1
  H  H11  1  0.511974  0.003400  0.242824  1
  H  H12  1  0.230721  0.237267  0.235725  1
  H  H13  1  0.762733  0.769279  0.764275  1
  H  H14  1  0.266929  0.272583  0.740973  1
  H  H15  1  0.727417  0.733071  0.259027  1
  Pd  Pd16  1  0.998697  0.001303  0.000000  1
  Pd  Pd17  1  0.497694  0.502306  0.500000  1
