# generated using pymatgen
data_Ca(La4Ir3)2
_symmetry_space_group_name_H-M   'P 1'
_cell_length_a   7.78622468
_cell_length_b   7.78622493
_cell_length_c   7.78622504
_cell_angle_alpha   69.89473894
_cell_angle_beta   69.89474222
_cell_angle_gamma   69.89473524
_symmetry_Int_Tables_number   1
_chemical_formula_structural   Ca(La4Ir3)2
_chemical_formula_sum   'Ca1 La8 Ir6'
_cell_volume   402.41455780
_cell_formula_units_Z   1
loop_
 _symmetry_equiv_pos_site_id
 _symmetry_equiv_pos_as_xyz
  1  'x, y, z'
loop_
 _atom_site_type_symbol
 _atom_site_label
 _atom_site_symmetry_multiplicity
 _atom_site_fract_x
 _atom_site_fract_y
 _atom_site_fract_z
 _atom_site_occupancy
  Ca  Ca0  1  0.000000  0.000000  0.000000  1
  La  La1  1  0.803459  0.803459  0.803459  1
  La  La2  1  0.196541  0.196541  0.196541  1
  La  La3  1  0.149359  0.387343  0.676649  1
  La  La4  1  0.676649  0.149359  0.387343  1
  La  La5  1  0.387343  0.676649  0.149359  1
  La  La6  1  0.850641  0.612657  0.323351  1
  La  La7  1  0.323351  0.850641  0.612657  1
  La  La8  1  0.612657  0.323351  0.850641  1
  Ir  Ir9  1  0.952044  0.179538  0.579831  1
  Ir  Ir10  1  0.579831  0.952044  0.179538  1
  Ir  Ir11  1  0.179538  0.579831  0.952044  1
  Ir  Ir12  1  0.047956  0.820462  0.420169  1
  Ir  Ir13  1  0.420169  0.047956  0.820462  1
  Ir  Ir14  1  0.820462  0.420169  0.047956  1
