# generated using pymatgen
data_Pu4VFe3B16
_symmetry_space_group_name_H-M   'P 1'
_cell_length_a   3.38773700
_cell_length_b   5.94043426
_cell_length_c   11.51026171
_cell_angle_alpha   89.96284550
_cell_angle_beta   90.00000000
_cell_angle_gamma   90.00000000
_symmetry_Int_Tables_number   1
_chemical_formula_structural   Pu4VFe3B16
_chemical_formula_sum   'Pu4 V1 Fe3 B16'
_cell_volume   231.63969718
_cell_formula_units_Z   1
loop_
 _symmetry_equiv_pos_site_id
 _symmetry_equiv_pos_as_xyz
  1  'x, y, z'
loop_
 _atom_site_type_symbol
 _atom_site_label
 _atom_site_symmetry_multiplicity
 _atom_site_fract_x
 _atom_site_fract_y
 _atom_site_fract_z
 _atom_site_occupancy
  Pu  Pu0  1  0.000000  0.624430  0.346781  1
  Pu  Pu1  1  0.000000  0.374337  0.652229  1
  Pu  Pu2  1  0.000000  0.126205  0.149038  1
  Pu  Pu3  1  0.000000  0.874376  0.852560  1
  V  V4  1  0.000000  0.872718  0.584850  1
  Fe  Fe5  1  0.000000  0.631423  0.087482  1
  Fe  Fe6  1  0.000000  0.369211  0.913751  1
  Fe  Fe7  1  0.000000  0.126700  0.414935  1
  B  B8  1  0.500000  0.780207  0.183412  1
  B  B9  1  0.500000  0.220427  0.816682  1
  B  B10  1  0.500000  0.279436  0.315311  1
  B  B11  1  0.500000  0.715073  0.687788  1
  B  B12  1  0.500000  0.861209  0.032964  1
  B  B13  1  0.500000  0.139079  0.966975  1
  B  B14  1  0.500000  0.362854  0.465662  1
  B  B15  1  0.500000  0.634706  0.531700  1
  B  B16  1  0.500000  0.888724  0.451716  1
  B  B17  1  0.500000  0.116534  0.544648  1
  B  B18  1  0.500000  0.387368  0.045982  1
  B  B19  1  0.500000  0.612048  0.954399  1
  B  B20  1  0.500000  0.975407  0.308189  1
  B  B21  1  0.500000  0.028476  0.692517  1
  B  B22  1  0.500000  0.474918  0.189670  1
  B  B23  1  0.500000  0.524132  0.810757  1
