# generated using pymatgen
data_Nd6Dy3HoPb6
_symmetry_space_group_name_H-M   'P 1'
_cell_length_a   9.27647900
_cell_length_b   9.27647971
_cell_length_c   6.78176700
_cell_angle_alpha   90.00000000
_cell_angle_beta   90.00000000
_cell_angle_gamma   120.00000104
_symmetry_Int_Tables_number   1
_chemical_formula_structural   Nd6Dy3HoPb6
_chemical_formula_sum   'Nd6 Dy3 Ho1 Pb6'
_cell_volume   505.40537518
_cell_formula_units_Z   1
loop_
 _symmetry_equiv_pos_site_id
 _symmetry_equiv_pos_as_xyz
  1  'x, y, z'
loop_
 _atom_site_type_symbol
 _atom_site_label
 _atom_site_symmetry_multiplicity
 _atom_site_fract_x
 _atom_site_fract_y
 _atom_site_fract_z
 _atom_site_occupancy
  Nd  Nd0  1  0.239331  0.000276  0.250203  1
  Nd  Nd1  1  0.239331  0.239054  0.749797  1
  Nd  Nd2  1  0.999724  0.760669  0.749797  1
  Nd  Nd3  1  0.999724  0.239054  0.250203  1
  Nd  Nd4  1  0.760946  0.760669  0.250203  1
  Nd  Nd5  1  0.760946  0.000276  0.749797  1
  Dy  Dy6  1  0.333333  0.666667  0.000000  1
  Dy  Dy7  1  0.666667  0.333333  0.500000  1
  Dy  Dy8  1  0.666667  0.333333  0.000000  1
  Ho  Ho9  1  0.333333  0.666667  0.500000  1
  Pb  Pb10  1  0.601775  0.998722  0.251493  1
  Pb  Pb11  1  0.601775  0.603051  0.748507  1
  Pb  Pb12  1  0.001278  0.398225  0.748507  1
  Pb  Pb13  1  0.001278  0.603051  0.251493  1
  Pb  Pb14  1  0.396949  0.398225  0.251493  1
  Pb  Pb15  1  0.396949  0.998722  0.748507  1
