# generated using pymatgen
data_Er4Mg3ZrIr4
_symmetry_space_group_name_H-M   'P 1'
_cell_length_a   4.17578400
_cell_length_b   7.07407565
_cell_length_c   8.51327408
_cell_angle_alpha   88.40666299
_cell_angle_beta   90.00000000
_cell_angle_gamma   90.00000000
_symmetry_Int_Tables_number   1
_chemical_formula_structural   Er4Mg3ZrIr4
_chemical_formula_sum   'Er4 Mg3 Zr1 Ir4'
_cell_volume   251.38328130
_cell_formula_units_Z   1
loop_
 _symmetry_equiv_pos_site_id
 _symmetry_equiv_pos_as_xyz
  1  'x, y, z'
loop_
 _atom_site_type_symbol
 _atom_site_label
 _atom_site_symmetry_multiplicity
 _atom_site_fract_x
 _atom_site_fract_y
 _atom_site_fract_z
 _atom_site_occupancy
  Er  Er0  1  0.250000  0.959104  0.331923  1
  Er  Er1  1  0.250000  0.473007  0.180669  1
  Er  Er2  1  0.750000  0.027377  0.667945  1
  Er  Er3  1  0.750000  0.544382  0.823749  1
  Mg  Mg4  1  0.250000  0.364034  0.560334  1
  Mg  Mg5  1  0.250000  0.855355  0.935239  1
  Mg  Mg6  1  0.750000  0.636331  0.440846  1
  Zr  Zr7  1  0.750000  0.131971  0.058446  1
  Ir  Ir8  1  0.250000  0.251837  0.885060  1
  Ir  Ir9  1  0.250000  0.746673  0.627791  1
  Ir  Ir10  1  0.750000  0.758457  0.125411  1
  Ir  Ir11  1  0.750000  0.251474  0.362587  1
