# generated using pymatgen
data_Dy2Lu8AlSb5
_symmetry_space_group_name_H-M   'P 1'
_cell_length_a   6.25049600
_cell_length_b   8.81718700
_cell_length_c   8.77921269
_cell_angle_alpha   120.19429302
_cell_angle_beta   90.00046910
_cell_angle_gamma   89.99868262
_symmetry_Int_Tables_number   1
_chemical_formula_structural   Dy2Lu8AlSb5
_chemical_formula_sum   'Dy2 Lu8 Al1 Sb5'
_cell_volume   418.19335620
_cell_formula_units_Z   1
loop_
 _symmetry_equiv_pos_site_id
 _symmetry_equiv_pos_as_xyz
  1  'x, y, z'
loop_
 _atom_site_type_symbol
 _atom_site_label
 _atom_site_symmetry_multiplicity
 _atom_site_fract_x
 _atom_site_fract_y
 _atom_site_fract_z
 _atom_site_occupancy
  Dy  Dy0  1  0.249991  0.244621  0.243154  1
  Dy  Dy1  1  0.249971  0.000529  0.756839  1
  Lu  Lu2  1  0.502023  0.338033  0.672971  1
  Lu  Lu3  1  0.502541  0.665600  0.327049  1
  Lu  Lu4  1  0.997468  0.665631  0.327063  1
  Lu  Lu5  1  0.997984  0.338057  0.672985  1
  Lu  Lu6  1  0.750010  0.248451  0.000208  1
  Lu  Lu7  1  0.750020  0.755110  0.766443  1
  Lu  Lu8  1  0.749985  0.989528  0.233738  1
  Lu  Lu9  1  0.249986  0.757001  0.999519  1
  Al  Al10  1  0.750008  0.603350  0.999797  1
  Sb  Sb11  1  0.750021  0.389563  0.390966  1
  Sb  Sb12  1  0.750005  0.998243  0.608416  1
  Sb  Sb13  1  0.249998  0.396276  0.000546  1
  Sb  Sb14  1  0.249995  0.608275  0.607814  1
  Sb  Sb15  1  0.249994  0.001735  0.392494  1
