# generated using pymatgen
data_Tm6Lu14HgBi11
_symmetry_space_group_name_H-M   'P 1'
_cell_length_a   8.11364832
_cell_length_b   9.38087500
_cell_length_c   11.83841549
_cell_angle_alpha   90.00000000
_cell_angle_beta   89.70791125
_cell_angle_gamma   90.00000000
_symmetry_Int_Tables_number   1
_chemical_formula_structural   Tm6Lu14HgBi11
_chemical_formula_sum   'Tm6 Lu14 Hg1 Bi11'
_cell_volume   901.04703884
_cell_formula_units_Z   1
loop_
 _symmetry_equiv_pos_site_id
 _symmetry_equiv_pos_as_xyz
  1  'x, y, z'
loop_
 _atom_site_type_symbol
 _atom_site_label
 _atom_site_symmetry_multiplicity
 _atom_site_fract_x
 _atom_site_fract_y
 _atom_site_fract_z
 _atom_site_occupancy
  Tm  Tm0  1  0.148996  0.750000  0.783085  1
  Tm  Tm1  1  0.853540  0.250000  0.215582  1
  Tm  Tm2  1  0.191902  0.250000  0.779822  1
  Tm  Tm3  1  0.809324  0.750000  0.216852  1
  Tm  Tm4  1  0.312454  0.750000  0.281781  1
  Tm  Tm5  1  0.679925  0.250000  0.712940  1
  Lu  Lu6  1  0.033910  0.250000  0.508347  1
  Lu  Lu7  1  0.978823  0.750000  0.489644  1
  Lu  Lu8  1  0.475952  0.750000  0.010112  1
  Lu  Lu9  1  0.524715  0.250000  0.990125  1
  Lu  Lu10  1  0.355475  0.250000  0.289804  1
  Lu  Lu11  1  0.647526  0.750000  0.717445  1
  Lu  Lu12  1  0.193363  0.066532  0.060730  1
  Lu  Lu13  1  0.806511  0.933348  0.940513  1
  Lu  Lu14  1  0.307265  0.945502  0.559728  1
  Lu  Lu15  1  0.806511  0.566652  0.940513  1
  Lu  Lu16  1  0.687960  0.070512  0.443827  1
  Lu  Lu17  1  0.193363  0.433468  0.060730  1
  Lu  Lu18  1  0.687960  0.429488  0.443827  1
  Lu  Lu19  1  0.307265  0.554498  0.559728  1
  Hg  Hg20  1  0.405806  0.250000  0.540703  1
  Bi  Bi21  1  0.594972  0.750000  0.457866  1
  Bi  Bi22  1  0.095596  0.750000  0.043206  1
  Bi  Bi23  1  0.904927  0.250000  0.954285  1
  Bi  Bi24  1  0.062271  0.002306  0.323601  1
  Bi  Bi25  1  0.935572  0.997029  0.675351  1
  Bi  Bi26  1  0.436110  0.996361  0.825997  1
  Bi  Bi27  1  0.935572  0.502971  0.675351  1
  Bi  Bi28  1  0.564027  0.004057  0.174453  1
  Bi  Bi29  1  0.062271  0.497694  0.323601  1
  Bi  Bi30  1  0.564027  0.495943  0.174453  1
  Bi  Bi31  1  0.436110  0.503639  0.825997  1
