# generated using pymatgen
data_HfZr2ScRu4
_symmetry_space_group_name_H-M   'P 1'
_cell_length_a   6.47491400
_cell_length_b   4.61646700
_cell_length_c   9.23716700
_cell_angle_alpha   90.00000000
_cell_angle_beta   90.00000000
_cell_angle_gamma   90.00000000
_symmetry_Int_Tables_number   1
_chemical_formula_structural   HfZr2ScRu4
_chemical_formula_sum   'Hf2 Zr4 Sc2 Ru8'
_cell_volume   276.11025387
_cell_formula_units_Z   2
loop_
 _symmetry_equiv_pos_site_id
 _symmetry_equiv_pos_as_xyz
  1  'x, y, z'
loop_
 _atom_site_type_symbol
 _atom_site_label
 _atom_site_symmetry_multiplicity
 _atom_site_fract_x
 _atom_site_fract_y
 _atom_site_fract_z
 _atom_site_occupancy
  Hf  Hf0  1  0.249860  0.250000  0.123673  1
  Hf  Hf1  1  0.749861  0.750000  0.376327  1
  Zr  Zr2  1  0.749859  0.250000  0.122686  1
  Zr  Zr3  1  0.249860  0.750000  0.377313  1
  Zr  Zr4  1  0.750138  0.250000  0.627389  1
  Zr  Zr5  1  0.250137  0.750000  0.872610  1
  Sc  Sc6  1  0.250154  0.250000  0.625953  1
  Sc  Sc7  1  0.750153  0.750000  0.874048  1
  Ru  Ru8  1  0.498514  0.750000  0.126497  1
  Ru  Ru9  1  0.001274  0.750000  0.126506  1
  Ru  Ru10  1  0.501273  0.250000  0.373495  1
  Ru  Ru11  1  0.998514  0.250000  0.373503  1
  Ru  Ru12  1  0.998831  0.750000  0.623483  1
  Ru  Ru13  1  0.501370  0.750000  0.623484  1
  Ru  Ru14  1  0.001370  0.250000  0.876517  1
  Ru  Ru15  1  0.498830  0.250000  0.876517  1
