# generated using pymatgen
data_TbThAl3Tc
_symmetry_space_group_name_H-M   'P 1'
_cell_length_a   5.54984400
_cell_length_b   5.54984409
_cell_length_c   9.10573100
_cell_angle_alpha   90.00000000
_cell_angle_beta   90.00000000
_cell_angle_gamma   119.99999944
_symmetry_Int_Tables_number   1
_chemical_formula_structural   TbThAl3Tc
_chemical_formula_sum   'Tb2 Th2 Al6 Tc2'
_cell_volume   242.88853162
_cell_formula_units_Z   2
loop_
 _symmetry_equiv_pos_site_id
 _symmetry_equiv_pos_as_xyz
  1  'x, y, z'
loop_
 _atom_site_type_symbol
 _atom_site_label
 _atom_site_symmetry_multiplicity
 _atom_site_fract_x
 _atom_site_fract_y
 _atom_site_fract_z
 _atom_site_occupancy
  Tb  Tb0  1  0.666667  0.333333  0.443476  1
  Tb  Tb1  1  0.333333  0.666667  0.556524  1
  Th  Th2  1  0.333333  0.666667  0.955417  1
  Th  Th3  1  0.666667  0.333333  0.044583  1
  Al  Al4  1  0.675996  0.837998  0.256264  1
  Al  Al5  1  0.162002  0.837998  0.256264  1
  Al  Al6  1  0.162002  0.324004  0.256264  1
  Al  Al7  1  0.324004  0.162002  0.743736  1
  Al  Al8  1  0.837998  0.162002  0.743736  1
  Al  Al9  1  0.837998  0.675996  0.743736  1
  Tc  Tc10  1  0.000000  0.000000  0.500000  1
  Tc  Tc11  1  0.000000  0.000000  0.000000  1
