# generated using pymatgen
data_CeLu3(ScIr)4
_symmetry_space_group_name_H-M   'P 1'
_cell_length_a   4.24563000
_cell_length_b   7.09653410
_cell_length_c   8.62436895
_cell_angle_alpha   88.89176187
_cell_angle_beta   90.00000000
_cell_angle_gamma   90.00000000
_symmetry_Int_Tables_number   1
_chemical_formula_structural   CeLu3(ScIr)4
_chemical_formula_sum   'Ce1 Lu3 Sc4 Ir4'
_cell_volume   259.79723158
_cell_formula_units_Z   1
loop_
 _symmetry_equiv_pos_site_id
 _symmetry_equiv_pos_as_xyz
  1  'x, y, z'
loop_
 _atom_site_type_symbol
 _atom_site_label
 _atom_site_symmetry_multiplicity
 _atom_site_fract_x
 _atom_site_fract_y
 _atom_site_fract_z
 _atom_site_occupancy
  Ce  Ce0  1  0.750000  0.516655  0.821018  1
  Lu  Lu1  1  0.250000  0.980647  0.331483  1
  Lu  Lu2  1  0.250000  0.481889  0.174819  1
  Lu  Lu3  1  0.750000  0.016232  0.668863  1
  Sc  Sc4  1  0.250000  0.353384  0.560249  1
  Sc  Sc5  1  0.250000  0.868481  0.935344  1
  Sc  Sc6  1  0.750000  0.643852  0.428194  1
  Sc  Sc7  1  0.750000  0.141400  0.071901  1
  Ir  Ir8  1  0.250000  0.250644  0.898339  1
  Ir  Ir9  1  0.250000  0.738800  0.610996  1
  Ir  Ir10  1  0.750000  0.755011  0.105519  1
  Ir  Ir11  1  0.750000  0.253006  0.393275  1
