# generated using pymatgen
data_TbEr7AlPd24
_symmetry_space_group_name_H-M   'P 1'
_cell_length_a   8.32857989
_cell_length_b   8.32856352
_cell_length_c   8.32867728
_cell_angle_alpha   90.00848769
_cell_angle_beta   89.99198763
_cell_angle_gamma   89.99227110
_symmetry_Int_Tables_number   1
_chemical_formula_structural   TbEr7AlPd24
_chemical_formula_sum   'Tb1 Er7 Al1 Pd24'
_cell_volume   577.71957063
_cell_formula_units_Z   1
loop_
 _symmetry_equiv_pos_site_id
 _symmetry_equiv_pos_as_xyz
  1  'x, y, z'
loop_
 _atom_site_type_symbol
 _atom_site_label
 _atom_site_symmetry_multiplicity
 _atom_site_fract_x
 _atom_site_fract_y
 _atom_site_fract_z
 _atom_site_occupancy
  Tb  Tb0  1  0.747380  0.252627  0.252633  1
  Er  Er1  1  0.251494  0.251755  0.251779  1
  Er  Er2  1  0.748197  0.748071  0.748058  1
  Er  Er3  1  0.748297  0.748448  0.251771  1
  Er  Er4  1  0.748307  0.251754  0.748438  1
  Er  Er5  1  0.251868  0.251848  0.748062  1
  Er  Er6  1  0.251868  0.748094  0.251872  1
  Er  Er7  1  0.251883  0.748053  0.748028  1
  Al  Al8  1  0.000100  0.999903  0.999903  1
  Pd  Pd9  1  0.259764  0.499985  0.999851  1
  Pd  Pd10  1  0.740462  0.500461  0.999646  1
  Pd  Pd11  1  0.000365  0.259533  0.500453  1
  Pd  Pd12  1  0.499541  0.259531  0.999639  1
  Pd  Pd13  1  0.000145  0.740253  0.499993  1
  Pd  Pd14  1  0.500021  0.740258  0.999847  1
  Pd  Pd15  1  0.499534  0.999642  0.259534  1
  Pd  Pd16  1  0.259770  0.999854  0.499991  1
  Pd  Pd17  1  0.500022  0.999856  0.740259  1
  Pd  Pd18  1  0.740454  0.999638  0.500456  1
  Pd  Pd19  1  0.000371  0.500462  0.259530  1
  Pd  Pd20  1  0.000146  0.499996  0.740253  1
  Pd  Pd21  1  0.252713  0.500002  0.499996  1
  Pd  Pd22  1  0.747236  0.500769  0.500773  1
  Pd  Pd23  1  0.499229  0.252748  0.500772  1
  Pd  Pd24  1  0.500001  0.747311  0.500000  1
  Pd  Pd25  1  0.499222  0.500761  0.252748  1
  Pd  Pd26  1  0.500008  0.499999  0.747311  1
  Pd  Pd27  1  0.289024  0.999908  0.999910  1
  Pd  Pd28  1  0.711201  0.999403  0.999401  1
  Pd  Pd29  1  0.000594  0.288790  0.999400  1
  Pd  Pd30  1  0.000094  0.710988  0.999910  1
  Pd  Pd31  1  0.000599  0.999400  0.288788  1
  Pd  Pd32  1  0.000091  0.999899  0.710997  1
