# generated using pymatgen
data_La10Nd6MgTc(HgRh)3
_symmetry_space_group_name_H-M   'P 1'
_cell_length_a   10.02748015
_cell_length_b   10.06817144
_cell_length_c   10.06817100
_cell_angle_alpha   59.99999817
_cell_angle_beta   59.86567030
_cell_angle_gamma   59.86566725
_symmetry_Int_Tables_number   1
_chemical_formula_structural   La10Nd6MgTc(HgRh)3
_chemical_formula_sum   'La10 Nd6 Mg1 Tc1 Hg3 Rh3'
_cell_volume   717.28740255
_cell_formula_units_Z   1
loop_
 _symmetry_equiv_pos_site_id
 _symmetry_equiv_pos_as_xyz
  1  'x, y, z'
loop_
 _atom_site_type_symbol
 _atom_site_label
 _atom_site_symmetry_multiplicity
 _atom_site_fract_x
 _atom_site_fract_y
 _atom_site_fract_z
 _atom_site_occupancy
  La  La0  1  0.598154  0.597723  0.597723  1
  La  La1  1  0.596892  0.596208  0.208709  1
  La  La2  1  0.596892  0.208709  0.596208  1
  La  La3  1  0.199369  0.599763  0.599763  1
  La  La4  1  0.062499  0.441147  0.441147  1
  La  La5  1  0.438163  0.060626  0.060626  1
  La  La6  1  0.436568  0.066515  0.438453  1
  La  La7  1  0.056258  0.443095  0.057327  1
  La  La8  1  0.436568  0.438453  0.066515  1
  La  La9  1  0.056258  0.057327  0.443095  1
  Nd  Nd10  1  0.186146  0.814782  0.814782  1
  Nd  Nd11  1  0.809771  0.186983  0.186983  1
  Nd  Nd12  1  0.813285  0.185893  0.814910  1
  Nd  Nd13  1  0.187233  0.811296  0.185430  1
  Nd  Nd14  1  0.813285  0.814910  0.185893  1
  Nd  Nd15  1  0.187233  0.185430  0.811296  1
  Mg  Mg16  1  0.537911  0.820602  0.820602  1
  Tc  Tc17  1  0.386473  0.387737  0.387737  1
  Hg  Hg18  1  0.831335  0.837557  0.837557  1
  Hg  Hg19  1  0.830895  0.837249  0.494322  1
  Hg  Hg20  1  0.830895  0.494322  0.837249  1
  Rh  Rh21  1  0.389827  0.391651  0.830263  1
  Rh  Rh22  1  0.389827  0.830263  0.391651  1
  Rh  Rh23  1  0.828259  0.391763  0.391763  1
