# generated using pymatgen
data_Pr5TcPb2
_symmetry_space_group_name_H-M   'P 1'
_cell_length_a   8.24703100
_cell_length_b   9.41190800
_cell_length_c   12.92758900
_cell_angle_alpha   90.00000000
_cell_angle_beta   90.00000000
_cell_angle_gamma   90.00000000
_symmetry_Int_Tables_number   1
_chemical_formula_structural   Pr5TcPb2
_chemical_formula_sum   'Pr20 Tc4 Pb8'
_cell_volume   1003.44329826
_cell_formula_units_Z   4
loop_
 _symmetry_equiv_pos_site_id
 _symmetry_equiv_pos_as_xyz
  1  'x, y, z'
loop_
 _atom_site_type_symbol
 _atom_site_label
 _atom_site_symmetry_multiplicity
 _atom_site_fract_x
 _atom_site_fract_y
 _atom_site_fract_z
 _atom_site_occupancy
  Pr  Pr0  1  0.650913  0.750000  0.712577  1
  Pr  Pr1  1  0.349087  0.250000  0.287423  1
  Pr  Pr2  1  0.150913  0.250000  0.787423  1
  Pr  Pr3  1  0.849087  0.750000  0.212577  1
  Pr  Pr4  1  0.116739  0.750000  0.806950  1
  Pr  Pr5  1  0.883261  0.250000  0.193050  1
  Pr  Pr6  1  0.616739  0.250000  0.693050  1
  Pr  Pr7  1  0.383261  0.750000  0.306950  1
  Pr  Pr8  1  0.544716  0.750000  0.997894  1
  Pr  Pr9  1  0.455284  0.250000  0.002106  1
  Pr  Pr10  1  0.044716  0.250000  0.502106  1
  Pr  Pr11  1  0.955284  0.750000  0.497894  1
  Pr  Pr12  1  0.823351  0.467539  0.929979  1
  Pr  Pr13  1  0.176649  0.532461  0.070021  1
  Pr  Pr14  1  0.323351  0.532461  0.570021  1
  Pr  Pr15  1  0.176649  0.967539  0.070021  1
  Pr  Pr16  1  0.676649  0.467539  0.429979  1
  Pr  Pr17  1  0.823351  0.032461  0.929979  1
  Pr  Pr18  1  0.676649  0.032461  0.429979  1
  Pr  Pr19  1  0.323351  0.967539  0.570021  1
  Tc  Tc20  1  0.912462  0.750000  0.989496  1
  Tc  Tc21  1  0.087538  0.250000  0.010504  1
  Tc  Tc22  1  0.412462  0.250000  0.510504  1
  Tc  Tc23  1  0.587538  0.750000  0.489496  1
  Pb  Pb24  1  0.924609  0.006091  0.670103  1
  Pb  Pb25  1  0.075391  0.993909  0.329897  1
  Pb  Pb26  1  0.424609  0.993909  0.829897  1
  Pb  Pb27  1  0.075391  0.506091  0.329897  1
  Pb  Pb28  1  0.575391  0.006091  0.170103  1
  Pb  Pb29  1  0.924609  0.493909  0.670103  1
  Pb  Pb30  1  0.575391  0.493909  0.170103  1
  Pb  Pb31  1  0.424609  0.506091  0.829897  1
