# generated using pymatgen
data_AcY6Sn23Rh6
_symmetry_space_group_name_H-M   'P 1'
_cell_length_a   9.89070500
_cell_length_b   9.89070680
_cell_length_c   10.12590700
_cell_angle_alpha   90.00000000
_cell_angle_beta   90.00000000
_cell_angle_gamma   120.00000402
_symmetry_Int_Tables_number   1
_chemical_formula_structural   AcY6Sn23Rh6
_chemical_formula_sum   'Ac1 Y6 Sn23 Rh6'
_cell_volume   857.86534666
_cell_formula_units_Z   1
loop_
 _symmetry_equiv_pos_site_id
 _symmetry_equiv_pos_as_xyz
  1  'x, y, z'
loop_
 _atom_site_type_symbol
 _atom_site_label
 _atom_site_symmetry_multiplicity
 _atom_site_fract_x
 _atom_site_fract_y
 _atom_site_fract_z
 _atom_site_occupancy
  Ac  Ac0  1  0.000000  0.000000  0.000000  1
  Y  Y1  1  0.042710  0.521356  0.307862  1
  Y  Y2  1  0.478644  0.957290  0.307862  1
  Y  Y3  1  0.478644  0.521356  0.307862  1
  Y  Y4  1  0.957290  0.478644  0.692138  1
  Y  Y5  1  0.521356  0.042710  0.692138  1
  Y  Y6  1  0.521356  0.478644  0.692138  1
  Sn  Sn7  1  0.000000  0.000000  0.500000  1
  Sn  Sn8  1  0.120217  0.879783  0.283642  1
  Sn  Sn9  1  0.759565  0.879783  0.283642  1
  Sn  Sn10  1  0.120217  0.240435  0.283642  1
  Sn  Sn11  1  0.879783  0.120217  0.716358  1
  Sn  Sn12  1  0.240435  0.120217  0.716358  1
  Sn  Sn13  1  0.879783  0.759565  0.716358  1
  Sn  Sn14  1  0.353865  0.000000  0.000000  1
  Sn  Sn15  1  0.646135  0.646135  0.000000  1
  Sn  Sn16  1  0.000000  0.353865  0.000000  1
  Sn  Sn17  1  0.353865  0.353865  0.000000  1
  Sn  Sn18  1  0.000000  0.646135  0.000000  1
  Sn  Sn19  1  0.646135  0.000000  0.000000  1
  Sn  Sn20  1  0.777965  0.555930  0.454953  1
  Sn  Sn21  1  0.777965  0.222035  0.454953  1
  Sn  Sn22  1  0.444070  0.222035  0.454953  1
  Sn  Sn23  1  0.222035  0.444070  0.545047  1
  Sn  Sn24  1  0.222035  0.777965  0.545047  1
  Sn  Sn25  1  0.555930  0.777965  0.545047  1
  Sn  Sn26  1  0.666667  0.333333  0.179012  1
  Sn  Sn27  1  0.333333  0.666667  0.820988  1
  Sn  Sn28  1  0.666667  0.333333  0.881197  1
  Sn  Sn29  1  0.333333  0.666667  0.118803  1
  Rh  Rh30  1  0.169197  0.830803  0.800850  1
  Rh  Rh31  1  0.661606  0.830803  0.800850  1
  Rh  Rh32  1  0.169197  0.338394  0.800850  1
  Rh  Rh33  1  0.830803  0.169197  0.199150  1
  Rh  Rh34  1  0.338394  0.169197  0.199150  1
  Rh  Rh35  1  0.830803  0.661606  0.199150  1
