# generated using pymatgen
data_Sc2CuB2Ir4Rh
_symmetry_space_group_name_H-M   'P 1'
_cell_length_a   9.40552700
_cell_length_b   3.01892500
_cell_length_c   9.40552700
_cell_angle_alpha   90.00000000
_cell_angle_beta   90.00000000
_cell_angle_gamma   90.00000000
_symmetry_Int_Tables_number   1
_chemical_formula_structural   Sc2CuB2Ir4Rh
_chemical_formula_sum   'Sc4 Cu2 B4 Ir8 Rh2'
_cell_volume   267.06599447
_cell_formula_units_Z   2
loop_
 _symmetry_equiv_pos_site_id
 _symmetry_equiv_pos_as_xyz
  1  'x, y, z'
loop_
 _atom_site_type_symbol
 _atom_site_label
 _atom_site_symmetry_multiplicity
 _atom_site_fract_x
 _atom_site_fract_y
 _atom_site_fract_z
 _atom_site_occupancy
  Sc  Sc0  1  0.674998  0.000000  0.174998  1
  Sc  Sc1  1  0.174998  0.000000  0.325002  1
  Sc  Sc2  1  0.825002  0.000000  0.674998  1
  Sc  Sc3  1  0.325002  0.000000  0.825002  1
  Cu  Cu4  1  0.000000  0.000000  0.000000  1
  Cu  Cu5  1  0.500001  0.000000  0.500001  1
  B  B6  1  0.372695  0.000000  0.127305  1
  B  B7  1  0.872696  0.000000  0.372695  1
  B  B8  1  0.127305  0.000000  0.627305  1
  B  B9  1  0.627305  0.000000  0.872696  1
  Ir  Ir10  1  0.215211  0.499999  0.068609  1
  Ir  Ir11  1  0.931391  0.499999  0.215211  1
  Ir  Ir12  1  0.431391  0.499999  0.284788  1
  Ir  Ir13  1  0.715212  0.499999  0.431391  1
  Ir  Ir14  1  0.284788  0.499999  0.568610  1
  Ir  Ir15  1  0.568610  0.499999  0.715212  1
  Ir  Ir16  1  0.068609  0.499999  0.784789  1
  Ir  Ir17  1  0.784789  0.499999  0.931391  1
  Rh  Rh18  1  0.500001  0.499999  0.000000  1
  Rh  Rh19  1  0.000000  0.499999  0.500001  1
