# generated using pymatgen
data_Sm3Cd3Pd2Rh
_symmetry_space_group_name_H-M   'P 1'
_cell_length_a   7.66609800
_cell_length_b   7.66609747
_cell_length_c   4.00561700
_cell_angle_alpha   90.00000000
_cell_angle_beta   90.00000000
_cell_angle_gamma   120.00000230
_symmetry_Int_Tables_number   1
_chemical_formula_structural   Sm3Cd3Pd2Rh
_chemical_formula_sum   'Sm3 Cd3 Pd2 Rh1'
_cell_volume   203.86785173
_cell_formula_units_Z   1
loop_
 _symmetry_equiv_pos_site_id
 _symmetry_equiv_pos_as_xyz
  1  'x, y, z'
loop_
 _atom_site_type_symbol
 _atom_site_label
 _atom_site_symmetry_multiplicity
 _atom_site_fract_x
 _atom_site_fract_y
 _atom_site_fract_z
 _atom_site_occupancy
  Sm  Sm0  1  0.413804  0.401024  0.500000  1
  Sm  Sm1  1  0.598976  0.012781  0.500000  1
  Sm  Sm2  1  0.987219  0.586196  0.500000  1
  Cd  Cd3  1  0.744651  0.745474  0.000000  1
  Cd  Cd4  1  0.254526  0.999176  0.000000  1
  Cd  Cd5  1  0.000824  0.255349  0.000000  1
  Pd  Pd6  1  0.333333  0.666667  0.000000  1
  Pd  Pd7  1  0.000000  0.000000  0.500000  1
  Rh  Rh8  1  0.666667  0.333333  0.000000  1
