# generated using pymatgen
data_Dy2MnP4Ir5
_symmetry_space_group_name_H-M   'P 1'
_cell_length_a   3.94448500
_cell_length_b   11.21836200
_cell_length_c   12.67621500
_cell_angle_alpha   90.00000000
_cell_angle_beta   90.00000000
_cell_angle_gamma   90.00000000
_symmetry_Int_Tables_number   1
_chemical_formula_structural   Dy2MnP4Ir5
_chemical_formula_sum   'Dy6 Mn3 P12 Ir15'
_cell_volume   560.93088808
_cell_formula_units_Z   3
loop_
 _symmetry_equiv_pos_site_id
 _symmetry_equiv_pos_as_xyz
  1  'x, y, z'
loop_
 _atom_site_type_symbol
 _atom_site_label
 _atom_site_symmetry_multiplicity
 _atom_site_fract_x
 _atom_site_fract_y
 _atom_site_fract_z
 _atom_site_occupancy
  Dy  Dy0  1  0.000000  0.500000  0.518113  1
  Dy  Dy1  1  0.500000  0.000000  0.481512  1
  Dy  Dy2  1  0.500000  0.813820  0.202005  1
  Dy  Dy3  1  0.500000  0.186180  0.202005  1
  Dy  Dy4  1  0.000000  0.678116  0.798416  1
  Dy  Dy5  1  0.000000  0.321884  0.798416  1
  Mn  Mn6  1  0.500000  0.500000  0.166065  1
  Mn  Mn7  1  0.000000  0.000000  0.831983  1
  Mn  Mn8  1  0.000000  0.500000  0.988962  1
  P  P9  1  0.500000  0.500000  0.880951  1
  P  P10  1  0.000000  0.000000  0.121525  1
  P  P11  1  0.500000  0.500000  0.346016  1
  P  P12  1  0.000000  0.000000  0.652708  1
  P  P13  1  0.500000  0.313923  0.619168  1
  P  P14  1  0.500000  0.686077  0.619168  1
  P  P15  1  0.000000  0.186036  0.381416  1
  P  P16  1  0.000000  0.813964  0.381416  1
  P  P17  1  0.500000  0.842858  0.893154  1
  P  P18  1  0.500000  0.157142  0.893154  1
  P  P19  1  0.000000  0.649197  0.104795  1
  P  P20  1  0.000000  0.350803  0.104795  1
  Ir  Ir21  1  0.500000  0.500000  0.697878  1
  Ir  Ir22  1  0.000000  0.000000  0.300696  1
  Ir  Ir23  1  0.500000  0.000000  0.021279  1
  Ir  Ir24  1  0.500000  0.338071  0.995396  1
  Ir  Ir25  1  0.500000  0.661929  0.995396  1
  Ir  Ir26  1  0.000000  0.166710  0.001576  1
  Ir  Ir27  1  0.000000  0.833290  0.001576  1
  Ir  Ir28  1  0.500000  0.292127  0.428971  1
  Ir  Ir29  1  0.500000  0.707873  0.428971  1
  Ir  Ir30  1  0.000000  0.208326  0.570731  1
  Ir  Ir31  1  0.000000  0.791674  0.570731  1
  Ir  Ir32  1  0.500000  0.872338  0.715236  1
  Ir  Ir33  1  0.500000  0.127662  0.715236  1
  Ir  Ir34  1  0.000000  0.626727  0.285294  1
  Ir  Ir35  1  0.000000  0.373273  0.285294  1
