# generated using pymatgen
data_Tb3DyHgRh
_symmetry_space_group_name_H-M   'P 1'
_cell_length_a   9.63070235
_cell_length_b   9.63070138
_cell_length_c   9.62935320
_cell_angle_alpha   60.00813742
_cell_angle_beta   60.00814131
_cell_angle_gamma   60.03621894
_symmetry_Int_Tables_number   1
_chemical_formula_structural   Tb3DyHgRh
_chemical_formula_sum   'Tb12 Dy4 Hg4 Rh4'
_cell_volume   631.78626576
_cell_formula_units_Z   4
loop_
 _symmetry_equiv_pos_site_id
 _symmetry_equiv_pos_as_xyz
  1  'x, y, z'
loop_
 _atom_site_type_symbol
 _atom_site_label
 _atom_site_symmetry_multiplicity
 _atom_site_fract_x
 _atom_site_fract_y
 _atom_site_fract_z
 _atom_site_occupancy
  Tb  Tb0  1  0.689695  0.310037  0.310392  1
  Tb  Tb1  1  0.689816  0.689816  0.310490  1
  Tb  Tb2  1  0.310037  0.689695  0.310392  1
  Tb  Tb3  1  0.936642  0.936642  0.563592  1
  Tb  Tb4  1  0.149166  0.149166  0.551994  1
  Tb  Tb5  1  0.562470  0.936982  0.563024  1
  Tb  Tb6  1  0.149568  0.149568  0.149550  1
  Tb  Tb7  1  0.310611  0.310611  0.689571  1
  Tb  Tb8  1  0.936982  0.562470  0.563024  1
  Tb  Tb9  1  0.562258  0.562258  0.937397  1
  Tb  Tb10  1  0.562903  0.937125  0.936991  1
  Tb  Tb11  1  0.937125  0.562903  0.936991  1
  Dy  Dy12  1  0.149057  0.552586  0.148915  1
  Dy  Dy13  1  0.310403  0.689457  0.690014  1
  Dy  Dy14  1  0.689457  0.310403  0.690014  1
  Dy  Dy15  1  0.552586  0.149057  0.148915  1
  Hg  Hg16  1  0.915093  0.915093  0.254668  1
  Hg  Hg17  1  0.254377  0.915152  0.915160  1
  Hg  Hg18  1  0.915152  0.254377  0.915160  1
  Hg  Hg19  1  0.915127  0.915127  0.915069  1
  Rh  Rh20  1  0.357852  0.357852  0.356151  1
  Rh  Rh21  1  0.926832  0.358467  0.357598  1
  Rh  Rh22  1  0.358322  0.358322  0.927330  1
  Rh  Rh23  1  0.358467  0.926832  0.357598  1
