# generated using pymatgen
data_Ta6Mn3V3N2
_symmetry_space_group_name_H-M   'P 1'
_cell_length_a   8.13270016
_cell_length_b   8.13261692
_cell_length_c   8.13270204
_cell_angle_alpha   120.01301563
_cell_angle_beta   119.93284439
_cell_angle_gamma   90.04720773
_symmetry_Int_Tables_number   1
_chemical_formula_structural   Ta6Mn3V3N2
_chemical_formula_sum   'Ta12 Mn6 V6 N4'
_cell_volume   380.50558644
_cell_formula_units_Z   2
loop_
 _symmetry_equiv_pos_site_id
 _symmetry_equiv_pos_as_xyz
  1  'x, y, z'
loop_
 _atom_site_type_symbol
 _atom_site_label
 _atom_site_symmetry_multiplicity
 _atom_site_fract_x
 _atom_site_fract_y
 _atom_site_fract_z
 _atom_site_occupancy
  Ta  Ta0  1  0.068341  0.568360  0.500020  1
  Ta  Ta1  1  0.682179  0.182183  0.500004  1
  Ta  Ta2  1  0.066545  0.182121  0.499668  1
  Ta  Ta3  1  0.682474  0.566891  0.500356  1
  Ta  Ta4  1  0.682452  0.182121  0.115576  1
  Ta  Ta5  1  0.066536  0.566891  0.884417  1
  Ta  Ta6  1  0.432348  0.432334  0.999985  1
  Ta  Ta7  1  0.818186  0.818182  0.999996  1
  Ta  Ta8  1  0.431981  0.817257  0.999798  1
  Ta  Ta9  1  0.817433  0.432178  0.000184  1
  Ta  Ta10  1  0.817459  0.817257  0.385275  1
  Ta  Ta11  1  0.431994  0.432178  0.614746  1
  Mn  Mn12  1  0.456190  0.118545  0.662355  1
  Mn  Mn13  1  0.456200  0.793863  0.337664  1
  Mn  Mn14  1  0.363832  0.203571  0.160224  1
  Mn  Mn15  1  0.043347  0.203571  0.839740  1
  Mn  Mn16  1  0.044583  0.886257  0.841674  1
  Mn  Mn17  1  0.044602  0.202877  0.158272  1
  V  V18  1  0.751607  0.002584  0.749026  1
  V  V19  1  0.253558  0.002584  0.250977  1
  V  V20  1  0.249102  0.492480  0.243378  1
  V  V21  1  0.249099  0.005726  0.756627  1
  V  V22  1  0.135103  0.796095  0.339041  1
  V  V23  1  0.457052  0.796095  0.660991  1
  N  N24  1  0.251320  0.499837  0.751486  1
  N  N25  1  0.748353  0.499837  0.248517  1
  N  N26  1  0.749062  0.999325  0.250264  1
  N  N27  1  0.749062  0.498802  0.749740  1
