# generated using pymatgen
data_Tm5In2(HgRh)2
_symmetry_space_group_name_H-M   'P 1'
_cell_length_a   3.56228800
_cell_length_b   7.87665000
_cell_length_c   18.13883400
_cell_angle_alpha   90.00000000
_cell_angle_beta   90.00000000
_cell_angle_gamma   90.00000000
_symmetry_Int_Tables_number   1
_chemical_formula_structural   Tm5In2(HgRh)2
_chemical_formula_sum   'Tm10 In4 Hg4 Rh4'
_cell_volume   508.95565269
_cell_formula_units_Z   2
loop_
 _symmetry_equiv_pos_site_id
 _symmetry_equiv_pos_as_xyz
  1  'x, y, z'
loop_
 _atom_site_type_symbol
 _atom_site_label
 _atom_site_symmetry_multiplicity
 _atom_site_fract_x
 _atom_site_fract_y
 _atom_site_fract_z
 _atom_site_occupancy
  Tm  Tm0  1  0.000000  0.500000  0.500000  1
  Tm  Tm1  1  0.000000  0.000000  0.000000  1
  Tm  Tm2  1  0.000000  0.747576  0.281714  1
  Tm  Tm3  1  0.000000  0.252424  0.718286  1
  Tm  Tm4  1  0.000000  0.752424  0.781714  1
  Tm  Tm5  1  0.000000  0.247576  0.218286  1
  Tm  Tm6  1  0.000000  0.611684  0.086108  1
  Tm  Tm7  1  0.000000  0.388316  0.913892  1
  Tm  Tm8  1  0.000000  0.888316  0.586108  1
  Tm  Tm9  1  0.000000  0.111684  0.413892  1
  In  In10  1  0.500000  0.575247  0.649877  1
  In  In11  1  0.500000  0.424753  0.350123  1
  In  In12  1  0.500000  0.924753  0.149877  1
  In  In13  1  0.500000  0.075247  0.850123  1
  Hg  Hg14  1  0.500000  0.712537  0.934112  1
  Hg  Hg15  1  0.500000  0.287463  0.065888  1
  Hg  Hg16  1  0.500000  0.787463  0.434112  1
  Hg  Hg17  1  0.500000  0.212537  0.565888  1
  Rh  Rh18  1  0.500000  0.534461  0.196907  1
  Rh  Rh19  1  0.500000  0.465539  0.803093  1
  Rh  Rh20  1  0.500000  0.965539  0.696907  1
  Rh  Rh21  1  0.500000  0.034461  0.303093  1
