# generated using pymatgen
data_Dy12ZnCo4Sn
_symmetry_space_group_name_H-M   'P 1'
_cell_length_a   8.32373736
_cell_length_b   8.32373755
_cell_length_c   8.32373794
_cell_angle_alpha   112.01966766
_cell_angle_beta   109.25370458
_cell_angle_gamma   107.17693344
_symmetry_Int_Tables_number   1
_chemical_formula_structural   Dy12ZnCo4Sn
_chemical_formula_sum   'Dy12 Zn1 Co4 Sn1'
_cell_volume   443.14825114
_cell_formula_units_Z   1
loop_
 _symmetry_equiv_pos_site_id
 _symmetry_equiv_pos_as_xyz
  1  'x, y, z'
loop_
 _atom_site_type_symbol
 _atom_site_label
 _atom_site_symmetry_multiplicity
 _atom_site_fract_x
 _atom_site_fract_y
 _atom_site_fract_z
 _atom_site_occupancy
  Dy  Dy0  1  0.428467  0.228296  0.200171  1
  Dy  Dy1  1  0.571533  0.771704  0.799829  1
  Dy  Dy2  1  0.028124  0.228296  0.799829  1
  Dy  Dy3  1  0.971876  0.771704  0.200171  1
  Dy  Dy4  1  0.181033  0.283509  0.464541  1
  Dy  Dy5  1  0.818967  0.716491  0.535459  1
  Dy  Dy6  1  0.181033  0.716491  0.897524  1
  Dy  Dy7  1  0.818967  0.283509  0.102476  1
  Dy  Dy8  1  0.323409  0.635151  0.311742  1
  Dy  Dy9  1  0.676591  0.364849  0.688258  1
  Dy  Dy10  1  0.323409  0.011667  0.688258  1
  Dy  Dy11  1  0.676591  0.988333  0.311742  1
  Zn  Zn12  1  0.000000  0.000000  0.000000  1
  Co  Co13  1  0.346624  0.000000  0.346624  1
  Co  Co14  1  0.653376  0.000000  0.653376  1
  Co  Co15  1  0.113978  0.613978  0.500000  1
  Co  Co16  1  0.886022  0.386022  0.500000  1
  Sn  Sn17  1  0.500000  0.500000  0.000000  1
