# generated using pymatgen
data_LuHf3(AsRh5)2
_symmetry_space_group_name_H-M   'P 1'
_cell_length_a   4.06639300
_cell_length_b   5.63887929
_cell_length_c   10.96289156
_cell_angle_alpha   89.96335152
_cell_angle_beta   90.00000000
_cell_angle_gamma   90.00000000
_symmetry_Int_Tables_number   1
_chemical_formula_structural   LuHf3(AsRh5)2
_chemical_formula_sum   'Lu1 Hf3 As2 Rh10'
_cell_volume   251.37794773
_cell_formula_units_Z   1
loop_
 _symmetry_equiv_pos_site_id
 _symmetry_equiv_pos_as_xyz
  1  'x, y, z'
loop_
 _atom_site_type_symbol
 _atom_site_label
 _atom_site_symmetry_multiplicity
 _atom_site_fract_x
 _atom_site_fract_y
 _atom_site_fract_z
 _atom_site_occupancy
  Lu  Lu0  1  0.500000  0.323774  0.359086  1
  Hf  Hf1  1  0.500000  0.672579  0.642066  1
  Hf  Hf2  1  0.500000  0.172442  0.857607  1
  Hf  Hf3  1  0.500000  0.826739  0.143787  1
  As  As4  1  0.000000  0.999715  0.499879  1
  As  As5  1  0.000000  0.500292  0.999978  1
  Rh  Rh6  1  0.500000  0.312942  0.100857  1
  Rh  Rh7  1  0.500000  0.686818  0.894517  1
  Rh  Rh8  1  0.500000  0.816315  0.395222  1
  Rh  Rh9  1  0.500000  0.184582  0.609596  1
  Rh  Rh10  1  0.000000  0.929343  0.743311  1
  Rh  Rh11  1  0.000000  0.064925  0.253114  1
  Rh  Rh12  1  0.000000  0.429776  0.758436  1
  Rh  Rh13  1  0.000000  0.572706  0.239320  1
  Rh  Rh14  1  0.000000  0.507303  0.504190  1
  Rh  Rh15  1  0.000000  0.999750  0.999033  1
