# generated using pymatgen
data_ErPuTcB6
_symmetry_space_group_name_H-M   'P 1'
_cell_length_a   3.66538900
_cell_length_b   9.11456100
_cell_length_c   11.46286800
_cell_angle_alpha   90.00000000
_cell_angle_beta   90.00000000
_cell_angle_gamma   90.00000000
_symmetry_Int_Tables_number   1
_chemical_formula_structural   ErPuTcB6
_chemical_formula_sum   'Er4 Pu4 Tc4 B24'
_cell_volume   382.95621260
_cell_formula_units_Z   4
loop_
 _symmetry_equiv_pos_site_id
 _symmetry_equiv_pos_as_xyz
  1  'x, y, z'
loop_
 _atom_site_type_symbol
 _atom_site_label
 _atom_site_symmetry_multiplicity
 _atom_site_fract_x
 _atom_site_fract_y
 _atom_site_fract_z
 _atom_site_occupancy
  Er  Er0  1  0.000000  0.944477  0.372777  1
  Er  Er1  1  0.000000  0.055523  0.627223  1
  Er  Er2  1  0.000000  0.444477  0.127223  1
  Er  Er3  1  0.000000  0.555523  0.872777  1
  Pu  Pu4  1  0.000000  0.323776  0.413784  1
  Pu  Pu5  1  0.000000  0.676224  0.586216  1
  Pu  Pu6  1  0.000000  0.823776  0.086216  1
  Pu  Pu7  1  0.000000  0.176224  0.913784  1
  Tc  Tc8  1  0.000000  0.638713  0.321254  1
  Tc  Tc9  1  0.000000  0.361287  0.678746  1
  Tc  Tc10  1  0.000000  0.138713  0.178746  1
  Tc  Tc11  1  0.000000  0.861287  0.821254  1
  B  B12  1  0.500000  0.553083  0.433086  1
  B  B13  1  0.500000  0.446917  0.566914  1
  B  B14  1  0.500000  0.053083  0.066914  1
  B  B15  1  0.500000  0.946917  0.933086  1
  B  B16  1  0.500000  0.748394  0.420080  1
  B  B17  1  0.500000  0.251606  0.579920  1
  B  B18  1  0.500000  0.248394  0.079920  1
  B  B19  1  0.500000  0.751606  0.920080  1
  B  B20  1  0.500000  0.793439  0.265674  1
  B  B21  1  0.500000  0.206561  0.734326  1
  B  B22  1  0.500000  0.293439  0.234326  1
  B  B23  1  0.500000  0.706561  0.765674  1
  B  B24  1  0.500000  0.633410  0.184861  1
  B  B25  1  0.500000  0.366590  0.815139  1
  B  B26  1  0.500000  0.133410  0.315139  1
  B  B27  1  0.500000  0.866590  0.684861  1
  B  B28  1  0.500000  0.982713  0.212868  1
  B  B29  1  0.500000  0.017287  0.787132  1
  B  B30  1  0.500000  0.482713  0.287132  1
  B  B31  1  0.500000  0.517287  0.712868  1
  B  B32  1  0.500000  0.609838  0.030338  1
  B  B33  1  0.500000  0.390162  0.969662  1
  B  B34  1  0.500000  0.109838  0.469662  1
  B  B35  1  0.500000  0.890162  0.530338  1
