# generated using pymatgen
data_Zr5Sc17Os8
_symmetry_space_group_name_H-M   'P 1'
_cell_length_a   9.45540827
_cell_length_b   9.45540970
_cell_length_c   9.46601676
_cell_angle_alpha   60.47297982
_cell_angle_beta   60.47286185
_cell_angle_gamma   60.44806609
_symmetry_Int_Tables_number   1
_chemical_formula_structural   Zr5Sc17Os8
_chemical_formula_sum   'Zr5 Sc17 Os8'
_cell_volume   604.71469729
_cell_formula_units_Z   1
loop_
 _symmetry_equiv_pos_site_id
 _symmetry_equiv_pos_as_xyz
  1  'x, y, z'
loop_
 _atom_site_type_symbol
 _atom_site_label
 _atom_site_symmetry_multiplicity
 _atom_site_fract_x
 _atom_site_fract_y
 _atom_site_fract_z
 _atom_site_occupancy
  Zr  Zr0  1  0.843456  0.843457  0.843664  1
  Zr  Zr1  1  0.529012  0.157421  0.156449  1
  Zr  Zr2  1  0.156844  0.156842  0.529721  1
  Zr  Zr3  1  0.157420  0.529011  0.156451  1
  Zr  Zr4  1  0.844616  0.844617  0.468814  1
  Sc  Sc5  1  0.844836  0.468957  0.844831  1
  Sc  Sc6  1  0.468959  0.844841  0.844826  1
  Sc  Sc7  1  0.157409  0.157405  0.156176  1
  Sc  Sc8  1  0.198633  0.802433  0.197699  1
  Sc  Sc9  1  0.199313  0.800459  0.800883  1
  Sc  Sc10  1  0.802432  0.198633  0.197702  1
  Sc  Sc11  1  0.799814  0.799815  0.199957  1
  Sc  Sc12  1  0.197197  0.197194  0.803502  1
  Sc  Sc13  1  0.800461  0.199312  0.800883  1
  Sc  Sc14  1  0.383688  0.383687  0.382535  1
  Sc  Sc15  1  0.148917  0.614685  0.617949  1
  Sc  Sc16  1  0.614684  0.148919  0.617948  1
  Sc  Sc17  1  0.616227  0.616227  0.147413  1
  Sc  Sc18  1  0.383154  0.850735  0.382296  1
  Sc  Sc19  1  0.382836  0.382836  0.849785  1
  Sc  Sc20  1  0.850734  0.383153  0.382298  1
  Sc  Sc21  1  0.616966  0.616964  0.620128  1
  Os  Os22  1  0.497606  0.497608  0.002332  1
  Os  Os23  1  0.998887  0.998884  0.502597  1
  Os  Os24  1  0.500803  0.001033  0.497357  1
  Os  Os25  1  0.001033  0.500803  0.497360  1
  Os  Os26  1  0.503960  0.000416  0.999468  1
  Os  Os27  1  0.000416  0.503962  0.999465  1
  Os  Os28  1  0.500639  0.500643  0.499549  1
  Os  Os29  1  0.999048  0.999049  0.999961  1
