# generated using pymatgen
data_Pr4Cr3PtF28
_symmetry_space_group_name_H-M   'P 1'
_cell_length_a   5.67140831
_cell_length_b   9.15586658
_cell_length_c   12.15446776
_cell_angle_alpha   62.20771011
_cell_angle_beta   89.97563092
_cell_angle_gamma   89.87807330
_symmetry_Int_Tables_number   1
_chemical_formula_structural   Pr4Cr3PtF28
_chemical_formula_sum   'Pr4 Cr3 Pt1 F28'
_cell_volume   558.33344967
_cell_formula_units_Z   1
loop_
 _symmetry_equiv_pos_site_id
 _symmetry_equiv_pos_as_xyz
  1  'x, y, z'
loop_
 _atom_site_type_symbol
 _atom_site_label
 _atom_site_symmetry_multiplicity
 _atom_site_fract_x
 _atom_site_fract_y
 _atom_site_fract_z
 _atom_site_occupancy
  Pr  Pr0  1  0.765281  0.806823  0.765852  1
  Pr  Pr1  1  0.261336  0.191703  0.737272  1
  Pr  Pr2  1  0.235162  0.192040  0.231816  1
  Pr  Pr3  1  0.736862  0.808102  0.265942  1
  Cr  Cr4  1  0.753610  0.275928  0.956824  1
  Cr  Cr5  1  0.256738  0.724102  0.544268  1
  Cr  Cr6  1  0.245557  0.725535  0.043224  1
  Pt  Pt7  1  0.743771  0.272176  0.457497  1
  F  F8  1  0.438619  0.709976  0.926436  1
  F  F9  1  0.927269  0.297374  0.584981  1
  F  F10  1  0.561044  0.291765  0.073021  1
  F  F11  1  0.064459  0.709691  0.427246  1
  F  F12  1  0.446236  0.284674  0.536575  1
  F  F13  1  0.972854  0.713272  0.957813  1
  F  F14  1  0.530782  0.714881  0.457278  1
  F  F15  1  0.027963  0.288696  0.041910  1
  F  F16  1  0.757989  0.502243  0.864434  1
  F  F17  1  0.265585  0.496380  0.635222  1
  F  F18  1  0.239344  0.498435  0.136390  1
  F  F19  1  0.740843  0.513493  0.358696  1
  F  F20  1  0.759405  0.049760  0.046639  1
  F  F21  1  0.257615  0.950420  0.454662  1
  F  F22  1  0.240370  0.952419  0.953265  1
  F  F23  1  0.738625  0.029873  0.548745  1
  F  F24  1  0.988785  0.726766  0.636340  1
  F  F25  1  0.484506  0.268178  0.868135  1
  F  F26  1  0.038077  0.268503  0.373071  1
  F  F27  1  0.514083  0.734265  0.131384  1
  F  F28  1  0.054223  0.743977  0.161181  1
  F  F29  1  0.563555  0.254803  0.325626  1
  F  F30  1  0.945101  0.259008  0.838994  1
  F  F31  1  0.446310  0.738977  0.663589  1
  F  F32  1  0.404021  0.970757  0.225440  1
  F  F33  1  0.904808  0.030674  0.273467  1
  F  F34  1  0.594785  0.032763  0.769605  1
  F  F35  1  0.094428  0.971566  0.727160  1
