# generated using pymatgen
data_Ca12Al8Si11As
_symmetry_space_group_name_H-M   'P 1'
_cell_length_a   4.33028900
_cell_length_b   11.23976163
_cell_length_c   14.78172252
_cell_angle_alpha   90.59306250
_cell_angle_beta   90.00000000
_cell_angle_gamma   90.00000000
_symmetry_Int_Tables_number   1
_chemical_formula_structural   Ca12Al8Si11As
_chemical_formula_sum   'Ca12 Al8 Si11 As1'
_cell_volume   719.40882716
_cell_formula_units_Z   1
loop_
 _symmetry_equiv_pos_site_id
 _symmetry_equiv_pos_as_xyz
  1  'x, y, z'
loop_
 _atom_site_type_symbol
 _atom_site_label
 _atom_site_symmetry_multiplicity
 _atom_site_fract_x
 _atom_site_fract_y
 _atom_site_fract_z
 _atom_site_occupancy
  Ca  Ca0  1  0.250000  0.896113  0.567041  1
  Ca  Ca1  1  0.750000  0.104513  0.433461  1
  Ca  Ca2  1  0.250000  0.385360  0.927540  1
  Ca  Ca3  1  0.750000  0.600185  0.067114  1
  Ca  Ca4  1  0.250000  0.609699  0.435374  1
  Ca  Ca5  1  0.750000  0.398939  0.554071  1
  Ca  Ca6  1  0.250000  0.097366  0.073055  1
  Ca  Ca7  1  0.750000  0.893680  0.940021  1
  Ca  Ca8  1  0.750000  0.376449  0.296034  1
  Ca  Ca9  1  0.250000  0.626131  0.701375  1
  Ca  Ca10  1  0.750000  0.874576  0.204969  1
  Ca  Ca11  1  0.250000  0.124722  0.795271  1
  Al  Al12  1  0.750000  0.866174  0.711390  1
  Al  Al13  1  0.250000  0.138356  0.293231  1
  Al  Al14  1  0.750000  0.398999  0.771101  1
  Al  Al15  1  0.250000  0.636119  0.209596  1
  Al  Al16  1  0.250000  0.684312  0.913002  1
  Al  Al17  1  0.750000  0.311892  0.091987  1
  Al  Al18  1  0.250000  0.184675  0.587455  1
  Al  Al19  1  0.750000  0.817553  0.411915  1
  Si  Si20  1  0.250000  0.925618  0.363461  1
  Si  Si21  1  0.750000  0.074922  0.635943  1
  Si  Si22  1  0.250000  0.422640  0.133829  1
  Si  Si23  1  0.750000  0.576778  0.868362  1
  Si  Si24  1  0.250000  0.860671  0.799537  1
  Si  Si25  1  0.750000  0.138717  0.206815  1
  Si  Si26  1  0.250000  0.360342  0.698402  1
  Si  Si27  1  0.750000  0.639222  0.297821  1
  Si  Si28  1  0.250000  0.297692  0.433102  1
  Si  Si29  1  0.750000  0.703445  0.565561  1
  Si  Si30  1  0.250000  0.795546  0.067977  1
  As  As31  1  0.750000  0.178598  0.944187  1
