# generated using pymatgen
data_CsH5W
_symmetry_space_group_name_H-M   'P 1'
_cell_length_a   11.69407700
_cell_length_b   7.73792100
_cell_length_c   4.81619500
_cell_angle_alpha   90.00000000
_cell_angle_beta   90.00000000
_cell_angle_gamma   90.00000000
_symmetry_Int_Tables_number   1
_chemical_formula_structural   CsH5W
_chemical_formula_sum   'Cs4 H20 W4'
_cell_volume   435.80710180
_cell_formula_units_Z   4
loop_
 _symmetry_equiv_pos_site_id
 _symmetry_equiv_pos_as_xyz
  1  'x, y, z'
loop_
 _atom_site_type_symbol
 _atom_site_label
 _atom_site_symmetry_multiplicity
 _atom_site_fract_x
 _atom_site_fract_y
 _atom_site_fract_z
 _atom_site_occupancy
  Cs  Cs0  1  0.672491  0.079044  0.330430  1
  Cs  Cs1  1  0.172491  0.420955  0.330430  1
  Cs  Cs2  1  0.827509  0.579044  0.830430  1
  Cs  Cs3  1  0.327509  0.920956  0.830430  1
  H  H4  1  0.355092  0.313055  0.825620  1
  H  H5  1  0.855092  0.186945  0.825620  1
  H  H6  1  0.976396  0.713772  0.326349  1
  H  H7  1  0.476396  0.786227  0.326349  1
  H  H8  1  0.601302  0.416670  0.066045  1
  H  H9  1  0.101301  0.083330  0.066045  1
  H  H10  1  0.387987  0.541265  0.064790  1
  H  H11  1  0.887987  0.958736  0.064790  1
  H  H12  1  0.962629  0.146380  0.436894  1
  H  H13  1  0.462629  0.353621  0.436894  1
  H  H14  1  0.144908  0.813055  0.325619  1
  H  H15  1  0.644908  0.686944  0.325619  1
  H  H16  1  0.523605  0.213772  0.826351  1
  H  H17  1  0.023605  0.286227  0.826351  1
  H  H18  1  0.898699  0.916669  0.566045  1
  H  H19  1  0.398699  0.583331  0.566045  1
  H  H20  1  0.112013  0.041264  0.564790  1
  H  H21  1  0.612013  0.458736  0.564790  1
  H  H22  1  0.537371  0.646380  0.936896  1
  H  H23  1  0.037371  0.853621  0.936896  1
  W  W24  1  0.517280  0.567001  0.316870  1
  W  W25  1  0.017280  0.932999  0.316870  1
  W  W26  1  0.982720  0.067000  0.816869  1
  W  W27  1  0.482720  0.433000  0.816869  1
