# generated using pymatgen
data_La2CrGeO8
_symmetry_space_group_name_H-M   'P 1'
_cell_length_a   6.24850444
_cell_length_b   6.24850497
_cell_length_c   6.24850443
_cell_angle_alpha   106.02083048
_cell_angle_beta   106.02083026
_cell_angle_gamma   116.61714451
_symmetry_Int_Tables_number   1
_chemical_formula_structural   La2CrGeO8
_chemical_formula_sum   'La2 Cr1 Ge1 O8'
_cell_volume   185.58754391
_cell_formula_units_Z   1
loop_
 _symmetry_equiv_pos_site_id
 _symmetry_equiv_pos_as_xyz
  1  'x, y, z'
loop_
 _atom_site_type_symbol
 _atom_site_label
 _atom_site_symmetry_multiplicity
 _atom_site_fract_x
 _atom_site_fract_y
 _atom_site_fract_z
 _atom_site_occupancy
  La  La0  1  0.000000  0.000000  0.000000  1
  La  La1  1  0.250000  0.750000  0.500000  1
  Cr  Cr2  1  0.500000  0.500000  0.000000  1
  Ge  Ge3  1  0.750000  0.250000  0.500000  1
  O  O4  1  0.344138  0.518114  0.173976  1
  O  O5  1  0.390173  0.071427  0.318746  1
  O  O6  1  0.752681  0.071427  0.681254  1
  O  O7  1  0.344138  0.170161  0.826024  1
  O  O8  1  0.829839  0.655862  0.173976  1
  O  O9  1  0.928573  0.247319  0.318746  1
  O  O10  1  0.928573  0.609827  0.681254  1
  O  O11  1  0.481886  0.655862  0.826024  1
