# generated using pymatgen
data_Cs2Tb(SbSe2)5
_symmetry_space_group_name_H-M   'P 1'
_cell_length_a   4.12452600
_cell_length_b   12.39978800
_cell_length_c   22.99670800
_cell_angle_alpha   90.00000000
_cell_angle_beta   90.00000000
_cell_angle_gamma   90.00000000
_symmetry_Int_Tables_number   1
_chemical_formula_structural   Cs2Tb(SbSe2)5
_chemical_formula_sum   'Cs4 Tb2 Sb10 Se20'
_cell_volume   1176.12634044
_cell_formula_units_Z   2
loop_
 _symmetry_equiv_pos_site_id
 _symmetry_equiv_pos_as_xyz
  1  'x, y, z'
loop_
 _atom_site_type_symbol
 _atom_site_label
 _atom_site_symmetry_multiplicity
 _atom_site_fract_x
 _atom_site_fract_y
 _atom_site_fract_z
 _atom_site_occupancy
  Cs  Cs0  1  0.250000  0.991185  0.288363  1
  Cs  Cs1  1  0.750000  0.491113  0.212315  1
  Cs  Cs2  1  0.750000  0.008887  0.712315  1
  Cs  Cs3  1  0.250000  0.508815  0.788363  1
  Tb  Tb4  1  0.750000  0.363338  0.022754  1
  Tb  Tb5  1  0.750000  0.136662  0.522754  1
  Sb  Sb6  1  0.750000  0.810167  0.119093  1
  Sb  Sb7  1  0.250000  0.405557  0.570636  1
  Sb  Sb8  1  0.250000  0.188775  0.880132  1
  Sb  Sb9  1  0.750000  0.595681  0.430718  1
  Sb  Sb10  1  0.250000  0.094443  0.070636  1
  Sb  Sb11  1  0.250000  0.632478  0.977156  1
  Sb  Sb12  1  0.250000  0.311225  0.380132  1
  Sb  Sb13  1  0.250000  0.867522  0.477156  1
  Sb  Sb14  1  0.750000  0.904319  0.930718  1
  Sb  Sb15  1  0.750000  0.689833  0.619093  1
  Se  Se16  1  0.250000  0.745276  0.692289  1
  Se  Se17  1  0.750000  0.142963  0.982752  1
  Se  Se18  1  0.250000  0.303397  0.105966  1
  Se  Se19  1  0.750000  0.583177  0.059463  1
  Se  Se20  1  0.250000  0.081441  0.440257  1
  Se  Se21  1  0.750000  0.916823  0.559463  1
  Se  Se22  1  0.250000  0.418559  0.940257  1
  Se  Se23  1  0.250000  0.861336  0.018477  1
  Se  Se24  1  0.750000  0.357037  0.482752  1
  Se  Se25  1  0.750000  0.244146  0.807154  1
  Se  Se26  1  0.250000  0.523766  0.349280  1
  Se  Se27  1  0.250000  0.976234  0.849280  1
  Se  Se28  1  0.750000  0.800664  0.392431  1
  Se  Se29  1  0.750000  0.474654  0.650765  1
  Se  Se30  1  0.250000  0.196603  0.605966  1
  Se  Se31  1  0.250000  0.754724  0.192289  1
  Se  Se32  1  0.750000  0.025346  0.150765  1
  Se  Se33  1  0.750000  0.255854  0.307154  1
  Se  Se34  1  0.750000  0.699336  0.892431  1
  Se  Se35  1  0.250000  0.638664  0.518477  1
