# generated using pymatgen
data_Mn3As3PbO12
_symmetry_space_group_name_H-M   'P 1'
_cell_length_a   9.64047882
_cell_length_b   9.64127871
_cell_length_c   9.64136477
_cell_angle_alpha   137.69279625
_cell_angle_beta   112.50841159
_cell_angle_gamma   82.97201947
_symmetry_Int_Tables_number   1
_chemical_formula_structural   Mn3As3PbO12
_chemical_formula_sum   'Mn6 As6 Pb2 O24'
_cell_volume   538.29837185
_cell_formula_units_Z   2
loop_
 _symmetry_equiv_pos_site_id
 _symmetry_equiv_pos_as_xyz
  1  'x, y, z'
loop_
 _atom_site_type_symbol
 _atom_site_label
 _atom_site_symmetry_multiplicity
 _atom_site_fract_x
 _atom_site_fract_y
 _atom_site_fract_z
 _atom_site_occupancy
  Mn  Mn0  1  0.616672  0.616384  0.500054  1
  Mn  Mn1  1  0.883394  0.383310  0.000027  1
  Mn  Mn2  1  0.116606  0.616690  0.999973  1
  Mn  Mn3  1  0.383328  0.383616  0.499946  1
  Mn  Mn4  1  0.500000  0.000000  0.500000  1
  Mn  Mn5  1  0.000000  0.500000  0.500000  1
  As  As6  1  0.750014  0.326873  0.576903  1
  As  As7  1  0.249986  0.673127  0.423097  1
  As  As8  1  0.823487  0.823507  0.499971  1
  As  As9  1  0.676475  0.176459  0.999985  1
  As  As10  1  0.323525  0.823541  0.000015  1
  As  As11  1  0.176513  0.176493  0.500029  1
  Pb  Pb12  1  0.750002  0.845570  0.095565  1
  Pb  Pb13  1  0.249998  0.154430  0.904435  1
  O  O14  1  0.653966  0.086714  0.432769  1
  O  O15  1  0.346034  0.913286  0.567231  1
  O  O16  1  0.153975  0.721181  0.567244  1
  O  O17  1  0.846025  0.278819  0.432756  1
  O  O18  1  0.626204  0.486978  0.613241  1
  O  O19  1  0.126219  0.512987  0.139231  1
  O  O20  1  0.373796  0.513022  0.386759  1
  O  O21  1  0.873781  0.487013  0.860769  1
  O  O22  1  0.938941  0.077569  0.740960  1
  O  O23  1  0.663401  0.922431  0.861376  1
  O  O24  1  0.438925  0.697978  0.861360  1
  O  O25  1  0.163388  0.302029  0.740967  1
  O  O26  1  0.061059  0.922431  0.259040  1
  O  O27  1  0.336599  0.077569  0.138624  1
  O  O28  1  0.561075  0.302022  0.138640  1
  O  O29  1  0.836612  0.697971  0.259033  1
  O  O30  1  0.624416  0.794778  0.439948  1
  O  O31  1  0.645121  0.205192  0.829621  1
  O  O32  1  0.124406  0.684469  0.829610  1
  O  O33  1  0.145104  0.315506  0.439923  1
  O  O34  1  0.375584  0.205222  0.560052  1
  O  O35  1  0.354879  0.794808  0.170379  1
  O  O36  1  0.875594  0.315531  0.170390  1
  O  O37  1  0.854896  0.684494  0.560077  1
