# generated using pymatgen
data_Pm4Nb(NiO4)3
_symmetry_space_group_name_H-M   'P 1'
_cell_length_a   5.43211373
_cell_length_b   5.71452523
_cell_length_c   7.87504369
_cell_angle_alpha   90.66888201
_cell_angle_beta   89.68987083
_cell_angle_gamma   90.49053545
_symmetry_Int_Tables_number   1
_chemical_formula_structural   Pm4Nb(NiO4)3
_chemical_formula_sum   'Pm4 Nb1 Ni3 O12'
_cell_volume   244.42765333
_cell_formula_units_Z   1
loop_
 _symmetry_equiv_pos_site_id
 _symmetry_equiv_pos_as_xyz
  1  'x, y, z'
loop_
 _atom_site_type_symbol
 _atom_site_label
 _atom_site_symmetry_multiplicity
 _atom_site_fract_x
 _atom_site_fract_y
 _atom_site_fract_z
 _atom_site_occupancy
  Pm  Pm0  1  0.983039  0.072757  0.264894  1
  Pm  Pm1  1  0.515290  0.558254  0.266961  1
  Pm  Pm2  1  0.484710  0.441747  0.733038  1
  Pm  Pm3  1  0.016962  0.927243  0.735105  1
  Nb  Nb4  1  0.499999  0.000000  0.000000  1
  Ni  Ni5  1  0.000000  0.500000  0.000000  1
  Ni  Ni6  1  0.499999  0.000000  0.500000  1
  Ni  Ni7  1  0.000000  0.500000  0.500000  1
  O  O8  1  0.690240  0.293921  0.060109  1
  O  O9  1  0.797208  0.808494  0.054235  1
  O  O10  1  0.101327  0.468889  0.251081  1
  O  O11  1  0.396960  0.967159  0.243418  1
  O  O12  1  0.695069  0.296184  0.452969  1
  O  O13  1  0.795333  0.804773  0.451806  1
  O  O14  1  0.204665  0.195227  0.548194  1
  O  O15  1  0.304932  0.703817  0.547031  1
  O  O16  1  0.603041  0.032842  0.756581  1
  O  O17  1  0.898673  0.531113  0.748918  1
  O  O18  1  0.202790  0.191506  0.945765  1
  O  O19  1  0.309761  0.706080  0.939891  1
