# generated using pymatgen
data_Ho2AlZn16
_symmetry_space_group_name_H-M   'P 1'
_cell_length_a   6.80292068
_cell_length_b   6.80292066
_cell_length_c   6.80292007
_cell_angle_alpha   83.08535905
_cell_angle_beta   83.08536449
_cell_angle_gamma   83.08534648
_symmetry_Int_Tables_number   1
_chemical_formula_structural   Ho2AlZn16
_chemical_formula_sum   'Ho2 Al1 Zn16'
_cell_volume   308.47761289
_cell_formula_units_Z   1
loop_
 _symmetry_equiv_pos_site_id
 _symmetry_equiv_pos_as_xyz
  1  'x, y, z'
loop_
 _atom_site_type_symbol
 _atom_site_label
 _atom_site_symmetry_multiplicity
 _atom_site_fract_x
 _atom_site_fract_y
 _atom_site_fract_z
 _atom_site_occupancy
  Ho  Ho0  1  0.664917  0.664917  0.664917  1
  Ho  Ho1  1  0.335412  0.335412  0.335412  1
  Al  Al2  1  0.098988  0.098988  0.098988  1
  Zn  Zn3  1  0.351392  0.839245  0.351392  1
  Zn  Zn4  1  0.351392  0.351392  0.839245  1
  Zn  Zn5  1  0.839245  0.351392  0.351392  1
  Zn  Zn6  1  0.649479  0.160801  0.649479  1
  Zn  Zn7  1  0.649479  0.649479  0.160801  1
  Zn  Zn8  1  0.160801  0.649479  0.649479  1
  Zn  Zn9  1  0.299433  0.700724  0.999907  1
  Zn  Zn10  1  0.999907  0.299433  0.700724  1
  Zn  Zn11  1  0.700724  0.999907  0.299433  1
  Zn  Zn12  1  0.999907  0.700724  0.299433  1
  Zn  Zn13  1  0.299433  0.999907  0.700724  1
  Zn  Zn14  1  0.700724  0.299433  0.999907  1
  Zn  Zn15  1  0.999433  0.999433  0.501945  1
  Zn  Zn16  1  0.501945  0.999433  0.999433  1
  Zn  Zn17  1  0.999433  0.501945  0.999433  1
  Zn  Zn18  1  0.897960  0.897960  0.897960  1
