# generated using pymatgen
data_K8Hf6BeCl20
_symmetry_space_group_name_H-M   'P 1'
_cell_length_a   11.14946618
_cell_length_b   11.14946593
_cell_length_c   11.14946600
_cell_angle_alpha   59.99999981
_cell_angle_beta   60.00000053
_cell_angle_gamma   60.00000306
_symmetry_Int_Tables_number   1
_chemical_formula_structural   K8Hf6BeCl20
_chemical_formula_sum   'K8 Hf6 Be1 Cl20'
_cell_volume   980.04771438
_cell_formula_units_Z   1
loop_
 _symmetry_equiv_pos_site_id
 _symmetry_equiv_pos_as_xyz
  1  'x, y, z'
loop_
 _atom_site_type_symbol
 _atom_site_label
 _atom_site_symmetry_multiplicity
 _atom_site_fract_x
 _atom_site_fract_y
 _atom_site_fract_z
 _atom_site_occupancy
  K  K0  1  0.359981  0.359981  0.359981  1
  K  K1  1  0.640019  0.640019  0.640019  1
  K  K2  1  0.359981  0.359981  0.920057  1
  K  K3  1  0.359981  0.920057  0.359981  1
  K  K4  1  0.640019  0.640019  0.079943  1
  K  K5  1  0.640019  0.079943  0.640019  1
  K  K6  1  0.920057  0.359981  0.359981  1
  K  K7  1  0.079943  0.640019  0.640019  1
  Hf  Hf8  1  0.854043  0.145957  0.145957  1
  Hf  Hf9  1  0.145957  0.854043  0.854043  1
  Hf  Hf10  1  0.145957  0.854043  0.145957  1
  Hf  Hf11  1  0.854043  0.145957  0.854043  1
  Hf  Hf12  1  0.145957  0.145957  0.854043  1
  Hf  Hf13  1  0.854043  0.854043  0.145957  1
  Be  Be14  1  0.000000  0.000000  0.000000  1
  Cl  Cl15  1  0.325214  0.000000  0.000000  1
  Cl  Cl16  1  0.674786  0.000000  0.000000  1
  Cl  Cl17  1  0.000000  0.325214  0.674786  1
  Cl  Cl18  1  0.000000  0.674786  0.325214  1
  Cl  Cl19  1  0.000000  0.325214  0.000000  1
  Cl  Cl20  1  0.674786  0.000000  0.325214  1
  Cl  Cl21  1  0.000000  0.674786  0.000000  1
  Cl  Cl22  1  0.325214  0.000000  0.674786  1
  Cl  Cl23  1  0.000000  0.000000  0.325214  1
  Cl  Cl24  1  0.000000  0.000000  0.674786  1
  Cl  Cl25  1  0.674786  0.325214  0.000000  1
  Cl  Cl26  1  0.325214  0.674786  0.000000  1
  Cl  Cl27  1  0.683845  0.316155  0.316155  1
  Cl  Cl28  1  0.316155  0.683845  0.683845  1
  Cl  Cl29  1  0.316155  0.683845  0.316155  1
  Cl  Cl30  1  0.683845  0.316155  0.683845  1
  Cl  Cl31  1  0.316155  0.316155  0.683845  1
  Cl  Cl32  1  0.683845  0.683845  0.316155  1
  Cl  Cl33  1  0.250000  0.250000  0.250000  1
  Cl  Cl34  1  0.750000  0.750000  0.750000  1
