# generated using pymatgen
data_Yb3MnTcC6
_symmetry_space_group_name_H-M   'P 1'
_cell_length_a   8.20863300
_cell_length_b   8.20863373
_cell_length_c   5.07350000
_cell_angle_alpha   90.00000000
_cell_angle_beta   90.00000000
_cell_angle_gamma   119.99999085
_symmetry_Int_Tables_number   1
_chemical_formula_structural   Yb3MnTcC6
_chemical_formula_sum   'Yb6 Mn2 Tc2 C12'
_cell_volume   296.06021743
_cell_formula_units_Z   2
loop_
 _symmetry_equiv_pos_site_id
 _symmetry_equiv_pos_as_xyz
  1  'x, y, z'
loop_
 _atom_site_type_symbol
 _atom_site_label
 _atom_site_symmetry_multiplicity
 _atom_site_fract_x
 _atom_site_fract_y
 _atom_site_fract_z
 _atom_site_occupancy
  Yb  Yb0  1  0.614783  0.691371  0.747818  1
  Yb  Yb1  1  0.926488  0.612376  0.251156  1
  Yb  Yb2  1  0.685887  0.073512  0.251156  1
  Yb  Yb3  1  0.308629  0.923412  0.747818  1
  Yb  Yb4  1  0.076588  0.385217  0.747818  1
  Yb  Yb5  1  0.387624  0.314113  0.251156  1
  Mn  Mn6  1  0.000000  0.000000  0.999575  1
  Mn  Mn7  1  0.333333  0.666667  0.245666  1
  Tc  Tc8  1  0.000000  0.000000  0.493400  1
  Tc  Tc9  1  0.666667  0.333333  0.752080  1
  C  C10  1  0.957458  0.778434  0.756650  1
  C  C11  1  0.184707  0.951946  0.247599  1
  C  C12  1  0.767240  0.815293  0.247599  1
  C  C13  1  0.221566  0.179025  0.756650  1
  C  C14  1  0.820975  0.042542  0.756650  1
  C  C15  1  0.048054  0.232760  0.247599  1
  C  C16  1  0.866507  0.590009  0.754605  1
  C  C17  1  0.276184  0.853628  0.245265  1
  C  C18  1  0.577444  0.723816  0.245265  1
  C  C19  1  0.409991  0.276498  0.754605  1
  C  C20  1  0.146372  0.422556  0.245265  1
  C  C21  1  0.723502  0.133493  0.754605  1
