# generated using pymatgen
data_Y8Er5Tm7Bi12
_symmetry_space_group_name_H-M   'P 1'
_cell_length_a   8.23362405
_cell_length_b   9.45768601
_cell_length_c   12.04436306
_cell_angle_alpha   89.99917866
_cell_angle_beta   89.98869808
_cell_angle_gamma   89.99420238
_symmetry_Int_Tables_number   1
_chemical_formula_structural   Y8Er5Tm7Bi12
_chemical_formula_sum   'Y8 Er5 Tm7 Bi12'
_cell_volume   937.90694616
_cell_formula_units_Z   1
loop_
 _symmetry_equiv_pos_site_id
 _symmetry_equiv_pos_as_xyz
  1  'x, y, z'
loop_
 _atom_site_type_symbol
 _atom_site_label
 _atom_site_symmetry_multiplicity
 _atom_site_fract_x
 _atom_site_fract_y
 _atom_site_fract_z
 _atom_site_occupancy
  Y  Y0  1  0.186393  0.750034  0.718698  1
  Y  Y1  1  0.686455  0.750006  0.781282  1
  Y  Y2  1  0.813572  0.250029  0.281294  1
  Y  Y3  1  0.313585  0.249972  0.218712  1
  Y  Y4  1  0.353616  0.750055  0.216074  1
  Y  Y5  1  0.853756  0.750092  0.284028  1
  Y  Y6  1  0.646372  0.250018  0.783998  1
  Y  Y7  1  0.146317  0.250005  0.716018  1
  Er  Er8  1  0.306707  0.434582  0.940481  1
  Er  Er9  1  0.806685  0.065404  0.559532  1
  Er  Er10  1  0.693316  0.934706  0.059503  1
  Er  Er11  1  0.193330  0.565357  0.440508  1
  Er  Er12  1  0.693270  0.565304  0.059494  1
  Tm  Tm13  1  0.025308  0.750037  0.989066  1
  Tm  Tm14  1  0.525189  0.750020  0.510891  1
  Tm  Tm15  1  0.974839  0.249968  0.010927  1
  Tm  Tm16  1  0.474822  0.250050  0.489092  1
  Tm  Tm17  1  0.193315  0.934455  0.440450  1
  Tm  Tm18  1  0.306687  0.065558  0.940447  1
  Tm  Tm19  1  0.806720  0.434421  0.559548  1
  Bi  Bi20  1  0.433856  0.003873  0.672456  1
  Bi  Bi21  1  0.933869  0.496153  0.827503  1
  Bi  Bi22  1  0.566086  0.503864  0.327566  1
  Bi  Bi23  1  0.066111  0.996161  0.172483  1
  Bi  Bi24  1  0.566071  0.996186  0.327532  1
  Bi  Bi25  1  0.066111  0.503834  0.172511  1
  Bi  Bi26  1  0.433881  0.496176  0.672456  1
  Bi  Bi27  1  0.933930  0.003858  0.827516  1
  Bi  Bi28  1  0.406879  0.750258  0.957926  1
  Bi  Bi29  1  0.906982  0.749827  0.542048  1
  Bi  Bi30  1  0.592948  0.249905  0.042000  1
  Bi  Bi31  1  0.093025  0.249833  0.457961  1
