# generated using pymatgen
data_DyHo4Pb3O
_symmetry_space_group_name_H-M   'P 1'
_cell_length_a   9.07999015
_cell_length_b   9.07999116
_cell_length_c   9.07999129
_cell_angle_alpha   125.72159091
_cell_angle_beta   125.72159096
_cell_angle_gamma   80.34620833
_symmetry_Int_Tables_number   1
_chemical_formula_structural   DyHo4Pb3O
_chemical_formula_sum   'Dy2 Ho8 Pb6 O2'
_cell_volume   476.08955920
_cell_formula_units_Z   2
loop_
 _symmetry_equiv_pos_site_id
 _symmetry_equiv_pos_as_xyz
  1  'x, y, z'
loop_
 _atom_site_type_symbol
 _atom_site_label
 _atom_site_symmetry_multiplicity
 _atom_site_fract_x
 _atom_site_fract_y
 _atom_site_fract_z
 _atom_site_occupancy
  Dy  Dy0  1  0.500000  0.500000  0.000000  1
  Dy  Dy1  1  0.000000  0.000000  0.000000  1
  Ho  Ho2  1  0.998155  0.199245  0.500000  1
  Ho  Ho3  1  0.800755  0.300755  0.798910  1
  Ho  Ho4  1  0.498155  0.998155  0.798910  1
  Ho  Ho5  1  0.501845  0.001845  0.201090  1
  Ho  Ho6  1  0.001845  0.800755  0.500000  1
  Ho  Ho7  1  0.199245  0.699245  0.201090  1
  Ho  Ho8  1  0.699245  0.498155  0.500000  1
  Ho  Ho9  1  0.300755  0.501845  0.500000  1
  Pb  Pb10  1  0.851927  0.351927  0.203855  1
  Pb  Pb11  1  0.148073  0.648073  0.796145  1
  Pb  Pb12  1  0.351927  0.148073  0.500000  1
  Pb  Pb13  1  0.750000  0.750000  0.000000  1
  Pb  Pb14  1  0.648073  0.851927  0.500000  1
  Pb  Pb15  1  0.250000  0.250000  0.000000  1
  O  O16  1  0.750000  0.250000  0.500000  1
  O  O17  1  0.250000  0.750000  0.500000  1
