# generated using pymatgen
data_FeP6RhO18
_symmetry_space_group_name_H-M   'P 1'
_cell_length_a   5.13775054
_cell_length_b   7.02154898
_cell_length_c   10.37952460
_cell_angle_alpha   98.75725908
_cell_angle_beta   92.76903123
_cell_angle_gamma   92.70182432
_symmetry_Int_Tables_number   1
_chemical_formula_structural   FeP6RhO18
_chemical_formula_sum   'Fe1 P6 Rh1 O18'
_cell_volume   369.08015717
_cell_formula_units_Z   1
loop_
 _symmetry_equiv_pos_site_id
 _symmetry_equiv_pos_as_xyz
  1  'x, y, z'
loop_
 _atom_site_type_symbol
 _atom_site_label
 _atom_site_symmetry_multiplicity
 _atom_site_fract_x
 _atom_site_fract_y
 _atom_site_fract_z
 _atom_site_occupancy
  Fe  Fe0  1  0.500698  0.500093  0.500084  1
  P  P1  1  0.023628  0.973519  0.183775  1
  P  P2  1  0.736346  0.328075  0.221313  1
  P  P3  1  0.990995  0.681491  0.361361  1
  P  P4  1  0.009029  0.318500  0.638602  1
  P  P5  1  0.263607  0.671893  0.778713  1
  P  P6  1  0.976262  0.026454  0.816198  1
  Rh  Rh7  1  0.499846  0.000001  0.000012  1
  O  O8  1  0.604542  0.279828  0.086276  1
  O  O9  1  0.826448  0.889067  0.074849  1
  O  O10  1  0.308126  0.944425  0.160440  1
  O  O11  1  0.984176  0.196554  0.232726  1
  O  O12  1  0.881331  0.537189  0.230196  1
  O  O13  1  0.577058  0.320396  0.338404  1
  O  O14  1  0.965020  0.887033  0.315055  1
  O  O15  1  0.273336  0.649197  0.388746  1
  O  O16  1  0.808601  0.672675  0.469672  1
  O  O17  1  0.191444  0.327416  0.530266  1
  O  O18  1  0.726715  0.350818  0.611285  1
  O  O19  1  0.034827  0.112959  0.684906  1
  O  O20  1  0.423014  0.679592  0.661626  1
  O  O21  1  0.118585  0.462782  0.769816  1
  O  O22  1  0.015792  0.803415  0.767255  1
  O  O23  1  0.691793  0.055549  0.839550  1
  O  O24  1  0.173468  0.110943  0.925125  1
  O  O25  1  0.395323  0.720134  0.913748  1
