# generated using pymatgen
data_Nd4MoWC4
_symmetry_space_group_name_H-M   'P 1'
_cell_length_a   5.83578500
_cell_length_b   5.83601100
_cell_length_c   10.40485300
_cell_angle_alpha   90.00000000
_cell_angle_beta   90.00000000
_cell_angle_gamma   90.00000000
_symmetry_Int_Tables_number   1
_chemical_formula_structural   Nd4MoWC4
_chemical_formula_sum   'Nd8 Mo2 W2 C8'
_cell_volume   354.36541876
_cell_formula_units_Z   2
loop_
 _symmetry_equiv_pos_site_id
 _symmetry_equiv_pos_as_xyz
  1  'x, y, z'
loop_
 _atom_site_type_symbol
 _atom_site_label
 _atom_site_symmetry_multiplicity
 _atom_site_fract_x
 _atom_site_fract_y
 _atom_site_fract_z
 _atom_site_occupancy
  Nd  Nd0  1  0.198220  0.802955  0.156206  1
  Nd  Nd1  1  0.803175  0.197972  0.843522  1
  Nd  Nd2  1  0.198220  0.802955  0.843794  1
  Nd  Nd3  1  0.301780  0.302955  0.343794  1
  Nd  Nd4  1  0.696825  0.697972  0.343522  1
  Nd  Nd5  1  0.301780  0.302955  0.656206  1
  Nd  Nd6  1  0.803175  0.197972  0.156478  1
  Nd  Nd7  1  0.696825  0.697972  0.656478  1
  Mo  Mo8  1  0.677139  0.676634  0.000000  1
  Mo  Mo9  1  0.822861  0.176634  0.500000  1
  W  W10  1  0.324187  0.323770  0.000000  1
  W  W11  1  0.175813  0.823770  0.500000  1
  C  C12  1  0.001279  0.502103  0.500000  1
  C  C13  1  0.001425  0.998434  0.356685  1
  C  C14  1  0.498721  0.002103  0.000000  1
  C  C15  1  0.001425  0.998434  0.643315  1
  C  C16  1  0.498575  0.498434  0.856685  1
  C  C17  1  0.498575  0.498434  0.143315  1
  C  C18  1  0.498206  0.998771  0.500000  1
  C  C19  1  0.001794  0.498771  0.000000  1
