# generated using pymatgen
data_HoTaN2
_symmetry_space_group_name_H-M   'P 1'
_cell_length_a   3.23596900
_cell_length_b   5.65867300
_cell_length_c   10.96974300
_cell_angle_alpha   90.00000000
_cell_angle_beta   90.00000000
_cell_angle_gamma   90.00000000
_symmetry_Int_Tables_number   1
_chemical_formula_structural   HoTaN2
_chemical_formula_sum   'Ho4 Ta4 N8'
_cell_volume   200.87014979
_cell_formula_units_Z   4
loop_
 _symmetry_equiv_pos_site_id
 _symmetry_equiv_pos_as_xyz
  1  'x, y, z'
loop_
 _atom_site_type_symbol
 _atom_site_label
 _atom_site_symmetry_multiplicity
 _atom_site_fract_x
 _atom_site_fract_y
 _atom_site_fract_z
 _atom_site_occupancy
  Ho  Ho0  1  0.250000  0.587600  0.863381  1
  Ho  Ho1  1  0.750000  0.412400  0.136619  1
  Ho  Ho2  1  0.750000  0.912400  0.363381  1
  Ho  Ho3  1  0.250000  0.087600  0.636619  1
  Ta  Ta4  1  0.250000  0.917711  0.112186  1
  Ta  Ta5  1  0.750000  0.082289  0.887814  1
  Ta  Ta6  1  0.750000  0.582289  0.612186  1
  Ta  Ta7  1  0.250000  0.417711  0.387814  1
  N  N8  1  0.250000  0.661733  0.243915  1
  N  N9  1  0.750000  0.338267  0.756085  1
  N  N10  1  0.750000  0.838267  0.743915  1
  N  N11  1  0.250000  0.161733  0.256085  1
  N  N12  1  0.250000  0.745831  0.504232  1
  N  N13  1  0.750000  0.254169  0.495768  1
  N  N14  1  0.750000  0.754169  0.004232  1
  N  N15  1  0.250000  0.245831  0.995768  1
