# generated using pymatgen
data_Ho2ErPa(ReB6)2
_symmetry_space_group_name_H-M   'P 1'
_cell_length_a   3.69256900
_cell_length_b   9.15033979
_cell_length_c   11.51724313
_cell_angle_alpha   90.34512649
_cell_angle_beta   90.00000000
_cell_angle_gamma   90.00000000
_symmetry_Int_Tables_number   1
_chemical_formula_structural   Ho2ErPa(ReB6)2
_chemical_formula_sum   'Ho4 Er2 Pa2 Re4 B24'
_cell_volume   389.14055745
_cell_formula_units_Z   2
loop_
 _symmetry_equiv_pos_site_id
 _symmetry_equiv_pos_as_xyz
  1  'x, y, z'
loop_
 _atom_site_type_symbol
 _atom_site_label
 _atom_site_symmetry_multiplicity
 _atom_site_fract_x
 _atom_site_fract_y
 _atom_site_fract_z
 _atom_site_occupancy
  Ho  Ho0  1  0.000000  0.823751  0.085581  1
  Ho  Ho1  1  0.000000  0.176249  0.914419  1
  Ho  Ho2  1  0.000000  0.944789  0.372389  1
  Ho  Ho3  1  0.000000  0.055211  0.627611  1
  Er  Er4  1  0.000000  0.443800  0.126356  1
  Er  Er5  1  0.000000  0.556200  0.873644  1
  Pa  Pa6  1  0.000000  0.321551  0.413041  1
  Pa  Pa7  1  0.000000  0.678449  0.586959  1
  Re  Re8  1  0.000000  0.635245  0.324270  1
  Re  Re9  1  0.000000  0.364755  0.675730  1
  Re  Re10  1  0.000000  0.140630  0.181401  1
  Re  Re11  1  0.000000  0.859370  0.818599  1
  B  B12  1  0.500000  0.553628  0.432791  1
  B  B13  1  0.500000  0.446372  0.567209  1
  B  B14  1  0.500000  0.053396  0.067155  1
  B  B15  1  0.500000  0.946604  0.932845  1
  B  B16  1  0.500000  0.748493  0.419440  1
  B  B17  1  0.500000  0.251507  0.580560  1
  B  B18  1  0.500000  0.248187  0.080009  1
  B  B19  1  0.500000  0.751813  0.919991  1
  B  B20  1  0.500000  0.791572  0.265254  1
  B  B21  1  0.500000  0.208428  0.734746  1
  B  B22  1  0.500000  0.292221  0.233585  1
  B  B23  1  0.500000  0.707779  0.766415  1
  B  B24  1  0.500000  0.631343  0.185092  1
  B  B25  1  0.500000  0.368657  0.814908  1
  B  B26  1  0.500000  0.132041  0.313957  1
  B  B27  1  0.500000  0.867959  0.686043  1
  B  B28  1  0.500000  0.982105  0.211952  1
  B  B29  1  0.500000  0.017895  0.788048  1
  B  B30  1  0.500000  0.482928  0.286301  1
  B  B31  1  0.500000  0.517072  0.713699  1
  B  B32  1  0.500000  0.604460  0.029207  1
  B  B33  1  0.500000  0.395540  0.970793  1
  B  B34  1  0.500000  0.109584  0.469663  1
  B  B35  1  0.500000  0.890416  0.530337  1
