# generated using pymatgen
data_Th8Ru5Au3
_symmetry_space_group_name_H-M   'P 1'
_cell_length_a   4.26397600
_cell_length_b   6.09922878
_cell_length_c   15.14019690
_cell_angle_alpha   90.97430384
_cell_angle_beta   90.00000000
_cell_angle_gamma   90.00000000
_symmetry_Int_Tables_number   1
_chemical_formula_structural   Th8Ru5Au3
_chemical_formula_sum   'Th8 Ru5 Au3'
_cell_volume   393.69364517
_cell_formula_units_Z   1
loop_
 _symmetry_equiv_pos_site_id
 _symmetry_equiv_pos_as_xyz
  1  'x, y, z'
loop_
 _atom_site_type_symbol
 _atom_site_label
 _atom_site_symmetry_multiplicity
 _atom_site_fract_x
 _atom_site_fract_y
 _atom_site_fract_z
 _atom_site_occupancy
  Th  Th0  1  0.250000  0.549921  0.289727  1
  Th  Th1  1  0.750000  0.471487  0.719425  1
  Th  Th2  1  0.250000  0.967811  0.774278  1
  Th  Th3  1  0.250000  0.759231  0.530563  1
  Th  Th4  1  0.250000  0.737548  0.046587  1
  Th  Th5  1  0.750000  0.267445  0.955646  1
  Th  Th6  1  0.750000  0.026749  0.226359  1
  Th  Th7  1  0.750000  0.246757  0.452918  1
  Ru  Ru8  1  0.250000  0.068852  0.350465  1
  Ru  Ru9  1  0.750000  0.581230  0.147700  1
  Ru  Ru10  1  0.750000  0.716880  0.404357  1
  Ru  Ru11  1  0.250000  0.422641  0.850256  1
  Ru  Ru12  1  0.750000  0.920661  0.649440  1
  Au  Au13  1  0.750000  0.767441  0.898976  1
  Au  Au14  1  0.250000  0.236277  0.104011  1
  Au  Au15  1  0.250000  0.259069  0.599292  1
