# generated using pymatgen
data_KBiTeO5
_symmetry_space_group_name_H-M   'P 1'
_cell_length_a   6.49667799
_cell_length_b   7.52305292
_cell_length_c   10.37853900
_cell_angle_alpha   90.00000000
_cell_angle_beta   90.00000000
_cell_angle_gamma   107.09738551
_symmetry_Int_Tables_number   1
_chemical_formula_structural   KBiTeO5
_chemical_formula_sum   'K4 Bi4 Te4 O20'
_cell_volume   484.83239244
_cell_formula_units_Z   4
loop_
 _symmetry_equiv_pos_site_id
 _symmetry_equiv_pos_as_xyz
  1  'x, y, z'
loop_
 _atom_site_type_symbol
 _atom_site_label
 _atom_site_symmetry_multiplicity
 _atom_site_fract_x
 _atom_site_fract_y
 _atom_site_fract_z
 _atom_site_occupancy
  K  K0  1  0.614088  0.218835  0.783704  1
  K  K1  1  0.885912  0.781165  0.283704  1
  K  K2  1  0.385912  0.781165  0.216296  1
  K  K3  1  0.114088  0.218835  0.716296  1
  Bi  Bi4  1  0.563639  0.705062  0.868600  1
  Bi  Bi5  1  0.936361  0.294938  0.368600  1
  Bi  Bi6  1  0.436361  0.294938  0.131400  1
  Bi  Bi7  1  0.063639  0.705062  0.631400  1
  Te  Te8  1  0.000000  0.000000  0.000000  1
  Te  Te9  1  0.500000  0.000000  0.500000  1
  Te  Te10  1  0.000000  0.500000  0.000000  1
  Te  Te11  1  0.500000  0.500000  0.500000  1
  O  O12  1  0.701636  0.492651  0.955621  1
  O  O13  1  0.798364  0.507349  0.455621  1
  O  O14  1  0.298364  0.507349  0.044379  1
  O  O15  1  0.201636  0.492651  0.544379  1
  O  O16  1  0.091643  0.771931  0.042532  1
  O  O17  1  0.408357  0.228069  0.542532  1
  O  O18  1  0.908357  0.228069  0.957468  1
  O  O19  1  0.591643  0.771931  0.457468  1
  O  O20  1  0.900462  0.452566  0.176412  1
  O  O21  1  0.599538  0.547434  0.676412  1
  O  O22  1  0.099538  0.547434  0.823588  1
  O  O23  1  0.400462  0.452566  0.323588  1
  O  O24  1  0.099176  0.099829  0.172411  1
  O  O25  1  0.400824  0.900171  0.672411  1
  O  O26  1  0.900824  0.900171  0.827589  1
  O  O27  1  0.599176  0.099829  0.327589  1
  O  O28  1  0.288685  0.122784  0.944868  1
  O  O29  1  0.211315  0.877216  0.444868  1
  O  O30  1  0.711315  0.877216  0.055132  1
  O  O31  1  0.788685  0.122784  0.555132  1
