# generated using pymatgen
data_Ba4SiSn3Pt4
_symmetry_space_group_name_H-M   'P 1'
_cell_length_a   7.09362472
_cell_length_b   7.09362472
_cell_length_c   7.09362472
_cell_angle_alpha   90.41131769
_cell_angle_beta   89.58868231
_cell_angle_gamma   89.58868231
_symmetry_Int_Tables_number   1
_chemical_formula_structural   Ba4SiSn3Pt4
_chemical_formula_sum   'Ba4 Si1 Sn3 Pt4'
_cell_volume   356.92000654
_cell_formula_units_Z   1
loop_
 _symmetry_equiv_pos_site_id
 _symmetry_equiv_pos_as_xyz
  1  'x, y, z'
loop_
 _atom_site_type_symbol
 _atom_site_label
 _atom_site_symmetry_multiplicity
 _atom_site_fract_x
 _atom_site_fract_y
 _atom_site_fract_z
 _atom_site_occupancy
  Ba  Ba0  1  0.899906  0.895300  0.891440  1
  Ba  Ba1  1  0.608560  0.100094  0.395300  1
  Ba  Ba2  1  0.104700  0.391440  0.600094  1
  Ba  Ba3  1  0.392878  0.607122  0.107122  1
  Si  Si4  1  0.091901  0.908099  0.408099  1
  Sn  Sn5  1  0.589947  0.595502  0.585689  1
  Sn  Sn6  1  0.914311  0.410053  0.095502  1
  Sn  Sn7  1  0.404498  0.085689  0.910053  1
  Pt  Pt8  1  0.158477  0.141156  0.189286  1
  Pt  Pt9  1  0.310714  0.841523  0.641156  1
  Pt  Pt10  1  0.858844  0.689286  0.341523  1
  Pt  Pt11  1  0.665263  0.334737  0.834737  1
