# generated using pymatgen
data_Tb2ZnIrRh
_symmetry_space_group_name_H-M   'P 1'
_cell_length_a   5.50165328
_cell_length_b   5.50165440
_cell_length_c   5.50165405
_cell_angle_alpha   135.59792004
_cell_angle_beta   114.94675485
_cell_angle_gamma   82.17065937
_symmetry_Int_Tables_number   1
_chemical_formula_structural   Tb2ZnIrRh
_chemical_formula_sum   'Tb2 Zn1 Ir1 Rh1'
_cell_volume   102.00414856
_cell_formula_units_Z   1
loop_
 _symmetry_equiv_pos_site_id
 _symmetry_equiv_pos_as_xyz
  1  'x, y, z'
loop_
 _atom_site_type_symbol
 _atom_site_label
 _atom_site_symmetry_multiplicity
 _atom_site_fract_x
 _atom_site_fract_y
 _atom_site_fract_z
 _atom_site_occupancy
  Tb  Tb0  1  0.700262  0.202633  0.497629  1
  Tb  Tb1  1  0.294996  0.797367  0.497629  1
  Zn  Zn2  1  0.001572  0.000000  0.001572  1
  Ir  Ir3  1  0.266945  0.500000  0.766945  1
  Rh  Rh4  1  0.736225  0.500000  0.236225  1
