# generated using pymatgen
data_La9Pr3Ir2(AuI6)2
_symmetry_space_group_name_H-M   'P 1'
_cell_length_a   11.17020447
_cell_length_b   11.17650842
_cell_length_c   10.99267280
_cell_angle_alpha   110.14622732
_cell_angle_beta   108.83253459
_cell_angle_gamma   110.22397039
_symmetry_Int_Tables_number   1
_chemical_formula_structural   La9Pr3Ir2(AuI6)2
_chemical_formula_sum   'La9 Pr3 Ir2 Au2 I12'
_cell_volume   1045.88992211
_cell_formula_units_Z   1
loop_
 _symmetry_equiv_pos_site_id
 _symmetry_equiv_pos_as_xyz
  1  'x, y, z'
loop_
 _atom_site_type_symbol
 _atom_site_label
 _atom_site_symmetry_multiplicity
 _atom_site_fract_x
 _atom_site_fract_y
 _atom_site_fract_z
 _atom_site_occupancy
  La  La0  1  0.229871  0.466431  0.489676  1
  La  La1  1  0.261725  0.731600  0.221862  1
  La  La2  1  0.043443  0.281028  0.011349  1
  La  La3  1  0.009179  0.043181  0.282436  1
  La  La4  1  0.469573  0.731224  0.008071  1
  La  La5  1  0.483696  0.232887  0.468762  1
  La  La6  1  0.012532  0.472079  0.733791  1
  La  La7  1  0.266000  0.017326  0.035780  1
  La  La8  1  0.234710  0.274333  0.757080  1
  Pr  Pr9  1  0.464616  0.487819  0.230330  1
  Pr  Pr10  1  0.758760  0.233120  0.272617  1
  Pr  Pr11  1  0.760113  0.024953  0.484090  1
  Ir  Ir12  1  0.004603  0.253277  0.502534  1
  Ir  Ir13  1  0.249192  0.500162  0.996940  1
  Au  Au14  1  0.251277  0.253107  0.253346  1
  Au  Au15  1  0.499598  0.997251  0.249099  1
  I  I16  1  0.251153  0.762777  0.742246  1
  I  I17  1  0.523082  0.510372  0.759489  1
  I  I18  1  0.987901  0.743155  0.995213  1
  I  I19  1  0.738531  0.247011  0.756203  1
  I  I20  1  0.990951  0.981662  0.740890  1
  I  I21  1  0.247041  0.991400  0.504904  1
  I  I22  1  0.752803  0.512319  0.501087  1
  I  I23  1  0.510466  0.250456  0.999136  1
  I  I24  1  0.755008  0.738859  0.249634  1
  I  I25  1  0.743947  0.993911  0.986444  1
  I  I26  1  0.989580  0.507187  0.251154  1
  I  I27  1  0.510650  0.761115  0.515839  1
