# generated using pymatgen
data_Er2Tm6In2IrRu
_symmetry_space_group_name_H-M   'P 1'
_cell_length_a   9.54542039
_cell_length_b   9.56513378
_cell_length_c   9.56920763
_cell_angle_alpha   59.84361431
_cell_angle_beta   59.77804602
_cell_angle_gamma   59.77925892
_symmetry_Int_Tables_number   1
_chemical_formula_structural   Er2Tm6In2IrRu
_chemical_formula_sum   'Er4 Tm12 In4 Ir2 Ru2'
_cell_volume   614.99769961
_cell_formula_units_Z   2
loop_
 _symmetry_equiv_pos_site_id
 _symmetry_equiv_pos_as_xyz
  1  'x, y, z'
loop_
 _atom_site_type_symbol
 _atom_site_label
 _atom_site_symmetry_multiplicity
 _atom_site_fract_x
 _atom_site_fract_y
 _atom_site_fract_z
 _atom_site_occupancy
  Er  Er0  1  0.807709  0.808492  0.191191  1
  Er  Er1  1  0.060281  0.439826  0.440735  1
  Er  Er2  1  0.439600  0.441643  0.060089  1
  Er  Er3  1  0.058399  0.441731  0.058890  1
  Tm  Tm4  1  0.058405  0.058542  0.442263  1
  Tm  Tm5  1  0.651332  0.043863  0.651748  1
  Tm  Tm6  1  0.193922  0.809265  0.190833  1
  Tm  Tm7  1  0.439388  0.059576  0.442478  1
  Tm  Tm8  1  0.193877  0.190701  0.808929  1
  Tm  Tm9  1  0.649618  0.651880  0.652033  1
  Tm  Tm10  1  0.045887  0.651835  0.651555  1
  Tm  Tm11  1  0.442073  0.057539  0.057845  1
  Tm  Tm12  1  0.651092  0.651823  0.043680  1
  Tm  Tm13  1  0.192459  0.809204  0.808408  1
  Tm  Tm14  1  0.808030  0.191390  0.807866  1
  Tm  Tm15  1  0.807912  0.192909  0.192913  1
  In  In16  1  0.747847  0.417020  0.417402  1
  In  In17  1  0.416397  0.416296  0.750323  1
  In  In18  1  0.416039  0.750996  0.416223  1
  In  In19  1  0.418443  0.416797  0.416815  1
  Ir  Ir20  1  0.859623  0.858641  0.421142  1
  Ir  Ir21  1  0.859737  0.420667  0.858372  1
  Ru  Ru22  1  0.861738  0.860334  0.859585  1
  Ru  Ru23  1  0.420197  0.859030  0.858681  1
