# generated using pymatgen
data_Yb6TiCo14(P4Rh)3
_symmetry_space_group_name_H-M   'P 1'
_cell_length_a   3.68243500
_cell_length_b   10.59588300
_cell_length_c   12.28148700
_cell_angle_alpha   90.00000000
_cell_angle_beta   90.00000000
_cell_angle_gamma   90.00000000
_symmetry_Int_Tables_number   1
_chemical_formula_structural   Yb6TiCo14(P4Rh)3
_chemical_formula_sum   'Yb6 Ti1 Co14 P12 Rh3'
_cell_volume   479.20704783
_cell_formula_units_Z   1
loop_
 _symmetry_equiv_pos_site_id
 _symmetry_equiv_pos_as_xyz
  1  'x, y, z'
loop_
 _atom_site_type_symbol
 _atom_site_label
 _atom_site_symmetry_multiplicity
 _atom_site_fract_x
 _atom_site_fract_y
 _atom_site_fract_z
 _atom_site_occupancy
  Yb  Yb0  1  0.000000  0.500000  0.525607  1
  Yb  Yb1  1  0.500000  0.000000  0.472759  1
  Yb  Yb2  1  0.500000  0.821450  0.206717  1
  Yb  Yb3  1  0.500000  0.178550  0.206717  1
  Yb  Yb4  1  0.000000  0.679264  0.795855  1
  Yb  Yb5  1  0.000000  0.320736  0.795855  1
  Ti  Ti6  1  0.500000  0.500000  0.152609  1
  Co  Co7  1  0.000000  0.500000  0.989748  1
  Co  Co8  1  0.500000  0.000000  0.009285  1
  Co  Co9  1  0.500000  0.329034  0.995635  1
  Co  Co10  1  0.500000  0.670966  0.995635  1
  Co  Co11  1  0.000000  0.167128  0.005136  1
  Co  Co12  1  0.000000  0.832872  0.005136  1
  Co  Co13  1  0.500000  0.298817  0.433811  1
  Co  Co14  1  0.500000  0.701183  0.433811  1
  Co  Co15  1  0.000000  0.199610  0.568677  1
  Co  Co16  1  0.000000  0.800390  0.568677  1
  Co  Co17  1  0.500000  0.880601  0.706813  1
  Co  Co18  1  0.500000  0.119399  0.706813  1
  Co  Co19  1  0.000000  0.619994  0.293054  1
  Co  Co20  1  0.000000  0.380006  0.293054  1
  P  P21  1  0.500000  0.500000  0.890480  1
  P  P22  1  0.000000  0.000000  0.109829  1
  P  P23  1  0.500000  0.500000  0.351254  1
  P  P24  1  0.000000  0.000000  0.648989  1
  P  P25  1  0.500000  0.301609  0.615772  1
  P  P26  1  0.500000  0.698391  0.615772  1
  P  P27  1  0.000000  0.199095  0.385922  1
  P  P28  1  0.000000  0.800905  0.385922  1
  P  P29  1  0.500000  0.844443  0.891719  1
  P  P30  1  0.500000  0.155557  0.891719  1
  P  P31  1  0.000000  0.658121  0.106545  1
  P  P32  1  0.000000  0.341879  0.106545  1
  Rh  Rh33  1  0.000000  0.000000  0.838149  1
  Rh  Rh34  1  0.500000  0.500000  0.701204  1
  Rh  Rh35  1  0.000000  0.000000  0.298781  1
