# generated using pymatgen
data_CeGd3U4(ReB6)4
_symmetry_space_group_name_H-M   'P 1'
_cell_length_a   3.66396000
_cell_length_b   9.34962301
_cell_length_c   11.45085947
_cell_angle_alpha   90.01435407
_cell_angle_beta   90.00000000
_cell_angle_gamma   90.00000000
_symmetry_Int_Tables_number   1
_chemical_formula_structural   CeGd3U4(ReB6)4
_chemical_formula_sum   'Ce1 Gd3 U4 Re4 B24'
_cell_volume   392.26801203
_cell_formula_units_Z   1
loop_
 _symmetry_equiv_pos_site_id
 _symmetry_equiv_pos_as_xyz
  1  'x, y, z'
loop_
 _atom_site_type_symbol
 _atom_site_label
 _atom_site_symmetry_multiplicity
 _atom_site_fract_x
 _atom_site_fract_y
 _atom_site_fract_z
 _atom_site_occupancy
  Ce  Ce0  1  0.000000  0.336274  0.407840  1
  Gd  Gd1  1  0.000000  0.663423  0.592344  1
  Gd  Gd2  1  0.000000  0.836615  0.092064  1
  Gd  Gd3  1  0.000000  0.163395  0.907840  1
  U  U4  1  0.000000  0.956297  0.397062  1
  U  U5  1  0.000000  0.042698  0.603287  1
  U  U6  1  0.000000  0.457240  0.102077  1
  U  U7  1  0.000000  0.543257  0.897526  1
  Re  Re8  1  0.000000  0.645510  0.318561  1
  Re  Re9  1  0.000000  0.353819  0.680941  1
  Re  Re10  1  0.000000  0.146828  0.182645  1
  Re  Re11  1  0.000000  0.853679  0.818227  1
  B  B12  1  0.500000  0.552615  0.430142  1
  B  B13  1  0.500000  0.447066  0.569679  1
  B  B14  1  0.500000  0.052999  0.069931  1
  B  B15  1  0.500000  0.947416  0.930283  1
  B  B16  1  0.500000  0.743447  0.422579  1
  B  B17  1  0.500000  0.257036  0.577455  1
  B  B18  1  0.500000  0.243429  0.077367  1
  B  B19  1  0.500000  0.756573  0.922691  1
  B  B20  1  0.500000  0.801690  0.275457  1
  B  B21  1  0.500000  0.198036  0.724560  1
  B  B22  1  0.500000  0.302206  0.224973  1
  B  B23  1  0.500000  0.697883  0.775227  1
  B  B24  1  0.500000  0.644079  0.188516  1
  B  B25  1  0.500000  0.355703  0.811396  1
  B  B26  1  0.500000  0.144607  0.311313  1
  B  B27  1  0.500000  0.855980  0.688299  1
  B  B28  1  0.500000  0.990155  0.219773  1
  B  B29  1  0.500000  0.010006  0.780220  1
  B  B30  1  0.500000  0.489741  0.280425  1
  B  B31  1  0.500000  0.509835  0.719747  1
  B  B32  1  0.500000  0.638851  0.038495  1
  B  B33  1  0.500000  0.360930  0.961510  1
  B  B34  1  0.500000  0.139831  0.461398  1
  B  B35  1  0.500000  0.860853  0.538151  1
