# generated using pymatgen
data_Tb3InCu(HgAu)2
_symmetry_space_group_name_H-M   'P 1'
_cell_length_a   7.86654700
_cell_length_b   7.89023142
_cell_length_c   3.75920100
_cell_angle_alpha   90.00000000
_cell_angle_beta   90.00000000
_cell_angle_gamma   119.90075701
_symmetry_Int_Tables_number   1
_chemical_formula_structural   Tb3InCu(HgAu)2
_chemical_formula_sum   'Tb3 In1 Cu1 Hg2 Au2'
_cell_volume   202.27094584
_cell_formula_units_Z   1
loop_
 _symmetry_equiv_pos_site_id
 _symmetry_equiv_pos_as_xyz
  1  'x, y, z'
loop_
 _atom_site_type_symbol
 _atom_site_label
 _atom_site_symmetry_multiplicity
 _atom_site_fract_x
 _atom_site_fract_y
 _atom_site_fract_z
 _atom_site_occupancy
  Tb  Tb0  1  0.607076  0.000000  0.500000  1
  Tb  Tb1  1  0.404721  0.412496  0.500000  1
  Tb  Tb2  1  0.992224  0.587504  0.500000  1
  In  In3  1  0.251118  0.000000  0.000000  1
  Cu  Cu4  1  0.003951  0.000000  0.500000  1
  Hg  Hg5  1  0.746342  0.742280  0.000000  1
  Hg  Hg6  1  0.004063  0.257720  0.000000  1
  Au  Au7  1  0.332639  0.674772  0.000000  1
  Au  Au8  1  0.657866  0.325228  0.000000  1
