# generated using pymatgen
data_Zr2Fe3P6Ru7
_symmetry_space_group_name_H-M   'P 1'
_cell_length_a   3.81302100
_cell_length_b   10.48901700
_cell_length_c   12.15449700
_cell_angle_alpha   90.00000000
_cell_angle_beta   90.00000000
_cell_angle_gamma   90.00000000
_symmetry_Int_Tables_number   1
_chemical_formula_structural   Zr2Fe3P6Ru7
_chemical_formula_sum   'Zr4 Fe6 P12 Ru14'
_cell_volume   486.11718820
_cell_formula_units_Z   2
loop_
 _symmetry_equiv_pos_site_id
 _symmetry_equiv_pos_as_xyz
  1  'x, y, z'
loop_
 _atom_site_type_symbol
 _atom_site_label
 _atom_site_symmetry_multiplicity
 _atom_site_fract_x
 _atom_site_fract_y
 _atom_site_fract_z
 _atom_site_occupancy
  Zr  Zr0  1  0.250000  0.579469  0.709677  1
  Zr  Zr1  1  0.250000  0.920531  0.209677  1
  Zr  Zr2  1  0.750000  0.417202  0.294160  1
  Zr  Zr3  1  0.750000  0.082798  0.794160  1
  Fe  Fe4  1  0.750000  0.118071  0.299239  1
  Fe  Fe5  1  0.750000  0.381929  0.799239  1
  Fe  Fe6  1  0.250000  0.459802  0.932308  1
  Fe  Fe7  1  0.250000  0.040198  0.432308  1
  Fe  Fe8  1  0.750000  0.535558  0.061823  1
  Fe  Fe9  1  0.750000  0.964442  0.561823  1
  P  P10  1  0.250000  0.425683  0.108490  1
  P  P11  1  0.250000  0.074317  0.608490  1
  P  P12  1  0.750000  0.563715  0.884921  1
  P  P13  1  0.750000  0.936285  0.384921  1
  P  P14  1  0.250000  0.268575  0.865392  1
  P  P15  1  0.250000  0.231425  0.365392  1
  P  P16  1  0.750000  0.729787  0.133419  1
  P  P17  1  0.750000  0.770213  0.633419  1
  P  P18  1  0.250000  0.602028  0.392373  1
  P  P19  1  0.250000  0.897972  0.892373  1
  P  P20  1  0.750000  0.399530  0.614865  1
  P  P21  1  0.750000  0.100470  0.114865  1
  Ru  Ru22  1  0.250000  0.703882  0.988271  1
  Ru  Ru23  1  0.250000  0.796118  0.488271  1
  Ru  Ru24  1  0.750000  0.292534  0.009112  1
  Ru  Ru25  1  0.750000  0.207466  0.509112  1
  Ru  Ru26  1  0.250000  0.405663  0.482243  1
  Ru  Ru27  1  0.250000  0.094337  0.982243  1
  Ru  Ru28  1  0.750000  0.595481  0.519617  1
  Ru  Ru29  1  0.750000  0.904519  0.019617  1
  Ru  Ru30  1  0.250000  0.227548  0.177216  1
  Ru  Ru31  1  0.250000  0.272452  0.677216  1
  Ru  Ru32  1  0.750000  0.765488  0.824572  1
  Ru  Ru33  1  0.750000  0.734512  0.324572  1
  Ru  Ru34  1  0.250000  0.887591  0.702302  1
  Ru  Ru35  1  0.250000  0.612409  0.202302  1
