# generated using pymatgen
data_Dy2Ni7(As2Ru)3
_symmetry_space_group_name_H-M   'P 1'
_cell_length_a   3.85820200
_cell_length_b   10.98559200
_cell_length_c   12.39501100
_cell_angle_alpha   90.00000000
_cell_angle_beta   90.00000000
_cell_angle_gamma   90.00000000
_symmetry_Int_Tables_number   1
_chemical_formula_structural   Dy2Ni7(As2Ru)3
_chemical_formula_sum   'Dy4 Ni14 As12 Ru6'
_cell_volume   525.35799258
_cell_formula_units_Z   2
loop_
 _symmetry_equiv_pos_site_id
 _symmetry_equiv_pos_as_xyz
  1  'x, y, z'
loop_
 _atom_site_type_symbol
 _atom_site_label
 _atom_site_symmetry_multiplicity
 _atom_site_fract_x
 _atom_site_fract_y
 _atom_site_fract_z
 _atom_site_occupancy
  Dy  Dy0  1  0.250000  0.589502  0.704705  1
  Dy  Dy1  1  0.250000  0.910498  0.204705  1
  Dy  Dy2  1  0.750000  0.411010  0.293718  1
  Dy  Dy3  1  0.750000  0.088990  0.793718  1
  Ni  Ni4  1  0.750000  0.592636  0.510714  1
  Ni  Ni5  1  0.750000  0.907364  0.010714  1
  Ni  Ni6  1  0.250000  0.217207  0.183240  1
  Ni  Ni7  1  0.250000  0.282793  0.683240  1
  Ni  Ni8  1  0.750000  0.785231  0.817782  1
  Ni  Ni9  1  0.750000  0.714769  0.317782  1
  Ni  Ni10  1  0.250000  0.887405  0.697037  1
  Ni  Ni11  1  0.250000  0.612595  0.197037  1
  Ni  Ni12  1  0.750000  0.108276  0.302634  1
  Ni  Ni13  1  0.750000  0.391724  0.802634  1
  Ni  Ni14  1  0.250000  0.471099  0.930398  1
  Ni  Ni15  1  0.250000  0.028901  0.430398  1
  Ni  Ni16  1  0.750000  0.531928  0.069159  1
  Ni  Ni17  1  0.750000  0.968072  0.569159  1
  As  As18  1  0.250000  0.412679  0.112699  1
  As  As19  1  0.250000  0.087321  0.612699  1
  As  As20  1  0.750000  0.589478  0.887336  1
  As  As21  1  0.750000  0.910522  0.387336  1
  As  As22  1  0.250000  0.272041  0.873721  1
  As  As23  1  0.250000  0.227959  0.373721  1
  As  As24  1  0.750000  0.731116  0.125813  1
  As  As25  1  0.750000  0.768884  0.625813  1
  As  As26  1  0.250000  0.597287  0.384691  1
  As  As27  1  0.250000  0.902713  0.884691  1
  As  As28  1  0.750000  0.403826  0.615467  1
  As  As29  1  0.750000  0.096174  0.115467  1
  Ru  Ru30  1  0.250000  0.714896  0.988147  1
  Ru  Ru31  1  0.250000  0.785104  0.488147  1
  Ru  Ru32  1  0.750000  0.289224  0.012731  1
  Ru  Ru33  1  0.750000  0.210776  0.512731  1
  Ru  Ru34  1  0.250000  0.410508  0.490006  1
  Ru  Ru35  1  0.250000  0.089492  0.990006  1
