# generated using pymatgen
data_Cs8Na4DyEr3Sb8
_symmetry_space_group_name_H-M   'P 1'
_cell_length_a   11.62157581
_cell_length_b   11.62157411
_cell_length_c   7.56960713
_cell_angle_alpha   89.98359134
_cell_angle_beta   90.01641315
_cell_angle_gamma   99.96841228
_symmetry_Int_Tables_number   1
_chemical_formula_structural   Cs8Na4DyEr3Sb8
_chemical_formula_sum   'Cs8 Na4 Dy1 Er3 Sb8'
_cell_volume   1006.92446771
_cell_formula_units_Z   1
loop_
 _symmetry_equiv_pos_site_id
 _symmetry_equiv_pos_as_xyz
  1  'x, y, z'
loop_
 _atom_site_type_symbol
 _atom_site_label
 _atom_site_symmetry_multiplicity
 _atom_site_fract_x
 _atom_site_fract_y
 _atom_site_fract_z
 _atom_site_occupancy
  Cs  Cs0  1  0.070405  0.429542  0.249956  1
  Cs  Cs1  1  0.429542  0.070405  0.750044  1
  Cs  Cs2  1  0.929687  0.570438  0.750051  1
  Cs  Cs3  1  0.570438  0.929687  0.249949  1
  Cs  Cs4  1  0.677335  0.322556  0.212474  1
  Cs  Cs5  1  0.822685  0.177326  0.712550  1
  Cs  Cs6  1  0.322556  0.677335  0.787526  1
  Cs  Cs7  1  0.177326  0.822685  0.287450  1
  Na  Na8  1  0.382079  0.382079  0.000000  1
  Na  Na9  1  0.117863  0.117863  0.500000  1
  Na  Na10  1  0.617872  0.617872  0.000000  1
  Na  Na11  1  0.882245  0.882245  0.500000  1
  Dy  Dy12  1  0.630870  0.630870  0.500000  1
  Er  Er13  1  0.130530  0.130530  0.000000  1
  Er  Er14  1  0.369166  0.369166  0.500000  1
  Er  Er15  1  0.869551  0.869551  0.000000  1
  Sb  Sb16  1  0.842178  0.658834  0.248907  1
  Sb  Sb17  1  0.658834  0.842178  0.751093  1
  Sb  Sb18  1  0.158761  0.341242  0.749963  1
  Sb  Sb19  1  0.341242  0.158761  0.250037  1
  Sb  Sb20  1  0.905137  0.094940  0.209456  1
  Sb  Sb21  1  0.594616  0.404139  0.710224  1
  Sb  Sb22  1  0.094940  0.905137  0.790544  1
  Sb  Sb23  1  0.404139  0.594616  0.289776  1
