# generated using pymatgen
data_Ti3Mn8Ga
_symmetry_space_group_name_H-M   'P 1'
_cell_length_a   4.71854600
_cell_length_b   4.71854626
_cell_length_c   7.77985300
_cell_angle_alpha   90.00000000
_cell_angle_beta   90.00000000
_cell_angle_gamma   119.99999821
_symmetry_Int_Tables_number   1
_chemical_formula_structural   Ti3Mn8Ga
_chemical_formula_sum   'Ti3 Mn8 Ga1'
_cell_volume   150.00938848
_cell_formula_units_Z   1
loop_
 _symmetry_equiv_pos_site_id
 _symmetry_equiv_pos_as_xyz
  1  'x, y, z'
loop_
 _atom_site_type_symbol
 _atom_site_label
 _atom_site_symmetry_multiplicity
 _atom_site_fract_x
 _atom_site_fract_y
 _atom_site_fract_z
 _atom_site_occupancy
  Ti  Ti0  1  0.666667  0.333333  0.935791  1
  Ti  Ti1  1  0.666667  0.333333  0.561690  1
  Ti  Ti2  1  0.333333  0.666667  0.070888  1
  Mn  Mn3  1  0.652821  0.826411  0.750280  1
  Mn  Mn4  1  0.345419  0.172709  0.250009  1
  Mn  Mn5  1  0.827291  0.172709  0.250009  1
  Mn  Mn6  1  0.173589  0.347179  0.750280  1
  Mn  Mn7  1  0.173589  0.826411  0.750280  1
  Mn  Mn8  1  0.827291  0.654581  0.250009  1
  Mn  Mn9  1  0.000000  0.000000  0.499581  1
  Mn  Mn10  1  0.000000  0.000000  0.995113  1
  Ga  Ga11  1  0.333333  0.666667  0.436070  1
