# generated using pymatgen
data_TbLu4Ni19
_symmetry_space_group_name_H-M   'P 1'
_cell_length_a   4.85097189
_cell_length_b   4.85097240
_cell_length_c   16.29112982
_cell_angle_alpha   81.43774819
_cell_angle_beta   81.43774639
_cell_angle_gamma   60.00000009
_symmetry_Int_Tables_number   1
_chemical_formula_structural   TbLu4Ni19
_chemical_formula_sum   'Tb1 Lu4 Ni19'
_cell_volume   327.05802586
_cell_formula_units_Z   1
loop_
 _symmetry_equiv_pos_site_id
 _symmetry_equiv_pos_as_xyz
  1  'x, y, z'
loop_
 _atom_site_type_symbol
 _atom_site_label
 _atom_site_symmetry_multiplicity
 _atom_site_fract_x
 _atom_site_fract_y
 _atom_site_fract_z
 _atom_site_occupancy
  Tb  Tb0  1  0.000000  0.000000  0.000000  1
  Lu  Lu1  1  0.921411  0.921411  0.235768  1
  Lu  Lu2  1  0.078589  0.078589  0.764232  1
  Lu  Lu3  1  0.847959  0.847959  0.456124  1
  Lu  Lu4  1  0.152041  0.152041  0.543876  1
  Ni  Ni5  1  0.500000  0.500000  0.500000  1
  Ni  Ni6  1  0.749745  0.749746  0.750764  1
  Ni  Ni7  1  0.250254  0.250254  0.249237  1
  Ni  Ni8  1  0.666763  0.666763  0.999713  1
  Ni  Ni9  1  0.333237  0.333237  0.000287  1
  Ni  Ni10  1  0.583737  0.583737  0.248789  1
  Ni  Ni11  1  0.416263  0.416263  0.751211  1
  Ni  Ni12  1  0.375451  0.375451  0.372560  1
  Ni  Ni13  1  0.876535  0.375451  0.372560  1
  Ni  Ni14  1  0.375451  0.876535  0.372560  1
  Ni  Ni15  1  0.624549  0.624549  0.627440  1
  Ni  Ni16  1  0.123465  0.624549  0.627440  1
  Ni  Ni17  1  0.624549  0.123465  0.627440  1
  Ni  Ni18  1  0.458641  0.458641  0.123718  1
  Ni  Ni19  1  0.959002  0.458641  0.123718  1
  Ni  Ni20  1  0.458641  0.959002  0.123718  1
  Ni  Ni21  1  0.541359  0.541359  0.876282  1
  Ni  Ni22  1  0.040998  0.541359  0.876282  1
  Ni  Ni23  1  0.541359  0.040998  0.876282  1
