# generated using pymatgen
data_Pr2ZnGaPt2
_symmetry_space_group_name_H-M   'P 1'
_cell_length_a   4.51394200
_cell_length_b   7.13498300
_cell_length_c   7.96835500
_cell_angle_alpha   90.00000000
_cell_angle_beta   90.00000000
_cell_angle_gamma   90.00000000
_symmetry_Int_Tables_number   1
_chemical_formula_structural   Pr2ZnGaPt2
_chemical_formula_sum   'Pr4 Zn2 Ga2 Pt4'
_cell_volume   256.63600813
_cell_formula_units_Z   2
loop_
 _symmetry_equiv_pos_site_id
 _symmetry_equiv_pos_as_xyz
  1  'x, y, z'
loop_
 _atom_site_type_symbol
 _atom_site_label
 _atom_site_symmetry_multiplicity
 _atom_site_fract_x
 _atom_site_fract_y
 _atom_site_fract_z
 _atom_site_occupancy
  Pr  Pr0  1  0.250000  0.025083  0.690461  1
  Pr  Pr1  1  0.250000  0.525083  0.809539  1
  Pr  Pr2  1  0.750000  0.975384  0.308642  1
  Pr  Pr3  1  0.750000  0.475384  0.191358  1
  Zn  Zn4  1  0.250000  0.159619  0.071937  1
  Zn  Zn5  1  0.250000  0.659619  0.428063  1
  Ga  Ga6  1  0.750000  0.844736  0.931025  1
  Ga  Ga7  1  0.750000  0.344736  0.568975  1
  Pt  Pt8  1  0.250000  0.275664  0.395738  1
  Pt  Pt9  1  0.250000  0.775664  0.104262  1
  Pt  Pt10  1  0.750000  0.719513  0.610711  1
  Pt  Pt11  1  0.750000  0.219513  0.889289  1
