# generated using pymatgen
data_DyY3ScIr3O14
_symmetry_space_group_name_H-M   'P 1'
_cell_length_a   7.26166020
_cell_length_b   7.26165935
_cell_length_c   7.33043900
_cell_angle_alpha   60.30989226
_cell_angle_beta   60.30989806
_cell_angle_gamma   59.99999735
_symmetry_Int_Tables_number   1
_chemical_formula_structural   DyY3ScIr3O14
_chemical_formula_sum   'Dy1 Y3 Sc1 Ir3 O14'
_cell_volume   274.60297193
_cell_formula_units_Z   1
loop_
 _symmetry_equiv_pos_site_id
 _symmetry_equiv_pos_as_xyz
  1  'x, y, z'
loop_
 _atom_site_type_symbol
 _atom_site_label
 _atom_site_symmetry_multiplicity
 _atom_site_fract_x
 _atom_site_fract_y
 _atom_site_fract_z
 _atom_site_occupancy
  Dy  Dy0  1  0.125000  0.125000  0.625000  1
  Y  Y1  1  0.625000  0.125000  0.125000  1
  Y  Y2  1  0.125000  0.625000  0.125000  1
  Y  Y3  1  0.125000  0.125000  0.125000  1
  Sc  Sc4  1  0.625000  0.625000  0.125000  1
  Ir  Ir5  1  0.125000  0.625000  0.625000  1
  Ir  Ir6  1  0.625000  0.125000  0.625000  1
  Ir  Ir7  1  0.625000  0.625000  0.625000  1
  O  O8  1  0.720144  0.720144  0.289666  1
  O  O9  1  0.296322  0.296322  0.687266  1
  O  O10  1  0.720091  0.296322  0.687266  1
  O  O11  1  0.270047  0.720144  0.289666  1
  O  O12  1  0.296322  0.720091  0.687266  1
  O  O13  1  0.720144  0.270047  0.289666  1
  O  O14  1  0.529856  0.529856  0.960334  1
  O  O15  1  0.953678  0.953678  0.562734  1
  O  O16  1  0.529909  0.953678  0.562734  1
  O  O17  1  0.979953  0.529856  0.960334  1
  O  O18  1  0.953678  0.529909  0.562734  1
  O  O19  1  0.529856  0.979953  0.960334  1
  O  O20  1  0.246943  0.246943  0.259170  1
  O  O21  1  0.003057  0.003057  0.990830  1
