# generated using pymatgen
data_Ac2Al2Te
_symmetry_space_group_name_H-M   'P 1'
_cell_length_a   4.52059200
_cell_length_b   4.52059156
_cell_length_c   18.15324100
_cell_angle_alpha   90.00000000
_cell_angle_beta   90.00000000
_cell_angle_gamma   120.00000325
_symmetry_Int_Tables_number   1
_chemical_formula_structural   Ac2Al2Te
_chemical_formula_sum   'Ac4 Al4 Te2'
_cell_volume   321.27384613
_cell_formula_units_Z   2
loop_
 _symmetry_equiv_pos_site_id
 _symmetry_equiv_pos_as_xyz
  1  'x, y, z'
loop_
 _atom_site_type_symbol
 _atom_site_label
 _atom_site_symmetry_multiplicity
 _atom_site_fract_x
 _atom_site_fract_y
 _atom_site_fract_z
 _atom_site_occupancy
  Ac  Ac0  1  0.000000  0.000000  0.373883  1
  Ac  Ac1  1  0.000000  0.000000  0.873883  1
  Ac  Ac2  1  0.000000  0.000000  0.626117  1
  Ac  Ac3  1  0.000000  0.000000  0.126117  1
  Al  Al4  1  0.666667  0.333333  0.495995  1
  Al  Al5  1  0.333333  0.666667  0.995995  1
  Al  Al6  1  0.333333  0.666667  0.504005  1
  Al  Al7  1  0.666667  0.333333  0.004005  1
  Te  Te8  1  0.333333  0.666667  0.250000  1
  Te  Te9  1  0.666667  0.333333  0.750000  1
