# generated using pymatgen
data_YEr5(ReB7)2
_symmetry_space_group_name_H-M   'P 1'
_cell_length_a   8.02540436
_cell_length_b   8.02540417
_cell_length_c   9.32327300
_cell_angle_alpha   90.00000000
_cell_angle_beta   90.00000000
_cell_angle_gamma   154.67360896
_symmetry_Int_Tables_number   1
_chemical_formula_structural   YEr5(ReB7)2
_chemical_formula_sum   'Y1 Er5 Re2 B14'
_cell_volume   256.87206361
_cell_formula_units_Z   1
loop_
 _symmetry_equiv_pos_site_id
 _symmetry_equiv_pos_as_xyz
  1  'x, y, z'
loop_
 _atom_site_type_symbol
 _atom_site_label
 _atom_site_symmetry_multiplicity
 _atom_site_fract_x
 _atom_site_fract_y
 _atom_site_fract_z
 _atom_site_occupancy
  Y  Y0  1  0.243854  0.756146  0.750000  1
  Er  Er1  1  0.894794  0.105206  0.940982  1
  Er  Er2  1  0.105401  0.894599  0.059821  1
  Er  Er3  1  0.757440  0.242560  0.250000  1
  Er  Er4  1  0.894794  0.105206  0.559018  1
  Er  Er5  1  0.105401  0.894599  0.440179  1
  Re  Re6  1  0.052049  0.947951  0.750000  1
  Re  Re7  1  0.947687  0.052313  0.250000  1
  B  B8  1  0.544630  0.455370  0.250000  1
  B  B9  1  0.455125  0.544875  0.750000  1
  B  B10  1  0.520111  0.479889  0.905149  1
  B  B11  1  0.479781  0.520219  0.094916  1
  B  B12  1  0.479781  0.520219  0.405084  1
  B  B13  1  0.520111  0.479889  0.594851  1
  B  B14  1  0.631933  0.368067  0.849765  1
  B  B15  1  0.367840  0.632160  0.150782  1
  B  B16  1  0.727160  0.272840  0.967922  1
  B  B17  1  0.272588  0.727412  0.034735  1
  B  B18  1  0.272588  0.727412  0.465265  1
  B  B19  1  0.727160  0.272840  0.532078  1
  B  B20  1  0.631933  0.368067  0.650235  1
  B  B21  1  0.367840  0.632160  0.349218  1
