# generated using pymatgen
data_BaAc(NbSe2)6
_symmetry_space_group_name_H-M   'P 1'
_cell_length_a   6.15030000
_cell_length_b   6.15030046
_cell_length_c   16.00284900
_cell_angle_alpha   90.00000000
_cell_angle_beta   90.00000000
_cell_angle_gamma   120.00000826
_symmetry_Int_Tables_number   1
_chemical_formula_structural   BaAc(NbSe2)6
_chemical_formula_sum   'Ba1 Ac1 Nb6 Se12'
_cell_volume   524.22838952
_cell_formula_units_Z   1
loop_
 _symmetry_equiv_pos_site_id
 _symmetry_equiv_pos_as_xyz
  1  'x, y, z'
loop_
 _atom_site_type_symbol
 _atom_site_label
 _atom_site_symmetry_multiplicity
 _atom_site_fract_x
 _atom_site_fract_y
 _atom_site_fract_z
 _atom_site_occupancy
  Ba  Ba0  1  0.333333  0.666667  0.250000  1
  Ac  Ac1  1  0.666667  0.333333  0.750000  1
  Nb  Nb2  1  0.333333  0.666667  0.994962  1
  Nb  Nb3  1  0.000000  0.000000  0.993212  1
  Nb  Nb4  1  0.666667  0.333333  0.990258  1
  Nb  Nb5  1  0.333333  0.666667  0.505038  1
  Nb  Nb6  1  0.000000  0.000000  0.506788  1
  Nb  Nb7  1  0.666667  0.333333  0.509742  1
  Se  Se8  1  0.672811  0.663591  0.404080  1
  Se  Se9  1  0.665169  0.675241  0.610759  1
  Se  Se10  1  0.010074  0.675241  0.889241  1
  Se  Se11  1  0.665169  0.989926  0.889241  1
  Se  Se12  1  0.672811  0.009222  0.095920  1
  Se  Se13  1  0.336409  0.009222  0.404080  1
  Se  Se14  1  0.010074  0.334831  0.610759  1
  Se  Se15  1  0.324759  0.989926  0.610759  1
  Se  Se16  1  0.990778  0.663591  0.095920  1
  Se  Se17  1  0.324759  0.334831  0.889241  1
  Se  Se18  1  0.990778  0.327189  0.404080  1
  Se  Se19  1  0.336409  0.327189  0.095920  1
