# generated using pymatgen
data_SmHoEr2(WO6)2
_symmetry_space_group_name_H-M   'P 1'
_cell_length_a   5.40982900
_cell_length_b   7.72271686
_cell_length_c   11.47090824
_cell_angle_alpha   75.44713729
_cell_angle_beta   90.00000000
_cell_angle_gamma   90.00000000
_symmetry_Int_Tables_number   1
_chemical_formula_structural   SmHoEr2(WO6)2
_chemical_formula_sum   'Sm2 Ho2 Er4 W4 O24'
_cell_volume   463.86245706
_cell_formula_units_Z   2
loop_
 _symmetry_equiv_pos_site_id
 _symmetry_equiv_pos_as_xyz
  1  'x, y, z'
loop_
 _atom_site_type_symbol
 _atom_site_label
 _atom_site_symmetry_multiplicity
 _atom_site_fract_x
 _atom_site_fract_y
 _atom_site_fract_z
 _atom_site_occupancy
  Sm  Sm0  1  0.684158  0.500000  0.750000  1
  Sm  Sm1  1  0.315842  0.500000  0.250000  1
  Ho  Ho2  1  0.741505  0.000000  0.750000  1
  Ho  Ho3  1  0.258495  0.000000  0.250000  1
  Er  Er4  1  0.184472  0.795894  0.577586  1
  Er  Er5  1  0.815528  0.795894  0.077586  1
  Er  Er6  1  0.184472  0.204106  0.922414  1
  Er  Er7  1  0.815528  0.204106  0.422414  1
  W  W8  1  0.254531  0.726279  0.884729  1
  W  W9  1  0.745469  0.726279  0.384729  1
  W  W10  1  0.254531  0.273721  0.615271  1
  W  W11  1  0.745469  0.273721  0.115271  1
  O  O12  1  0.043344  0.941432  0.896146  1
  O  O13  1  0.535958  0.845421  0.930950  1
  O  O14  1  0.956656  0.941432  0.396146  1
  O  O15  1  0.455950  0.793913  0.726382  1
  O  O16  1  0.464042  0.845421  0.430950  1
  O  O17  1  0.983241  0.716671  0.769968  1
  O  O18  1  0.544050  0.793913  0.226382  1
  O  O19  1  0.852923  0.638612  0.547334  1
  O  O20  1  0.352051  0.491242  0.886745  1
  O  O21  1  0.016759  0.716671  0.269968  1
  O  O22  1  0.352051  0.508758  0.613255  1
  O  O23  1  0.852923  0.361388  0.952666  1
  O  O24  1  0.147077  0.638612  0.047334  1
  O  O25  1  0.647949  0.491242  0.386745  1
  O  O26  1  0.983241  0.283329  0.730032  1
  O  O27  1  0.647949  0.508758  0.113255  1
  O  O28  1  0.147077  0.361388  0.452666  1
  O  O29  1  0.455950  0.206087  0.773618  1
  O  O30  1  0.016759  0.283329  0.230032  1
  O  O31  1  0.535958  0.154579  0.569050  1
  O  O32  1  0.544050  0.206087  0.273618  1
  O  O33  1  0.043344  0.058568  0.603854  1
  O  O34  1  0.464042  0.154579  0.069050  1
  O  O35  1  0.956656  0.058568  0.103854  1
