# generated using pymatgen
data_CeSmMg(Co3P2)3
_symmetry_space_group_name_H-M   'P 1'
_cell_length_a   3.71862200
_cell_length_b   10.45424700
_cell_length_c   11.90753700
_cell_angle_alpha   90.00000000
_cell_angle_beta   90.00000000
_cell_angle_gamma   90.00000000
_symmetry_Int_Tables_number   1
_chemical_formula_structural   CeSmMg(Co3P2)3
_chemical_formula_sum   'Ce2 Sm2 Mg2 Co18 P12'
_cell_volume   462.91017920
_cell_formula_units_Z   2
loop_
 _symmetry_equiv_pos_site_id
 _symmetry_equiv_pos_as_xyz
  1  'x, y, z'
loop_
 _atom_site_type_symbol
 _atom_site_label
 _atom_site_symmetry_multiplicity
 _atom_site_fract_x
 _atom_site_fract_y
 _atom_site_fract_z
 _atom_site_occupancy
  Ce  Ce0  1  0.250000  0.579665  0.697556  1
  Ce  Ce1  1  0.250000  0.920335  0.197556  1
  Sm  Sm2  1  0.750000  0.415865  0.295288  1
  Sm  Sm3  1  0.750000  0.084135  0.795288  1
  Mg  Mg4  1  0.250000  0.702525  0.990631  1
  Mg  Mg5  1  0.250000  0.797475  0.490631  1
  Co  Co6  1  0.750000  0.290866  0.008440  1
  Co  Co7  1  0.750000  0.209134  0.508440  1
  Co  Co8  1  0.250000  0.399494  0.487668  1
  Co  Co9  1  0.250000  0.100506  0.987668  1
  Co  Co10  1  0.750000  0.585687  0.517290  1
  Co  Co11  1  0.750000  0.914313  0.017290  1
  Co  Co12  1  0.250000  0.222589  0.174340  1
  Co  Co13  1  0.250000  0.277411  0.674340  1
  Co  Co14  1  0.750000  0.781559  0.829873  1
  Co  Co15  1  0.750000  0.718441  0.329873  1
  Co  Co16  1  0.250000  0.886085  0.700125  1
  Co  Co17  1  0.250000  0.613915  0.200125  1
  Co  Co18  1  0.750000  0.118888  0.300149  1
  Co  Co19  1  0.750000  0.381112  0.800149  1
  Co  Co20  1  0.250000  0.463409  0.930210  1
  Co  Co21  1  0.250000  0.036591  0.430210  1
  Co  Co22  1  0.750000  0.529252  0.064578  1
  Co  Co23  1  0.750000  0.970748  0.564578  1
  P  P24  1  0.250000  0.418692  0.110106  1
  P  P25  1  0.250000  0.081308  0.610106  1
  P  P26  1  0.750000  0.575239  0.882071  1
  P  P27  1  0.750000  0.924761  0.382071  1
  P  P28  1  0.250000  0.271328  0.865756  1
  P  P29  1  0.250000  0.228672  0.365756  1
  P  P30  1  0.750000  0.719099  0.146110  1
  P  P31  1  0.750000  0.780901  0.646110  1
  P  P32  1  0.250000  0.591741  0.393213  1
  P  P33  1  0.250000  0.908259  0.893213  1
  P  P34  1  0.750000  0.389282  0.606595  1
  P  P35  1  0.750000  0.110718  0.106595  1
