# generated using pymatgen
data_Y8Tm12Sn15Ir
_symmetry_space_group_name_H-M   'P 1'
_cell_length_a   7.84302161
_cell_length_b   8.14308437
_cell_length_c   15.33903200
_cell_angle_alpha   90.00000000
_cell_angle_beta   90.00000000
_cell_angle_gamma   90.17182046
_symmetry_Int_Tables_number   1
_chemical_formula_structural   Y8Tm12Sn15Ir
_chemical_formula_sum   'Y8 Tm12 Sn15 Ir1'
_cell_volume   979.64414358
_cell_formula_units_Z   1
loop_
 _symmetry_equiv_pos_site_id
 _symmetry_equiv_pos_as_xyz
  1  'x, y, z'
loop_
 _atom_site_type_symbol
 _atom_site_label
 _atom_site_symmetry_multiplicity
 _atom_site_fract_x
 _atom_site_fract_y
 _atom_site_fract_z
 _atom_site_occupancy
  Y  Y0  1  0.517399  0.323777  0.903384  1
  Y  Y1  1  0.021578  0.179845  0.597925  1
  Y  Y2  1  0.480435  0.682497  0.403728  1
  Y  Y3  1  0.979523  0.823127  0.095782  1
  Y  Y4  1  0.480435  0.682497  0.096272  1
  Y  Y5  1  0.979523  0.823127  0.404218  1
  Y  Y6  1  0.517399  0.323777  0.596616  1
  Y  Y7  1  0.021578  0.179845  0.902075  1
  Tm  Tm8  1  0.382798  0.820704  0.870394  1
  Tm  Tm9  1  0.833766  0.661559  0.630138  1
  Tm  Tm10  1  0.638318  0.164482  0.376978  1
  Tm  Tm11  1  0.141519  0.334582  0.123864  1
  Tm  Tm12  1  0.638318  0.164482  0.123022  1
  Tm  Tm13  1  0.141519  0.334582  0.376136  1
  Tm  Tm14  1  0.382798  0.820704  0.629606  1
  Tm  Tm15  1  0.833766  0.661559  0.869862  1
  Tm  Tm16  1  0.213449  0.509398  0.750000  1
  Tm  Tm17  1  0.691955  0.990053  0.750000  1
  Tm  Tm18  1  0.808776  0.497821  0.250000  1
  Tm  Tm19  1  0.307155  0.001231  0.250000  1
  Sn  Sn20  1  0.299092  0.036381  0.037993  1
  Sn  Sn21  1  0.805072  0.465006  0.459120  1
  Sn  Sn22  1  0.705662  0.968413  0.540440  1
  Sn  Sn23  1  0.191527  0.539964  0.958179  1
  Sn  Sn24  1  0.705662  0.968413  0.959560  1
  Sn  Sn25  1  0.191527  0.539964  0.541821  1
  Sn  Sn26  1  0.299092  0.036381  0.462007  1
  Sn  Sn27  1  0.805072  0.465006  0.040880  1
  Sn  Sn28  1  0.062908  0.881865  0.750000  1
  Sn  Sn29  1  0.444074  0.379013  0.250000  1
  Sn  Sn30  1  0.940807  0.120513  0.250000  1
  Sn  Sn31  1  0.322321  0.144080  0.750000  1
  Sn  Sn32  1  0.814065  0.355626  0.750000  1
  Sn  Sn33  1  0.672675  0.852035  0.250000  1
  Sn  Sn34  1  0.170232  0.650119  0.250000  1
  Ir  Ir35  1  0.558206  0.617575  0.750000  1
