# generated using pymatgen
data_Er3InNi3Sn2
_symmetry_space_group_name_H-M   'P 1'
_cell_length_a   7.35413377
_cell_length_b   7.34122892
_cell_length_c   3.78786500
_cell_angle_alpha   90.00000000
_cell_angle_beta   90.00000000
_cell_angle_gamma   119.94196878
_symmetry_Int_Tables_number   1
_chemical_formula_structural   Er3InNi3Sn2
_chemical_formula_sum   'Er3 In1 Ni3 Sn2'
_cell_volume   177.20626727
_cell_formula_units_Z   1
loop_
 _symmetry_equiv_pos_site_id
 _symmetry_equiv_pos_as_xyz
  1  'x, y, z'
loop_
 _atom_site_type_symbol
 _atom_site_label
 _atom_site_symmetry_multiplicity
 _atom_site_fract_x
 _atom_site_fract_y
 _atom_site_fract_z
 _atom_site_occupancy
  Er  Er0  1  0.000000  0.590749  0.500000  1
  Er  Er1  1  0.405465  0.408065  0.500000  1
  Er  Er2  1  0.594535  0.002599  0.500000  1
  In  In3  1  0.000000  0.258805  0.000000  1
  Ni  Ni4  1  0.335546  0.669764  0.000000  1
  Ni  Ni5  1  0.000000  0.991311  0.500000  1
  Ni  Ni6  1  0.664454  0.334217  0.000000  1
  Sn  Sn7  1  0.258194  0.001342  0.000000  1
  Sn  Sn8  1  0.741806  0.743148  0.000000  1
