# generated using pymatgen
data_Sr4Tm5Lu3Se16
_symmetry_space_group_name_H-M   'P 1'
_cell_length_a   4.10055000
_cell_length_b   12.59337102
_cell_length_c   14.83765403
_cell_angle_alpha   89.99282820
_cell_angle_beta   90.00000000
_cell_angle_gamma   90.00000000
_symmetry_Int_Tables_number   1
_chemical_formula_structural   Sr4Tm5Lu3Se16
_chemical_formula_sum   'Sr4 Tm5 Lu3 Se16'
_cell_volume   766.21270237
_cell_formula_units_Z   1
loop_
 _symmetry_equiv_pos_site_id
 _symmetry_equiv_pos_as_xyz
  1  'x, y, z'
loop_
 _atom_site_type_symbol
 _atom_site_label
 _atom_site_symmetry_multiplicity
 _atom_site_fract_x
 _atom_site_fract_y
 _atom_site_fract_z
 _atom_site_occupancy
  Sr  Sr0  1  0.250000  0.759825  0.333691  1
  Sr  Sr1  1  0.250000  0.259791  0.166439  1
  Sr  Sr2  1  0.750000  0.240114  0.666196  1
  Sr  Sr3  1  0.750000  0.740263  0.833660  1
  Tm  Tm4  1  0.250000  0.439262  0.389160  1
  Tm  Tm5  1  0.250000  0.939269  0.110853  1
  Tm  Tm6  1  0.750000  0.560842  0.610714  1
  Tm  Tm7  1  0.750000  0.060586  0.889128  1
  Tm  Tm8  1  0.250000  0.417167  0.902824  1
  Lu  Lu9  1  0.250000  0.917439  0.597261  1
  Lu  Lu10  1  0.750000  0.582699  0.097318  1
  Lu  Lu11  1  0.750000  0.082548  0.402817  1
  Se  Se12  1  0.250000  0.204653  0.831038  1
  Se  Se13  1  0.250000  0.705398  0.668668  1
  Se  Se14  1  0.750000  0.794640  0.168678  1
  Se  Se15  1  0.750000  0.294648  0.331337  1
  Se  Se16  1  0.250000  0.127107  0.529786  1
  Se  Se17  1  0.250000  0.627849  0.970516  1
  Se  Se18  1  0.750000  0.872901  0.470224  1
  Se  Se19  1  0.750000  0.372615  0.030589  1
  Se  Se20  1  0.250000  0.028560  0.285247  1
  Se  Se21  1  0.250000  0.528602  0.214741  1
  Se  Se22  1  0.750000  0.971409  0.714732  1
  Se  Se23  1  0.750000  0.471821  0.784460  1
  Se  Se24  1  0.250000  0.409499  0.576604  1
  Se  Se25  1  0.250000  0.909559  0.923353  1
  Se  Se26  1  0.750000  0.590461  0.423329  1
  Se  Se27  1  0.750000  0.090476  0.076637  1
