# generated using pymatgen
data_Pr2Pa4TiCo17P12
_symmetry_space_group_name_H-M   'P 1'
_cell_length_a   3.76382400
_cell_length_b   10.50429200
_cell_length_c   12.41507600
_cell_angle_alpha   90.00000000
_cell_angle_beta   90.00000000
_cell_angle_gamma   90.00000000
_symmetry_Int_Tables_number   1
_chemical_formula_structural   Pr2Pa4TiCo17P12
_chemical_formula_sum   'Pr2 Pa4 Ti1 Co17 P12'
_cell_volume   490.84624788
_cell_formula_units_Z   1
loop_
 _symmetry_equiv_pos_site_id
 _symmetry_equiv_pos_as_xyz
  1  'x, y, z'
loop_
 _atom_site_type_symbol
 _atom_site_label
 _atom_site_symmetry_multiplicity
 _atom_site_fract_x
 _atom_site_fract_y
 _atom_site_fract_z
 _atom_site_occupancy
  Pr  Pr0  1  0.000000  0.500000  0.521396  1
  Pr  Pr1  1  0.500000  0.000000  0.482373  1
  Pa  Pa2  1  0.500000  0.821089  0.209819  1
  Pa  Pa3  1  0.500000  0.178911  0.209819  1
  Pa  Pa4  1  0.000000  0.681362  0.793804  1
  Pa  Pa5  1  0.000000  0.318638  0.793804  1
  Ti  Ti6  1  0.500000  0.500000  0.147752  1
  Co  Co7  1  0.000000  0.000000  0.840706  1
  Co  Co8  1  0.500000  0.500000  0.711321  1
  Co  Co9  1  0.000000  0.000000  0.288792  1
  Co  Co10  1  0.000000  0.500000  0.984994  1
  Co  Co11  1  0.500000  0.000000  0.017522  1
  Co  Co12  1  0.500000  0.330594  0.991475  1
  Co  Co13  1  0.500000  0.669406  0.991475  1
  Co  Co14  1  0.000000  0.166365  0.003150  1
  Co  Co15  1  0.000000  0.833635  0.003150  1
  Co  Co16  1  0.500000  0.297566  0.426288  1
  Co  Co17  1  0.500000  0.702434  0.426288  1
  Co  Co18  1  0.000000  0.201443  0.575280  1
  Co  Co19  1  0.000000  0.798557  0.575280  1
  Co  Co20  1  0.500000  0.877596  0.716317  1
  Co  Co21  1  0.500000  0.122404  0.716317  1
  Co  Co22  1  0.000000  0.624294  0.284039  1
  Co  Co23  1  0.000000  0.375706  0.284039  1
  P  P24  1  0.500000  0.500000  0.886839  1
  P  P25  1  0.000000  0.000000  0.112159  1
  P  P26  1  0.500000  0.500000  0.344483  1
  P  P27  1  0.000000  0.000000  0.661973  1
  P  P28  1  0.500000  0.307676  0.614719  1
  P  P29  1  0.500000  0.692324  0.614719  1
  P  P30  1  0.000000  0.191759  0.388006  1
  P  P31  1  0.000000  0.808241  0.388006  1
  P  P32  1  0.500000  0.851102  0.894553  1
  P  P33  1  0.500000  0.148898  0.894553  1
  P  P34  1  0.000000  0.658971  0.102394  1
  P  P35  1  0.000000  0.341029  0.102394  1
