# generated using pymatgen
data_Ca5PtRh
_symmetry_space_group_name_H-M   'P 1'
_cell_length_a   8.78243171
_cell_length_b   8.78243163
_cell_length_c   7.64704900
_cell_angle_alpha   82.91109191
_cell_angle_beta   82.91109154
_cell_angle_gamma   43.79519568
_symmetry_Int_Tables_number   1
_chemical_formula_structural   Ca5PtRh
_chemical_formula_sum   'Ca10 Pt2 Rh2'
_cell_volume   404.58108729
_cell_formula_units_Z   2
loop_
 _symmetry_equiv_pos_site_id
 _symmetry_equiv_pos_as_xyz
  1  'x, y, z'
loop_
 _atom_site_type_symbol
 _atom_site_label
 _atom_site_symmetry_multiplicity
 _atom_site_fract_x
 _atom_site_fract_y
 _atom_site_fract_z
 _atom_site_occupancy
  Ca  Ca0  1  0.023531  0.797764  0.915450  1
  Ca  Ca1  1  0.202236  0.976469  0.584550  1
  Ca  Ca2  1  0.982911  0.197356  0.079027  1
  Ca  Ca3  1  0.802644  0.017089  0.420973  1
  Ca  Ca4  1  0.363408  0.201550  0.819497  1
  Ca  Ca5  1  0.798450  0.636592  0.680503  1
  Ca  Ca6  1  0.633437  0.799246  0.175853  1
  Ca  Ca7  1  0.200754  0.366563  0.324147  1
  Ca  Ca8  1  0.572225  0.427775  0.750000  1
  Ca  Ca9  1  0.422951  0.577049  0.250000  1
  Pt  Pt10  1  0.820856  0.401755  0.416042  1
  Pt  Pt11  1  0.598245  0.179144  0.083958  1
  Rh  Rh12  1  0.177604  0.599253  0.582914  1
  Rh  Rh13  1  0.400747  0.822396  0.917086  1
