# generated using pymatgen
data_Y8Si8PdPt7
_symmetry_space_group_name_H-M   'P 1'
_cell_length_a   4.30311500
_cell_length_b   7.48419118
_cell_length_c   14.10666735
_cell_angle_alpha   89.97450986
_cell_angle_beta   90.00000000
_cell_angle_gamma   90.00000000
_symmetry_Int_Tables_number   1
_chemical_formula_structural   Y8Si8PdPt7
_chemical_formula_sum   'Y8 Si8 Pd1 Pt7'
_cell_volume   454.30990771
_cell_formula_units_Z   1
loop_
 _symmetry_equiv_pos_site_id
 _symmetry_equiv_pos_as_xyz
  1  'x, y, z'
loop_
 _atom_site_type_symbol
 _atom_site_label
 _atom_site_symmetry_multiplicity
 _atom_site_fract_x
 _atom_site_fract_y
 _atom_site_fract_z
 _atom_site_occupancy
  Y  Y0  1  0.500000  0.793394  0.749525  1
  Y  Y1  1  0.000000  0.205436  0.750627  1
  Y  Y2  1  0.500000  0.794043  0.250587  1
  Y  Y3  1  0.000000  0.205909  0.249145  1
  Y  Y4  1  0.500000  0.705532  0.000192  1
  Y  Y5  1  0.000000  0.293609  0.500181  1
  Y  Y6  1  0.500000  0.701983  0.499813  1
  Y  Y7  1  0.000000  0.298462  0.999886  1
  Si  Si8  1  0.500000  0.405744  0.646243  1
  Si  Si9  1  0.000000  0.591801  0.854633  1
  Si  Si10  1  0.500000  0.408245  0.351836  1
  Si  Si11  1  0.000000  0.591703  0.147654  1
  Si  Si12  1  0.500000  0.091916  0.092516  1
  Si  Si13  1  0.000000  0.908487  0.407414  1
  Si  Si14  1  0.500000  0.092062  0.907182  1
  Si  Si15  1  0.000000  0.910040  0.591804  1
  Pd  Pd16  1  0.000000  0.580679  0.655311  1
  Pt  Pt17  1  0.500000  0.075887  0.607961  1
  Pt  Pt18  1  0.000000  0.922999  0.891712  1
  Pt  Pt19  1  0.500000  0.077033  0.392036  1
  Pt  Pt20  1  0.000000  0.922943  0.107887  1
  Pt  Pt21  1  0.500000  0.420715  0.153924  1
  Pt  Pt22  1  0.000000  0.579227  0.347473  1
  Pt  Pt23  1  0.500000  0.422149  0.844455  1
