# generated using pymatgen
data_Cs4Zr6BCl18
_symmetry_space_group_name_H-M   'P 1'
_cell_length_a   10.72983652
_cell_length_b   10.72981305
_cell_length_c   10.28547547
_cell_angle_alpha   77.09212720
_cell_angle_beta   77.09250880
_cell_angle_gamma   117.73824032
_symmetry_Int_Tables_number   1
_chemical_formula_structural   Cs4Zr6BCl18
_chemical_formula_sum   'Cs4 Zr6 B1 Cl18'
_cell_volume   945.19619067
_cell_formula_units_Z   1
loop_
 _symmetry_equiv_pos_site_id
 _symmetry_equiv_pos_as_xyz
  1  'x, y, z'
loop_
 _atom_site_type_symbol
 _atom_site_label
 _atom_site_symmetry_multiplicity
 _atom_site_fract_x
 _atom_site_fract_y
 _atom_site_fract_z
 _atom_site_occupancy
  Cs  Cs0  1  0.767990  0.446389  0.685913  1
  Cs  Cs1  1  0.553610  0.232011  0.314087  1
  Cs  Cs2  1  0.232010  0.553611  0.314085  1
  Cs  Cs3  1  0.446390  0.767991  0.685912  1
  Zr  Zr4  1  0.119530  0.119529  0.142928  1
  Zr  Zr5  1  0.880470  0.880472  0.857072  1
  Zr  Zr6  1  0.950791  0.767211  0.147088  1
  Zr  Zr7  1  0.232791  0.049211  0.852911  1
  Zr  Zr8  1  0.049209  0.232789  0.852913  1
  Zr  Zr9  1  0.767210  0.950789  0.147089  1
  B  B10  1  0.000000  0.999999  0.000000  1
  Cl  Cl11  1  0.812781  0.614429  0.008460  1
  Cl  Cl12  1  0.385574  0.187219  0.991540  1
  Cl  Cl13  1  0.187217  0.385570  0.991541  1
  Cl  Cl14  1  0.614428  0.812781  0.008459  1
  Cl  Cl15  1  0.200026  0.799974  0.999999  1
  Cl  Cl16  1  0.799974  0.200025  0.000001  1
  Cl  Cl17  1  0.310279  0.310280  0.680723  1
  Cl  Cl18  1  0.689721  0.689721  0.319278  1
  Cl  Cl19  1  0.890686  0.505727  0.317481  1
  Cl  Cl20  1  0.494275  0.109316  0.682519  1
  Cl  Cl21  1  0.109312  0.494270  0.682519  1
  Cl  Cl22  1  0.505725  0.890686  0.317481  1
  Cl  Cl23  1  0.252727  0.252728  0.295807  1
  Cl  Cl24  1  0.747276  0.747275  0.704191  1
  Cl  Cl25  1  0.073031  0.875264  0.314625  1
  Cl  Cl26  1  0.124736  0.926968  0.685375  1
  Cl  Cl27  1  0.926967  0.124736  0.685377  1
  Cl  Cl28  1  0.875263  0.073030  0.314627  1
