# generated using pymatgen
data_TbThScAl3
_symmetry_space_group_name_H-M   'P 1'
_cell_length_a   5.83027500
_cell_length_b   5.83027539
_cell_length_c   9.30330600
_cell_angle_alpha   90.00000000
_cell_angle_beta   90.00000000
_cell_angle_gamma   119.99999211
_symmetry_Int_Tables_number   1
_chemical_formula_structural   TbThScAl3
_chemical_formula_sum   'Tb2 Th2 Sc2 Al6'
_cell_volume   273.87102095
_cell_formula_units_Z   2
loop_
 _symmetry_equiv_pos_site_id
 _symmetry_equiv_pos_as_xyz
  1  'x, y, z'
loop_
 _atom_site_type_symbol
 _atom_site_label
 _atom_site_symmetry_multiplicity
 _atom_site_fract_x
 _atom_site_fract_y
 _atom_site_fract_z
 _atom_site_occupancy
  Tb  Tb0  1  0.666667  0.333333  0.439573  1
  Tb  Tb1  1  0.333333  0.666667  0.560427  1
  Th  Th2  1  0.333333  0.666667  0.947199  1
  Th  Th3  1  0.666667  0.333333  0.052801  1
  Sc  Sc4  1  0.000000  0.000000  0.500000  1
  Sc  Sc5  1  0.000000  0.000000  0.000000  1
  Al  Al6  1  0.653065  0.826532  0.253977  1
  Al  Al7  1  0.173468  0.826532  0.253977  1
  Al  Al8  1  0.173468  0.346935  0.253977  1
  Al  Al9  1  0.346935  0.173468  0.746023  1
  Al  Al10  1  0.826532  0.173468  0.746023  1
  Al  Al11  1  0.826532  0.653065  0.746023  1
