# generated using pymatgen
data_Sc18URe7Se2
_symmetry_space_group_name_H-M   'P 1'
_cell_length_a   8.53850300
_cell_length_b   8.79904282
_cell_length_c   8.79904105
_cell_angle_alpha   119.99982515
_cell_angle_beta   90.00205465
_cell_angle_gamma   89.99794538
_symmetry_Int_Tables_number   1
_chemical_formula_structural   Sc18URe7Se2
_chemical_formula_sum   'Sc18 U1 Re7 Se2'
_cell_volume   572.51109457
_cell_formula_units_Z   1
loop_
 _symmetry_equiv_pos_site_id
 _symmetry_equiv_pos_as_xyz
  1  'x, y, z'
loop_
 _atom_site_type_symbol
 _atom_site_label
 _atom_site_symmetry_multiplicity
 _atom_site_fract_x
 _atom_site_fract_y
 _atom_site_fract_z
 _atom_site_occupancy
  Sc  Sc0  1  0.543941  0.800976  0.601953  1
  Sc  Sc1  1  0.543918  0.800968  0.199032  1
  Sc  Sc2  1  0.543941  0.398047  0.199024  1
  Sc  Sc3  1  0.456059  0.199024  0.398047  1
  Sc  Sc4  1  0.456082  0.199032  0.800968  1
  Sc  Sc5  1  0.456059  0.601953  0.800976  1
  Sc  Sc6  1  0.043972  0.193365  0.386718  1
  Sc  Sc7  1  0.043972  0.193360  0.806640  1
  Sc  Sc8  1  0.043972  0.613282  0.806635  1
  Sc  Sc9  1  0.956028  0.806635  0.613282  1
  Sc  Sc10  1  0.956028  0.806640  0.193360  1
  Sc  Sc11  1  0.956028  0.386718  0.193365  1
  Sc  Sc12  1  0.749649  0.458955  0.917919  1
  Sc  Sc13  1  0.749659  0.458941  0.541059  1
  Sc  Sc14  1  0.749649  0.082081  0.541045  1
  Sc  Sc15  1  0.250351  0.541045  0.082081  1
  Sc  Sc16  1  0.250341  0.541059  0.458941  1
  Sc  Sc17  1  0.250351  0.917919  0.458955  1
  U  U18  1  0.500000  0.000000  0.000000  1
  Re  Re19  1  0.751361  0.109316  0.218626  1
  Re  Re20  1  0.751465  0.109303  0.890697  1
  Re  Re21  1  0.751361  0.781374  0.890684  1
  Re  Re22  1  0.248639  0.890684  0.781374  1
  Re  Re23  1  0.248535  0.890697  0.109303  1
  Re  Re24  1  0.248639  0.218626  0.109316  1
  Re  Re25  1  0.000000  0.000000  0.000000  1
  Se  Se26  1  0.754691  0.666663  0.333337  1
  Se  Se27  1  0.245309  0.333337  0.666663  1
