# generated using pymatgen
data_Zr8Ti11Ge16W
_symmetry_space_group_name_H-M   'P 1'
_cell_length_a   6.79486230
_cell_length_b   6.92659330
_cell_length_c   13.14334900
_cell_angle_alpha   90.00000000
_cell_angle_beta   90.00000000
_cell_angle_gamma   90.03404018
_symmetry_Int_Tables_number   1
_chemical_formula_structural   Zr8Ti11Ge16W
_chemical_formula_sum   'Zr8 Ti11 Ge16 W1'
_cell_volume   618.59486736
_cell_formula_units_Z   1
loop_
 _symmetry_equiv_pos_site_id
 _symmetry_equiv_pos_as_xyz
  1  'x, y, z'
loop_
 _atom_site_type_symbol
 _atom_site_label
 _atom_site_symmetry_multiplicity
 _atom_site_fract_x
 _atom_site_fract_y
 _atom_site_fract_z
 _atom_site_occupancy
  Zr  Zr0  1  0.490440  0.675251  0.094354  1
  Zr  Zr1  1  0.991742  0.827311  0.404786  1
  Zr  Zr2  1  0.507270  0.325442  0.593420  1
  Zr  Zr3  1  0.007926  0.174717  0.906605  1
  Zr  Zr4  1  0.507270  0.325442  0.906580  1
  Zr  Zr5  1  0.007926  0.174717  0.593395  1
  Zr  Zr6  1  0.490440  0.675251  0.405646  1
  Zr  Zr7  1  0.991742  0.827311  0.095214  1
  Ti  Ti8  1  0.832016  0.492995  0.250000  1
  Ti  Ti9  1  0.667998  0.995524  0.750000  1
  Ti  Ti10  1  0.168399  0.505645  0.750000  1
  Ti  Ti11  1  0.658205  0.165050  0.125583  1
  Ti  Ti12  1  0.161968  0.332653  0.374475  1
  Ti  Ti13  1  0.340079  0.833263  0.625667  1
  Ti  Ti14  1  0.840754  0.665667  0.874385  1
  Ti  Ti15  1  0.340079  0.833263  0.874333  1
  Ti  Ti16  1  0.840754  0.665667  0.625615  1
  Ti  Ti17  1  0.658205  0.165050  0.374417  1
  Ti  Ti18  1  0.161968  0.332653  0.125525  1
  Ge  Ge19  1  0.694322  0.854528  0.250000  1
  Ge  Ge20  1  0.191130  0.640954  0.250000  1
  Ge  Ge21  1  0.307183  0.142807  0.750000  1
  Ge  Ge22  1  0.807930  0.356983  0.750000  1
  Ge  Ge23  1  0.681188  0.957970  0.959128  1
  Ge  Ge24  1  0.181131  0.542059  0.540604  1
  Ge  Ge25  1  0.318526  0.041852  0.459948  1
  Ge  Ge26  1  0.819218  0.458826  0.041055  1
  Ge  Ge27  1  0.318526  0.041852  0.040052  1
  Ge  Ge28  1  0.819218  0.458826  0.458945  1
  Ge  Ge29  1  0.681188  0.957970  0.540872  1
  Ge  Ge30  1  0.181131  0.542059  0.959396  1
  Ge  Ge31  1  0.463768  0.379285  0.250000  1
  Ge  Ge32  1  0.961490  0.123600  0.250000  1
  Ge  Ge33  1  0.538096  0.622790  0.750000  1
  Ge  Ge34  1  0.038227  0.877283  0.750000  1
  W  W35  1  0.332550  0.007483  0.250000  1
