# generated using pymatgen
data_YbTcAsF
_symmetry_space_group_name_H-M   'P 1'
_cell_length_a   3.93547600
_cell_length_b   3.93547600
_cell_length_c   8.52889000
_cell_angle_alpha   90.00000000
_cell_angle_beta   90.00000000
_cell_angle_gamma   90.00000000
_symmetry_Int_Tables_number   1
_chemical_formula_structural   YbTcAsF
_chemical_formula_sum   'Yb2 Tc2 As2 F2'
_cell_volume   132.09520394
_cell_formula_units_Z   2
loop_
 _symmetry_equiv_pos_site_id
 _symmetry_equiv_pos_as_xyz
  1  'x, y, z'
loop_
 _atom_site_type_symbol
 _atom_site_label
 _atom_site_symmetry_multiplicity
 _atom_site_fract_x
 _atom_site_fract_y
 _atom_site_fract_z
 _atom_site_occupancy
  Yb  Yb0  1  0.499999  0.000000  0.143453  1
  Yb  Yb1  1  0.000000  0.499999  0.856547  1
  Tc  Tc2  1  0.000000  0.000000  0.499999  1
  Tc  Tc3  1  0.499999  0.499999  0.499999  1
  As  As4  1  0.000000  0.499999  0.317192  1
  As  As5  1  0.499999  0.000000  0.682808  1
  F  F6  1  0.000000  0.000000  0.000000  1
  F  F7  1  0.499999  0.499999  0.000000  1
