# generated using pymatgen
data_Dy4MnRuC4
_symmetry_space_group_name_H-M   'P 1'
_cell_length_a   5.07615400
_cell_length_b   6.40782116
_cell_length_c   9.74076306
_cell_angle_alpha   90.57495230
_cell_angle_beta   90.00000000
_cell_angle_gamma   90.00000000
_symmetry_Int_Tables_number   1
_chemical_formula_structural   Dy4MnRuC4
_chemical_formula_sum   'Dy8 Mn2 Ru2 C8'
_cell_volume   316.82269532
_cell_formula_units_Z   2
loop_
 _symmetry_equiv_pos_site_id
 _symmetry_equiv_pos_as_xyz
  1  'x, y, z'
loop_
 _atom_site_type_symbol
 _atom_site_label
 _atom_site_symmetry_multiplicity
 _atom_site_fract_x
 _atom_site_fract_y
 _atom_site_fract_z
 _atom_site_occupancy
  Dy  Dy0  1  0.250000  0.682238  0.557281  1
  Dy  Dy1  1  0.750000  0.317762  0.442719  1
  Dy  Dy2  1  0.750000  0.817771  0.053112  1
  Dy  Dy3  1  0.250000  0.182229  0.946888  1
  Dy  Dy4  1  0.250000  0.523136  0.216664  1
  Dy  Dy5  1  0.750000  0.476864  0.783336  1
  Dy  Dy6  1  0.750000  0.975446  0.714811  1
  Dy  Dy7  1  0.250000  0.024554  0.285189  1
  Mn  Mn8  1  0.250000  0.727944  0.861479  1
  Mn  Mn9  1  0.750000  0.272056  0.138521  1
  Ru  Ru10  1  0.750000  0.774967  0.360404  1
  Ru  Ru11  1  0.250000  0.225033  0.639596  1
  C  C12  1  0.250000  0.470795  0.765243  1
  C  C13  1  0.750000  0.529205  0.234757  1
  C  C14  1  0.750000  0.046827  0.252122  1
  C  C15  1  0.250000  0.953173  0.747878  1
  C  C16  1  0.250000  0.812609  0.038820  1
  C  C17  1  0.750000  0.187391  0.961180  1
  C  C18  1  0.750000  0.677258  0.548869  1
  C  C19  1  0.250000  0.322742  0.451131  1
