# generated using pymatgen
data_Tb2ThBe2Co9B4
_symmetry_space_group_name_H-M   'P 1'
_cell_length_a   5.05577300
_cell_length_b   5.05559881
_cell_length_c   9.35933700
_cell_angle_alpha   89.99997733
_cell_angle_beta   90.00007933
_cell_angle_gamma   120.00113324
_symmetry_Int_Tables_number   1
_chemical_formula_structural   Tb2ThBe2Co9B4
_chemical_formula_sum   'Tb2 Th1 Be2 Co9 B4'
_cell_volume   207.17193684
_cell_formula_units_Z   1
loop_
 _symmetry_equiv_pos_site_id
 _symmetry_equiv_pos_as_xyz
  1  'x, y, z'
loop_
 _atom_site_type_symbol
 _atom_site_label
 _atom_site_symmetry_multiplicity
 _atom_site_fract_x
 _atom_site_fract_y
 _atom_site_fract_z
 _atom_site_occupancy
  Tb  Tb0  1  0.999994  0.000000  0.340363  1
  Tb  Tb1  1  0.999998  0.000000  0.659641  1
  Th  Th2  1  0.999993  0.000000  0.999955  1
  Be  Be3  1  0.333261  0.666537  0.000016  1
  Be  Be4  1  0.666724  0.333463  0.000016  1
  Co  Co5  1  0.499997  0.000000  0.500011  1
  Co  Co6  1  0.499996  0.500001  0.499981  1
  Co  Co7  1  0.999995  0.499999  0.499981  1
  Co  Co8  1  0.499991  0.000000  0.190063  1
  Co  Co9  1  0.499991  0.500000  0.189995  1
  Co  Co10  1  0.999992  0.500000  0.189995  1
  Co  Co11  1  0.499997  0.000000  0.809953  1
  Co  Co12  1  0.499997  0.500000  0.810012  1
  Co  Co13  1  0.999996  0.500000  0.810012  1
  B  B14  1  0.333385  0.666784  0.342395  1
  B  B15  1  0.666601  0.333216  0.342395  1
  B  B16  1  0.666754  0.333518  0.657610  1
  B  B17  1  0.333236  0.666482  0.657610  1
