# generated using pymatgen
data_Nd7Sn23Rh6
_symmetry_space_group_name_H-M   'P 1'
_cell_length_a   9.99090400
_cell_length_b   9.99090305
_cell_length_c   10.21463200
_cell_angle_alpha   90.00000000
_cell_angle_beta   90.00000000
_cell_angle_gamma   120.00000976
_symmetry_Int_Tables_number   1
_chemical_formula_structural   Nd7Sn23Rh6
_chemical_formula_sum   'Nd7 Sn23 Rh6'
_cell_volume   883.00435351
_cell_formula_units_Z   1
loop_
 _symmetry_equiv_pos_site_id
 _symmetry_equiv_pos_as_xyz
  1  'x, y, z'
loop_
 _atom_site_type_symbol
 _atom_site_label
 _atom_site_symmetry_multiplicity
 _atom_site_fract_x
 _atom_site_fract_y
 _atom_site_fract_z
 _atom_site_occupancy
  Nd  Nd0  1  0.000000  0.000000  0.000000  1
  Nd  Nd1  1  0.478203  0.521797  0.306563  1
  Nd  Nd2  1  0.521797  0.478203  0.693437  1
  Nd  Nd3  1  0.478203  0.956408  0.306563  1
  Nd  Nd4  1  0.521797  0.043592  0.693437  1
  Nd  Nd5  1  0.043592  0.521797  0.306563  1
  Nd  Nd6  1  0.956408  0.478203  0.693437  1
  Sn  Sn7  1  0.351201  0.000000  0.000000  1
  Sn  Sn8  1  0.648799  0.000000  0.000000  1
  Sn  Sn9  1  0.000000  0.351201  0.000000  1
  Sn  Sn10  1  0.000000  0.648799  0.000000  1
  Sn  Sn11  1  0.648799  0.648799  0.000000  1
  Sn  Sn12  1  0.351201  0.351201  0.000000  1
  Sn  Sn13  1  0.333333  0.666667  0.820705  1
  Sn  Sn14  1  0.666667  0.333333  0.179295  1
  Sn  Sn15  1  0.000000  0.000000  0.500000  1
  Sn  Sn16  1  0.779120  0.220880  0.454600  1
  Sn  Sn17  1  0.220880  0.779120  0.545400  1
  Sn  Sn18  1  0.779120  0.558239  0.454600  1
  Sn  Sn19  1  0.220880  0.441761  0.545400  1
  Sn  Sn20  1  0.441761  0.220880  0.454600  1
  Sn  Sn21  1  0.558239  0.779120  0.545400  1
  Sn  Sn22  1  0.333333  0.666667  0.113847  1
  Sn  Sn23  1  0.666667  0.333333  0.886153  1
  Sn  Sn24  1  0.117586  0.882414  0.280365  1
  Sn  Sn25  1  0.882414  0.117586  0.719635  1
  Sn  Sn26  1  0.117586  0.235171  0.280365  1
  Sn  Sn27  1  0.882414  0.764829  0.719635  1
  Sn  Sn28  1  0.764829  0.882414  0.280365  1
  Sn  Sn29  1  0.235171  0.117586  0.719635  1
  Rh  Rh30  1  0.831824  0.168176  0.197699  1
  Rh  Rh31  1  0.168176  0.831824  0.802301  1
  Rh  Rh32  1  0.831824  0.663650  0.197699  1
  Rh  Rh33  1  0.168176  0.336350  0.802301  1
  Rh  Rh34  1  0.336350  0.168176  0.197699  1
  Rh  Rh35  1  0.663650  0.831824  0.802301  1
