# generated using pymatgen
data_CeErZnRu2
_symmetry_space_group_name_H-M   'P 1'
_cell_length_a   5.56592951
_cell_length_b   5.56592846
_cell_length_c   7.19927574
_cell_angle_alpha   85.84473734
_cell_angle_beta   94.15526301
_cell_angle_gamma   116.18749868
_symmetry_Int_Tables_number   1
_chemical_formula_structural   CeErZnRu2
_chemical_formula_sum   'Ce2 Er2 Zn2 Ru4'
_cell_volume   199.40701493
_cell_formula_units_Z   2
loop_
 _symmetry_equiv_pos_site_id
 _symmetry_equiv_pos_as_xyz
  1  'x, y, z'
loop_
 _atom_site_type_symbol
 _atom_site_label
 _atom_site_symmetry_multiplicity
 _atom_site_fract_x
 _atom_site_fract_y
 _atom_site_fract_z
 _atom_site_occupancy
  Ce  Ce0  1  0.175322  0.824678  0.600231  1
  Ce  Ce1  1  0.824678  0.175322  0.399769  1
  Er  Er2  1  0.347250  0.652750  0.090721  1
  Er  Er3  1  0.652750  0.347250  0.909279  1
  Zn  Zn4  1  0.000000  0.000000  0.000000  1
  Zn  Zn5  1  0.500000  0.500000  0.500000  1
  Ru  Ru6  1  0.868534  0.632557  0.262887  1
  Ru  Ru7  1  0.632557  0.868534  0.737113  1
  Ru  Ru8  1  0.131466  0.367443  0.737113  1
  Ru  Ru9  1  0.367443  0.131466  0.262887  1
