# generated using pymatgen
data_Zr12Tc6NiRu5
_symmetry_space_group_name_H-M   'P 1'
_cell_length_a   4.64595300
_cell_length_b   6.55397700
_cell_length_c   13.94576000
_cell_angle_alpha   90.00000000
_cell_angle_beta   90.00007399
_cell_angle_gamma   90.00000000
_symmetry_Int_Tables_number   1
_chemical_formula_structural   Zr12Tc6NiRu5
_chemical_formula_sum   'Zr12 Tc6 Ni1 Ru5'
_cell_volume   424.64098827
_cell_formula_units_Z   1
loop_
 _symmetry_equiv_pos_site_id
 _symmetry_equiv_pos_as_xyz
  1  'x, y, z'
loop_
 _atom_site_type_symbol
 _atom_site_label
 _atom_site_symmetry_multiplicity
 _atom_site_fract_x
 _atom_site_fract_y
 _atom_site_fract_z
 _atom_site_occupancy
  Zr  Zr0  1  0.500001  0.251260  0.000000  1
  Zr  Zr1  1  0.500001  0.748740  0.000000  1
  Zr  Zr2  1  0.999979  0.251549  0.167632  1
  Zr  Zr3  1  0.999979  0.748451  0.167632  1
  Zr  Zr4  1  0.499984  0.250166  0.333404  1
  Zr  Zr5  1  0.499984  0.749835  0.333404  1
  Zr  Zr6  1  0.000000  0.250438  0.500000  1
  Zr  Zr7  1  0.000000  0.749562  0.500000  1
  Zr  Zr8  1  0.500016  0.250166  0.666597  1
  Zr  Zr9  1  0.500016  0.749835  0.666597  1
  Zr  Zr10  1  0.000021  0.251549  0.832368  1
  Zr  Zr11  1  0.000021  0.748451  0.832368  1
  Tc  Tc12  1  0.000000  0.500000  0.000000  1
  Tc  Tc13  1  0.499978  0.000000  0.164750  1
  Tc  Tc14  1  0.999980  0.500000  0.332812  1
  Tc  Tc15  1  0.499999  0.000000  0.500000  1
  Tc  Tc16  1  0.000020  0.500000  0.667189  1
  Tc  Tc17  1  0.500023  0.000000  0.835251  1
  Ni  Ni18  1  0.000000  0.000000  0.000000  1
  Ru  Ru19  1  0.499975  0.500000  0.166022  1
  Ru  Ru20  1  0.999991  0.000000  0.332620  1
  Ru  Ru21  1  0.499999  0.500000  0.500000  1
  Ru  Ru22  1  0.000009  0.000000  0.667380  1
  Ru  Ru23  1  0.500026  0.500000  0.833978  1
