# generated using pymatgen
data_Dy10In5SbS2
_symmetry_space_group_name_H-M   'P 1'
_cell_length_a   8.93563200
_cell_length_b   8.97924390
_cell_length_c   6.58948700
_cell_angle_alpha   90.00000000
_cell_angle_beta   90.00000000
_cell_angle_gamma   120.16159549
_symmetry_Int_Tables_number   1
_chemical_formula_structural   Dy10In5SbS2
_chemical_formula_sum   'Dy10 In5 Sb1 S2'
_cell_volume   457.12796897
_cell_formula_units_Z   1
loop_
 _symmetry_equiv_pos_site_id
 _symmetry_equiv_pos_as_xyz
  1  'x, y, z'
loop_
 _atom_site_type_symbol
 _atom_site_label
 _atom_site_symmetry_multiplicity
 _atom_site_fract_x
 _atom_site_fract_y
 _atom_site_fract_z
 _atom_site_occupancy
  Dy  Dy0  1  0.669072  0.335057  0.998251  1
  Dy  Dy1  1  0.330928  0.665986  0.998251  1
  Dy  Dy2  1  0.330928  0.665986  0.501749  1
  Dy  Dy3  1  0.669072  0.335057  0.501749  1
  Dy  Dy4  1  0.756831  0.754275  0.750000  1
  Dy  Dy5  1  0.243169  0.997445  0.750000  1
  Dy  Dy6  1  0.000000  0.245986  0.750000  1
  Dy  Dy7  1  0.242831  0.243392  0.250000  1
  Dy  Dy8  1  0.757169  0.000561  0.250000  1
  Dy  Dy9  1  0.000000  0.753627  0.250000  1
  In  In10  1  0.399568  0.399666  0.750000  1
  In  In11  1  0.600432  0.000098  0.750000  1
  In  In12  1  0.000000  0.604175  0.750000  1
  In  In13  1  0.598984  0.600252  0.250000  1
  In  In14  1  0.401016  0.001268  0.250000  1
  Sb  Sb15  1  0.000000  0.395683  0.250000  1
  S  S16  1  0.000000  0.000743  0.001233  1
  S  S17  1  0.000000  0.000743  0.498767  1
