# generated using pymatgen
data_CeNdMnCo16
_symmetry_space_group_name_H-M   'P 1'
_cell_length_a   6.32031941
_cell_length_b   6.32031923
_cell_length_c   6.32032000
_cell_angle_alpha   83.16089733
_cell_angle_beta   83.16090253
_cell_angle_gamma   83.16089466
_symmetry_Int_Tables_number   1
_chemical_formula_structural   CeNdMnCo16
_chemical_formula_sum   'Ce1 Nd1 Mn1 Co16'
_cell_volume   247.48092797
_cell_formula_units_Z   1
loop_
 _symmetry_equiv_pos_site_id
 _symmetry_equiv_pos_as_xyz
  1  'x, y, z'
loop_
 _atom_site_type_symbol
 _atom_site_label
 _atom_site_symmetry_multiplicity
 _atom_site_fract_x
 _atom_site_fract_y
 _atom_site_fract_z
 _atom_site_occupancy
  Ce  Ce0  1  0.653982  0.653982  0.653982  1
  Nd  Nd1  1  0.345561  0.345561  0.345561  1
  Mn  Mn2  1  0.096004  0.096004  0.096004  1
  Co  Co3  1  0.714800  0.287866  0.997606  1
  Co  Co4  1  0.997606  0.714800  0.287866  1
  Co  Co5  1  0.287866  0.997606  0.714800  1
  Co  Co6  1  0.997606  0.287866  0.714800  1
  Co  Co7  1  0.714800  0.997606  0.287866  1
  Co  Co8  1  0.287866  0.714800  0.997606  1
  Co  Co9  1  0.349237  0.349237  0.847625  1
  Co  Co10  1  0.847625  0.349237  0.349237  1
  Co  Co11  1  0.349237  0.847625  0.349237  1
  Co  Co12  1  0.655771  0.655771  0.144855  1
  Co  Co13  1  0.144855  0.655771  0.655771  1
  Co  Co14  1  0.655771  0.144855  0.655771  1
  Co  Co15  1  0.999960  0.999960  0.504476  1
  Co  Co16  1  0.504476  0.999960  0.999960  1
  Co  Co17  1  0.999960  0.504476  0.999960  1
  Co  Co18  1  0.897023  0.897023  0.897023  1
