# generated using pymatgen
data_La6Nd4TcIr3
_symmetry_space_group_name_H-M   'P 1'
_cell_length_a   9.21048901
_cell_length_b   9.11540912
_cell_length_c   7.41110936
_cell_angle_alpha   84.48074341
_cell_angle_beta   84.25320207
_cell_angle_gamma   42.93702095
_symmetry_Int_Tables_number   1
_chemical_formula_structural   La6Nd4TcIr3
_chemical_formula_sum   'La6 Nd4 Tc1 Ir3'
_cell_volume   421.48027724
_cell_formula_units_Z   1
loop_
 _symmetry_equiv_pos_site_id
 _symmetry_equiv_pos_as_xyz
  1  'x, y, z'
loop_
 _atom_site_type_symbol
 _atom_site_label
 _atom_site_symmetry_multiplicity
 _atom_site_fract_x
 _atom_site_fract_y
 _atom_site_fract_z
 _atom_site_occupancy
  La  La0  1  0.018685  0.794630  0.905148  1
  La  La1  1  0.199829  0.982177  0.586183  1
  La  La2  1  0.988904  0.195574  0.088671  1
  La  La3  1  0.807154  0.004896  0.410076  1
  La  La4  1  0.353649  0.216809  0.818204  1
  La  La5  1  0.789855  0.640313  0.682018  1
  Nd  Nd6  1  0.644108  0.787642  0.182364  1
  Nd  Nd7  1  0.212914  0.359484  0.316700  1
  Nd  Nd8  1  0.572074  0.428498  0.750850  1
  Nd  Nd9  1  0.431029  0.567200  0.251239  1
  Tc  Tc10  1  0.158453  0.627235  0.587264  1
  Ir  Ir11  1  0.405920  0.820917  0.923197  1
  Ir  Ir12  1  0.822652  0.399895  0.420552  1
  Ir  Ir13  1  0.594776  0.174729  0.077536  1
