# generated using pymatgen
data_Ho9TmInPb5
_symmetry_space_group_name_H-M   'P 1'
_cell_length_a   6.64132301
_cell_length_b   8.98970555
_cell_length_c   8.99640419
_cell_angle_alpha   119.97376645
_cell_angle_beta   90.00043666
_cell_angle_gamma   89.99495715
_symmetry_Int_Tables_number   1
_chemical_formula_structural   Ho9TmInPb5
_chemical_formula_sum   'Ho9 Tm1 In1 Pb5'
_cell_volume   465.28001895
_cell_formula_units_Z   1
loop_
 _symmetry_equiv_pos_site_id
 _symmetry_equiv_pos_as_xyz
  1  'x, y, z'
loop_
 _atom_site_type_symbol
 _atom_site_label
 _atom_site_symmetry_multiplicity
 _atom_site_fract_x
 _atom_site_fract_y
 _atom_site_fract_z
 _atom_site_occupancy
  Ho  Ho0  1  0.501667  0.336256  0.670039  1
  Ho  Ho1  1  0.501678  0.666220  0.329906  1
  Ho  Ho2  1  0.998343  0.666259  0.329997  1
  Ho  Ho3  1  0.750145  0.238729  0.999853  1
  Ho  Ho4  1  0.750136  0.761371  0.766263  1
  Ho  Ho5  1  0.750105  0.995425  0.233849  1
  Ho  Ho6  1  0.249883  0.762767  0.999872  1
  Ho  Ho7  1  0.249869  0.237158  0.236855  1
  Ho  Ho8  1  0.249877  0.000563  0.763259  1
  Tm  Tm9  1  0.998229  0.336369  0.670149  1
  In  In10  1  0.750418  0.602922  0.999665  1
  Pb  Pb11  1  0.750399  0.393697  0.394559  1
  Pb  Pb12  1  0.750395  0.999830  0.605754  1
  Pb  Pb13  1  0.249582  0.395547  0.999607  1
  Pb  Pb14  1  0.249628  0.605043  0.603963  1
  Pb  Pb15  1  0.249643  0.001846  0.396410  1
