# generated using pymatgen
data_HoPaCdNi2
_symmetry_space_group_name_H-M   'P 1'
_cell_length_a   7.43904084
_cell_length_b   7.43904002
_cell_length_c   3.54848200
_cell_angle_alpha   90.00000000
_cell_angle_beta   90.00000000
_cell_angle_gamma   94.11623487
_symmetry_Int_Tables_number   1
_chemical_formula_structural   HoPaCdNi2
_chemical_formula_sum   'Ho2 Pa2 Cd2 Ni4'
_cell_volume   195.86404865
_cell_formula_units_Z   2
loop_
 _symmetry_equiv_pos_site_id
 _symmetry_equiv_pos_as_xyz
  1  'x, y, z'
loop_
 _atom_site_type_symbol
 _atom_site_label
 _atom_site_symmetry_multiplicity
 _atom_site_fract_x
 _atom_site_fract_y
 _atom_site_fract_z
 _atom_site_occupancy
  Ho  Ho0  1  0.170366  0.329634  0.500000  1
  Ho  Ho1  1  0.829634  0.670366  0.500000  1
  Pa  Pa2  1  0.671900  0.171900  0.500000  1
  Pa  Pa3  1  0.328100  0.828100  0.500000  1
  Cd  Cd4  1  0.000000  0.000000  0.000000  1
  Cd  Cd5  1  0.500000  0.500000  0.000000  1
  Ni  Ni6  1  0.135100  0.635100  0.000000  1
  Ni  Ni7  1  0.864900  0.364900  0.000000  1
  Ni  Ni8  1  0.616755  0.883245  0.000000  1
  Ni  Ni9  1  0.383245  0.116755  0.000000  1
