# generated using pymatgen
data_Rb(SiAs)3
_symmetry_space_group_name_H-M   'P 1'
_cell_length_a   3.72845400
_cell_length_b   10.18892700
_cell_length_c   20.28626400
_cell_angle_alpha   90.00000000
_cell_angle_beta   90.00000000
_cell_angle_gamma   90.00000000
_symmetry_Int_Tables_number   1
_chemical_formula_structural   Rb(SiAs)3
_chemical_formula_sum   'Rb4 Si12 As12'
_cell_volume   770.65378011
_cell_formula_units_Z   4
loop_
 _symmetry_equiv_pos_site_id
 _symmetry_equiv_pos_as_xyz
  1  'x, y, z'
loop_
 _atom_site_type_symbol
 _atom_site_label
 _atom_site_symmetry_multiplicity
 _atom_site_fract_x
 _atom_site_fract_y
 _atom_site_fract_z
 _atom_site_occupancy
  Rb  Rb0  1  0.000000  0.302838  0.306196  1
  Rb  Rb1  1  0.000000  0.697162  0.693804  1
  Rb  Rb2  1  0.000000  0.197162  0.806196  1
  Rb  Rb3  1  0.000000  0.802838  0.193804  1
  Si  Si4  1  0.500000  0.407153  0.034526  1
  Si  Si5  1  0.500000  0.592847  0.965474  1
  Si  Si6  1  0.500000  0.092847  0.534526  1
  Si  Si7  1  0.500000  0.907153  0.465474  1
  Si  Si8  1  0.000000  0.110802  0.015945  1
  Si  Si9  1  0.000000  0.889198  0.984055  1
  Si  Si10  1  0.000000  0.389198  0.515945  1
  Si  Si11  1  0.000000  0.610802  0.484055  1
  Si  Si12  1  0.000000  0.174995  0.127702  1
  Si  Si13  1  0.000000  0.825005  0.872298  1
  Si  Si14  1  0.000000  0.325005  0.627702  1
  Si  Si15  1  0.000000  0.674995  0.372298  1
  As  As16  1  0.500000  0.105980  0.190381  1
  As  As17  1  0.500000  0.894020  0.809619  1
  As  As18  1  0.500000  0.394020  0.690381  1
  As  As19  1  0.500000  0.605980  0.309619  1
  As  As20  1  0.500000  0.283295  0.462423  1
  As  As21  1  0.500000  0.716705  0.537577  1
  As  As22  1  0.500000  0.216705  0.962423  1
  As  As23  1  0.500000  0.783295  0.037577  1
  As  As24  1  0.000000  0.412552  0.109501  1
  As  As25  1  0.000000  0.587448  0.890499  1
  As  As26  1  0.000000  0.087448  0.609501  1
  As  As27  1  0.000000  0.912552  0.390499  1
