# generated using pymatgen
data_Pr5NdAl24Os7Pt
_symmetry_space_group_name_H-M   'P 1'
_cell_length_a   8.93104900
_cell_length_b   8.93035824
_cell_length_c   9.71414764
_cell_angle_alpha   90.12911109
_cell_angle_beta   90.00000000
_cell_angle_gamma   120.00256243
_symmetry_Int_Tables_number   1
_chemical_formula_structural   Pr5NdAl24Os7Pt
_chemical_formula_sum   'Pr5 Nd1 Al24 Os7 Pt1'
_cell_volume   670.95593667
_cell_formula_units_Z   1
loop_
 _symmetry_equiv_pos_site_id
 _symmetry_equiv_pos_as_xyz
  1  'x, y, z'
loop_
 _atom_site_type_symbol
 _atom_site_label
 _atom_site_symmetry_multiplicity
 _atom_site_fract_x
 _atom_site_fract_y
 _atom_site_fract_z
 _atom_site_occupancy
  Pr  Pr0  1  0.807304  0.614610  0.747579  1
  Pr  Pr1  1  0.617366  0.807240  0.250502  1
  Pr  Pr2  1  0.382514  0.192627  0.749517  1
  Pr  Pr3  1  0.189874  0.807240  0.250502  1
  Pr  Pr4  1  0.810114  0.192627  0.749517  1
  Nd  Nd5  1  0.192754  0.385508  0.252474  1
  Al  Al6  1  0.330828  0.661657  0.013743  1
  Al  Al7  1  0.669020  0.338040  0.986581  1
  Al  Al8  1  0.666326  0.332653  0.512408  1
  Al  Al9  1  0.333543  0.667087  0.487264  1
  Al  Al10  1  0.163885  0.327770  0.573942  1
  Al  Al11  1  0.836130  0.672260  0.425671  1
  Al  Al12  1  0.672803  0.836807  0.573869  1
  Al  Al13  1  0.836491  0.672983  0.074235  1
  Al  Al14  1  0.327066  0.163355  0.425967  1
  Al  Al15  1  0.163529  0.327059  0.926148  1
  Al  Al16  1  0.164005  0.836807  0.573869  1
  Al  Al17  1  0.325211  0.167915  0.075666  1
  Al  Al18  1  0.836288  0.163355  0.425967  1
  Al  Al19  1  0.674660  0.832290  0.924504  1
  Al  Al20  1  0.842703  0.167915  0.075666  1
  Al  Al21  1  0.157630  0.832290  0.924504  1
  Al  Al22  1  0.563167  0.126332  0.252640  1
  Al  Al23  1  0.436846  0.873693  0.747336  1
  Al  Al24  1  0.875348  0.437510  0.249402  1
  Al  Al25  1  0.125070  0.562402  0.750606  1
  Al  Al26  1  0.562163  0.437510  0.249402  1
  Al  Al27  1  0.437332  0.562402  0.750606  1
  Al  Al28  1  0.000400  0.000800  0.250124  1
  Al  Al29  1  0.999845  0.999691  0.749862  1
  Os  Os30  1  0.000156  0.499905  0.000189  1
  Os  Os31  1  0.499958  0.999915  0.499939  1
  Os  Os32  1  0.499749  0.499905  0.000189  1
  Os  Os33  1  0.000175  0.499887  0.499790  1
  Os  Os34  1  0.499712  0.499887  0.499790  1
  Os  Os35  1  0.000037  0.000074  0.000069  1
  Os  Os36  1  0.000038  0.000077  0.499925  1
  Pt  Pt37  1  0.499957  0.999914  0.000034  1
