# generated using pymatgen
data_Tb11Er(InSi2)2
_symmetry_space_group_name_H-M   'P 1'
_cell_length_a   8.56202389
_cell_length_b   8.55339128
_cell_length_c   8.55356915
_cell_angle_alpha   112.15602404
_cell_angle_beta   110.90363637
_cell_angle_gamma   105.39435599
_symmetry_Int_Tables_number   1
_chemical_formula_structural   Tb11Er(InSi2)2
_chemical_formula_sum   'Tb11 Er1 In2 Si4'
_cell_volume   480.57039775
_cell_formula_units_Z   1
loop_
 _symmetry_equiv_pos_site_id
 _symmetry_equiv_pos_as_xyz
  1  'x, y, z'
loop_
 _atom_site_type_symbol
 _atom_site_label
 _atom_site_symmetry_multiplicity
 _atom_site_fract_x
 _atom_site_fract_y
 _atom_site_fract_z
 _atom_site_occupancy
  Tb  Tb0  1  0.557141  0.761433  0.795704  1
  Tb  Tb1  1  0.034747  0.238477  0.796271  1
  Tb  Tb2  1  0.965691  0.761405  0.204292  1
  Tb  Tb3  1  0.185771  0.278658  0.464079  1
  Tb  Tb4  1  0.813634  0.720623  0.534870  1
  Tb  Tb5  1  0.185774  0.721688  0.907117  1
  Tb  Tb6  1  0.813622  0.278758  0.093008  1
  Tb  Tb7  1  0.320086  0.616727  0.297030  1
  Tb  Tb8  1  0.679580  0.382630  0.702121  1
  Tb  Tb9  1  0.320093  0.023073  0.703354  1
  Tb  Tb10  1  0.679571  0.977451  0.296944  1
  Er  Er11  1  0.442869  0.237770  0.205081  1
  In  In12  1  0.500090  0.499605  0.000491  1
  In  In13  1  0.001256  0.000740  0.000519  1
  Si  Si14  1  0.369528  0.000939  0.368593  1
  Si  Si15  1  0.630793  0.000103  0.630694  1
  Si  Si16  1  0.114944  0.614972  0.499971  1
  Si  Si17  1  0.884809  0.384948  0.499861  1
