# generated using pymatgen
data_V2Co2Ir3Rh
_symmetry_space_group_name_H-M   'P 1'
_cell_length_a   5.37868709
_cell_length_b   5.30054017
_cell_length_c   4.24480500
_cell_angle_alpha   90.00000000
_cell_angle_beta   90.00000000
_cell_angle_gamma   120.35464824
_symmetry_Int_Tables_number   1
_chemical_formula_structural   V2Co2Ir3Rh
_chemical_formula_sum   'V2 Co2 Ir3 Rh1'
_cell_volume   104.42912537
_cell_formula_units_Z   1
loop_
 _symmetry_equiv_pos_site_id
 _symmetry_equiv_pos_as_xyz
  1  'x, y, z'
loop_
 _atom_site_type_symbol
 _atom_site_label
 _atom_site_symmetry_multiplicity
 _atom_site_fract_x
 _atom_site_fract_y
 _atom_site_fract_z
 _atom_site_occupancy
  V  V0  1  0.332649  0.661116  0.750000  1
  V  V1  1  0.667833  0.338319  0.250000  1
  Co  Co2  1  0.166392  0.331995  0.250000  1
  Co  Co3  1  0.833394  0.667632  0.750000  1
  Ir  Ir4  1  0.665570  0.824272  0.250000  1
  Ir  Ir5  1  0.157543  0.823850  0.250000  1
  Ir  Ir6  1  0.334829  0.176643  0.750000  1
  Rh  Rh7  1  0.841791  0.176172  0.750000  1
