# generated using pymatgen
data_Ti4TlAg(PO4)6
_symmetry_space_group_name_H-M   'P 1'
_cell_length_a   8.53984497
_cell_length_b   8.54031733
_cell_length_c   9.13925002
_cell_angle_alpha   89.96539923
_cell_angle_beta   117.88841588
_cell_angle_gamma   119.98415720
_symmetry_Int_Tables_number   1
_chemical_formula_structural   Ti4TlAg(PO4)6
_chemical_formula_sum   'Ti4 Tl1 Ag1 P6 O24'
_cell_volume   486.04922122
_cell_formula_units_Z   1
loop_
 _symmetry_equiv_pos_site_id
 _symmetry_equiv_pos_as_xyz
  1  'x, y, z'
loop_
 _atom_site_type_symbol
 _atom_site_label
 _atom_site_symmetry_multiplicity
 _atom_site_fract_x
 _atom_site_fract_y
 _atom_site_fract_z
 _atom_site_occupancy
  Ti  Ti0  1  0.707560  0.349461  0.051843  1
  Ti  Ti1  1  0.303233  0.148895  0.443811  1
  Ti  Ti2  1  0.305306  0.648506  0.947423  1
  Ti  Ti3  1  0.710466  0.852290  0.555506  1
  Tl  Tl4  1  0.010036  0.503854  0.499575  1
  Ag  Ag5  1  0.000355  0.979547  0.999850  1
  P  P6  1  0.501688  0.030450  0.246684  1
  P  P7  1  0.789745  0.533927  0.751325  1
  P  P8  1  0.224011  0.247479  0.751823  1
  P  P9  1  0.788840  0.751082  0.247392  1
  P  P10  1  0.224216  0.465173  0.248429  1
  P  P11  1  0.511332  0.968743  0.752194  1
  O  O12  1  0.649609  0.005255  0.411421  1
  O  O13  1  0.361394  0.069921  0.280097  1
  O  O14  1  0.009188  0.073664  0.714803  1
  O  O15  1  0.601788  0.362138  0.585596  1
  O  O16  1  0.250074  0.492859  0.092603  1
  O  O17  1  0.645653  0.198995  0.205793  1
  O  O18  1  0.406021  0.248622  0.908889  1
  O  O19  1  0.000273  0.558972  0.794860  1
  O  O20  1  0.234912  0.233876  0.588107  1
  O  O21  1  0.797378  0.714612  0.718555  1
  O  O22  1  0.665453  0.148369  0.910023  1
  O  O23  1  0.241560  0.432431  0.795205  1
  O  O24  1  0.771204  0.566046  0.204015  1
  O  O25  1  0.347894  0.850667  0.089092  1
  O  O26  1  0.217612  0.285626  0.282968  1
  O  O27  1  0.778891  0.765612  0.411297  1
  O  O28  1  0.013480  0.440167  0.204434  1
  O  O29  1  0.607301  0.750146  0.089860  1
  O  O30  1  0.367500  0.800442  0.793531  1
  O  O31  1  0.764165  0.506678  0.907352  1
  O  O32  1  0.412281  0.637624  0.413799  1
  O  O33  1  0.003716  0.924513  0.283155  1
  O  O34  1  0.650580  0.928100  0.718247  1
  O  O35  1  0.363886  0.994355  0.587646  1
