# generated using pymatgen
data_La3Ta(Ga3Pd)8
_symmetry_space_group_name_H-M   'P 1'
_cell_length_a   8.59725788
_cell_length_b   8.59725883
_cell_length_c   8.59725792
_cell_angle_alpha   89.85131658
_cell_angle_beta   89.85131725
_cell_angle_gamma   89.85132453
_symmetry_Int_Tables_number   1
_chemical_formula_structural   La3Ta(Ga3Pd)8
_chemical_formula_sum   'La3 Ta1 Ga24 Pd8'
_cell_volume   635.44143868
_cell_formula_units_Z   1
loop_
 _symmetry_equiv_pos_site_id
 _symmetry_equiv_pos_as_xyz
  1  'x, y, z'
loop_
 _atom_site_type_symbol
 _atom_site_label
 _atom_site_symmetry_multiplicity
 _atom_site_fract_x
 _atom_site_fract_y
 _atom_site_fract_z
 _atom_site_occupancy
  La  La0  1  0.000000  0.500000  0.000000  1
  La  La1  1  0.500000  0.000000  0.000000  1
  La  La2  1  0.000000  0.000000  0.500000  1
  Ta  Ta3  1  0.500000  0.500000  0.500000  1
  Ga  Ga4  1  0.988448  0.642570  0.642570  1
  Ga  Ga5  1  0.642570  0.642570  0.988448  1
  Ga  Ga6  1  0.642570  0.988448  0.642570  1
  Ga  Ga7  1  0.011552  0.357430  0.357430  1
  Ga  Ga8  1  0.357430  0.357430  0.011552  1
  Ga  Ga9  1  0.357430  0.011552  0.357430  1
  Ga  Ga10  1  0.734996  0.500000  0.265004  1
  Ga  Ga11  1  0.265004  0.500000  0.734996  1
  Ga  Ga12  1  0.500000  0.265004  0.734996  1
  Ga  Ga13  1  0.500000  0.734996  0.265004  1
  Ga  Ga14  1  0.265004  0.734996  0.500000  1
  Ga  Ga15  1  0.734996  0.265004  0.500000  1
  Ga  Ga16  1  0.838716  0.143690  0.838716  1
  Ga  Ga17  1  0.143690  0.838716  0.838716  1
  Ga  Ga18  1  0.838716  0.838716  0.143690  1
  Ga  Ga19  1  0.161284  0.856310  0.161284  1
  Ga  Ga20  1  0.856310  0.161284  0.161284  1
  Ga  Ga21  1  0.161284  0.161284  0.856310  1
  Ga  Ga22  1  0.727746  0.487681  0.727746  1
  Ga  Ga23  1  0.487681  0.727746  0.727746  1
  Ga  Ga24  1  0.727746  0.727746  0.487681  1
  Ga  Ga25  1  0.272254  0.512319  0.272254  1
  Ga  Ga26  1  0.512319  0.272254  0.272254  1
  Ga  Ga27  1  0.272254  0.272254  0.512319  1
  Pd  Pd28  1  0.837661  0.837661  0.837661  1
  Pd  Pd29  1  0.162339  0.162339  0.162339  1
  Pd  Pd30  1  0.663969  0.336031  0.000000  1
  Pd  Pd31  1  0.000000  0.336031  0.663969  1
  Pd  Pd32  1  0.336031  0.000000  0.663969  1
  Pd  Pd33  1  0.336031  0.663969  0.000000  1
  Pd  Pd34  1  0.000000  0.663969  0.336031  1
  Pd  Pd35  1  0.663969  0.000000  0.336031  1
