# generated using pymatgen
data_CeHfReB6
_symmetry_space_group_name_H-M   'P 1'
_cell_length_a   3.63905900
_cell_length_b   9.04930200
_cell_length_c   11.45595000
_cell_angle_alpha   90.00000000
_cell_angle_beta   90.00000000
_cell_angle_gamma   90.00000000
_symmetry_Int_Tables_number   1
_chemical_formula_structural   CeHfReB6
_chemical_formula_sum   'Ce4 Hf4 Re4 B24'
_cell_volume   377.25524662
_cell_formula_units_Z   4
loop_
 _symmetry_equiv_pos_site_id
 _symmetry_equiv_pos_as_xyz
  1  'x, y, z'
loop_
 _atom_site_type_symbol
 _atom_site_label
 _atom_site_symmetry_multiplicity
 _atom_site_fract_x
 _atom_site_fract_y
 _atom_site_fract_z
 _atom_site_occupancy
  Ce  Ce0  1  0.000000  0.321539  0.414150  1
  Ce  Ce1  1  0.000000  0.678461  0.585850  1
  Ce  Ce2  1  0.000000  0.821539  0.085850  1
  Ce  Ce3  1  0.000000  0.178461  0.914150  1
  Hf  Hf4  1  0.000000  0.945142  0.374141  1
  Hf  Hf5  1  0.000000  0.054858  0.625859  1
  Hf  Hf6  1  0.000000  0.445142  0.125859  1
  Hf  Hf7  1  0.000000  0.554858  0.874141  1
  Re  Re8  1  0.000000  0.641783  0.317496  1
  Re  Re9  1  0.000000  0.358217  0.682504  1
  Re  Re10  1  0.000000  0.141783  0.182504  1
  Re  Re11  1  0.000000  0.858217  0.817496  1
  B  B12  1  0.500000  0.555147  0.432050  1
  B  B13  1  0.500000  0.444853  0.567950  1
  B  B14  1  0.500000  0.055147  0.067950  1
  B  B15  1  0.500000  0.944853  0.932050  1
  B  B16  1  0.500000  0.753387  0.417861  1
  B  B17  1  0.500000  0.246613  0.582139  1
  B  B18  1  0.500000  0.253387  0.082139  1
  B  B19  1  0.500000  0.746613  0.917861  1
  B  B20  1  0.500000  0.795027  0.264644  1
  B  B21  1  0.500000  0.204973  0.735356  1
  B  B22  1  0.500000  0.295027  0.235356  1
  B  B23  1  0.500000  0.704973  0.764644  1
  B  B24  1  0.500000  0.629527  0.183074  1
  B  B25  1  0.500000  0.370473  0.816926  1
  B  B26  1  0.500000  0.129527  0.316926  1
  B  B27  1  0.500000  0.870473  0.683074  1
  B  B28  1  0.500000  0.982170  0.214423  1
  B  B29  1  0.500000  0.017830  0.785577  1
  B  B30  1  0.500000  0.482170  0.285577  1
  B  B31  1  0.500000  0.517830  0.714423  1
  B  B32  1  0.500000  0.599329  0.026756  1
  B  B33  1  0.500000  0.400671  0.973244  1
  B  B34  1  0.500000  0.099329  0.473244  1
  B  B35  1  0.500000  0.900671  0.526756  1
