# generated using pymatgen
data_Al11CrTcRh2
_symmetry_space_group_name_H-M   'P 1'
_cell_length_a   5.15185850
_cell_length_b   5.15321337
_cell_length_c   8.95253684
_cell_angle_alpha   74.54517083
_cell_angle_beta   88.53369161
_cell_angle_gamma   79.67941190
_symmetry_Int_Tables_number   1
_chemical_formula_structural   Al11CrTcRh2
_chemical_formula_sum   'Al11 Cr1 Tc1 Rh2'
_cell_volume   225.31542331
_cell_formula_units_Z   1
loop_
 _symmetry_equiv_pos_site_id
 _symmetry_equiv_pos_as_xyz
  1  'x, y, z'
loop_
 _atom_site_type_symbol
 _atom_site_label
 _atom_site_symmetry_multiplicity
 _atom_site_fract_x
 _atom_site_fract_y
 _atom_site_fract_z
 _atom_site_occupancy
  Al  Al0  1  0.170080  0.281346  0.378085  1
  Al  Al1  1  0.823310  0.719323  0.626397  1
  Al  Al2  1  0.846396  0.459898  0.123388  1
  Al  Al3  1  0.156832  0.529970  0.872352  1
  Al  Al4  1  0.995839  0.005374  0.997408  1
  Al  Al5  1  0.484277  0.105900  0.121177  1
  Al  Al6  1  0.526581  0.893793  0.874201  1
  Al  Al7  1  0.427636  0.330960  0.630662  1
  Al  Al8  1  0.575321  0.669494  0.371849  1
  Al  Al9  1  0.055653  0.823941  0.329206  1
  Al  Al10  1  0.941814  0.178806  0.676122  1
  Cr  Cr11  1  0.668894  0.387784  0.864925  1
  Tc  Tc12  1  0.331878  0.612904  0.132737  1
  Rh  Rh13  1  0.683897  0.150950  0.396046  1
  Rh  Rh14  1  0.311592  0.849557  0.605446  1
