# generated using pymatgen
data_MgTa7(TcOs)4
_symmetry_space_group_name_H-M   'P 1'
_cell_length_a   6.35578700
_cell_length_b   4.49711800
_cell_length_c   9.01375900
_cell_angle_alpha   90.00000000
_cell_angle_beta   89.99920289
_cell_angle_gamma   90.00000000
_symmetry_Int_Tables_number   1
_chemical_formula_structural   MgTa7(TcOs)4
_chemical_formula_sum   'Mg1 Ta7 Tc4 Os4'
_cell_volume   257.63778679
_cell_formula_units_Z   1
loop_
 _symmetry_equiv_pos_site_id
 _symmetry_equiv_pos_as_xyz
  1  'x, y, z'
loop_
 _atom_site_type_symbol
 _atom_site_label
 _atom_site_symmetry_multiplicity
 _atom_site_fract_x
 _atom_site_fract_y
 _atom_site_fract_z
 _atom_site_occupancy
  Mg  Mg0  1  0.500208  0.749999  0.124997  1
  Ta  Ta1  1  0.999890  0.749999  0.125002  1
  Ta  Ta2  1  0.499904  0.250000  0.368759  1
  Ta  Ta3  1  0.999898  0.250000  0.373633  1
  Ta  Ta4  1  0.999531  0.749999  0.625002  1
  Ta  Ta5  1  0.499079  0.749999  0.625005  1
  Ta  Ta6  1  0.999898  0.250000  0.876393  1
  Ta  Ta7  1  0.499902  0.250000  0.881223  1
  Tc  Tc8  1  0.753178  0.250000  0.124991  1
  Tc  Tc9  1  0.249004  0.749999  0.377950  1
  Tc  Tc10  1  0.749020  0.250000  0.624995  1
  Tc  Tc11  1  0.248984  0.749999  0.872039  1
  Os  Os12  1  0.247757  0.250000  0.124992  1
  Os  Os13  1  0.751424  0.749999  0.378021  1
  Os  Os14  1  0.250898  0.250000  0.625007  1
  Os  Os15  1  0.751426  0.749999  0.871991  1
