# generated using pymatgen
data_La3NdAl18(RePd2)2
_symmetry_space_group_name_H-M   'P 1'
_cell_length_a   7.71060964
_cell_length_b   7.70107860
_cell_length_c   9.74079400
_cell_angle_alpha   90.00000000
_cell_angle_beta   90.00000000
_cell_angle_gamma   118.50752375
_symmetry_Int_Tables_number   1
_chemical_formula_structural   La3NdAl18(RePd2)2
_chemical_formula_sum   'La3 Nd1 Al18 Re2 Pd4'
_cell_volume   508.27900140
_cell_formula_units_Z   1
loop_
 _symmetry_equiv_pos_site_id
 _symmetry_equiv_pos_as_xyz
  1  'x, y, z'
loop_
 _atom_site_type_symbol
 _atom_site_label
 _atom_site_symmetry_multiplicity
 _atom_site_fract_x
 _atom_site_fract_y
 _atom_site_fract_z
 _atom_site_occupancy
  La  La0  1  0.005936  0.320040  0.750000  1
  La  La1  1  0.679186  0.994567  0.250000  1
  La  La2  1  0.320914  0.006122  0.750000  1
  Nd  Nd3  1  0.994227  0.678795  0.250000  1
  Al  Al4  1  0.135380  0.134588  0.250000  1
  Al  Al5  1  0.863244  0.862343  0.750000  1
  Al  Al6  1  0.004913  0.335891  0.075297  1
  Al  Al7  1  0.995286  0.665488  0.927365  1
  Al  Al8  1  0.995286  0.665488  0.572635  1
  Al  Al9  1  0.333206  0.003657  0.424117  1
  Al  Al10  1  0.004913  0.335891  0.424703  1
  Al  Al11  1  0.665174  0.994141  0.574244  1
  Al  Al12  1  0.665174  0.994141  0.925756  1
  Al  Al13  1  0.333206  0.003657  0.075883  1
  Al  Al14  1  0.330719  0.330765  0.539291  1
  Al  Al15  1  0.670493  0.669360  0.456126  1
  Al  Al16  1  0.670493  0.669360  0.043874  1
  Al  Al17  1  0.330719  0.330765  0.960709  1
  Al  Al18  1  0.342196  0.548502  0.250000  1
  Al  Al19  1  0.656584  0.452702  0.750000  1
  Al  Al20  1  0.549595  0.346964  0.250000  1
  Al  Al21  1  0.452241  0.655391  0.750000  1
  Re  Re22  1  0.999920  0.000076  0.000401  1
  Re  Re23  1  0.999920  0.000076  0.499599  1
  Pd  Pd24  1  0.670844  0.329538  0.000674  1
  Pd  Pd25  1  0.329692  0.671076  0.000649  1
  Pd  Pd26  1  0.329692  0.671076  0.499351  1
  Pd  Pd27  1  0.670844  0.329538  0.499326  1
