# generated using pymatgen
data_Er16TlIn3PdRh3
_symmetry_space_group_name_H-M   'P 1'
_cell_length_a   9.60078637
_cell_length_b   9.58427865
_cell_length_c   9.60078700
_cell_angle_alpha   59.94300919
_cell_angle_beta   60.00000128
_cell_angle_gamma   59.94301075
_symmetry_Int_Tables_number   1
_chemical_formula_structural   Er16TlIn3PdRh3
_chemical_formula_sum   'Er16 Tl1 In3 Pd1 Rh3'
_cell_volume   624.14204299
_cell_formula_units_Z   1
loop_
 _symmetry_equiv_pos_site_id
 _symmetry_equiv_pos_as_xyz
  1  'x, y, z'
loop_
 _atom_site_type_symbol
 _atom_site_label
 _atom_site_symmetry_multiplicity
 _atom_site_fract_x
 _atom_site_fract_y
 _atom_site_fract_z
 _atom_site_occupancy
  Er  Er0  1  0.192713  0.183756  0.811766  1
  Er  Er1  1  0.438289  0.063680  0.059742  1
  Er  Er2  1  0.438289  0.063680  0.438289  1
  Er  Er3  1  0.061559  0.440135  0.061559  1
  Er  Er4  1  0.650262  0.049215  0.650262  1
  Er  Er5  1  0.187742  0.811253  0.813263  1
  Er  Er6  1  0.059742  0.063680  0.438289  1
  Er  Er7  1  0.811766  0.183756  0.192713  1
  Er  Er8  1  0.813263  0.811253  0.187742  1
  Er  Er9  1  0.646525  0.652417  0.054535  1
  Er  Er10  1  0.646525  0.652417  0.646525  1
  Er  Er11  1  0.061559  0.440135  0.436748  1
  Er  Er12  1  0.054535  0.652417  0.646525  1
  Er  Er13  1  0.811766  0.183756  0.811766  1
  Er  Er14  1  0.436748  0.440135  0.061559  1
  Er  Er15  1  0.187742  0.811253  0.187742  1
  Tl  Tl16  1  0.414113  0.757663  0.414113  1
  In  In17  1  0.416711  0.414515  0.752063  1
  In  In18  1  0.752063  0.414515  0.416711  1
  In  In19  1  0.416711  0.414515  0.416711  1
  Pd  Pd20  1  0.856394  0.430817  0.856394  1
  Rh  Rh21  1  0.857232  0.855012  0.430523  1
  Rh  Rh22  1  0.430523  0.855012  0.857232  1
  Rh  Rh23  1  0.857232  0.855012  0.857232  1
