# generated using pymatgen
data_Tb3Dy12Th(ZnCo)4
_symmetry_space_group_name_H-M   'P 1'
_cell_length_a   9.37582503
_cell_length_b   9.37582465
_cell_length_c   9.37582501
_cell_angle_alpha   59.91639687
_cell_angle_beta   59.91640378
_cell_angle_gamma   59.91639693
_symmetry_Int_Tables_number   1
_chemical_formula_structural   Tb3Dy12Th(ZnCo)4
_chemical_formula_sum   'Tb3 Dy12 Th1 Zn4 Co4'
_cell_volume   581.68661806
_cell_formula_units_Z   1
loop_
 _symmetry_equiv_pos_site_id
 _symmetry_equiv_pos_as_xyz
  1  'x, y, z'
loop_
 _atom_site_type_symbol
 _atom_site_label
 _atom_site_symmetry_multiplicity
 _atom_site_fract_x
 _atom_site_fract_y
 _atom_site_fract_z
 _atom_site_occupancy
  Tb  Tb0  1  0.601144  0.601144  0.195493  1
  Tb  Tb1  1  0.601144  0.195493  0.601144  1
  Tb  Tb2  1  0.195493  0.601144  0.601144  1
  Dy  Dy3  1  0.061069  0.439848  0.439848  1
  Dy  Dy4  1  0.441063  0.059976  0.059976  1
  Dy  Dy5  1  0.439848  0.061069  0.439848  1
  Dy  Dy6  1  0.059976  0.441063  0.059976  1
  Dy  Dy7  1  0.439848  0.439848  0.061069  1
  Dy  Dy8  1  0.059976  0.059976  0.441063  1
  Dy  Dy9  1  0.187517  0.813998  0.813998  1
  Dy  Dy10  1  0.812728  0.188064  0.188064  1
  Dy  Dy11  1  0.813998  0.187517  0.813998  1
  Dy  Dy12  1  0.188064  0.812728  0.188064  1
  Dy  Dy13  1  0.813998  0.813998  0.187517  1
  Dy  Dy14  1  0.188064  0.188064  0.812728  1
  Th  Th15  1  0.595941  0.595941  0.595941  1
  Zn  Zn16  1  0.827140  0.827140  0.827140  1
  Zn  Zn17  1  0.827421  0.827421  0.516611  1
  Zn  Zn18  1  0.827421  0.516611  0.827421  1
  Zn  Zn19  1  0.516611  0.827421  0.827421  1
  Co  Co20  1  0.392209  0.392209  0.392209  1
  Co  Co21  1  0.394079  0.394079  0.821171  1
  Co  Co22  1  0.394079  0.821171  0.394079  1
  Co  Co23  1  0.821171  0.394079  0.394079  1
