# generated using pymatgen
data_Eu2YSc(Co5P3)4
_symmetry_space_group_name_H-M   'P 1'
_cell_length_a   3.63858900
_cell_length_b   10.30026814
_cell_length_c   11.74262183
_cell_angle_alpha   90.11434465
_cell_angle_beta   90.00000000
_cell_angle_gamma   90.00000000
_symmetry_Int_Tables_number   1
_chemical_formula_structural   Eu2YSc(Co5P3)4
_chemical_formula_sum   'Eu2 Y1 Sc1 Co20 P12'
_cell_volume   440.09429899
_cell_formula_units_Z   1
loop_
 _symmetry_equiv_pos_site_id
 _symmetry_equiv_pos_as_xyz
  1  'x, y, z'
loop_
 _atom_site_type_symbol
 _atom_site_label
 _atom_site_symmetry_multiplicity
 _atom_site_fract_x
 _atom_site_fract_y
 _atom_site_fract_z
 _atom_site_occupancy
  Eu  Eu0  1  0.250000  0.584027  0.703540  1
  Eu  Eu1  1  0.250000  0.916496  0.204116  1
  Y  Y2  1  0.750000  0.416274  0.296869  1
  Sc  Sc3  1  0.750000  0.082967  0.798833  1
  Co  Co4  1  0.250000  0.715674  0.988434  1
  Co  Co5  1  0.250000  0.785677  0.490869  1
  Co  Co6  1  0.750000  0.282994  0.007744  1
  Co  Co7  1  0.750000  0.216507  0.508242  1
  Co  Co8  1  0.250000  0.405631  0.486982  1
  Co  Co9  1  0.250000  0.094751  0.982128  1
  Co  Co10  1  0.750000  0.592714  0.508734  1
  Co  Co11  1  0.750000  0.909536  0.006894  1
  Co  Co12  1  0.250000  0.220001  0.175156  1
  Co  Co13  1  0.250000  0.277133  0.676390  1
  Co  Co14  1  0.750000  0.781851  0.823750  1
  Co  Co15  1  0.750000  0.719729  0.324092  1
  Co  Co16  1  0.250000  0.886837  0.700848  1
  Co  Co17  1  0.250000  0.616255  0.197770  1
  Co  Co18  1  0.750000  0.119830  0.303417  1
  Co  Co19  1  0.750000  0.376537  0.802198  1
  Co  Co20  1  0.250000  0.463463  0.932644  1
  Co  Co21  1  0.250000  0.034400  0.437072  1
  Co  Co22  1  0.750000  0.530814  0.068061  1
  Co  Co23  1  0.750000  0.971379  0.573145  1
  P  P24  1  0.250000  0.417306  0.111849  1
  P  P25  1  0.250000  0.081752  0.618149  1
  P  P26  1  0.750000  0.580530  0.888895  1
  P  P27  1  0.750000  0.919092  0.392186  1
  P  P28  1  0.250000  0.266356  0.866988  1
  P  P29  1  0.250000  0.228247  0.370217  1
  P  P30  1  0.750000  0.728441  0.127716  1
  P  P31  1  0.750000  0.772907  0.628930  1
  P  P32  1  0.250000  0.603004  0.391339  1
  P  P33  1  0.250000  0.901183  0.889927  1
  P  P34  1  0.750000  0.396919  0.608199  1
  P  P35  1  0.750000  0.102788  0.107684  1
