# generated using pymatgen
data_Nd8Zn(InAu4)5
_symmetry_space_group_name_H-M   'P 1'
_cell_length_a   8.76675552
_cell_length_b   8.76675719
_cell_length_c   10.36250100
_cell_angle_alpha   89.95651883
_cell_angle_beta   89.95651882
_cell_angle_gamma   108.40645866
_symmetry_Int_Tables_number   1
_chemical_formula_structural   Nd8Zn(InAu4)5
_chemical_formula_sum   'Nd8 Zn1 In5 Au20'
_cell_volume   755.67537914
_cell_formula_units_Z   1
loop_
 _symmetry_equiv_pos_site_id
 _symmetry_equiv_pos_as_xyz
  1  'x, y, z'
loop_
 _atom_site_type_symbol
 _atom_site_label
 _atom_site_symmetry_multiplicity
 _atom_site_fract_x
 _atom_site_fract_y
 _atom_site_fract_z
 _atom_site_occupancy
  Nd  Nd0  1  0.701598  0.298402  0.000000  1
  Nd  Nd1  1  0.199180  0.800820  0.500000  1
  Nd  Nd2  1  0.801531  0.801531  0.296997  1
  Nd  Nd3  1  0.299749  0.299749  0.201524  1
  Nd  Nd4  1  0.800820  0.199180  0.500000  1
  Nd  Nd5  1  0.298402  0.701598  0.000000  1
  Nd  Nd6  1  0.700251  0.700251  0.798476  1
  Nd  Nd7  1  0.198469  0.198469  0.703003  1
  Zn  Zn8  1  0.000000  0.000000  0.000000  1
  In  In9  1  0.515910  0.015661  0.247562  1
  In  In10  1  0.984339  0.484090  0.752438  1
  In  In11  1  0.015661  0.515910  0.247562  1
  In  In12  1  0.484090  0.984339  0.752438  1
  In  In13  1  0.500000  0.500000  0.500000  1
  Au  Au14  1  0.157348  0.430227  0.476290  1
  Au  Au15  1  0.904564  0.904564  0.594837  1
  Au  Au16  1  0.569773  0.842652  0.523710  1
  Au  Au17  1  0.897143  0.167667  0.205138  1
  Au  Au18  1  0.389084  0.668676  0.289919  1
  Au  Au19  1  0.668676  0.389084  0.289919  1
  Au  Au20  1  0.406123  0.406123  0.904340  1
  Au  Au21  1  0.931039  0.670787  0.025607  1
  Au  Au22  1  0.331324  0.610916  0.710081  1
  Au  Au23  1  0.329213  0.068961  0.974393  1
  Au  Au24  1  0.593877  0.593877  0.095660  1
  Au  Au25  1  0.670787  0.931039  0.025607  1
  Au  Au26  1  0.095436  0.095436  0.405163  1
  Au  Au27  1  0.610916  0.331324  0.710081  1
  Au  Au28  1  0.102857  0.832333  0.794862  1
  Au  Au29  1  0.068961  0.329213  0.974393  1
  Au  Au30  1  0.842652  0.569773  0.523710  1
  Au  Au31  1  0.167667  0.897143  0.205138  1
  Au  Au32  1  0.430227  0.157348  0.476290  1
  Au  Au33  1  0.832333  0.102857  0.794862  1
