# generated using pymatgen
data_Y2Ho4MnFeB14
_symmetry_space_group_name_H-M   'P 1'
_cell_length_a   8.01004103
_cell_length_b   8.01004177
_cell_length_c   9.28634300
_cell_angle_alpha   90.00000000
_cell_angle_beta   90.00000000
_cell_angle_gamma   155.28359737
_symmetry_Int_Tables_number   1
_chemical_formula_structural   Y2Ho4MnFeB14
_chemical_formula_sum   'Y2 Ho4 Mn1 Fe1 B14'
_cell_volume   249.12803622
_cell_formula_units_Z   1
loop_
 _symmetry_equiv_pos_site_id
 _symmetry_equiv_pos_as_xyz
  1  'x, y, z'
loop_
 _atom_site_type_symbol
 _atom_site_label
 _atom_site_symmetry_multiplicity
 _atom_site_fract_x
 _atom_site_fract_y
 _atom_site_fract_z
 _atom_site_occupancy
  Y  Y0  1  0.242352  0.757648  0.250000  1
  Y  Y1  1  0.757214  0.242786  0.750000  1
  Ho  Ho2  1  0.895659  0.104341  0.439175  1
  Ho  Ho3  1  0.104410  0.895590  0.559032  1
  Ho  Ho4  1  0.895659  0.104341  0.060825  1
  Ho  Ho5  1  0.104410  0.895590  0.940968  1
  Mn  Mn6  1  0.052872  0.947128  0.250000  1
  Fe  Fe7  1  0.946165  0.053835  0.750000  1
  B  B8  1  0.727637  0.272363  0.467654  1
  B  B9  1  0.272874  0.727126  0.533378  1
  B  B10  1  0.727637  0.272363  0.032346  1
  B  B11  1  0.272874  0.727126  0.966622  1
  B  B12  1  0.629891  0.370109  0.153034  1
  B  B13  1  0.370493  0.629507  0.846900  1
  B  B14  1  0.629891  0.370109  0.346966  1
  B  B15  1  0.370493  0.629507  0.653100  1
  B  B16  1  0.521304  0.478696  0.098307  1
  B  B17  1  0.478747  0.521253  0.901761  1
  B  B18  1  0.521304  0.478696  0.401693  1
  B  B19  1  0.478747  0.521253  0.598239  1
  B  B20  1  0.458769  0.541231  0.250000  1
  B  B21  1  0.540598  0.459402  0.750000  1
