# generated using pymatgen
data_Ta12Zn3Ga4NiN4
_symmetry_space_group_name_H-M   'P 1'
_cell_length_a   6.99409127
_cell_length_b   6.99409005
_cell_length_c   6.99409046
_cell_angle_alpha   89.90696355
_cell_angle_beta   89.90696743
_cell_angle_gamma   89.90697087
_symmetry_Int_Tables_number   1
_chemical_formula_structural   Ta12Zn3Ga4NiN4
_chemical_formula_sum   'Ta12 Zn3 Ga4 Ni1 N4'
_cell_volume   342.13069909
_cell_formula_units_Z   1
loop_
 _symmetry_equiv_pos_site_id
 _symmetry_equiv_pos_as_xyz
  1  'x, y, z'
loop_
 _atom_site_type_symbol
 _atom_site_label
 _atom_site_symmetry_multiplicity
 _atom_site_fract_x
 _atom_site_fract_y
 _atom_site_fract_z
 _atom_site_occupancy
  Ta  Ta0  1  0.792342  0.954919  0.375162  1
  Ta  Ta1  1  0.706927  0.042160  0.874180  1
  Ta  Ta2  1  0.206667  0.456763  0.124573  1
  Ta  Ta3  1  0.294766  0.543231  0.626135  1
  Ta  Ta4  1  0.954919  0.375162  0.792342  1
  Ta  Ta5  1  0.042160  0.874180  0.706927  1
  Ta  Ta6  1  0.456763  0.124573  0.206667  1
  Ta  Ta7  1  0.543231  0.626135  0.294766  1
  Ta  Ta8  1  0.375162  0.792342  0.954919  1
  Ta  Ta9  1  0.874180  0.706927  0.042160  1
  Ta  Ta10  1  0.124573  0.206667  0.456763  1
  Ta  Ta11  1  0.626135  0.294766  0.543231  1
  Zn  Zn12  1  0.180531  0.818902  0.321631  1
  Zn  Zn13  1  0.321631  0.180531  0.818902  1
  Zn  Zn14  1  0.818902  0.321631  0.180531  1
  Ga  Ga15  1  0.574208  0.436985  0.921700  1
  Ga  Ga16  1  0.436985  0.921700  0.574208  1
  Ga  Ga17  1  0.921700  0.574208  0.436985  1
  Ga  Ga18  1  0.070791  0.070791  0.070791  1
  Ni  Ni19  1  0.679865  0.679865  0.679865  1
  N  N20  1  0.874167  0.123513  0.623800  1
  N  N21  1  0.623800  0.874167  0.123513  1
  N  N22  1  0.123513  0.623800  0.874167  1
  N  N23  1  0.376083  0.376083  0.376083  1
