# generated using pymatgen
data_DyLu2Bi5O14
_symmetry_space_group_name_H-M   'P 1'
_cell_length_a   6.59224788
_cell_length_b   6.71342339
_cell_length_c   7.74487944
_cell_angle_alpha   106.70680418
_cell_angle_beta   89.49652652
_cell_angle_gamma   99.10724377
_symmetry_Int_Tables_number   1
_chemical_formula_structural   DyLu2Bi5O14
_chemical_formula_sum   'Dy1 Lu2 Bi5 O14'
_cell_volume   323.91022057
_cell_formula_units_Z   1
loop_
 _symmetry_equiv_pos_site_id
 _symmetry_equiv_pos_as_xyz
  1  'x, y, z'
loop_
 _atom_site_type_symbol
 _atom_site_label
 _atom_site_symmetry_multiplicity
 _atom_site_fract_x
 _atom_site_fract_y
 _atom_site_fract_z
 _atom_site_occupancy
  Dy  Dy0  1  0.264743  0.539721  0.885405  1
  Lu  Lu1  1  0.463743  0.003836  0.253341  1
  Lu  Lu2  1  0.536815  0.993503  0.750661  1
  Bi  Bi3  1  0.002776  0.006735  0.502298  1
  Bi  Bi4  1  0.002923  0.001559  0.999522  1
  Bi  Bi5  1  0.737690  0.473737  0.114510  1
  Bi  Bi6  1  0.722264  0.461218  0.614015  1
  Bi  Bi7  1  0.268984  0.531570  0.389910  1
  O  O8  1  0.450177  0.659404  0.167450  1
  O  O9  1  0.536391  0.336303  0.822422  1
  O  O10  1  0.305981  0.924115  0.948483  1
  O  O11  1  0.694407  0.051573  0.051243  1
  O  O12  1  0.303801  0.926041  0.517023  1
  O  O13  1  0.697663  0.077206  0.485492  1
  O  O14  1  0.529866  0.349921  0.348029  1
  O  O15  1  0.459362  0.647702  0.660701  1
  O  O16  1  0.936908  0.666722  0.954510  1
  O  O17  1  0.082324  0.328410  0.036188  1
  O  O18  1  0.092876  0.336170  0.624784  1
  O  O19  1  0.908168  0.678283  0.373386  1
  O  O20  1  0.869275  0.932302  0.733009  1
  O  O21  1  0.132864  0.073967  0.267619  1
