# generated using pymatgen
data_Li7(Eu2P3)2
_symmetry_space_group_name_H-M   'P 1'
_cell_length_a   8.21145136
_cell_length_b   8.21145134
_cell_length_c   11.55805100
_cell_angle_alpha   55.79065458
_cell_angle_beta   55.79065470
_cell_angle_gamma   30.71935482
_symmetry_Int_Tables_number   1
_chemical_formula_structural   Li7(Eu2P3)2
_chemical_formula_sum   'Li7 Eu4 P6'
_cell_volume   323.44135038
_cell_formula_units_Z   1
loop_
 _symmetry_equiv_pos_site_id
 _symmetry_equiv_pos_as_xyz
  1  'x, y, z'
loop_
 _atom_site_type_symbol
 _atom_site_label
 _atom_site_symmetry_multiplicity
 _atom_site_fract_x
 _atom_site_fract_y
 _atom_site_fract_z
 _atom_site_occupancy
  Li  Li0  1  0.050552  0.050552  0.680346  1
  Li  Li1  1  0.949448  0.949448  0.319654  1
  Li  Li2  1  0.237511  0.237511  0.912076  1
  Li  Li3  1  0.762489  0.762489  0.087924  1
  Li  Li4  1  0.417496  0.417496  0.656290  1
  Li  Li5  1  0.582504  0.582504  0.343710  1
  Li  Li6  1  0.000000  0.000000  0.500000  1
  Eu  Eu7  1  0.259308  0.259308  0.339934  1
  Eu  Eu8  1  0.740692  0.740692  0.660066  1
  Eu  Eu9  1  0.432360  0.432360  0.913602  1
  Eu  Eu10  1  0.567640  0.567640  0.086398  1
  P  P11  1  0.094381  0.094381  0.866617  1
  P  P12  1  0.905619  0.905619  0.133383  1
  P  P13  1  0.154351  0.154351  0.185163  1
  P  P14  1  0.845649  0.845649  0.814837  1
  P  P15  1  0.384640  0.384640  0.463038  1
  P  P16  1  0.615360  0.615360  0.536962  1
