# generated using pymatgen
data_MnSi9Pb14O33
_symmetry_space_group_name_H-M   'P 1'
_cell_length_a   10.08037700
_cell_length_b   10.08037626
_cell_length_c   10.60530100
_cell_angle_alpha   90.00000000
_cell_angle_beta   90.00000000
_cell_angle_gamma   119.99999345
_symmetry_Int_Tables_number   1
_chemical_formula_structural   MnSi9Pb14O33
_chemical_formula_sum   'Mn1 Si9 Pb14 O33'
_cell_volume   933.26972429
_cell_formula_units_Z   1
loop_
 _symmetry_equiv_pos_site_id
 _symmetry_equiv_pos_as_xyz
  1  'x, y, z'
loop_
 _atom_site_type_symbol
 _atom_site_label
 _atom_site_symmetry_multiplicity
 _atom_site_fract_x
 _atom_site_fract_y
 _atom_site_fract_z
 _atom_site_occupancy
  Mn  Mn0  1  0.333333  0.666667  0.500000  1
  Si  Si1  1  0.275013  0.949214  0.356039  1
  Si  Si2  1  0.050786  0.325799  0.356039  1
  Si  Si3  1  0.656931  0.942910  0.000000  1
  Si  Si4  1  0.674201  0.724987  0.643961  1
  Si  Si5  1  0.285980  0.343069  0.000000  1
  Si  Si6  1  0.275013  0.949214  0.643961  1
  Si  Si7  1  0.057090  0.714020  0.000000  1
  Si  Si8  1  0.050786  0.325799  0.643961  1
  Si  Si9  1  0.674201  0.724987  0.356039  1
  Pb  Pb10  1  0.000000  0.000000  0.162850  1
  Pb  Pb11  1  0.333333  0.666667  0.186576  1
  Pb  Pb12  1  0.000000  0.000000  0.837150  1
  Pb  Pb13  1  0.333333  0.666667  0.813424  1
  Pb  Pb14  1  0.000000  0.000000  0.500000  1
  Pb  Pb15  1  0.925472  0.592377  0.681061  1
  Pb  Pb16  1  0.407623  0.333095  0.318939  1
  Pb  Pb17  1  0.658080  0.585346  0.000000  1
  Pb  Pb18  1  0.927266  0.341920  0.000000  1
  Pb  Pb19  1  0.666905  0.074528  0.681061  1
  Pb  Pb20  1  0.414654  0.072734  0.000000  1
  Pb  Pb21  1  0.925472  0.592377  0.318939  1
  Pb  Pb22  1  0.407623  0.333095  0.681061  1
  Pb  Pb23  1  0.666905  0.074528  0.318939  1
  O  O24  1  0.189146  0.154310  0.000000  1
  O  O25  1  0.303633  0.033623  0.500000  1
  O  O26  1  0.966377  0.270009  0.500000  1
  O  O27  1  0.404963  0.411269  0.121525  1
  O  O28  1  0.146491  0.232427  0.338352  1
  O  O29  1  0.353765  0.087443  0.748251  1
  O  O30  1  0.161929  0.511403  0.643387  1
  O  O31  1  0.006305  0.595037  0.121525  1
  O  O32  1  0.349474  0.838071  0.356613  1
  O  O33  1  0.161929  0.511403  0.356613  1
  O  O34  1  0.767573  0.914063  0.338352  1
  O  O35  1  0.349474  0.838071  0.643387  1
  O  O36  1  0.912557  0.266323  0.748251  1
  O  O37  1  0.353765  0.087443  0.251749  1
  O  O38  1  0.965163  0.810854  0.000000  1
  O  O39  1  0.733677  0.646235  0.748251  1
  O  O40  1  0.733677  0.646235  0.251749  1
  O  O41  1  0.729991  0.696367  0.500000  1
  O  O42  1  0.580576  0.756012  0.000000  1
  O  O43  1  0.146491  0.232427  0.661648  1
  O  O44  1  0.588731  0.993695  0.878475  1
  O  O45  1  0.085937  0.853509  0.338352  1
  O  O46  1  0.912557  0.266323  0.251749  1
  O  O47  1  0.488597  0.650526  0.643387  1
  O  O48  1  0.085937  0.853509  0.661648  1
  O  O49  1  0.588731  0.993695  0.121525  1
  O  O50  1  0.243988  0.824562  0.000000  1
  O  O51  1  0.175438  0.419424  0.000000  1
  O  O52  1  0.488597  0.650526  0.356613  1
  O  O53  1  0.767573  0.914063  0.661648  1
  O  O54  1  0.845690  0.034837  0.000000  1
  O  O55  1  0.006305  0.595037  0.878475  1
  O  O56  1  0.404963  0.411269  0.878475  1
