# generated using pymatgen
data_Na2Lu3Zr3(Ni4As3)4
_symmetry_space_group_name_H-M   'P 1'
_cell_length_a   12.73060300
_cell_length_b   12.73060186
_cell_length_c   3.89229400
_cell_angle_alpha   90.00000000
_cell_angle_beta   90.00000000
_cell_angle_gamma   120.00000556
_symmetry_Int_Tables_number   1
_chemical_formula_structural   Na2Lu3Zr3(Ni4As3)4
_chemical_formula_sum   'Na2 Lu3 Zr3 Ni16 As12'
_cell_volume   546.30371688
_cell_formula_units_Z   1
loop_
 _symmetry_equiv_pos_site_id
 _symmetry_equiv_pos_as_xyz
  1  'x, y, z'
loop_
 _atom_site_type_symbol
 _atom_site_label
 _atom_site_symmetry_multiplicity
 _atom_site_fract_x
 _atom_site_fract_y
 _atom_site_fract_z
 _atom_site_occupancy
  Na  Na0  1  0.333333  0.666667  0.000000  1
  Na  Na1  1  0.666667  0.333333  0.000000  1
  Lu  Lu2  1  0.179777  0.179777  0.500000  1
  Lu  Lu3  1  0.820223  0.000000  0.500000  1
  Lu  Lu4  1  0.000000  0.820223  0.500000  1
  Zr  Zr5  1  0.558775  0.558775  0.000000  1
  Zr  Zr6  1  0.441225  0.000000  0.000000  1
  Zr  Zr7  1  0.000000  0.441225  0.000000  1
  Ni  Ni8  1  0.722716  0.722716  0.500000  1
  Ni  Ni9  1  0.277284  0.000000  0.500000  1
  Ni  Ni10  1  0.000000  0.277284  0.500000  1
  Ni  Ni11  1  0.181653  0.376239  0.000000  1
  Ni  Ni12  1  0.623761  0.805413  0.000000  1
  Ni  Ni13  1  0.194587  0.818347  0.000000  1
  Ni  Ni14  1  0.805413  0.623761  0.000000  1
  Ni  Ni15  1  0.818347  0.194587  0.000000  1
  Ni  Ni16  1  0.376239  0.181653  0.000000  1
  Ni  Ni17  1  0.357121  0.478098  0.500000  1
  Ni  Ni18  1  0.521902  0.879024  0.500000  1
  Ni  Ni19  1  0.120976  0.642879  0.500000  1
  Ni  Ni20  1  0.879024  0.521902  0.500000  1
  Ni  Ni21  1  0.642879  0.120976  0.500000  1
  Ni  Ni22  1  0.478098  0.357121  0.500000  1
  Ni  Ni23  1  0.000000  0.000000  0.000000  1
  As  As24  1  0.822470  0.822470  0.000000  1
  As  As25  1  0.177530  0.000000  0.000000  1
  As  As26  1  0.000000  0.177530  0.000000  1
  As  As27  1  0.171757  0.481401  0.500000  1
  As  As28  1  0.518599  0.690356  0.500000  1
  As  As29  1  0.309644  0.828243  0.500000  1
  As  As30  1  0.690356  0.518599  0.500000  1
  As  As31  1  0.828243  0.309644  0.500000  1
  As  As32  1  0.481401  0.171757  0.500000  1
  As  As33  1  0.349835  0.349835  0.000000  1
  As  As34  1  0.650165  0.000000  0.000000  1
  As  As35  1  0.000000  0.650165  0.000000  1
