# generated using pymatgen
data_Gd2Y3Sn3S
_symmetry_space_group_name_H-M   'P 1'
_cell_length_a   9.15710800
_cell_length_b   9.15710873
_cell_length_c   6.42759800
_cell_angle_alpha   90.00000000
_cell_angle_beta   90.00000000
_cell_angle_gamma   119.99999735
_symmetry_Int_Tables_number   1
_chemical_formula_structural   Gd2Y3Sn3S
_chemical_formula_sum   'Gd4 Y6 Sn6 S2'
_cell_volume   466.76260792
_cell_formula_units_Z   2
loop_
 _symmetry_equiv_pos_site_id
 _symmetry_equiv_pos_as_xyz
  1  'x, y, z'
loop_
 _atom_site_type_symbol
 _atom_site_label
 _atom_site_symmetry_multiplicity
 _atom_site_fract_x
 _atom_site_fract_y
 _atom_site_fract_z
 _atom_site_occupancy
  Gd  Gd0  1  0.666667  0.333333  0.000000  1
  Gd  Gd1  1  0.333333  0.666667  0.000000  1
  Gd  Gd2  1  0.333333  0.666667  0.500000  1
  Gd  Gd3  1  0.666667  0.333333  0.500000  1
  Y  Y4  1  0.754893  0.754893  0.750000  1
  Y  Y5  1  0.245107  0.000000  0.750000  1
  Y  Y6  1  0.000000  0.245107  0.750000  1
  Y  Y7  1  0.245107  0.245107  0.250000  1
  Y  Y8  1  0.754893  0.000000  0.250000  1
  Y  Y9  1  0.000000  0.754893  0.250000  1
  Sn  Sn10  1  0.396574  0.396574  0.750000  1
  Sn  Sn11  1  0.603426  0.000000  0.750000  1
  Sn  Sn12  1  0.000000  0.603426  0.750000  1
  Sn  Sn13  1  0.603426  0.603426  0.250000  1
  Sn  Sn14  1  0.396574  0.000000  0.250000  1
  Sn  Sn15  1  0.000000  0.396574  0.250000  1
  S  S16  1  0.000000  0.000000  0.000000  1
  S  S17  1  0.000000  0.000000  0.500000  1
