# generated using pymatgen
data_HoLu3(Al3Tc)2
_symmetry_space_group_name_H-M   'P 1'
_cell_length_a   5.38445500
_cell_length_b   5.38445578
_cell_length_c   8.80162900
_cell_angle_alpha   90.00000000
_cell_angle_beta   90.00000000
_cell_angle_gamma   119.99998909
_symmetry_Int_Tables_number   1
_chemical_formula_structural   HoLu3(Al3Tc)2
_chemical_formula_sum   'Ho1 Lu3 Al6 Tc2'
_cell_volume   220.99238251
_cell_formula_units_Z   1
loop_
 _symmetry_equiv_pos_site_id
 _symmetry_equiv_pos_as_xyz
  1  'x, y, z'
loop_
 _atom_site_type_symbol
 _atom_site_label
 _atom_site_symmetry_multiplicity
 _atom_site_fract_x
 _atom_site_fract_y
 _atom_site_fract_z
 _atom_site_occupancy
  Ho  Ho0  1  0.333333  0.666667  0.051279  1
  Lu  Lu1  1  0.333333  0.666667  0.444852  1
  Lu  Lu2  1  0.666667  0.333333  0.949208  1
  Lu  Lu3  1  0.666667  0.333333  0.553636  1
  Al  Al4  1  0.163365  0.326732  0.749545  1
  Al  Al5  1  0.836194  0.163806  0.250537  1
  Al  Al6  1  0.327615  0.163806  0.250537  1
  Al  Al7  1  0.673268  0.836635  0.749545  1
  Al  Al8  1  0.836194  0.672385  0.250537  1
  Al  Al9  1  0.163365  0.836635  0.749545  1
  Tc  Tc10  1  0.000000  0.000000  0.999793  1
  Tc  Tc11  1  0.000000  0.000000  0.500988  1
