# generated using pymatgen
data_Sc4Ta5TiSi8
_symmetry_space_group_name_H-M   'P 1'
_cell_length_a   6.91254507
_cell_length_b   6.90491135
_cell_length_c   12.65219600
_cell_angle_alpha   90.00000000
_cell_angle_beta   90.00000000
_cell_angle_gamma   89.97380425
_symmetry_Int_Tables_number   1
_chemical_formula_structural   Sc4Ta5TiSi8
_chemical_formula_sum   'Sc8 Ta10 Ti2 Si16'
_cell_volume   603.89571581
_cell_formula_units_Z   2
loop_
 _symmetry_equiv_pos_site_id
 _symmetry_equiv_pos_as_xyz
  1  'x, y, z'
loop_
 _atom_site_type_symbol
 _atom_site_label
 _atom_site_symmetry_multiplicity
 _atom_site_fract_x
 _atom_site_fract_y
 _atom_site_fract_z
 _atom_site_occupancy
  Sc  Sc0  1  0.342734  0.001052  0.468081  1
  Sc  Sc1  1  0.499895  0.842286  0.718536  1
  Sc  Sc2  1  0.500105  0.157714  0.218536  1
  Sc  Sc3  1  0.842307  0.500734  0.281861  1
  Sc  Sc4  1  0.157693  0.499266  0.781861  1
  Sc  Sc5  1  0.657266  0.998949  0.968081  1
  Sc  Sc6  1  0.001095  0.341126  0.531242  1
  Sc  Sc7  1  0.998906  0.658874  0.031242  1
  Ta  Ta8  1  0.328522  0.328368  0.999838  1
  Ta  Ta9  1  0.172729  0.827036  0.250045  1
  Ta  Ta10  1  0.827271  0.172964  0.750045  1
  Ta  Ta11  1  0.671478  0.671632  0.499838  1
  Ta  Ta12  1  0.149776  0.006054  0.872933  1
  Ta  Ta13  1  0.494032  0.649277  0.123717  1
  Ta  Ta14  1  0.505968  0.350723  0.623717  1
  Ta  Ta15  1  0.649537  0.492842  0.876587  1
  Ta  Ta16  1  0.350463  0.507158  0.376587  1
  Ta  Ta17  1  0.850224  0.993946  0.372933  1
  Ti  Ti18  1  0.006927  0.150200  0.126936  1
  Ti  Ti19  1  0.993073  0.849800  0.626936  1
  Si  Si20  1  0.203352  0.136960  0.677032  1
  Si  Si21  1  0.360132  0.705821  0.927856  1
  Si  Si22  1  0.639868  0.294179  0.427856  1
  Si  Si23  1  0.707272  0.358224  0.073188  1
  Si  Si24  1  0.292728  0.641776  0.573188  1
  Si  Si25  1  0.796648  0.863040  0.177032  1
  Si  Si26  1  0.140143  0.204500  0.321631  1
  Si  Si27  1  0.859857  0.795500  0.821631  1
  Si  Si28  1  0.298220  0.955237  0.064454  1
  Si  Si29  1  0.546165  0.801205  0.313464  1
  Si  Si30  1  0.453835  0.198795  0.813464  1
  Si  Si31  1  0.803073  0.547165  0.685151  1
  Si  Si32  1  0.196927  0.452835  0.185151  1
  Si  Si33  1  0.701780  0.044763  0.564454  1
  Si  Si34  1  0.954684  0.300024  0.937448  1
  Si  Si35  1  0.045316  0.699976  0.437448  1
