# generated using pymatgen
data_Li12EuY11(WO6)8
_symmetry_space_group_name_H-M   'P 1'
_cell_length_a   10.71893371
_cell_length_b   10.73228903
_cell_length_c   10.71893424
_cell_angle_alpha   109.45824589
_cell_angle_beta   109.44672940
_cell_angle_gamma   109.45824388
_symmetry_Int_Tables_number   1
_chemical_formula_structural   Li12EuY11(WO6)8
_chemical_formula_sum   'Li12 Eu1 Y11 W8 O48'
_cell_volume   949.82528034
_cell_formula_units_Z   1
loop_
 _symmetry_equiv_pos_site_id
 _symmetry_equiv_pos_as_xyz
  1  'x, y, z'
loop_
 _atom_site_type_symbol
 _atom_site_label
 _atom_site_symmetry_multiplicity
 _atom_site_fract_x
 _atom_site_fract_y
 _atom_site_fract_z
 _atom_site_occupancy
  Li  Li0  1  0.750429  0.374724  0.125125  1
  Li  Li1  1  0.874913  0.750000  0.124913  1
  Li  Li2  1  0.124295  0.374724  0.249599  1
  Li  Li3  1  0.625192  0.875089  0.250129  1
  Li  Li4  1  0.250401  0.125276  0.375705  1
  Li  Li5  1  0.625351  0.250000  0.375351  1
  Li  Li6  1  0.375087  0.750000  0.625087  1
  Li  Li7  1  0.749897  0.875089  0.624960  1
  Li  Li8  1  0.374875  0.125276  0.749571  1
  Li  Li9  1  0.875040  0.624911  0.750103  1
  Li  Li10  1  0.249871  0.624911  0.874808  1
  Li  Li11  1  0.124649  0.250000  0.874649  1
  Eu  Eu12  1  0.375000  0.250000  0.125000  1
  Y  Y13  1  0.249499  0.874059  0.124602  1
  Y  Y14  1  0.874988  0.124802  0.249825  1
  Y  Y15  1  0.375398  0.625941  0.250501  1
  Y  Y16  1  0.750542  0.625941  0.375439  1
  Y  Y17  1  0.125000  0.750000  0.375000  1
  Y  Y18  1  0.875000  0.250000  0.625000  1
  Y  Y19  1  0.250175  0.375198  0.625012  1
  Y  Y20  1  0.625022  0.375198  0.750186  1
  Y  Y21  1  0.124561  0.874059  0.749458  1
  Y  Y22  1  0.625000  0.750000  0.875000  1
  Y  Y23  1  0.749814  0.124802  0.874978  1
  W  W24  1  0.998739  0.998740  0.998868  1
  W  W25  1  0.500000  0.998740  0.999872  1
  W  W26  1  0.999977  0.499937  0.999994  1
  W  W27  1  0.500128  0.501260  0.000000  1
  W  W28  1  0.000057  0.000063  0.500041  1
  W  W29  1  0.500006  0.000063  0.500023  1
  W  W30  1  0.999959  0.499937  0.499943  1
  W  W31  1  0.501132  0.501260  0.501261  1
  O  O32  1  0.200321  0.619157  0.027090  1
  O  O33  1  0.325492  0.411638  0.026204  1
  O  O34  1  0.700106  0.172973  0.081681  1
  O  O35  1  0.880313  0.907803  0.081098  1
  O  O36  1  0.619457  0.917729  0.091560  1
  O  O37  1  0.972867  0.172973  0.091292  1
  O  O38  1  0.026902  0.700140  0.118923  1
  O  O39  1  0.593221  0.420570  0.118068  1
  O  O40  1  0.197498  0.079430  0.172651  1
  O  O41  1  0.473795  0.088362  0.174508  1
  O  O42  1  0.118999  0.527106  0.200491  1
  O  O43  1  0.581931  0.673867  0.200882  1
  O  O44  1  0.327349  0.420570  0.302502  1
  O  O45  1  0.472910  0.880843  0.299679  1
  O  O46  1  0.918783  0.799860  0.326762  1
  O  O47  1  0.908107  0.527106  0.326615  1
  O  O48  1  0.586146  0.411638  0.385434  1
  O  O49  1  0.299509  0.972894  0.381001  1
  O  O50  1  0.826676  0.027116  0.408268  1
  O  O51  1  0.081564  0.381141  0.408184  1
  O  O52  1  0.091816  0.118859  0.418436  1
  O  O53  1  0.826813  0.299755  0.418572  1
  O  O54  1  0.591935  0.673866  0.472983  1
  O  O55  1  0.381077  0.799860  0.473097  1
  O  O56  1  0.618817  0.200245  0.527058  1
  O  O57  1  0.408708  0.327027  0.527133  1
  O  O58  1  0.173238  0.700140  0.581217  1
  O  O59  1  0.907934  0.880842  0.581165  1
  O  O60  1  0.918835  0.619157  0.592066  1
  O  O61  1  0.173385  0.972893  0.591893  1
  O  O62  1  0.700440  0.027116  0.618848  1
  O  O63  1  0.418902  0.592197  0.619686  1
  O  O64  1  0.081428  0.200245  0.673186  1
  O  O65  1  0.091732  0.472884  0.673324  1
  O  O66  1  0.527044  0.118859  0.700423  1
  O  O67  1  0.673830  0.582271  0.701728  1
  O  O68  1  0.881151  0.472883  0.799560  1
  O  O69  1  0.418319  0.327027  0.799894  1
  O  O70  1  0.527489  0.907803  0.826705  1
  O  O71  1  0.798272  0.917729  0.826169  1
  O  O72  1  0.972942  0.299755  0.881183  1
  O  O73  1  0.408440  0.582271  0.880543  1
  O  O74  1  0.381932  0.079430  0.906779  1
  O  O75  1  0.027016  0.826133  0.908065  1
  O  O76  1  0.299118  0.826133  0.918069  1
  O  O77  1  0.114566  0.088362  0.913854  1
  O  O78  1  0.799577  0.381141  0.972955  1
  O  O79  1  0.673295  0.592197  0.972511  1
