# generated using pymatgen
data_Cr6GaSi5Ru12
_symmetry_space_group_name_H-M   'P 1'
_cell_length_a   4.20477900
_cell_length_b   5.95235500
_cell_length_c   12.57447300
_cell_angle_alpha   90.00000456
_cell_angle_beta   90.00068695
_cell_angle_gamma   90.00004650
_symmetry_Int_Tables_number   1
_chemical_formula_structural   Cr6GaSi5Ru12
_chemical_formula_sum   'Cr6 Ga1 Si5 Ru12'
_cell_volume   314.71815166
_cell_formula_units_Z   1
loop_
 _symmetry_equiv_pos_site_id
 _symmetry_equiv_pos_as_xyz
  1  'x, y, z'
loop_
 _atom_site_type_symbol
 _atom_site_label
 _atom_site_symmetry_multiplicity
 _atom_site_fract_x
 _atom_site_fract_y
 _atom_site_fract_z
 _atom_site_occupancy
  Cr  Cr0  1  0.000000  0.500001  0.000000  1
  Cr  Cr1  1  0.499729  0.999999  0.164955  1
  Cr  Cr2  1  0.999725  0.499996  0.333834  1
  Cr  Cr3  1  0.500000  0.000000  0.500000  1
  Cr  Cr4  1  0.000276  0.500006  0.666166  1
  Cr  Cr5  1  0.500270  0.000001  0.835045  1
  Ga  Ga6  1  0.000000  0.000000  0.000000  1
  Si  Si7  1  0.499710  0.500001  0.167187  1
  Si  Si8  1  0.999707  0.999999  0.333612  1
  Si  Si9  1  0.500000  0.500001  0.500000  1
  Si  Si10  1  0.000294  0.000001  0.666388  1
  Si  Si11  1  0.500291  0.500001  0.832813  1
  Ru  Ru12  1  0.500000  0.256844  0.000000  1
  Ru  Ru13  1  0.500000  0.743156  0.000000  1
  Ru  Ru14  1  0.999754  0.252780  0.170100  1
  Ru  Ru15  1  0.999755  0.747219  0.170100  1
  Ru  Ru16  1  0.499765  0.249643  0.334172  1
  Ru  Ru17  1  0.499768  0.750356  0.334172  1
  Ru  Ru18  1  0.999998  0.248783  0.500000  1
  Ru  Ru19  1  0.000002  0.751217  0.500000  1
  Ru  Ru20  1  0.500233  0.249644  0.665828  1
  Ru  Ru21  1  0.500236  0.750357  0.665828  1
  Ru  Ru22  1  0.000246  0.252781  0.829900  1
  Ru  Ru23  1  0.000247  0.747220  0.829900  1
