# generated using pymatgen
data_CeNd5Al20(SiRu2)4
_symmetry_space_group_name_H-M   'P 1'
_cell_length_a   8.80669300
_cell_length_b   8.81540306
_cell_length_c   9.68337500
_cell_angle_alpha   90.00000000
_cell_angle_beta   90.00000000
_cell_angle_gamma   119.96731721
_symmetry_Int_Tables_number   1
_chemical_formula_structural   CeNd5Al20(SiRu2)4
_chemical_formula_sum   'Ce1 Nd5 Al20 Si4 Ru8'
_cell_volume   651.26141266
_cell_formula_units_Z   1
loop_
 _symmetry_equiv_pos_site_id
 _symmetry_equiv_pos_as_xyz
  1  'x, y, z'
loop_
 _atom_site_type_symbol
 _atom_site_label
 _atom_site_symmetry_multiplicity
 _atom_site_fract_x
 _atom_site_fract_y
 _atom_site_fract_z
 _atom_site_occupancy
  Ce  Ce0  1  0.194291  0.388581  0.250000  1
  Nd  Nd1  1  0.807142  0.614286  0.750000  1
  Nd  Nd2  1  0.613392  0.805855  0.250000  1
  Nd  Nd3  1  0.387081  0.193608  0.750000  1
  Nd  Nd4  1  0.192465  0.805855  0.250000  1
  Nd  Nd5  1  0.806525  0.193608  0.750000  1
  Al  Al6  1  0.164478  0.328955  0.574318  1
  Al  Al7  1  0.835284  0.670570  0.425746  1
  Al  Al8  1  0.670874  0.834587  0.575069  1
  Al  Al9  1  0.835284  0.670570  0.074254  1
  Al  Al10  1  0.328498  0.164566  0.424002  1
  Al  Al11  1  0.164478  0.328955  0.925682  1
  Al  Al12  1  0.163713  0.834587  0.575069  1
  Al  Al13  1  0.328498  0.164566  0.075998  1
  Al  Al14  1  0.836067  0.164566  0.424002  1
  Al  Al15  1  0.670874  0.834587  0.924931  1
  Al  Al16  1  0.836067  0.164566  0.075998  1
  Al  Al17  1  0.163713  0.834587  0.924931  1
  Al  Al18  1  0.564302  0.128604  0.250000  1
  Al  Al19  1  0.435228  0.870457  0.750000  1
  Al  Al20  1  0.870957  0.434613  0.250000  1
  Al  Al21  1  0.128639  0.563903  0.750000  1
  Al  Al22  1  0.563657  0.434613  0.250000  1
  Al  Al23  1  0.435263  0.563903  0.750000  1
  Al  Al24  1  0.001489  0.002978  0.250000  1
  Al  Al25  1  0.000291  0.000582  0.750000  1
  Si  Si26  1  0.334000  0.668001  0.030523  1
  Si  Si27  1  0.667006  0.334011  0.970768  1
  Si  Si28  1  0.667006  0.334011  0.529232  1
  Si  Si29  1  0.334000  0.668001  0.469477  1
  Ru  Ru30  1  0.500176  0.000352  0.999613  1
  Ru  Ru31  1  0.001140  0.499797  0.002236  1
  Ru  Ru32  1  0.500176  0.000352  0.500387  1
  Ru  Ru33  1  0.498657  0.499797  0.002236  1
  Ru  Ru34  1  0.001140  0.499797  0.497764  1
  Ru  Ru35  1  0.498657  0.499797  0.497764  1
  Ru  Ru36  1  0.999745  0.999489  0.000260  1
  Ru  Ru37  1  0.999745  0.999489  0.499740  1
