# generated using pymatgen
data_MnSbPO5
_symmetry_space_group_name_H-M   'P 1'
_cell_length_a   6.75202298
_cell_length_b   6.77508877
_cell_length_c   5.39544004
_cell_angle_alpha   107.47294915
_cell_angle_beta   99.02202957
_cell_angle_gamma   109.08439898
_symmetry_Int_Tables_number   1
_chemical_formula_structural   MnSbPO5
_chemical_formula_sum   'Mn2 Sb2 P2 O10'
_cell_volume   213.40262257
_cell_formula_units_Z   2
loop_
 _symmetry_equiv_pos_site_id
 _symmetry_equiv_pos_as_xyz
  1  'x, y, z'
loop_
 _atom_site_type_symbol
 _atom_site_label
 _atom_site_symmetry_multiplicity
 _atom_site_fract_x
 _atom_site_fract_y
 _atom_site_fract_z
 _atom_site_occupancy
  Mn  Mn0  1  0.373134  0.208057  0.327242  1
  Mn  Mn1  1  0.626867  0.791944  0.672758  1
  Sb  Sb2  1  0.763058  0.549484  0.115202  1
  Sb  Sb3  1  0.236942  0.450515  0.884798  1
  P  P4  1  0.822608  0.118166  0.343359  1
  P  P5  1  0.177393  0.881836  0.656642  1
  O  O6  1  0.783724  0.891174  0.112599  1
  O  O7  1  0.681312  0.227349  0.221742  1
  O  O8  1  0.501816  0.542090  0.254289  1
  O  O9  1  0.243077  0.916133  0.408813  1
  O  O10  1  0.072068  0.276239  0.429666  1
  O  O11  1  0.927932  0.723761  0.570334  1
  O  O12  1  0.756923  0.083866  0.591187  1
  O  O13  1  0.498183  0.457909  0.745710  1
  O  O14  1  0.318688  0.772651  0.778258  1
  O  O15  1  0.216276  0.108826  0.887401  1
