# generated using pymatgen
data_TiNb(SiSb)2
_symmetry_space_group_name_H-M   'P 1'
_cell_length_a   3.63791800
_cell_length_b   3.63791800
_cell_length_c   8.29183900
_cell_angle_alpha   90.00000000
_cell_angle_beta   90.00000000
_cell_angle_gamma   90.00000000
_symmetry_Int_Tables_number   1
_chemical_formula_structural   TiNb(SiSb)2
_chemical_formula_sum   'Ti1 Nb1 Si2 Sb2'
_cell_volume   109.73790689
_cell_formula_units_Z   1
loop_
 _symmetry_equiv_pos_site_id
 _symmetry_equiv_pos_as_xyz
  1  'x, y, z'
loop_
 _atom_site_type_symbol
 _atom_site_label
 _atom_site_symmetry_multiplicity
 _atom_site_fract_x
 _atom_site_fract_y
 _atom_site_fract_z
 _atom_site_occupancy
  Ti  Ti0  1  0.000000  0.499999  0.239336  1
  Nb  Nb1  1  0.499999  0.000000  0.763185  1
  Si  Si2  1  0.000000  0.000000  0.003731  1
  Si  Si3  1  0.499999  0.499999  0.003731  1
  Sb  Sb4  1  0.499999  0.000000  0.378902  1
  Sb  Sb5  1  0.000000  0.499999  0.611115  1
