# generated using pymatgen
data_Sm7Ho10Tm3Sn16
_symmetry_space_group_name_H-M   'P 1'
_cell_length_a   8.04513483
_cell_length_b   8.19489798
_cell_length_c   15.48068512
_cell_angle_alpha   90.01690268
_cell_angle_beta   90.16531060
_cell_angle_gamma   89.84057926
_symmetry_Int_Tables_number   1
_chemical_formula_structural   Sm7Ho10Tm3Sn16
_chemical_formula_sum   'Sm7 Ho10 Tm3 Sn16'
_cell_volume   1020.61876466
_cell_formula_units_Z   1
loop_
 _symmetry_equiv_pos_site_id
 _symmetry_equiv_pos_as_xyz
  1  'x, y, z'
loop_
 _atom_site_type_symbol
 _atom_site_label
 _atom_site_symmetry_multiplicity
 _atom_site_fract_x
 _atom_site_fract_y
 _atom_site_fract_z
 _atom_site_occupancy
  Sm  Sm0  1  0.018728  0.179277  0.597927  1
  Sm  Sm1  1  0.481400  0.678894  0.403013  1
  Sm  Sm2  1  0.980775  0.821023  0.096732  1
  Sm  Sm3  1  0.480431  0.678054  0.096689  1
  Sm  Sm4  1  0.981556  0.821061  0.403107  1
  Sm  Sm5  1  0.518132  0.321309  0.596568  1
  Sm  Sm6  1  0.018775  0.179568  0.902887  1
  Ho  Ho7  1  0.365608  0.836076  0.877206  1
  Ho  Ho8  1  0.864517  0.663581  0.623015  1
  Ho  Ho9  1  0.634828  0.163903  0.377247  1
  Ho  Ho10  1  0.133480  0.336332  0.122129  1
  Ho  Ho11  1  0.633530  0.164433  0.122185  1
  Ho  Ho12  1  0.135036  0.336178  0.377399  1
  Ho  Ho13  1  0.365314  0.836617  0.623503  1
  Ho  Ho14  1  0.865725  0.663423  0.877678  1
  Ho  Ho15  1  0.521939  0.321767  0.901866  1
  Ho  Ho16  1  0.197827  0.503090  0.750783  1
  Tm  Tm17  1  0.697224  0.996332  0.750571  1
  Tm  Tm18  1  0.802312  0.496093  0.249744  1
  Tm  Tm19  1  0.302548  0.003931  0.249762  1
  Sn  Sn20  1  0.297727  0.038498  0.041798  1
  Sn  Sn21  1  0.798163  0.460880  0.458188  1
  Sn  Sn22  1  0.701798  0.961388  0.542134  1
  Sn  Sn23  1  0.206595  0.535549  0.957313  1
  Sn  Sn24  1  0.700855  0.963567  0.957505  1
  Sn  Sn25  1  0.201448  0.539741  0.541913  1
  Sn  Sn26  1  0.298308  0.038655  0.458345  1
  Sn  Sn27  1  0.794928  0.459778  0.040531  1
  Sn  Sn28  1  0.563679  0.621222  0.750343  1
  Sn  Sn29  1  0.063140  0.877702  0.750178  1
  Sn  Sn30  1  0.436304  0.377962  0.249806  1
  Sn  Sn31  1  0.936400  0.122609  0.249827  1
  Sn  Sn32  1  0.330341  0.146736  0.751694  1
  Sn  Sn33  1  0.826046  0.354783  0.750601  1
  Sn  Sn34  1  0.672226  0.854943  0.249819  1
  Sn  Sn35  1  0.172356  0.645043  0.249997  1
