# generated using pymatgen
data_La3Ce(HgRh2)2
_symmetry_space_group_name_H-M   'P 1'
_cell_length_a   7.79570145
_cell_length_b   7.79570145
_cell_length_c   3.83020200
_cell_angle_alpha   90.00000000
_cell_angle_beta   90.00000000
_cell_angle_gamma   88.83851285
_symmetry_Int_Tables_number   1
_chemical_formula_structural   La3Ce(HgRh2)2
_chemical_formula_sum   'La3 Ce1 Hg2 Rh4'
_cell_volume   232.72489022
_cell_formula_units_Z   1
loop_
 _symmetry_equiv_pos_site_id
 _symmetry_equiv_pos_as_xyz
  1  'x, y, z'
loop_
 _atom_site_type_symbol
 _atom_site_label
 _atom_site_symmetry_multiplicity
 _atom_site_fract_x
 _atom_site_fract_y
 _atom_site_fract_z
 _atom_site_occupancy
  La  La0  1  0.329761  0.170239  0.499999  1
  La  La1  1  0.830945  0.329217  0.499999  1
  La  La2  1  0.170783  0.669056  0.499999  1
  Ce  Ce3  1  0.669073  0.830928  0.499999  1
  Hg  Hg4  1  0.001284  0.999188  0.000000  1
  Hg  Hg5  1  0.500812  0.498716  0.000000  1
  Rh  Rh6  1  0.638728  0.119939  0.000000  1
  Rh  Rh7  1  0.127963  0.372038  0.000000  1
  Rh  Rh8  1  0.850590  0.649410  0.000000  1
  Rh  Rh9  1  0.380062  0.861272  0.000000  1
