# generated using pymatgen
data_Ac3Nd(Er3Pt4)2
_symmetry_space_group_name_H-M   'P 1'
_cell_length_a   7.67923400
_cell_length_b   7.74706823
_cell_length_c   15.09813200
_cell_angle_alpha   90.01408161
_cell_angle_beta   90.00000000
_cell_angle_gamma   90.00000000
_symmetry_Int_Tables_number   1
_chemical_formula_structural   Ac3Nd(Er3Pt4)2
_chemical_formula_sum   'Ac6 Nd2 Er12 Pt16'
_cell_volume   898.21124438
_cell_formula_units_Z   2
loop_
 _symmetry_equiv_pos_site_id
 _symmetry_equiv_pos_as_xyz
  1  'x, y, z'
loop_
 _atom_site_type_symbol
 _atom_site_label
 _atom_site_symmetry_multiplicity
 _atom_site_fract_x
 _atom_site_fract_y
 _atom_site_fract_z
 _atom_site_occupancy
  Ac  Ac0  1  0.499267  0.324033  0.595249  1
  Ac  Ac1  1  0.999267  0.175967  0.904751  1
  Ac  Ac2  1  0.999006  0.174223  0.593803  1
  Ac  Ac3  1  0.499006  0.325777  0.906197  1
  Ac  Ac4  1  0.500570  0.678321  0.404669  1
  Ac  Ac5  1  0.000570  0.821679  0.095331  1
  Nd  Nd6  1  0.997865  0.822175  0.401737  1
  Nd  Nd7  1  0.497865  0.677825  0.098263  1
  Er  Er8  1  0.678938  0.995532  0.249999  1
  Er  Er9  1  0.178938  0.504468  0.250001  1
  Er  Er10  1  0.822557  0.498450  0.750065  1
  Er  Er11  1  0.322557  0.001550  0.749935  1
  Er  Er12  1  0.656671  0.832552  0.624755  1
  Er  Er13  1  0.156671  0.667448  0.875245  1
  Er  Er14  1  0.844619  0.332659  0.373841  1
  Er  Er15  1  0.344619  0.167341  0.126159  1
  Er  Er16  1  0.341483  0.165391  0.374569  1
  Er  Er17  1  0.841483  0.334609  0.125431  1
  Er  Er18  1  0.153656  0.669262  0.623404  1
  Er  Er19  1  0.653656  0.830738  0.876596  1
  Pt  Pt20  1  0.814161  0.634330  0.251129  1
  Pt  Pt21  1  0.314161  0.865670  0.248871  1
  Pt  Pt22  1  0.687264  0.131906  0.750042  1
  Pt  Pt23  1  0.187264  0.368094  0.749958  1
  Pt  Pt24  1  0.546021  0.372045  0.249212  1
  Pt  Pt25  1  0.046021  0.127955  0.250788  1
  Pt  Pt26  1  0.953593  0.867931  0.750189  1
  Pt  Pt27  1  0.453593  0.632069  0.749811  1
  Pt  Pt28  1  0.826295  0.543632  0.543362  1
  Pt  Pt29  1  0.326295  0.956368  0.956638  1
  Pt  Pt30  1  0.681579  0.037336  0.454853  1
  Pt  Pt31  1  0.181579  0.462664  0.045147  1
  Pt  Pt32  1  0.172816  0.462782  0.454794  1
  Pt  Pt33  1  0.672816  0.037218  0.045206  1
  Pt  Pt34  1  0.323641  0.958053  0.543574  1
  Pt  Pt35  1  0.823641  0.541947  0.956426  1
