# generated using pymatgen
data_Dy6YEr13Cd3Ru2Au3
_symmetry_space_group_name_H-M   'P 1'
_cell_length_a   9.52390397
_cell_length_b   9.53211171
_cell_length_c   9.56256902
_cell_angle_alpha   89.99999970
_cell_angle_beta   90.00696952
_cell_angle_gamma   120.02852386
_symmetry_Int_Tables_number   1
_chemical_formula_structural   Dy6YEr13Cd3Ru2Au3
_chemical_formula_sum   'Dy6 Y1 Er13 Cd3 Ru2 Au3'
_cell_volume   751.59596934
_cell_formula_units_Z   1
loop_
 _symmetry_equiv_pos_site_id
 _symmetry_equiv_pos_as_xyz
  1  'x, y, z'
loop_
 _atom_site_type_symbol
 _atom_site_label
 _atom_site_symmetry_multiplicity
 _atom_site_fract_x
 _atom_site_fract_y
 _atom_site_fract_z
 _atom_site_occupancy
  Dy  Dy0  1  0.999689  0.999845  0.462349  1
  Dy  Dy1  1  0.999980  0.999990  0.037835  1
  Dy  Dy2  1  0.209626  0.791067  0.440019  1
  Dy  Dy3  1  0.209626  0.418560  0.440019  1
  Dy  Dy4  1  0.459493  0.540785  0.750443  1
  Dy  Dy5  1  0.459493  0.918708  0.750443  1
  Y  Y6  1  0.081808  0.540905  0.750581  1
  Er  Er7  1  0.581190  0.790596  0.440193  1
  Er  Er8  1  0.790868  0.208408  0.558189  1
  Er  Er9  1  0.790868  0.582458  0.558189  1
  Er  Er10  1  0.417723  0.208861  0.558356  1
  Er  Er11  1  0.791114  0.208460  0.942060  1
  Er  Er12  1  0.791114  0.582653  0.942060  1
  Er  Er13  1  0.417216  0.208608  0.941984  1
  Er  Er14  1  0.209815  0.790713  0.059585  1
  Er  Er15  1  0.209815  0.419103  0.059585  1
  Er  Er16  1  0.580687  0.790344  0.059680  1
  Er  Er17  1  0.540466  0.459915  0.249714  1
  Er  Er18  1  0.540466  0.080550  0.249714  1
  Er  Er19  1  0.919176  0.459588  0.249583  1
  Cd  Cd20  1  0.110062  0.890118  0.749818  1
  Cd  Cd21  1  0.110062  0.219943  0.749818  1
  Cd  Cd22  1  0.779973  0.889986  0.750037  1
  Ru  Ru23  1  0.333542  0.666772  0.249676  1
  Ru  Ru24  1  0.666270  0.333135  0.750005  1
  Au  Au25  1  0.869038  0.130783  0.250032  1
  Au  Au26  1  0.869038  0.738254  0.250032  1
  Au  Au27  1  0.261782  0.130891  0.250002  1
