# generated using pymatgen
data_SrIrPd3Pb3O14
_symmetry_space_group_name_H-M   'P 1'
_cell_length_a   7.34152405
_cell_length_b   7.42727299
_cell_length_c   7.42727300
_cell_angle_alpha   60.00000439
_cell_angle_beta   59.61287544
_cell_angle_gamma   59.61286552
_symmetry_Int_Tables_number   1
_chemical_formula_structural   SrIrPd3Pb3O14
_chemical_formula_sum   'Sr1 Ir1 Pd3 Pb3 O14'
_cell_volume   284.68449830
_cell_formula_units_Z   1
loop_
 _symmetry_equiv_pos_site_id
 _symmetry_equiv_pos_as_xyz
  1  'x, y, z'
loop_
 _atom_site_type_symbol
 _atom_site_label
 _atom_site_symmetry_multiplicity
 _atom_site_fract_x
 _atom_site_fract_y
 _atom_site_fract_z
 _atom_site_occupancy
  Sr  Sr0  1  0.625000  0.125000  0.125000  1
  Ir  Ir1  1  0.125000  0.625000  0.625000  1
  Pd  Pd2  1  0.625000  0.125000  0.625000  1
  Pd  Pd3  1  0.625000  0.625000  0.125000  1
  Pd  Pd4  1  0.625000  0.625000  0.625000  1
  Pb  Pb5  1  0.125000  0.625000  0.125000  1
  Pb  Pb6  1  0.125000  0.125000  0.625000  1
  Pb  Pb7  1  0.125000  0.125000  0.125000  1
  O  O8  1  0.715280  0.700185  0.292268  1
  O  O9  1  0.288337  0.301262  0.705201  1
  O  O10  1  0.715280  0.292268  0.700185  1
  O  O11  1  0.288337  0.705201  0.301262  1
  O  O12  1  0.288337  0.705201  0.705201  1
  O  O13  1  0.715280  0.292268  0.292268  1
  O  O14  1  0.534720  0.549815  0.957732  1
  O  O15  1  0.961663  0.948738  0.544799  1
  O  O16  1  0.534720  0.957732  0.549815  1
  O  O17  1  0.961663  0.544799  0.948738  1
  O  O18  1  0.961663  0.544799  0.544799  1
  O  O19  1  0.534720  0.957732  0.957732  1
  O  O20  1  0.219135  0.260289  0.260289  1
  O  O21  1  0.030865  0.989711  0.989711  1
