# generated using pymatgen
data_Sc4Co16Si11PW4
_symmetry_space_group_name_H-M   'P 1'
_cell_length_a   3.63679300
_cell_length_b   10.48481844
_cell_length_c   12.06151251
_cell_angle_alpha   89.96674602
_cell_angle_beta   90.00000000
_cell_angle_gamma   90.00000000
_symmetry_Int_Tables_number   1
_chemical_formula_structural   Sc4Co16Si11PW4
_chemical_formula_sum   'Sc4 Co16 Si11 P1 W4'
_cell_volume   459.91883478
_cell_formula_units_Z   1
loop_
 _symmetry_equiv_pos_site_id
 _symmetry_equiv_pos_as_xyz
  1  'x, y, z'
loop_
 _atom_site_type_symbol
 _atom_site_label
 _atom_site_symmetry_multiplicity
 _atom_site_fract_x
 _atom_site_fract_y
 _atom_site_fract_z
 _atom_site_occupancy
  Sc  Sc0  1  0.250000  0.577477  0.706102  1
  Sc  Sc1  1  0.250000  0.925322  0.202610  1
  Sc  Sc2  1  0.750000  0.422684  0.294500  1
  Sc  Sc3  1  0.750000  0.077768  0.793792  1
  Co  Co4  1  0.250000  0.404178  0.487336  1
  Co  Co5  1  0.250000  0.094153  0.990036  1
  Co  Co6  1  0.750000  0.595444  0.512892  1
  Co  Co7  1  0.750000  0.909438  0.014838  1
  Co  Co8  1  0.250000  0.213467  0.171672  1
  Co  Co9  1  0.250000  0.284512  0.672053  1
  Co  Co10  1  0.750000  0.785990  0.829619  1
  Co  Co11  1  0.750000  0.714663  0.328397  1
  Co  Co12  1  0.250000  0.881982  0.699268  1
  Co  Co13  1  0.250000  0.617965  0.199421  1
  Co  Co14  1  0.750000  0.117178  0.296448  1
  Co  Co15  1  0.750000  0.380875  0.801573  1
  Co  Co16  1  0.250000  0.462992  0.934905  1
  Co  Co17  1  0.250000  0.036206  0.432059  1
  Co  Co18  1  0.750000  0.536054  0.066125  1
  Co  Co19  1  0.750000  0.963580  0.564774  1
  Si  Si20  1  0.250000  0.420742  0.121757  1
  Si  Si21  1  0.250000  0.078552  0.620391  1
  Si  Si22  1  0.750000  0.578503  0.879057  1
  Si  Si23  1  0.750000  0.920785  0.377528  1
  Si  Si24  1  0.250000  0.261180  0.859294  1
  Si  Si25  1  0.250000  0.237605  0.357539  1
  Si  Si26  1  0.750000  0.738169  0.141864  1
  Si  Si27  1  0.750000  0.762536  0.642831  1
  Si  Si28  1  0.250000  0.590617  0.388661  1
  Si  Si29  1  0.250000  0.910157  0.889094  1
  Si  Si30  1  0.750000  0.409108  0.612035  1
  P  P31  1  0.750000  0.091824  0.110180  1
  W  W32  1  0.250000  0.700507  0.992497  1
  W  W33  1  0.250000  0.800237  0.492410  1
  W  W34  1  0.750000  0.297475  0.009334  1
  W  W35  1  0.750000  0.200079  0.507106  1
