# generated using pymatgen
data_Ho4AlZn8Cd3
_symmetry_space_group_name_H-M   'P 1'
_cell_length_a   4.42382900
_cell_length_b   7.08590689
_cell_length_c   10.05892662
_cell_angle_alpha   89.81587769
_cell_angle_beta   90.00000000
_cell_angle_gamma   90.00000000
_symmetry_Int_Tables_number   1
_chemical_formula_structural   Ho4AlZn8Cd3
_chemical_formula_sum   'Ho4 Al1 Zn8 Cd3'
_cell_volume   315.31393924
_cell_formula_units_Z   1
loop_
 _symmetry_equiv_pos_site_id
 _symmetry_equiv_pos_as_xyz
  1  'x, y, z'
loop_
 _atom_site_type_symbol
 _atom_site_label
 _atom_site_symmetry_multiplicity
 _atom_site_fract_x
 _atom_site_fract_y
 _atom_site_fract_z
 _atom_site_occupancy
  Ho  Ho0  1  0.250000  0.299086  0.671702  1
  Ho  Ho1  1  0.750000  0.700669  0.328912  1
  Ho  Ho2  1  0.250000  0.802738  0.825109  1
  Ho  Ho3  1  0.750000  0.199535  0.171061  1
  Al  Al4  1  0.750000  0.964079  0.600533  1
  Zn  Zn5  1  0.750000  0.298095  0.465907  1
  Zn  Zn6  1  0.250000  0.697410  0.538882  1
  Zn  Zn7  1  0.750000  0.809918  0.037921  1
  Zn  Zn8  1  0.250000  0.189174  0.960971  1
  Zn  Zn9  1  0.750000  0.588567  0.642534  1
  Zn  Zn10  1  0.250000  0.418689  0.359695  1
  Zn  Zn11  1  0.750000  0.081744  0.848095  1
  Zn  Zn12  1  0.250000  0.917631  0.145328  1
  Cd  Cd13  1  0.250000  0.533359  0.100201  1
  Cd  Cd14  1  0.750000  0.464887  0.898309  1
  Cd  Cd15  1  0.250000  0.034417  0.404840  1
