# generated using pymatgen
data_Tb2Mn2Fe7Ni3P7
_symmetry_space_group_name_H-M   'P 1'
_cell_length_a   9.07853300
_cell_length_b   9.09464201
_cell_length_c   3.62959100
_cell_angle_alpha   90.00000000
_cell_angle_beta   90.00000000
_cell_angle_gamma   119.94535353
_symmetry_Int_Tables_number   1
_chemical_formula_structural   Tb2Mn2Fe7Ni3P7
_chemical_formula_sum   'Tb2 Mn2 Fe7 Ni3 P7'
_cell_volume   259.67401279
_cell_formula_units_Z   1
loop_
 _symmetry_equiv_pos_site_id
 _symmetry_equiv_pos_as_xyz
  1  'x, y, z'
loop_
 _atom_site_type_symbol
 _atom_site_label
 _atom_site_symmetry_multiplicity
 _atom_site_fract_x
 _atom_site_fract_y
 _atom_site_fract_z
 _atom_site_occupancy
  Tb  Tb0  1  0.669522  0.335604  0.000000  1
  Tb  Tb1  1  0.332540  0.667198  0.500000  1
  Mn  Mn2  1  0.778039  0.896096  0.500000  1
  Mn  Mn3  1  0.120115  0.220343  0.500000  1
  Fe  Fe4  1  0.275977  0.120395  0.000000  1
  Fe  Fe5  1  0.844541  0.726927  0.000000  1
  Fe  Fe6  1  0.882227  0.153746  0.000000  1
  Fe  Fe7  1  0.435351  0.046578  0.500000  1
  Fe  Fe8  1  0.610807  0.562987  0.500000  1
  Fe  Fe9  1  0.952276  0.388995  0.500000  1
  Fe  Fe10  1  0.097133  0.877703  0.500000  1
  Ni  Ni11  1  0.063182  0.635078  0.000000  1
  Ni  Ni12  1  0.569926  0.936173  0.000000  1
  Ni  Ni13  1  0.364485  0.429242  0.000000  1
  P  P14  1  0.300578  0.894843  0.000000  1
  P  P15  1  0.590408  0.694978  0.000000  1
  P  P16  1  0.103878  0.408946  0.000000  1
  P  P17  1  0.407629  0.282735  0.500000  1
  P  P18  1  0.882301  0.600235  0.500000  1
  P  P19  1  0.716481  0.122772  0.500000  1
  P  P20  1  0.002604  0.998426  0.000000  1
