# generated using pymatgen
data_Sc2Fe5Co5P6
_symmetry_space_group_name_H-M   'P 1'
_cell_length_a   3.59105200
_cell_length_b   10.15877370
_cell_length_c   11.60552097
_cell_angle_alpha   89.86494131
_cell_angle_beta   90.00000000
_cell_angle_gamma   90.00000000
_symmetry_Int_Tables_number   1
_chemical_formula_structural   Sc2Fe5Co5P6
_chemical_formula_sum   'Sc4 Fe10 Co10 P12'
_cell_volume   423.37617381
_cell_formula_units_Z   2
loop_
 _symmetry_equiv_pos_site_id
 _symmetry_equiv_pos_as_xyz
  1  'x, y, z'
loop_
 _atom_site_type_symbol
 _atom_site_label
 _atom_site_symmetry_multiplicity
 _atom_site_fract_x
 _atom_site_fract_y
 _atom_site_fract_z
 _atom_site_occupancy
  Sc  Sc0  1  0.250000  0.917683  0.203944  1
  Sc  Sc1  1  0.750000  0.082317  0.796056  1
  Sc  Sc2  1  0.750000  0.417639  0.297782  1
  Sc  Sc3  1  0.250000  0.582361  0.702218  1
  Fe  Fe4  1  0.250000  0.788314  0.488869  1
  Fe  Fe5  1  0.750000  0.211686  0.511131  1
  Fe  Fe6  1  0.750000  0.287931  0.012815  1
  Fe  Fe7  1  0.250000  0.712069  0.987185  1
  Fe  Fe8  1  0.250000  0.094338  0.987717  1
  Fe  Fe9  1  0.750000  0.905662  0.012283  1
  Fe  Fe10  1  0.750000  0.593503  0.513151  1
  Fe  Fe11  1  0.250000  0.406497  0.486849  1
  Fe  Fe12  1  0.250000  0.279955  0.676000  1
  Fe  Fe13  1  0.750000  0.720045  0.324000  1
  Co  Co14  1  0.750000  0.778488  0.823080  1
  Co  Co15  1  0.250000  0.221512  0.176920  1
  Co  Co16  1  0.250000  0.616131  0.199049  1
  Co  Co17  1  0.750000  0.383869  0.800951  1
  Co  Co18  1  0.750000  0.116873  0.300017  1
  Co  Co19  1  0.250000  0.883127  0.699983  1
  Co  Co20  1  0.250000  0.034266  0.431742  1
  Co  Co21  1  0.750000  0.965734  0.568258  1
  Co  Co22  1  0.750000  0.534311  0.067959  1
  Co  Co23  1  0.250000  0.465689  0.932041  1
  P  P24  1  0.250000  0.082330  0.615775  1
  P  P25  1  0.750000  0.917670  0.384225  1
  P  P26  1  0.750000  0.581054  0.884207  1
  P  P27  1  0.250000  0.418946  0.115793  1
  P  P28  1  0.250000  0.235552  0.369239  1
  P  P29  1  0.750000  0.764448  0.630761  1
  P  P30  1  0.750000  0.735204  0.132399  1
  P  P31  1  0.250000  0.264796  0.867601  1
  P  P32  1  0.250000  0.903621  0.891377  1
  P  P33  1  0.750000  0.096379  0.108623  1
  P  P34  1  0.750000  0.401199  0.608925  1
  P  P35  1  0.250000  0.598801  0.391075  1
