# generated using pymatgen
data_Dy2Y3Co7(PRu)12
_symmetry_space_group_name_H-M   'P 1'
_cell_length_a   12.36771900
_cell_length_b   12.36771839
_cell_length_c   3.80890600
_cell_angle_alpha   90.00000000
_cell_angle_beta   90.00000000
_cell_angle_gamma   119.99999361
_symmetry_Int_Tables_number   1
_chemical_formula_structural   Dy2Y3Co7(PRu)12
_chemical_formula_sum   'Dy2 Y3 Co7 P12 Ru12'
_cell_volume   504.55685580
_cell_formula_units_Z   1
loop_
 _symmetry_equiv_pos_site_id
 _symmetry_equiv_pos_as_xyz
  1  'x, y, z'
loop_
 _atom_site_type_symbol
 _atom_site_label
 _atom_site_symmetry_multiplicity
 _atom_site_fract_x
 _atom_site_fract_y
 _atom_site_fract_z
 _atom_site_occupancy
  Dy  Dy0  1  0.666667  0.333333  0.000000  1
  Dy  Dy1  1  0.333333  0.666667  0.000000  1
  Y  Y2  1  0.181831  0.181570  0.500000  1
  Y  Y3  1  0.818430  0.000261  0.500000  1
  Y  Y4  1  0.999739  0.818169  0.500000  1
  Co  Co5  1  0.194422  0.823945  0.000000  1
  Co  Co6  1  0.629523  0.805578  0.000000  1
  Co  Co7  1  0.176055  0.370477  0.000000  1
  Co  Co8  1  0.715834  0.722429  0.500000  1
  Co  Co9  1  0.277571  0.993405  0.500000  1
  Co  Co10  1  0.006595  0.284166  0.500000  1
  Co  Co11  1  0.000000  0.000000  0.000000  1
  P  P12  1  0.364138  0.367444  0.000000  1
  P  P13  1  0.632556  0.996694  0.000000  1
  P  P14  1  0.003306  0.635862  0.000000  1
  P  P15  1  0.837432  0.312689  0.500000  1
  P  P16  1  0.687311  0.524744  0.500000  1
  P  P17  1  0.475256  0.162568  0.500000  1
  P  P18  1  0.316547  0.839248  0.500000  1
  P  P19  1  0.522701  0.683453  0.500000  1
  P  P20  1  0.160752  0.477299  0.500000  1
  P  P21  1  0.818414  0.824465  0.000000  1
  P  P22  1  0.175535  0.993948  0.000000  1
  P  P23  1  0.006052  0.181586  0.000000  1
  Ru  Ru24  1  0.549937  0.561684  0.000000  1
  Ru  Ru25  1  0.438316  0.988251  0.000000  1
  Ru  Ru26  1  0.011749  0.450063  0.000000  1
  Ru  Ru27  1  0.826656  0.197850  0.000000  1
  Ru  Ru28  1  0.802150  0.628806  0.000000  1
  Ru  Ru29  1  0.371194  0.173344  0.000000  1
  Ru  Ru30  1  0.638381  0.123509  0.500000  1
  Ru  Ru31  1  0.876491  0.514873  0.500000  1
  Ru  Ru32  1  0.485127  0.361619  0.500000  1
  Ru  Ru33  1  0.131203  0.648951  0.500000  1
  Ru  Ru34  1  0.517748  0.868797  0.500000  1
  Ru  Ru35  1  0.351049  0.482252  0.500000  1
