# generated using pymatgen
data_Nd4Ga4CoNi2Ru
_symmetry_space_group_name_H-M   'P 1'
_cell_length_a   4.53953200
_cell_length_b   7.22828931
_cell_length_c   7.15465798
_cell_angle_alpha   91.08018268
_cell_angle_beta   90.00000000
_cell_angle_gamma   90.00000000
_symmetry_Int_Tables_number   1
_chemical_formula_structural   Nd4Ga4CoNi2Ru
_chemical_formula_sum   'Nd4 Ga4 Co1 Ni2 Ru1'
_cell_volume   234.72443457
_cell_formula_units_Z   1
loop_
 _symmetry_equiv_pos_site_id
 _symmetry_equiv_pos_as_xyz
  1  'x, y, z'
loop_
 _atom_site_type_symbol
 _atom_site_label
 _atom_site_symmetry_multiplicity
 _atom_site_fract_x
 _atom_site_fract_y
 _atom_site_fract_z
 _atom_site_occupancy
  Nd  Nd0  1  0.250000  0.031548  0.813144  1
  Nd  Nd1  1  0.250000  0.527878  0.693405  1
  Nd  Nd2  1  0.750000  0.976911  0.189310  1
  Nd  Nd3  1  0.750000  0.476565  0.303139  1
  Ga  Ga4  1  0.250000  0.190960  0.399043  1
  Ga  Ga5  1  0.250000  0.680871  0.098689  1
  Ga  Ga6  1  0.750000  0.811936  0.602901  1
  Ga  Ga7  1  0.750000  0.313641  0.901215  1
  Co  Co8  1  0.250000  0.326657  0.073201  1
  Ni  Ni9  1  0.750000  0.159590  0.574190  1
  Ni  Ni10  1  0.750000  0.666758  0.922736  1
  Ru  Ru11  1  0.250000  0.836685  0.429027  1
