# generated using pymatgen
data_Tb4Ga4PtRh3
_symmetry_space_group_name_H-M   'P 1'
_cell_length_a   4.36993200
_cell_length_b   6.87655875
_cell_length_c   7.77616090
_cell_angle_alpha   90.17271448
_cell_angle_beta   90.00000000
_cell_angle_gamma   90.00000000
_symmetry_Int_Tables_number   1
_chemical_formula_structural   Tb4Ga4PtRh3
_chemical_formula_sum   'Tb4 Ga4 Pt1 Rh3'
_cell_volume   233.67330539
_cell_formula_units_Z   1
loop_
 _symmetry_equiv_pos_site_id
 _symmetry_equiv_pos_as_xyz
  1  'x, y, z'
loop_
 _atom_site_type_symbol
 _atom_site_label
 _atom_site_symmetry_multiplicity
 _atom_site_fract_x
 _atom_site_fract_y
 _atom_site_fract_z
 _atom_site_occupancy
  Tb  Tb0  1  0.750000  0.524672  0.809227  1
  Tb  Tb1  1  0.250000  0.973180  0.309604  1
  Tb  Tb2  1  0.250000  0.475364  0.188446  1
  Tb  Tb3  1  0.750000  0.023007  0.693722  1
  Ga  Ga4  1  0.750000  0.662343  0.427756  1
  Ga  Ga5  1  0.250000  0.344389  0.574773  1
  Ga  Ga6  1  0.750000  0.155616  0.069378  1
  Ga  Ga7  1  0.250000  0.841473  0.928405  1
  Pt  Pt8  1  0.750000  0.271729  0.393476  1
  Rh  Rh9  1  0.250000  0.729870  0.605313  1
  Rh  Rh10  1  0.250000  0.229262  0.894726  1
  Rh  Rh11  1  0.750000  0.769097  0.105172  1
