# generated using pymatgen
data_CeZr3(Ti4Sn5)2
_symmetry_space_group_name_H-M   'P 1'
_cell_length_a   10.56399406
_cell_length_b   10.58344053
_cell_length_c   10.58343900
_cell_angle_alpha   149.11002792
_cell_angle_beta   131.58450562
_cell_angle_gamma   58.55917248
_symmetry_Int_Tables_number   1
_chemical_formula_structural   CeZr3(Ti4Sn5)2
_chemical_formula_sum   'Ce1 Zr3 Ti8 Sn10'
_cell_volume   450.82171981
_cell_formula_units_Z   1
loop_
 _symmetry_equiv_pos_site_id
 _symmetry_equiv_pos_as_xyz
  1  'x, y, z'
loop_
 _atom_site_type_symbol
 _atom_site_label
 _atom_site_symmetry_multiplicity
 _atom_site_fract_x
 _atom_site_fract_y
 _atom_site_fract_z
 _atom_site_occupancy
  Ce  Ce0  1  0.966320  0.356836  0.609484  1
  Zr  Zr1  1  0.249375  0.142166  0.107210  1
  Zr  Zr2  1  0.747541  0.856561  0.890979  1
  Zr  Zr3  1  0.035490  0.643904  0.391586  1
  Ti  Ti4  1  0.307397  0.558595  0.248894  1
  Ti  Ti5  1  0.690009  0.441091  0.749601  1
  Ti  Ti6  1  0.690009  0.940408  0.248918  1
  Ti  Ti7  1  0.307397  0.058503  0.748802  1
  Ti  Ti8  1  0.678160  0.435019  0.243140  1
  Ti  Ti9  1  0.324254  0.565404  0.758850  1
  Ti  Ti10  1  0.193000  0.935330  0.257669  1
  Ti  Ti11  1  0.805781  0.064799  0.740982  1
  Sn  Sn12  1  0.572702  0.285479  0.287223  1
  Sn  Sn13  1  0.416284  0.712070  0.704214  1
  Sn  Sn14  1  0.994788  0.786402  0.208386  1
  Sn  Sn15  1  0.007499  0.209870  0.797630  1
  Sn  Sn16  1  0.000913  0.251563  0.247332  1
  Sn  Sn17  1  0.000913  0.753580  0.749349  1
  Sn  Sn18  1  0.470129  0.067970  0.402158  1
  Sn  Sn19  1  0.530231  0.932335  0.597897  1
  Sn  Sn20  1  0.667255  0.568030  0.099225  1
  Sn  Sn21  1  0.344553  0.434085  0.910468  1
