# generated using pymatgen
data_Y2ErTm9Os4
_symmetry_space_group_name_H-M   'P 1'
_cell_length_a   7.37125009
_cell_length_b   8.91110800
_cell_length_c   6.25987339
_cell_angle_alpha   90.00000000
_cell_angle_beta   90.33005778
_cell_angle_gamma   90.00000000
_symmetry_Int_Tables_number   1
_chemical_formula_structural   Y2ErTm9Os4
_chemical_formula_sum   'Y2 Er1 Tm9 Os4'
_cell_volume   411.17925686
_cell_formula_units_Z   1
loop_
 _symmetry_equiv_pos_site_id
 _symmetry_equiv_pos_as_xyz
  1  'x, y, z'
loop_
 _atom_site_type_symbol
 _atom_site_label
 _atom_site_symmetry_multiplicity
 _atom_site_fract_x
 _atom_site_fract_y
 _atom_site_fract_z
 _atom_site_occupancy
  Y  Y0  1  0.038659  0.250000  0.628368  1
  Y  Y1  1  0.961409  0.750000  0.371916  1
  Er  Er2  1  0.460057  0.750000  0.129817  1
  Tm  Tm3  1  0.539989  0.250000  0.869943  1
  Tm  Tm4  1  0.175925  0.062862  0.165484  1
  Tm  Tm5  1  0.823994  0.937239  0.834396  1
  Tm  Tm6  1  0.326712  0.937499  0.667803  1
  Tm  Tm7  1  0.823994  0.562761  0.834396  1
  Tm  Tm8  1  0.673505  0.062790  0.332043  1
  Tm  Tm9  1  0.175925  0.437138  0.165484  1
  Tm  Tm10  1  0.673505  0.437210  0.332043  1
  Tm  Tm11  1  0.326712  0.562501  0.667803  1
  Os  Os12  1  0.384868  0.250000  0.460416  1
  Os  Os13  1  0.615268  0.750000  0.540515  1
  Os  Os14  1  0.118397  0.750000  0.957620  1
  Os  Os15  1  0.881082  0.250000  0.041954  1
