# generated using pymatgen
data_CeHo2Cd3IrAu2
_symmetry_space_group_name_H-M   'P 1'
_cell_length_a   7.93014648
_cell_length_b   7.85776133
_cell_length_c   3.82333500
_cell_angle_alpha   90.00000000
_cell_angle_beta   90.00000000
_cell_angle_gamma   120.64951167
_symmetry_Int_Tables_number   1
_chemical_formula_structural   CeHo2Cd3IrAu2
_chemical_formula_sum   'Ce1 Ho2 Cd3 Ir1 Au2'
_cell_volume   204.96194695
_cell_formula_units_Z   1
loop_
 _symmetry_equiv_pos_site_id
 _symmetry_equiv_pos_as_xyz
  1  'x, y, z'
loop_
 _atom_site_type_symbol
 _atom_site_label
 _atom_site_symmetry_multiplicity
 _atom_site_fract_x
 _atom_site_fract_y
 _atom_site_fract_z
 _atom_site_occupancy
  Ce  Ce0  1  0.576552  0.972068  0.000000  1
  Ho  Ho1  1  0.024536  0.606163  0.000000  1
  Ho  Ho2  1  0.392674  0.413751  0.000000  1
  Cd  Cd3  1  0.262196  0.001642  0.500000  1
  Cd  Cd4  1  0.000396  0.268022  0.500000  1
  Cd  Cd5  1  0.735456  0.729163  0.500000  1
  Ir  Ir6  1  0.340610  0.675638  0.500000  1
  Au  Au7  1  0.666799  0.333306  0.500000  1
  Au  Au8  1  0.000782  0.000247  0.000000  1
