# generated using pymatgen
data_Nd4Ga17SiRh6
_symmetry_space_group_name_H-M   'P 1'
_cell_length_a   7.63551727
_cell_length_b   7.61508310
_cell_length_c   9.63312805
_cell_angle_alpha   90.01905526
_cell_angle_beta   89.88632094
_cell_angle_gamma   119.57039629
_symmetry_Int_Tables_number   1
_chemical_formula_structural   Nd4Ga17SiRh6
_chemical_formula_sum   'Nd4 Ga17 Si1 Rh6'
_cell_volume   487.16257620
_cell_formula_units_Z   1
loop_
 _symmetry_equiv_pos_site_id
 _symmetry_equiv_pos_as_xyz
  1  'x, y, z'
loop_
 _atom_site_type_symbol
 _atom_site_label
 _atom_site_symmetry_multiplicity
 _atom_site_fract_x
 _atom_site_fract_y
 _atom_site_fract_z
 _atom_site_occupancy
  Nd  Nd0  1  0.996473  0.665998  0.747966  1
  Nd  Nd1  1  0.003236  0.329878  0.251702  1
  Nd  Nd2  1  0.674136  0.001802  0.747861  1
  Nd  Nd3  1  0.329348  0.003104  0.250567  1
  Ga  Ga4  1  0.130193  0.130365  0.750280  1
  Ga  Ga5  1  0.870412  0.872210  0.250090  1
  Ga  Ga6  1  0.996375  0.669095  0.419780  1
  Ga  Ga7  1  0.997832  0.664711  0.078036  1
  Ga  Ga8  1  0.335173  0.001280  0.921482  1
  Ga  Ga9  1  0.002890  0.335717  0.924290  1
  Ga  Ga10  1  0.664137  0.997507  0.077869  1
  Ga  Ga11  1  0.659142  0.992478  0.419705  1
  Ga  Ga12  1  0.334537  0.000891  0.579414  1
  Ga  Ga13  1  0.333289  0.332482  0.056301  1
  Ga  Ga14  1  0.668154  0.668565  0.942892  1
  Ga  Ga15  1  0.666933  0.667702  0.558919  1
  Ga  Ga16  1  0.338679  0.333709  0.443161  1
  Ga  Ga17  1  0.342046  0.547610  0.750939  1
  Ga  Ga18  1  0.659785  0.451597  0.250728  1
  Ga  Ga19  1  0.546532  0.341288  0.750237  1
  Ga  Ga20  1  0.450613  0.656944  0.250041  1
  Si  Si21  1  0.003200  0.335161  0.573391  1
  Rh  Rh22  1  0.682677  0.329477  0.502751  1
  Rh  Rh23  1  0.315511  0.657604  0.501456  1
  Rh  Rh24  1  0.328857  0.670899  0.999862  1
  Rh  Rh25  1  0.670982  0.329073  0.999742  1
  Rh  Rh26  1  0.999144  0.012615  0.501125  1
  Rh  Rh27  1  0.999716  0.000242  0.999413  1
