# generated using pymatgen
data_Tb5PaAl18(Si3Os4)2
_symmetry_space_group_name_H-M   'P 1'
_cell_length_a   8.72623100
_cell_length_b   8.72806529
_cell_length_c   9.50909400
_cell_angle_alpha   90.00000000
_cell_angle_beta   90.00000000
_cell_angle_gamma   119.99304440
_symmetry_Int_Tables_number   1
_chemical_formula_structural   Tb5PaAl18(Si3Os4)2
_chemical_formula_sum   'Tb5 Pa1 Al18 Si6 Os8'
_cell_volume   627.25610834
_cell_formula_units_Z   1
loop_
 _symmetry_equiv_pos_site_id
 _symmetry_equiv_pos_as_xyz
  1  'x, y, z'
loop_
 _atom_site_type_symbol
 _atom_site_label
 _atom_site_symmetry_multiplicity
 _atom_site_fract_x
 _atom_site_fract_y
 _atom_site_fract_z
 _atom_site_occupancy
  Tb  Tb0  1  0.807831  0.615664  0.750000  1
  Tb  Tb1  1  0.611970  0.808536  0.250000  1
  Tb  Tb2  1  0.388640  0.191537  0.750000  1
  Tb  Tb3  1  0.196565  0.808536  0.250000  1
  Tb  Tb4  1  0.802897  0.191537  0.750000  1
  Pa  Pa5  1  0.194211  0.388424  0.250000  1
  Al  Al6  1  0.163520  0.327037  0.580100  1
  Al  Al7  1  0.835244  0.670491  0.422574  1
  Al  Al8  1  0.671119  0.834028  0.576787  1
  Al  Al9  1  0.835244  0.670491  0.077426  1
  Al  Al10  1  0.328392  0.164006  0.422630  1
  Al  Al11  1  0.163520  0.327037  0.919900  1
  Al  Al12  1  0.162911  0.834028  0.576787  1
  Al  Al13  1  0.328392  0.164006  0.077370  1
  Al  Al14  1  0.835613  0.164006  0.422630  1
  Al  Al15  1  0.671119  0.834028  0.923213  1
  Al  Al16  1  0.835613  0.164006  0.077370  1
  Al  Al17  1  0.162911  0.834028  0.923213  1
  Al  Al18  1  0.869095  0.432759  0.250000  1
  Al  Al19  1  0.126924  0.566622  0.750000  1
  Al  Al20  1  0.563664  0.432759  0.250000  1
  Al  Al21  1  0.439698  0.566622  0.750000  1
  Al  Al22  1  0.999925  0.999848  0.250000  1
  Al  Al23  1  0.000556  0.001112  0.750000  1
  Si  Si24  1  0.334584  0.669171  0.036897  1
  Si  Si25  1  0.668669  0.337335  0.962200  1
  Si  Si26  1  0.668669  0.337335  0.537800  1
  Si  Si27  1  0.334584  0.669171  0.463103  1
  Si  Si28  1  0.562713  0.125427  0.250000  1
  Si  Si29  1  0.436830  0.873658  0.750000  1
  Os  Os30  1  0.500407  0.000814  0.000104  1
  Os  Os31  1  0.003062  0.499361  0.003531  1
  Os  Os32  1  0.500407  0.000814  0.499896  1
  Os  Os33  1  0.496299  0.499361  0.003531  1
  Os  Os34  1  0.003062  0.499361  0.496469  1
  Os  Os35  1  0.496299  0.499361  0.496469  1
  Os  Os36  1  0.999421  0.998842  0.000138  1
  Os  Os37  1  0.999421  0.998842  0.499862  1
