# generated using pymatgen
data_DyEr6Zn(Co3Sn11)2
_symmetry_space_group_name_H-M   'P 1'
_cell_length_a   9.65799000
_cell_length_b   9.65798990
_cell_length_c   9.95025600
_cell_angle_alpha   90.00000000
_cell_angle_beta   90.00000000
_cell_angle_gamma   120.00000718
_symmetry_Int_Tables_number   1
_chemical_formula_structural   DyEr6Zn(Co3Sn11)2
_chemical_formula_sum   'Dy1 Er6 Zn1 Co6 Sn22'
_cell_volume   803.78214208
_cell_formula_units_Z   1
loop_
 _symmetry_equiv_pos_site_id
 _symmetry_equiv_pos_as_xyz
  1  'x, y, z'
loop_
 _atom_site_type_symbol
 _atom_site_label
 _atom_site_symmetry_multiplicity
 _atom_site_fract_x
 _atom_site_fract_y
 _atom_site_fract_z
 _atom_site_occupancy
  Dy  Dy0  1  0.000000  0.000000  0.000000  1
  Er  Er1  1  0.479482  0.520518  0.305951  1
  Er  Er2  1  0.520518  0.479482  0.694049  1
  Er  Er3  1  0.479482  0.958965  0.305951  1
  Er  Er4  1  0.520518  0.041035  0.694049  1
  Er  Er5  1  0.041035  0.520518  0.305951  1
  Er  Er6  1  0.958965  0.479482  0.694049  1
  Zn  Zn7  1  0.000000  0.000000  0.500000  1
  Co  Co8  1  0.832131  0.167869  0.197652  1
  Co  Co9  1  0.167869  0.832131  0.802348  1
  Co  Co10  1  0.832131  0.664264  0.197652  1
  Co  Co11  1  0.167869  0.335736  0.802348  1
  Co  Co12  1  0.335736  0.167869  0.197652  1
  Co  Co13  1  0.664264  0.832131  0.802348  1
  Sn  Sn14  1  0.115008  0.884992  0.275967  1
  Sn  Sn15  1  0.884992  0.115008  0.724033  1
  Sn  Sn16  1  0.115008  0.230016  0.275967  1
  Sn  Sn17  1  0.884992  0.769984  0.724033  1
  Sn  Sn18  1  0.769984  0.884992  0.275967  1
  Sn  Sn19  1  0.230016  0.115008  0.724033  1
  Sn  Sn20  1  0.782183  0.217817  0.453576  1
  Sn  Sn21  1  0.217817  0.782183  0.546424  1
  Sn  Sn22  1  0.782183  0.564366  0.453576  1
  Sn  Sn23  1  0.217817  0.435634  0.546424  1
  Sn  Sn24  1  0.435634  0.217817  0.453576  1
  Sn  Sn25  1  0.564366  0.782183  0.546424  1
  Sn  Sn26  1  0.345991  0.000000  0.000000  1
  Sn  Sn27  1  0.654009  0.000000  0.000000  1
  Sn  Sn28  1  0.000000  0.345991  0.000000  1
  Sn  Sn29  1  0.000000  0.654009  0.000000  1
  Sn  Sn30  1  0.654009  0.654009  0.000000  1
  Sn  Sn31  1  0.345991  0.345991  0.000000  1
  Sn  Sn32  1  0.333333  0.666667  0.120607  1
  Sn  Sn33  1  0.666667  0.333333  0.879393  1
  Sn  Sn34  1  0.333333  0.666667  0.818597  1
  Sn  Sn35  1  0.666667  0.333333  0.181403  1
