# generated using pymatgen
data_Pu5WCl30
_symmetry_space_group_name_H-M   'P 1'
_cell_length_a   14.14788474
_cell_length_b   14.14788372
_cell_length_c   7.23932576
_cell_angle_alpha   85.96009441
_cell_angle_beta   85.96009712
_cell_angle_gamma   89.06515274
_symmetry_Int_Tables_number   1
_chemical_formula_structural   Pu5WCl30
_chemical_formula_sum   'Pu5 W1 Cl30'
_cell_volume   1441.75649360
_cell_formula_units_Z   1
loop_
 _symmetry_equiv_pos_site_id
 _symmetry_equiv_pos_as_xyz
  1  'x, y, z'
loop_
 _atom_site_type_symbol
 _atom_site_label
 _atom_site_symmetry_multiplicity
 _atom_site_fract_x
 _atom_site_fract_y
 _atom_site_fract_z
 _atom_site_occupancy
  Pu  Pu0  1  0.772400  0.561182  0.433623  1
  Pu  Pu1  1  0.438818  0.227600  0.566377  1
  Pu  Pu2  1  0.227132  0.437695  0.567139  1
  Pu  Pu3  1  0.562305  0.772868  0.432861  1
  Pu  Pu4  1  0.101687  0.898313  0.000000  1
  W  W5  1  0.897362  0.102638  0.000000  1
  Cl  Cl6  1  0.695638  0.482842  0.190526  1
  Cl  Cl7  1  0.517158  0.304362  0.809474  1
  Cl  Cl8  1  0.304176  0.516181  0.808598  1
  Cl  Cl9  1  0.483819  0.695824  0.191402  1
  Cl  Cl10  1  0.782070  0.406833  0.617966  1
  Cl  Cl11  1  0.593167  0.217930  0.382034  1
  Cl  Cl12  1  0.920713  0.944690  0.882773  1
  Cl  Cl13  1  0.055310  0.079287  0.117227  1
  Cl  Cl14  1  0.753771  0.112673  0.882752  1
  Cl  Cl15  1  0.887327  0.246229  0.117248  1
  Cl  Cl16  1  0.257182  0.896646  0.134110  1
  Cl  Cl17  1  0.103354  0.742818  0.865890  1
  Cl  Cl18  1  0.840460  0.025820  0.271285  1
  Cl  Cl19  1  0.974180  0.159540  0.728715  1
  Cl  Cl20  1  0.169971  0.974385  0.703847  1
  Cl  Cl21  1  0.025615  0.830029  0.296153  1
  Cl  Cl22  1  0.732853  0.731858  0.264389  1
  Cl  Cl23  1  0.268142  0.267147  0.735611  1
  Cl  Cl24  1  0.556854  0.925817  0.244352  1
  Cl  Cl25  1  0.074183  0.443146  0.755648  1
  Cl  Cl26  1  0.447952  0.074732  0.752250  1
  Cl  Cl27  1  0.925268  0.552048  0.247750  1
  Cl  Cl28  1  0.640615  0.850576  0.675623  1
  Cl  Cl29  1  0.149424  0.359385  0.324377  1
  Cl  Cl30  1  0.360975  0.149619  0.324594  1
  Cl  Cl31  1  0.850381  0.639025  0.675406  1
  Cl  Cl32  1  0.601884  0.601536  0.600536  1
  Cl  Cl33  1  0.398464  0.398116  0.399464  1
  Cl  Cl34  1  0.409604  0.780215  0.618887  1
  Cl  Cl35  1  0.219785  0.590396  0.381113  1
