# generated using pymatgen
data_ErZr3F15
_symmetry_space_group_name_H-M   'P 1'
_cell_length_a   8.19027251
_cell_length_b   8.19027230
_cell_length_c   8.18724274
_cell_angle_alpha   79.76814017
_cell_angle_beta   79.76814329
_cell_angle_gamma   100.15461013
_symmetry_Int_Tables_number   1
_chemical_formula_structural   ErZr3F15
_chemical_formula_sum   'Er2 Zr6 F30'
_cell_volume   519.48054452
_cell_formula_units_Z   2
loop_
 _symmetry_equiv_pos_site_id
 _symmetry_equiv_pos_as_xyz
  1  'x, y, z'
loop_
 _atom_site_type_symbol
 _atom_site_label
 _atom_site_symmetry_multiplicity
 _atom_site_fract_x
 _atom_site_fract_y
 _atom_site_fract_z
 _atom_site_occupancy
  Er  Er0  1  0.677493  0.322507  0.750000  1
  Er  Er1  1  0.322507  0.677493  0.250000  1
  Zr  Zr2  1  0.251037  0.748963  0.750000  1
  Zr  Zr3  1  0.748963  0.251037  0.250000  1
  Zr  Zr4  1  0.822503  0.750832  0.325393  1
  Zr  Zr5  1  0.249168  0.177497  0.174607  1
  Zr  Zr6  1  0.177497  0.249168  0.674607  1
  Zr  Zr7  1  0.750832  0.822503  0.825393  1
  F  F8  1  0.150357  0.183301  0.947074  1
  F  F9  1  0.686551  0.562808  0.847902  1
  F  F10  1  0.040882  0.655573  0.316348  1
  F  F11  1  0.655573  0.040882  0.816348  1
  F  F12  1  0.562808  0.686551  0.347902  1
  F  F13  1  0.183301  0.150357  0.447074  1
  F  F14  1  0.849643  0.816699  0.052926  1
  F  F15  1  0.313449  0.437192  0.152098  1
  F  F16  1  0.959118  0.344427  0.683652  1
  F  F17  1  0.344427  0.959118  0.183652  1
  F  F18  1  0.437192  0.313449  0.652098  1
  F  F19  1  0.816699  0.849643  0.552926  1
  F  F20  1  0.966704  0.033296  0.750000  1
  F  F21  1  0.543993  0.752302  0.029443  1
  F  F22  1  0.247698  0.456007  0.470557  1
  F  F23  1  0.456007  0.247698  0.970557  1
  F  F24  1  0.752302  0.543993  0.529443  1
  F  F25  1  0.033296  0.966704  0.250000  1
  F  F26  1  0.220354  0.724920  0.004365  1
  F  F27  1  0.223614  0.491774  0.780580  1
  F  F28  1  0.993001  0.723924  0.776921  1
  F  F29  1  0.723924  0.993001  0.276921  1
  F  F30  1  0.491774  0.223614  0.280580  1
  F  F31  1  0.724920  0.220354  0.504365  1
  F  F32  1  0.779646  0.275080  0.995635  1
  F  F33  1  0.776386  0.508226  0.219420  1
  F  F34  1  0.006999  0.276076  0.223079  1
  F  F35  1  0.276076  0.006999  0.723079  1
  F  F36  1  0.508226  0.776386  0.719420  1
  F  F37  1  0.275080  0.779646  0.495635  1
