# generated using pymatgen
data_Ho9Er7(TmPt4)4
_symmetry_space_group_name_H-M   'P 1'
_cell_length_a   7.42381400
_cell_length_b   7.51994101
_cell_length_c   14.64006701
_cell_angle_alpha   90.00492265
_cell_angle_beta   90.00134452
_cell_angle_gamma   90.00361169
_symmetry_Int_Tables_number   1
_chemical_formula_structural   Ho9Er7(TmPt4)4
_chemical_formula_sum   'Ho9 Er7 Tm4 Pt16'
_cell_volume   817.30579550
_cell_formula_units_Z   1
loop_
 _symmetry_equiv_pos_site_id
 _symmetry_equiv_pos_as_xyz
  1  'x, y, z'
loop_
 _atom_site_type_symbol
 _atom_site_label
 _atom_site_symmetry_multiplicity
 _atom_site_fract_x
 _atom_site_fract_y
 _atom_site_fract_z
 _atom_site_occupancy
  Ho  Ho0  1  0.156627  0.331930  0.622525  1
  Ho  Ho1  1  0.501858  0.679886  0.593019  1
  Ho  Ho2  1  0.001790  0.820183  0.906989  1
  Ho  Ho3  1  0.498224  0.320183  0.093040  1
  Ho  Ho4  1  0.998161  0.179767  0.406907  1
  Ho  Ho5  1  0.498221  0.320180  0.406943  1
  Ho  Ho6  1  0.998192  0.179805  0.093040  1
  Ho  Ho7  1  0.501794  0.679810  0.906974  1
  Ho  Ho8  1  0.001744  0.820214  0.593033  1
  Er  Er9  1  0.656621  0.168031  0.622576  1
  Er  Er10  1  0.156614  0.331944  0.877461  1
  Er  Er11  1  0.343382  0.831936  0.122553  1
  Er  Er12  1  0.843361  0.668066  0.377437  1
  Er  Er13  1  0.343376  0.831932  0.377446  1
  Er  Er14  1  0.843380  0.668050  0.122549  1
  Er  Er15  1  0.656622  0.168044  0.877445  1
  Tm  Tm16  1  0.818991  0.511856  0.750038  1
  Tm  Tm17  1  0.319153  0.988121  0.750039  1
  Tm  Tm18  1  0.180919  0.488203  0.249999  1
  Tm  Tm19  1  0.680909  0.011805  0.249997  1
  Pt  Pt20  1  0.683807  0.968034  0.457915  1
  Pt  Pt21  1  0.183810  0.531987  0.042074  1
  Pt  Pt22  1  0.316205  0.031976  0.957960  1
  Pt  Pt23  1  0.816024  0.468113  0.541998  1
  Pt  Pt24  1  0.316350  0.031704  0.541969  1
  Pt  Pt25  1  0.816194  0.468025  0.957955  1
  Pt  Pt26  1  0.683800  0.968028  0.042067  1
  Pt  Pt27  1  0.183826  0.532144  0.457807  1
  Pt  Pt28  1  0.454501  0.387786  0.750086  1
  Pt  Pt29  1  0.954194  0.112115  0.750096  1
  Pt  Pt30  1  0.545681  0.612235  0.249994  1
  Pt  Pt31  1  0.045688  0.887778  0.249992  1
  Pt  Pt32  1  0.681633  0.855779  0.750007  1
  Pt  Pt33  1  0.181683  0.644355  0.750070  1
  Pt  Pt34  1  0.318341  0.144196  0.250000  1
  Pt  Pt35  1  0.818325  0.355801  0.249999  1
