# generated using pymatgen
data_Yb4Ti(TcO4)3
_symmetry_space_group_name_H-M   'P 1'
_cell_length_a   5.35930132
_cell_length_b   5.56717048
_cell_length_c   7.68377363
_cell_angle_alpha   90.00169230
_cell_angle_beta   89.90509533
_cell_angle_gamma   90.04785172
_symmetry_Int_Tables_number   1
_chemical_formula_structural   Yb4Ti(TcO4)3
_chemical_formula_sum   'Yb4 Ti1 Tc3 O12'
_cell_volume   229.25378253
_cell_formula_units_Z   1
loop_
 _symmetry_equiv_pos_site_id
 _symmetry_equiv_pos_as_xyz
  1  'x, y, z'
loop_
 _atom_site_type_symbol
 _atom_site_label
 _atom_site_symmetry_multiplicity
 _atom_site_fract_x
 _atom_site_fract_y
 _atom_site_fract_z
 _atom_site_occupancy
  Yb  Yb0  1  0.985289  0.440291  0.747178  1
  Yb  Yb1  1  0.516298  0.938653  0.747723  1
  Yb  Yb2  1  0.483702  0.061347  0.252277  1
  Yb  Yb3  1  0.014711  0.559709  0.252822  1
  Ti  Ti4  1  0.500000  0.500000  0.500000  1
  Tc  Tc5  1  0.000000  0.000000  0.000000  1
  Tc  Tc6  1  0.000000  0.000000  0.500000  1
  Tc  Tc7  1  0.500000  0.500000  0.000000  1
  O  O8  1  0.096724  0.027861  0.749627  1
  O  O9  1  0.196679  0.299250  0.050781  1
  O  O10  1  0.203019  0.300662  0.450961  1
  O  O11  1  0.304032  0.793316  0.449773  1
  O  O12  1  0.303964  0.799164  0.049677  1
  O  O13  1  0.403326  0.529465  0.745592  1
  O  O14  1  0.596674  0.470535  0.254408  1
  O  O15  1  0.696036  0.200836  0.950323  1
  O  O16  1  0.695968  0.206684  0.550227  1
  O  O17  1  0.796981  0.699338  0.549039  1
  O  O18  1  0.803321  0.700750  0.949219  1
  O  O19  1  0.903276  0.972139  0.250373  1
