# generated using pymatgen
data_Sm2Tm2Ni13C4
_symmetry_space_group_name_H-M   'P 1'
_cell_length_a   8.38596202
_cell_length_b   8.38596235
_cell_length_c   3.87202300
_cell_angle_alpha   90.00000000
_cell_angle_beta   90.00000000
_cell_angle_gamma   90.88041583
_symmetry_Int_Tables_number   1
_chemical_formula_structural   Sm2Tm2Ni13C4
_chemical_formula_sum   'Sm2 Tm2 Ni13 C4'
_cell_volume   272.26539971
_cell_formula_units_Z   1
loop_
 _symmetry_equiv_pos_site_id
 _symmetry_equiv_pos_as_xyz
  1  'x, y, z'
loop_
 _atom_site_type_symbol
 _atom_site_label
 _atom_site_symmetry_multiplicity
 _atom_site_fract_x
 _atom_site_fract_y
 _atom_site_fract_z
 _atom_site_occupancy
  Sm  Sm0  1  0.347212  0.347212  0.500000  1
  Sm  Sm1  1  0.652788  0.652788  0.500000  1
  Tm  Tm2  1  0.186961  0.813039  0.500000  1
  Tm  Tm3  1  0.813039  0.186961  0.500000  1
  Ni  Ni4  1  0.500000  0.000000  0.500000  1
  Ni  Ni5  1  0.000000  0.500000  0.500000  1
  Ni  Ni6  1  0.000000  0.000000  0.000000  1
  Ni  Ni7  1  0.427852  0.785642  0.000000  1
  Ni  Ni8  1  0.572148  0.214358  0.000000  1
  Ni  Ni9  1  0.785642  0.427852  0.000000  1
  Ni  Ni10  1  0.214358  0.572148  0.000000  1
  Ni  Ni11  1  0.710480  0.930448  0.000000  1
  Ni  Ni12  1  0.289520  0.069552  0.000000  1
  Ni  Ni13  1  0.930448  0.710480  0.000000  1
  Ni  Ni14  1  0.069552  0.289520  0.000000  1
  Ni  Ni15  1  0.879361  0.879361  0.500000  1
  Ni  Ni16  1  0.120639  0.120639  0.500000  1
  C  C17  1  0.000000  0.500000  0.000000  1
  C  C18  1  0.500000  0.000000  0.000000  1
  C  C19  1  0.557118  0.442882  0.000000  1
  C  C20  1  0.442882  0.557118  0.000000  1
