# generated using pymatgen
data_HoEr2In3CoPt2
_symmetry_space_group_name_H-M   'P 1'
_cell_length_a   7.64072500
_cell_length_b   7.65300918
_cell_length_c   3.72533000
_cell_angle_alpha   90.00000000
_cell_angle_beta   90.00000000
_cell_angle_gamma   119.94691213
_symmetry_Int_Tables_number   1
_chemical_formula_structural   HoEr2In3CoPt2
_chemical_formula_sum   'Ho1 Er2 In3 Co1 Pt2'
_cell_volume   188.75317331
_cell_formula_units_Z   1
loop_
 _symmetry_equiv_pos_site_id
 _symmetry_equiv_pos_as_xyz
  1  'x, y, z'
loop_
 _atom_site_type_symbol
 _atom_site_label
 _atom_site_symmetry_multiplicity
 _atom_site_fract_x
 _atom_site_fract_y
 _atom_site_fract_z
 _atom_site_occupancy
  Ho  Ho0  1  0.594716  0.000000  0.500000  1
  Er  Er1  1  0.405188  0.405123  0.500000  1
  Er  Er2  1  0.000066  0.594877  0.500000  1
  In  In3  1  0.750822  0.750476  0.000000  1
  In  In4  1  0.000345  0.249524  0.000000  1
  In  In5  1  0.249033  0.000000  0.000000  1
  Co  Co6  1  0.000309  0.000000  0.500000  1
  Pt  Pt7  1  0.332654  0.665787  0.000000  1
  Pt  Pt8  1  0.666868  0.334213  0.000000  1
