# generated using pymatgen
data_Yb5Dy4LuRu4
_symmetry_space_group_name_H-M   'P 1'
_cell_length_a   8.48911884
_cell_length_b   8.45456622
_cell_length_c   7.38533822
_cell_angle_alpha   83.37312792
_cell_angle_beta   83.61453196
_cell_angle_gamma   43.73850711
_symmetry_Int_Tables_number   1
_chemical_formula_structural   Yb5Dy4LuRu4
_chemical_formula_sum   'Yb5 Dy4 Lu1 Ru4'
_cell_volume   363.71836706
_cell_formula_units_Z   1
loop_
 _symmetry_equiv_pos_site_id
 _symmetry_equiv_pos_as_xyz
  1  'x, y, z'
loop_
 _atom_site_type_symbol
 _atom_site_label
 _atom_site_symmetry_multiplicity
 _atom_site_fract_x
 _atom_site_fract_y
 _atom_site_fract_z
 _atom_site_occupancy
  Yb  Yb0  1  0.023305  0.795985  0.918093  1
  Yb  Yb1  1  0.203613  0.362831  0.318405  1
  Yb  Yb2  1  0.632312  0.800991  0.185187  1
  Yb  Yb3  1  0.802486  0.628684  0.677746  1
  Yb  Yb4  1  0.370195  0.196204  0.819021  1
  Dy  Dy5  1  0.971254  0.198660  0.080111  1
  Dy  Dy6  1  0.798019  0.031028  0.418861  1
  Dy  Dy7  1  0.568008  0.431527  0.751431  1
  Dy  Dy8  1  0.418717  0.581834  0.248658  1
  Lu  Lu9  1  0.193767  0.974631  0.589117  1
  Ru  Ru10  1  0.179445  0.614664  0.571239  1
  Ru  Ru11  1  0.394136  0.826433  0.917936  1
  Ru  Ru12  1  0.826737  0.374355  0.422826  1
  Ru  Ru13  1  0.618005  0.182176  0.081369  1
