# generated using pymatgen
data_Ti2MnSi12Mo17
_symmetry_space_group_name_H-M   'P 1'
_cell_length_a   7.26826302
_cell_length_b   7.26826411
_cell_length_c   13.69756400
_cell_angle_alpha   90.00000000
_cell_angle_beta   90.00000000
_cell_angle_gamma   140.83226201
_symmetry_Int_Tables_number   1
_chemical_formula_structural   Ti2MnSi12Mo17
_chemical_formula_sum   'Ti2 Mn1 Si12 Mo17'
_cell_volume   457.02701990
_cell_formula_units_Z   1
loop_
 _symmetry_equiv_pos_site_id
 _symmetry_equiv_pos_as_xyz
  1  'x, y, z'
loop_
 _atom_site_type_symbol
 _atom_site_label
 _atom_site_symmetry_multiplicity
 _atom_site_fract_x
 _atom_site_fract_y
 _atom_site_fract_z
 _atom_site_occupancy
  Ti  Ti0  1  0.499744  0.499744  0.000000  1
  Ti  Ti1  1  0.501563  0.501563  0.500000  1
  Mn  Mn2  1  0.999399  0.999399  0.000000  1
  Si  Si3  1  0.249273  0.750458  0.751430  1
  Si  Si4  1  0.750458  0.249273  0.248570  1
  Si  Si5  1  0.750458  0.249273  0.751430  1
  Si  Si6  1  0.249273  0.750458  0.248570  1
  Si  Si7  1  0.253879  0.253879  0.666757  1
  Si  Si8  1  0.764749  0.764749  0.161776  1
  Si  Si9  1  0.253879  0.253879  0.333243  1
  Si  Si10  1  0.764749  0.764749  0.838224  1
  Si  Si11  1  0.584284  0.919650  0.500000  1
  Si  Si12  1  0.067155  0.391405  0.000000  1
  Si  Si13  1  0.919650  0.584284  0.500000  1
  Si  Si14  1  0.391405  0.067155  0.000000  1
  Mo  Mo15  1  0.077950  0.428686  0.399019  1
  Mo  Mo16  1  0.569087  0.922337  0.902529  1
  Mo  Mo17  1  0.428686  0.077950  0.600981  1
  Mo  Mo18  1  0.922337  0.569087  0.097471  1
  Mo  Mo19  1  0.848543  0.650903  0.677351  1
  Mo  Mo20  1  0.348977  0.153274  0.175232  1
  Mo  Mo21  1  0.650903  0.848543  0.322649  1
  Mo  Mo22  1  0.153274  0.348977  0.824768  1
  Mo  Mo23  1  0.650903  0.848543  0.677351  1
  Mo  Mo24  1  0.153274  0.348977  0.175232  1
  Mo  Mo25  1  0.848543  0.650903  0.322649  1
  Mo  Mo26  1  0.348977  0.153274  0.824768  1
  Mo  Mo27  1  0.428686  0.077950  0.399019  1
  Mo  Mo28  1  0.922337  0.569087  0.902529  1
  Mo  Mo29  1  0.077950  0.428686  0.600981  1
  Mo  Mo30  1  0.569087  0.922337  0.097471  1
  Mo  Mo31  1  0.000563  0.000563  0.500000  1
