# generated using pymatgen
data_Sc4BeReB7Ru9
_symmetry_space_group_name_H-M   'P 1'
_cell_length_a   3.03090300
_cell_length_b   8.53308780
_cell_length_c   10.11285870
_cell_angle_alpha   90.31413145
_cell_angle_beta   90.00000000
_cell_angle_gamma   90.00000000
_symmetry_Int_Tables_number   1
_chemical_formula_structural   Sc4BeReB7Ru9
_chemical_formula_sum   'Sc4 Be1 Re1 B7 Ru9'
_cell_volume   261.54454341
_cell_formula_units_Z   1
loop_
 _symmetry_equiv_pos_site_id
 _symmetry_equiv_pos_as_xyz
  1  'x, y, z'
loop_
 _atom_site_type_symbol
 _atom_site_label
 _atom_site_symmetry_multiplicity
 _atom_site_fract_x
 _atom_site_fract_y
 _atom_site_fract_z
 _atom_site_occupancy
  Sc  Sc0  1  0.500000  0.841954  0.181049  1
  Sc  Sc1  1  0.500000  0.155708  0.819551  1
  Sc  Sc2  1  0.500000  0.657035  0.684153  1
  Sc  Sc3  1  0.500000  0.343272  0.319907  1
  Be  Be4  1  0.500000  0.964093  0.590478  1
  Re  Re5  1  0.000000  0.657182  0.955887  1
  B  B6  1  0.500000  0.037447  0.406621  1
  B  B7  1  0.500000  0.848223  0.899340  1
  B  B8  1  0.500000  0.149051  0.099437  1
  B  B9  1  0.500000  0.650902  0.400026  1
  B  B10  1  0.500000  0.349433  0.598784  1
  B  B11  1  0.500000  0.466348  0.910343  1
  B  B12  1  0.500000  0.537496  0.088855  1
  Ru  Ru13  1  0.000000  0.338007  0.046944  1
  Ru  Ru14  1  0.000000  0.840740  0.446041  1
  Ru  Ru15  1  0.000000  0.165226  0.543098  1
  Ru  Ru16  1  0.000000  0.999808  0.002575  1
  Ru  Ru17  1  0.000000  0.403116  0.760705  1
  Ru  Ru18  1  0.000000  0.594601  0.239108  1
  Ru  Ru19  1  0.000000  0.502757  0.500718  1
  Ru  Ru20  1  0.000000  0.899589  0.746323  1
  Ru  Ru21  1  0.000000  0.098012  0.260056  1
