# generated using pymatgen
data_Hf2InB2Ru5
_symmetry_space_group_name_H-M   'P 1'
_cell_length_a   9.53470400
_cell_length_b   9.53470400
_cell_length_c   3.10189200
_cell_angle_alpha   90.00000000
_cell_angle_beta   90.00000000
_cell_angle_gamma   90.00000000
_symmetry_Int_Tables_number   1
_chemical_formula_structural   Hf2InB2Ru5
_chemical_formula_sum   'Hf4 In2 B4 Ru10'
_cell_volume   281.99480196
_cell_formula_units_Z   2
loop_
 _symmetry_equiv_pos_site_id
 _symmetry_equiv_pos_as_xyz
  1  'x, y, z'
loop_
 _atom_site_type_symbol
 _atom_site_label
 _atom_site_symmetry_multiplicity
 _atom_site_fract_x
 _atom_site_fract_y
 _atom_site_fract_z
 _atom_site_occupancy
  Hf  Hf0  1  0.824566  0.675434  0.000000  1
  Hf  Hf1  1  0.175434  0.324566  0.000000  1
  Hf  Hf2  1  0.324566  0.824566  0.000000  1
  Hf  Hf3  1  0.675434  0.175434  0.000000  1
  In  In4  1  0.500000  0.500000  0.000000  1
  In  In5  1  0.000000  0.000000  0.000000  1
  B  B6  1  0.622290  0.877710  0.000000  1
  B  B7  1  0.377710  0.122290  0.000000  1
  B  B8  1  0.122290  0.622290  0.000000  1
  B  B9  1  0.877710  0.377710  0.000000  1
  Ru  Ru10  1  0.571612  0.722161  0.500000  1
  Ru  Ru11  1  0.428388  0.277839  0.500000  1
  Ru  Ru12  1  0.071612  0.777839  0.500000  1
  Ru  Ru13  1  0.928388  0.222161  0.500000  1
  Ru  Ru14  1  0.277839  0.571612  0.500000  1
  Ru  Ru15  1  0.722161  0.428388  0.500000  1
  Ru  Ru16  1  0.222161  0.071612  0.500000  1
  Ru  Ru17  1  0.777839  0.928388  0.500000  1
  Ru  Ru18  1  0.500000  0.000000  0.500000  1
  Ru  Ru19  1  0.000000  0.500000  0.500000  1
