# generated using pymatgen
data_Ta4Si2B4IrRu9
_symmetry_space_group_name_H-M   'P 1'
_cell_length_a   9.28903361
_cell_length_b   9.27417561
_cell_length_c   2.95920600
_cell_angle_alpha   90.00000000
_cell_angle_beta   90.00000000
_cell_angle_gamma   90.04163107
_symmetry_Int_Tables_number   1
_chemical_formula_structural   Ta4Si2B4IrRu9
_chemical_formula_sum   'Ta4 Si2 B4 Ir1 Ru9'
_cell_volume   254.92999291
_cell_formula_units_Z   1
loop_
 _symmetry_equiv_pos_site_id
 _symmetry_equiv_pos_as_xyz
  1  'x, y, z'
loop_
 _atom_site_type_symbol
 _atom_site_label
 _atom_site_symmetry_multiplicity
 _atom_site_fract_x
 _atom_site_fract_y
 _atom_site_fract_z
 _atom_site_occupancy
  Ta  Ta0  1  0.827640  0.676262  0.000000  1
  Ta  Ta1  1  0.176589  0.323046  0.000000  1
  Ta  Ta2  1  0.318944  0.825771  0.000000  1
  Ta  Ta3  1  0.676749  0.177297  0.000000  1
  Si  Si4  1  0.498411  0.494274  0.000000  1
  Si  Si5  1  0.000475  0.000486  0.000000  1
  B  B6  1  0.626547  0.879849  0.000000  1
  B  B7  1  0.373774  0.124333  0.000000  1
  B  B8  1  0.124864  0.625031  0.000000  1
  B  B9  1  0.875309  0.374803  0.000000  1
  Ir  Ir10  1  0.567825  0.711055  0.500000  1
  Ru  Ru11  1  0.432450  0.287204  0.500000  1
  Ru  Ru12  1  0.067282  0.788871  0.500000  1
  Ru  Ru13  1  0.931454  0.211114  0.500000  1
  Ru  Ru14  1  0.290261  0.568527  0.500000  1
  Ru  Ru15  1  0.711018  0.434513  0.500000  1
  Ru  Ru16  1  0.210833  0.067959  0.500000  1
  Ru  Ru17  1  0.788898  0.931298  0.500000  1
  Ru  Ru18  1  0.499398  0.999123  0.500000  1
  Ru  Ru19  1  0.001278  0.499183  0.500000  1
