# generated using pymatgen
data_Dy12ZnCo2Ni2Sn
_symmetry_space_group_name_H-M   'P 1'
_cell_length_a   8.34108133
_cell_length_b   8.34108148
_cell_length_c   8.34108214
_cell_angle_alpha   112.18859522
_cell_angle_beta   109.30465274
_cell_angle_gamma   106.96290532
_symmetry_Int_Tables_number   1
_chemical_formula_structural   Dy12ZnCo2Ni2Sn
_chemical_formula_sum   'Dy12 Zn1 Co2 Ni2 Sn1'
_cell_volume   445.79529949
_cell_formula_units_Z   1
loop_
 _symmetry_equiv_pos_site_id
 _symmetry_equiv_pos_as_xyz
  1  'x, y, z'
loop_
 _atom_site_type_symbol
 _atom_site_label
 _atom_site_symmetry_multiplicity
 _atom_site_fract_x
 _atom_site_fract_y
 _atom_site_fract_z
 _atom_site_occupancy
  Dy  Dy0  1  0.428364  0.230195  0.198169  1
  Dy  Dy1  1  0.571636  0.769805  0.801831  1
  Dy  Dy2  1  0.032025  0.230195  0.801831  1
  Dy  Dy3  1  0.967975  0.769805  0.198169  1
  Dy  Dy4  1  0.180923  0.285694  0.466615  1
  Dy  Dy5  1  0.819077  0.714306  0.533385  1
  Dy  Dy6  1  0.180923  0.714306  0.895229  1
  Dy  Dy7  1  0.819077  0.285694  0.104771  1
  Dy  Dy8  1  0.318613  0.629031  0.310418  1
  Dy  Dy9  1  0.681387  0.370969  0.689582  1
  Dy  Dy10  1  0.318613  0.008194  0.689582  1
  Dy  Dy11  1  0.681387  0.991806  0.310418  1
  Zn  Zn12  1  0.000000  0.000000  0.000000  1
  Co  Co13  1  0.113429  0.613429  0.500000  1
  Co  Co14  1  0.886571  0.386571  0.500000  1
  Ni  Ni15  1  0.353993  0.000000  0.353993  1
  Ni  Ni16  1  0.646007  0.000000  0.646007  1
  Sn  Sn17  1  0.500000  0.500000  0.000000  1
