# generated using pymatgen
data_Ho4ZnGe(B2Rh5)2
_symmetry_space_group_name_H-M   'P 1'
_cell_length_a   9.44216500
_cell_length_b   9.44216500
_cell_length_c   3.22215700
_cell_angle_alpha   90.00000000
_cell_angle_beta   90.00000000
_cell_angle_gamma   90.00000000
_symmetry_Int_Tables_number   1
_chemical_formula_structural   Ho4ZnGe(B2Rh5)2
_chemical_formula_sum   'Ho4 Zn1 Ge1 B4 Rh10'
_cell_volume   287.26973145
_cell_formula_units_Z   1
loop_
 _symmetry_equiv_pos_site_id
 _symmetry_equiv_pos_as_xyz
  1  'x, y, z'
loop_
 _atom_site_type_symbol
 _atom_site_label
 _atom_site_symmetry_multiplicity
 _atom_site_fract_x
 _atom_site_fract_y
 _atom_site_fract_z
 _atom_site_occupancy
  Ho  Ho0  1  0.825801  0.324590  0.000000  1
  Ho  Ho1  1  0.324590  0.174199  0.000000  1
  Ho  Ho2  1  0.675410  0.825801  0.000000  1
  Ho  Ho3  1  0.174199  0.675410  0.000000  1
  Zn  Zn4  1  0.000000  0.000000  0.000000  1
  Ge  Ge5  1  0.500000  0.500000  0.000000  1
  B  B6  1  0.623431  0.121325  0.000000  1
  B  B7  1  0.121325  0.376569  0.000000  1
  B  B8  1  0.878675  0.623431  0.000000  1
  B  B9  1  0.376569  0.878675  0.000000  1
  Rh  Rh10  1  0.071542  0.219711  0.500000  1
  Rh  Rh11  1  0.219711  0.928458  0.500000  1
  Rh  Rh12  1  0.780289  0.071542  0.500000  1
  Rh  Rh13  1  0.928458  0.780289  0.500000  1
  Rh  Rh14  1  0.429770  0.716976  0.500000  1
  Rh  Rh15  1  0.570230  0.283024  0.500000  1
  Rh  Rh16  1  0.716976  0.570230  0.500000  1
  Rh  Rh17  1  0.283024  0.429770  0.500000  1
  Rh  Rh18  1  0.500000  0.000000  0.500000  1
  Rh  Rh19  1  0.000000  0.500000  0.500000  1
