# generated using pymatgen
data_CsReP2Pt
_symmetry_space_group_name_H-M   'P 1'
_cell_length_a   7.82147948
_cell_length_b   7.82147903
_cell_length_c   7.82147971
_cell_angle_alpha   150.04836920
_cell_angle_beta   150.04836403
_cell_angle_gamma   42.87040983
_symmetry_Int_Tables_number   1
_chemical_formula_structural   CsReP2Pt
_chemical_formula_sum   'Cs1 Re1 P2 Pt1'
_cell_volume   118.96544786
_cell_formula_units_Z   1
loop_
 _symmetry_equiv_pos_site_id
 _symmetry_equiv_pos_as_xyz
  1  'x, y, z'
loop_
 _atom_site_type_symbol
 _atom_site_label
 _atom_site_symmetry_multiplicity
 _atom_site_fract_x
 _atom_site_fract_y
 _atom_site_fract_z
 _atom_site_occupancy
  Cs  Cs0  1  0.000000  0.000000  0.000000  1
  Re  Re1  1  0.250000  0.750000  0.500000  1
  P  P2  1  0.337733  0.337733  0.000000  1
  P  P3  1  0.662267  0.662267  0.000000  1
  Pt  Pt4  1  0.750000  0.250000  0.500000  1
