# generated using pymatgen
data_Er12Ir2OsPd
_symmetry_space_group_name_H-M   'P 1'
_cell_length_a   6.41002477
_cell_length_b   7.19797546
_cell_length_c   9.09122900
_cell_angle_alpha   90.00000000
_cell_angle_beta   90.00000000
_cell_angle_gamma   90.16753212
_symmetry_Int_Tables_number   1
_chemical_formula_structural   Er12Ir2OsPd
_chemical_formula_sum   'Er12 Ir2 Os1 Pd1'
_cell_volume   419.46024853
_cell_formula_units_Z   1
loop_
 _symmetry_equiv_pos_site_id
 _symmetry_equiv_pos_as_xyz
  1  'x, y, z'
loop_
 _atom_site_type_symbol
 _atom_site_label
 _atom_site_symmetry_multiplicity
 _atom_site_fract_x
 _atom_site_fract_y
 _atom_site_fract_z
 _atom_site_occupancy
  Er  Er0  1  0.332980  0.674506  0.059258  1
  Er  Er1  1  0.177283  0.185092  0.441209  1
  Er  Er2  1  0.672113  0.319665  0.560108  1
  Er  Er3  1  0.822726  0.820733  0.935819  1
  Er  Er4  1  0.672113  0.319665  0.939892  1
  Er  Er5  1  0.822726  0.820733  0.564181  1
  Er  Er6  1  0.332980  0.674506  0.440742  1
  Er  Er7  1  0.177283  0.185092  0.058791  1
  Er  Er8  1  0.874676  0.526356  0.250000  1
  Er  Er9  1  0.618656  0.037613  0.250000  1
  Er  Er10  1  0.121541  0.467538  0.750000  1
  Er  Er11  1  0.372853  0.964719  0.750000  1
  Ir  Ir12  1  0.960793  0.112854  0.750000  1
  Ir  Ir13  1  0.537357  0.612749  0.750000  1
  Os  Os14  1  0.460362  0.387237  0.250000  1
  Pd  Pd15  1  0.043557  0.890940  0.250000  1
