# generated using pymatgen
data_U3(AlPt)4
_symmetry_space_group_name_H-M   'P 1'
_cell_length_a   7.97618837
_cell_length_b   7.97618910
_cell_length_c   7.97618775
_cell_angle_alpha   149.56649286
_cell_angle_beta   125.12910813
_cell_angle_gamma   64.04669395
_symmetry_Int_Tables_number   1
_chemical_formula_structural   U3(AlPt)4
_chemical_formula_sum   'U3 Al4 Pt4'
_cell_volume   208.11447898
_cell_formula_units_Z   1
loop_
 _symmetry_equiv_pos_site_id
 _symmetry_equiv_pos_as_xyz
  1  'x, y, z'
loop_
 _atom_site_type_symbol
 _atom_site_label
 _atom_site_symmetry_multiplicity
 _atom_site_fract_x
 _atom_site_fract_y
 _atom_site_fract_z
 _atom_site_occupancy
  U  U0  1  0.500000  0.000000  0.500000  1
  U  U1  1  0.902372  0.902372  0.000000  1
  U  U2  1  0.097628  0.097628  0.000000  1
  Al  Al3  1  0.489898  0.682640  0.807258  1
  Al  Al4  1  0.875380  0.682640  0.192742  1
  Al  Al5  1  0.124620  0.317360  0.807258  1
  Al  Al6  1  0.510102  0.317360  0.192742  1
  Pt  Pt7  1  0.274164  0.774164  0.500000  1
  Pt  Pt8  1  0.725836  0.225836  0.500000  1
  Pt  Pt9  1  0.771159  0.500000  0.271159  1
  Pt  Pt10  1  0.228841  0.500000  0.728841  1
