# generated using pymatgen
data_Tm10Lu2Fe3Ag2
_symmetry_space_group_name_H-M   'P 1'
_cell_length_a   8.14498508
_cell_length_b   8.14571933
_cell_length_c   8.14498571
_cell_angle_alpha   108.37433246
_cell_angle_beta   108.33609888
_cell_angle_gamma   111.72325101
_symmetry_Int_Tables_number   1
_chemical_formula_structural   Tm10Lu2Fe3Ag2
_chemical_formula_sum   'Tm10 Lu2 Fe3 Ag2'
_cell_volume   415.52962456
_cell_formula_units_Z   1
loop_
 _symmetry_equiv_pos_site_id
 _symmetry_equiv_pos_as_xyz
  1  'x, y, z'
loop_
 _atom_site_type_symbol
 _atom_site_label
 _atom_site_symmetry_multiplicity
 _atom_site_fract_x
 _atom_site_fract_y
 _atom_site_fract_z
 _atom_site_occupancy
  Tm  Tm0  1  0.188948  0.947833  0.758884  1
  Tm  Tm1  1  0.948365  0.189699  0.759348  1
  Tm  Tm2  1  0.811052  0.052167  0.241116  1
  Tm  Tm3  1  0.051635  0.810301  0.240652  1
  Tm  Tm4  1  0.430350  0.189699  0.241335  1
  Tm  Tm5  1  0.569650  0.810301  0.758665  1
  Tm  Tm6  1  0.310461  0.310578  0.620302  1
  Tm  Tm7  1  0.689539  0.689422  0.379698  1
  Tm  Tm8  1  0.690277  0.310578  0.000117  1
  Tm  Tm9  1  0.309723  0.689422  0.999883  1
  Lu  Lu10  1  0.189265  0.430158  0.240895  1
  Lu  Lu11  1  0.810735  0.569842  0.759105  1
  Fe  Fe12  1  0.378310  0.378375  0.000065  1
  Fe  Fe13  1  0.621690  0.621625  0.999935  1
  Fe  Fe14  1  0.000000  0.000000  0.000000  1
  Ag  Ag15  1  0.000000  0.500000  0.500000  1
  Ag  Ag16  1  0.500000  0.000000  0.500000  1
