# generated using pymatgen
data_Li3La4TmPt4
_symmetry_space_group_name_H-M   'P 1'
_cell_length_a   4.17754400
_cell_length_b   7.46525488
_cell_length_c   9.04228265
_cell_angle_alpha   92.21348993
_cell_angle_beta   90.00000000
_cell_angle_gamma   90.00000000
_symmetry_Int_Tables_number   1
_chemical_formula_structural   Li3La4TmPt4
_chemical_formula_sum   'Li3 La4 Tm1 Pt4'
_cell_volume   281.78611010
_cell_formula_units_Z   1
loop_
 _symmetry_equiv_pos_site_id
 _symmetry_equiv_pos_as_xyz
  1  'x, y, z'
loop_
 _atom_site_type_symbol
 _atom_site_label
 _atom_site_symmetry_multiplicity
 _atom_site_fract_x
 _atom_site_fract_y
 _atom_site_fract_z
 _atom_site_occupancy
  Li  Li0  1  0.250000  0.129217  0.053865  1
  Li  Li1  1  0.250000  0.644838  0.434580  1
  Li  Li2  1  0.750000  0.876313  0.948970  1
  La  La3  1  0.250000  0.017397  0.696998  1
  La  La4  1  0.250000  0.551395  0.834159  1
  La  La5  1  0.750000  0.956909  0.306618  1
  La  La6  1  0.750000  0.462978  0.177174  1
  Tm  Tm7  1  0.750000  0.372729  0.556918  1
  Pt  Pt8  1  0.250000  0.237943  0.385270  1
  Pt  Pt9  1  0.250000  0.752494  0.118839  1
  Pt  Pt10  1  0.750000  0.742131  0.618068  1
  Pt  Pt11  1  0.750000  0.255655  0.868543  1
