# generated using pymatgen
data_Yb5Pa3MnPd24
_symmetry_space_group_name_H-M   'P 1'
_cell_length_a   8.33278792
_cell_length_b   8.33278803
_cell_length_c   8.31612000
_cell_angle_alpha   89.70570145
_cell_angle_beta   89.70570145
_cell_angle_gamma   89.26323999
_symmetry_Int_Tables_number   1
_chemical_formula_structural   Yb5Pa3MnPd24
_chemical_formula_sum   'Yb5 Pa3 Mn1 Pd24'
_cell_volume   577.36996965
_cell_formula_units_Z   1
loop_
 _symmetry_equiv_pos_site_id
 _symmetry_equiv_pos_as_xyz
  1  'x, y, z'
loop_
 _atom_site_type_symbol
 _atom_site_label
 _atom_site_symmetry_multiplicity
 _atom_site_fract_x
 _atom_site_fract_y
 _atom_site_fract_z
 _atom_site_occupancy
  Yb  Yb0  1  0.749715  0.247895  0.749788  1
  Yb  Yb1  1  0.251805  0.251805  0.751055  1
  Yb  Yb2  1  0.248534  0.751682  0.250628  1
  Yb  Yb3  1  0.247895  0.749715  0.749788  1
  Yb  Yb4  1  0.751682  0.248534  0.250628  1
  Pa  Pa5  1  0.255150  0.255150  0.255444  1
  Pa  Pa6  1  0.744218  0.744218  0.747309  1
  Pa  Pa7  1  0.746749  0.746749  0.251029  1
  Mn  Mn8  1  0.004236  0.004236  0.995377  1
  Pd  Pd9  1  0.260778  0.499444  0.007985  1
  Pd  Pd10  1  0.739588  0.502618  0.001419  1
  Pd  Pd11  1  0.006591  0.260881  0.495993  1
  Pd  Pd12  1  0.499444  0.260778  0.007985  1
  Pd  Pd13  1  0.990380  0.738259  0.497608  1
  Pd  Pd14  1  0.502618  0.739588  0.001419  1
  Pd  Pd15  1  0.502232  0.998224  0.260791  1
  Pd  Pd16  1  0.260881  0.006591  0.495993  1
  Pd  Pd17  1  0.503219  0.992405  0.739424  1
  Pd  Pd18  1  0.738259  0.990380  0.497608  1
  Pd  Pd19  1  0.998224  0.502232  0.260791  1
  Pd  Pd20  1  0.992405  0.503219  0.739424  1
  Pd  Pd21  1  0.252352  0.498330  0.496343  1
  Pd  Pd22  1  0.745847  0.502284  0.498274  1
  Pd  Pd23  1  0.498330  0.252352  0.496343  1
  Pd  Pd24  1  0.502284  0.745847  0.498274  1
  Pd  Pd25  1  0.502301  0.502301  0.254202  1
  Pd  Pd26  1  0.503547  0.503547  0.748243  1
  Pd  Pd27  1  0.296869  0.005067  0.003818  1
  Pd  Pd28  1  0.708624  0.993871  0.999688  1
  Pd  Pd29  1  0.005067  0.296869  0.003818  1
  Pd  Pd30  1  0.993871  0.708624  0.999688  1
  Pd  Pd31  1  0.000109  0.000109  0.291945  1
  Pd  Pd32  1  0.996195  0.996195  0.701886  1
