# generated using pymatgen
data_Cs7RbS24
_symmetry_space_group_name_H-M   'P 1'
_cell_length_a   13.15130960
_cell_length_b   7.17548519
_cell_length_c   12.99326324
_cell_angle_alpha   74.08335401
_cell_angle_beta   89.58321388
_cell_angle_gamma   90.07584570
_symmetry_Int_Tables_number   1
_chemical_formula_structural   Cs7RbS24
_chemical_formula_sum   'Cs7 Rb1 S24'
_cell_volume   1179.08942328
_cell_formula_units_Z   1
loop_
 _symmetry_equiv_pos_site_id
 _symmetry_equiv_pos_as_xyz
  1  'x, y, z'
loop_
 _atom_site_type_symbol
 _atom_site_label
 _atom_site_symmetry_multiplicity
 _atom_site_fract_x
 _atom_site_fract_y
 _atom_site_fract_z
 _atom_site_occupancy
  Cs  Cs0  1  0.641086  0.216734  0.979158  1
  Cs  Cs1  1  0.859704  0.213999  0.480318  1
  Cs  Cs2  1  0.357964  0.783776  0.020890  1
  Cs  Cs3  1  0.140723  0.783870  0.523537  1
  Cs  Cs4  1  0.606963  0.687310  0.598324  1
  Cs  Cs5  1  0.894335  0.686873  0.094307  1
  Cs  Cs6  1  0.393212  0.313440  0.402640  1
  Rb  Rb7  1  0.115910  0.298746  0.918907  1
  S  S8  1  0.365587  0.301498  0.992853  1
  S  S9  1  0.128399  0.304190  0.490518  1
  S  S10  1  0.628464  0.696740  0.008666  1
  S  S11  1  0.870932  0.696625  0.508277  1
  S  S12  1  0.409113  0.451986  0.841126  1
  S  S13  1  0.087043  0.456186  0.339431  1
  S  S14  1  0.585350  0.545873  0.160284  1
  S  S15  1  0.914633  0.547824  0.659451  1
  S  S16  1  0.332723  0.367862  0.725373  1
  S  S17  1  0.163484  0.370924  0.222498  1
  S  S18  1  0.662093  0.629727  0.276285  1
  S  S19  1  0.838626  0.630949  0.776984  1
  S  S20  1  0.391368  0.080298  0.724234  1
  S  S21  1  0.106002  0.083645  0.222639  1
  S  S22  1  0.606103  0.918807  0.275537  1
  S  S23  1  0.894165  0.919500  0.778689  1
  S  S24  1  0.546112  0.088881  0.722844  1
  S  S25  1  0.951186  0.092282  0.215066  1
  S  S26  1  0.451205  0.913155  0.277709  1
  S  S27  1  0.049054  0.920236  0.776615  1
  S  S28  1  0.605952  0.202255  0.573045  1
  S  S29  1  0.900004  0.205584  0.062304  1
  S  S30  1  0.392895  0.798890  0.428030  1
  S  S31  1  0.109612  0.791337  0.923461  1
