# generated using pymatgen
data_Cs8Li4Er3AlSb8
_symmetry_space_group_name_H-M   'P 1'
_cell_length_a   11.47105544
_cell_length_b   11.47105495
_cell_length_c   7.22797268
_cell_angle_alpha   90.02327767
_cell_angle_beta   89.97671231
_cell_angle_gamma   102.18897343
_symmetry_Int_Tables_number   1
_chemical_formula_structural   Cs8Li4Er3AlSb8
_chemical_formula_sum   'Cs8 Li4 Er3 Al1 Sb8'
_cell_volume   929.65249925
_cell_formula_units_Z   1
loop_
 _symmetry_equiv_pos_site_id
 _symmetry_equiv_pos_as_xyz
  1  'x, y, z'
loop_
 _atom_site_type_symbol
 _atom_site_label
 _atom_site_symmetry_multiplicity
 _atom_site_fract_x
 _atom_site_fract_y
 _atom_site_fract_z
 _atom_site_occupancy
  Cs  Cs0  1  0.570911  0.926955  0.748232  1
  Cs  Cs1  1  0.926955  0.570911  0.251768  1
  Cs  Cs2  1  0.427988  0.078844  0.254764  1
  Cs  Cs3  1  0.078844  0.427988  0.745236  1
  Cs  Cs4  1  0.669939  0.323151  0.774961  1
  Cs  Cs5  1  0.825435  0.176245  0.279842  1
  Cs  Cs6  1  0.323151  0.669939  0.225039  1
  Cs  Cs7  1  0.176245  0.825435  0.720158  1
  Li  Li8  1  0.618457  0.618457  0.000000  1
  Li  Li9  1  0.877982  0.877982  0.500000  1
  Li  Li10  1  0.378040  0.378040  0.000000  1
  Li  Li11  1  0.124657  0.124657  0.500000  1
  Er  Er12  1  0.869914  0.869914  0.000000  1
  Er  Er13  1  0.624982  0.624982  0.500000  1
  Er  Er14  1  0.133518  0.133518  0.000000  1
  Al  Al15  1  0.375505  0.375505  0.500000  1
  Sb  Sb16  1  0.340947  0.174252  0.735554  1
  Sb  Sb17  1  0.174252  0.340947  0.264446  1
  Sb  Sb18  1  0.658238  0.838401  0.249955  1
  Sb  Sb19  1  0.838401  0.658238  0.750045  1
  Sb  Sb20  1  0.911800  0.090688  0.763754  1
  Sb  Sb21  1  0.577807  0.405346  0.270361  1
  Sb  Sb22  1  0.090688  0.911800  0.236246  1
  Sb  Sb23  1  0.405346  0.577807  0.729639  1
