# generated using pymatgen
data_Nd4Mg(ZnAu5)2
_symmetry_space_group_name_H-M   'P 1'
_cell_length_a   8.59010500
_cell_length_b   8.59010518
_cell_length_c   10.26622800
_cell_angle_alpha   90.00000000
_cell_angle_beta   90.00000000
_cell_angle_gamma   108.08741713
_symmetry_Int_Tables_number   1
_chemical_formula_structural   Nd4Mg(ZnAu5)2
_chemical_formula_sum   'Nd8 Mg2 Zn4 Au20'
_cell_volume   720.10915170
_cell_formula_units_Z   2
loop_
 _symmetry_equiv_pos_site_id
 _symmetry_equiv_pos_as_xyz
  1  'x, y, z'
loop_
 _atom_site_type_symbol
 _atom_site_label
 _atom_site_symmetry_multiplicity
 _atom_site_fract_x
 _atom_site_fract_y
 _atom_site_fract_z
 _atom_site_occupancy
  Nd  Nd0  1  0.700486  0.299514  0.000000  1
  Nd  Nd1  1  0.299514  0.700486  0.000000  1
  Nd  Nd2  1  0.799514  0.200486  0.500000  1
  Nd  Nd3  1  0.200486  0.799514  0.500000  1
  Nd  Nd4  1  0.301833  0.301833  0.201739  1
  Nd  Nd5  1  0.698167  0.698167  0.798261  1
  Nd  Nd6  1  0.198167  0.198167  0.701739  1
  Nd  Nd7  1  0.801833  0.801833  0.298261  1
  Mg  Mg8  1  0.000000  0.000000  0.000000  1
  Mg  Mg9  1  0.500000  0.500000  0.500000  1
  Zn  Zn10  1  0.017084  0.517084  0.250000  1
  Zn  Zn11  1  0.982916  0.482916  0.750000  1
  Zn  Zn12  1  0.482916  0.982916  0.750000  1
  Zn  Zn13  1  0.517084  0.017084  0.250000  1
  Au  Au14  1  0.098292  0.098292  0.405578  1
  Au  Au15  1  0.901708  0.901708  0.594422  1
  Au  Au16  1  0.401708  0.401708  0.905578  1
  Au  Au17  1  0.598292  0.598292  0.094422  1
  Au  Au18  1  0.893100  0.175675  0.208043  1
  Au  Au19  1  0.106900  0.824325  0.791957  1
  Au  Au20  1  0.606900  0.324325  0.708043  1
  Au  Au21  1  0.675675  0.393100  0.291957  1
  Au  Au22  1  0.393100  0.675675  0.291957  1
  Au  Au23  1  0.324325  0.606900  0.708043  1
  Au  Au24  1  0.824325  0.106900  0.791957  1
  Au  Au25  1  0.175675  0.893100  0.208043  1
  Au  Au26  1  0.937250  0.659657  0.032028  1
  Au  Au27  1  0.062750  0.340343  0.967972  1
  Au  Au28  1  0.562750  0.840343  0.532028  1
  Au  Au29  1  0.159657  0.437250  0.467972  1
  Au  Au30  1  0.437250  0.159657  0.467972  1
  Au  Au31  1  0.840343  0.562750  0.532028  1
  Au  Au32  1  0.340343  0.062750  0.967972  1
  Au  Au33  1  0.659657  0.937250  0.032028  1
