# generated using pymatgen
data_Nd2Dy6Si12IrRh3
_symmetry_space_group_name_H-M   'P 1'
_cell_length_a   8.20134900
_cell_length_b   8.20134948
_cell_length_c   8.03677600
_cell_angle_alpha   90.00000000
_cell_angle_beta   90.00000000
_cell_angle_gamma   119.99998596
_symmetry_Int_Tables_number   1
_chemical_formula_structural   Nd2Dy6Si12IrRh3
_chemical_formula_sum   'Nd2 Dy6 Si12 Ir1 Rh3'
_cell_volume   468.14799634
_cell_formula_units_Z   1
loop_
 _symmetry_equiv_pos_site_id
 _symmetry_equiv_pos_as_xyz
  1  'x, y, z'
loop_
 _atom_site_type_symbol
 _atom_site_label
 _atom_site_symmetry_multiplicity
 _atom_site_fract_x
 _atom_site_fract_y
 _atom_site_fract_z
 _atom_site_occupancy
  Nd  Nd0  1  0.000000  0.000000  0.249249  1
  Nd  Nd1  1  0.000000  0.000000  0.750195  1
  Dy  Dy2  1  0.508216  0.491784  0.250220  1
  Dy  Dy3  1  0.508216  0.016432  0.250220  1
  Dy  Dy4  1  0.983568  0.491784  0.250220  1
  Dy  Dy5  1  0.491254  0.508746  0.749820  1
  Dy  Dy6  1  0.491254  0.982507  0.749820  1
  Dy  Dy7  1  0.017493  0.508746  0.749820  1
  Si  Si8  1  0.167814  0.832186  0.500653  1
  Si  Si9  1  0.167814  0.335628  0.500653  1
  Si  Si10  1  0.664372  0.832186  0.500653  1
  Si  Si11  1  0.831585  0.168415  0.498918  1
  Si  Si12  1  0.831585  0.663168  0.498918  1
  Si  Si13  1  0.336832  0.168415  0.498918  1
  Si  Si14  1  0.831761  0.168239  0.000908  1
  Si  Si15  1  0.831761  0.663522  0.000908  1
  Si  Si16  1  0.336478  0.168239  0.000908  1
  Si  Si17  1  0.168192  0.831808  0.998620  1
  Si  Si18  1  0.168192  0.336385  0.998620  1
  Si  Si19  1  0.663615  0.831808  0.998620  1
  Ir  Ir20  1  0.333333  0.666667  0.467788  1
  Rh  Rh21  1  0.666667  0.333333  0.533874  1
  Rh  Rh22  1  0.666667  0.333333  0.965611  1
  Rh  Rh23  1  0.333333  0.666667  0.035865  1
