# generated using pymatgen
data_Pr2ZnFeO6
_symmetry_space_group_name_H-M   'P 1'
_cell_length_a   7.83529031
_cell_length_b   5.69396700
_cell_length_c   5.54120447
_cell_angle_alpha   90.00000000
_cell_angle_beta   89.97452725
_cell_angle_gamma   90.00000000
_symmetry_Int_Tables_number   1
_chemical_formula_structural   Pr2ZnFeO6
_chemical_formula_sum   'Pr4 Zn2 Fe2 O12'
_cell_volume   247.21463146
_cell_formula_units_Z   2
loop_
 _symmetry_equiv_pos_site_id
 _symmetry_equiv_pos_as_xyz
  1  'x, y, z'
loop_
 _atom_site_type_symbol
 _atom_site_label
 _atom_site_symmetry_multiplicity
 _atom_site_fract_x
 _atom_site_fract_y
 _atom_site_fract_z
 _atom_site_occupancy
  Pr  Pr0  1  0.250025  0.053454  0.987222  1
  Pr  Pr1  1  0.249974  0.553452  0.512777  1
  Pr  Pr2  1  0.749974  0.946546  0.012778  1
  Pr  Pr3  1  0.750026  0.446547  0.487221  1
  Zn  Zn4  1  0.000000  0.500000  0.000000  1
  Zn  Zn5  1  0.500000  0.000000  0.500000  1
  Fe  Fe6  1  0.000000  0.000000  0.500001  1
  Fe  Fe7  1  0.500000  0.500000  0.000001  1
  O  O8  1  0.244352  0.977664  0.412842  1
  O  O9  1  0.255649  0.477662  0.087158  1
  O  O10  1  0.755649  0.022335  0.587160  1
  O  O11  1  0.744352  0.522337  0.912840  1
  O  O12  1  0.952020  0.712677  0.297248  1
  O  O13  1  0.547980  0.212677  0.202752  1
  O  O14  1  0.047981  0.287324  0.702751  1
  O  O15  1  0.452020  0.787323  0.797248  1
  O  O16  1  0.954762  0.199159  0.217305  1
  O  O17  1  0.545239  0.699161  0.282695  1
  O  O18  1  0.045238  0.800842  0.782695  1
  O  O19  1  0.454762  0.300840  0.717306  1
