# generated using pymatgen
data_LiHf7Si16(Mo3W)3
_symmetry_space_group_name_H-M   'P 1'
_cell_length_a   6.55401420
_cell_length_b   6.75196595
_cell_length_c   12.62794051
_cell_angle_alpha   90.02900144
_cell_angle_beta   89.90793793
_cell_angle_gamma   90.14202251
_symmetry_Int_Tables_number   1
_chemical_formula_structural   LiHf7Si16(Mo3W)3
_chemical_formula_sum   'Li1 Hf7 Si16 Mo9 W3'
_cell_volume   558.81518503
_cell_formula_units_Z   1
loop_
 _symmetry_equiv_pos_site_id
 _symmetry_equiv_pos_as_xyz
  1  'x, y, z'
loop_
 _atom_site_type_symbol
 _atom_site_label
 _atom_site_symmetry_multiplicity
 _atom_site_fract_x
 _atom_site_fract_y
 _atom_site_fract_z
 _atom_site_occupancy
  Li  Li0  1  0.976359  0.163270  0.085807  1
  Hf  Hf1  1  0.007969  0.825515  0.907602  1
  Hf  Hf2  1  0.502693  0.670872  0.909066  1
  Hf  Hf3  1  0.006242  0.830762  0.593503  1
  Hf  Hf4  1  0.499894  0.329107  0.095528  1
  Hf  Hf5  1  0.998125  0.170688  0.407582  1
  Hf  Hf6  1  0.494591  0.328934  0.404781  1
  Hf  Hf7  1  0.506624  0.669784  0.592136  1
  Si  Si8  1  0.033139  0.124800  0.752074  1
  Si  Si9  1  0.969054  0.882358  0.246824  1
  Si  Si10  1  0.464364  0.621828  0.250670  1
  Si  Si11  1  0.534236  0.377901  0.749893  1
  Si  Si12  1  0.302841  0.862718  0.750028  1
  Si  Si13  1  0.709159  0.139241  0.246122  1
  Si  Si14  1  0.189166  0.352815  0.242801  1
  Si  Si15  1  0.800068  0.640148  0.751960  1
  Si  Si16  1  0.168859  0.459219  0.542579  1
  Si  Si17  1  0.832673  0.541345  0.458026  1
  Si  Si18  1  0.333128  0.958653  0.457319  1
  Si  Si19  1  0.837677  0.532491  0.046372  1
  Si  Si20  1  0.669837  0.042030  0.542696  1
  Si  Si21  1  0.166176  0.454521  0.958865  1
  Si  Si22  1  0.666528  0.039516  0.958095  1
  Si  Si23  1  0.322138  0.970442  0.045560  1
  Mo  Mo24  1  0.670370  0.988674  0.750013  1
  Mo  Mo25  1  0.332504  0.163644  0.622638  1
  Mo  Mo26  1  0.668968  0.836461  0.376610  1
  Mo  Mo27  1  0.167774  0.663105  0.375952  1
  Mo  Mo28  1  0.663667  0.831759  0.123184  1
  Mo  Mo29  1  0.832442  0.339748  0.624316  1
  Mo  Mo30  1  0.334967  0.163404  0.875187  1
  Mo  Mo31  1  0.828539  0.338102  0.876924  1
  Mo  Mo32  1  0.170813  0.666692  0.124067  1
  W  W33  1  0.169173  0.514622  0.752327  1
  W  W34  1  0.831855  0.494180  0.251668  1
  W  W35  1  0.337390  0.010648  0.251225  1
