# generated using pymatgen
data_Ti8CoOs7
_symmetry_space_group_name_H-M   'P 1'
_cell_length_a   4.36891700
_cell_length_b   12.30587201
_cell_length_c   4.36898900
_cell_angle_alpha   90.00000000
_cell_angle_beta   90.00000000
_cell_angle_gamma   90.00526747
_symmetry_Int_Tables_number   1
_chemical_formula_structural   Ti8CoOs7
_chemical_formula_sum   'Ti8 Co1 Os7'
_cell_volume   234.89141165
_cell_formula_units_Z   1
loop_
 _symmetry_equiv_pos_site_id
 _symmetry_equiv_pos_as_xyz
  1  'x, y, z'
loop_
 _atom_site_type_symbol
 _atom_site_label
 _atom_site_symmetry_multiplicity
 _atom_site_fract_x
 _atom_site_fract_y
 _atom_site_fract_z
 _atom_site_occupancy
  Ti  Ti0  1  0.917062  0.002276  0.000000  1
  Ti  Ti1  1  0.916261  0.247721  0.000000  1
  Ti  Ti2  1  0.916355  0.499356  0.000000  1
  Ti  Ti3  1  0.916969  0.750649  0.000000  1
  Ti  Ti4  1  0.417005  0.002275  0.500000  1
  Ti  Ti5  1  0.416319  0.247724  0.500000  1
  Ti  Ti6  1  0.416361  0.499356  0.500000  1
  Ti  Ti7  1  0.416964  0.750648  0.500000  1
  Co  Co8  1  0.416657  0.124992  0.000000  1
  Os  Os9  1  0.416261  0.372028  0.000000  1
  Os  Os10  1  0.416663  0.625002  0.000000  1
  Os  Os11  1  0.417064  0.877974  0.000000  1
  Os  Os12  1  0.916661  0.124997  0.500000  1
  Os  Os13  1  0.916276  0.373228  0.500000  1
  Os  Os14  1  0.916663  0.625002  0.500000  1
  Os  Os15  1  0.917048  0.876774  0.500000  1
