# generated using pymatgen
data_ErTl4Os3O13
_symmetry_space_group_name_H-M   'P 1'
_cell_length_a   7.59926677
_cell_length_b   7.59926574
_cell_length_c   7.59926500
_cell_angle_alpha   58.62363173
_cell_angle_beta   58.62363646
_cell_angle_gamma   58.62363955
_symmetry_Int_Tables_number   1
_chemical_formula_structural   ErTl4Os3O13
_chemical_formula_sum   'Er1 Tl4 Os3 O13'
_cell_volume   300.54940853
_cell_formula_units_Z   1
loop_
 _symmetry_equiv_pos_site_id
 _symmetry_equiv_pos_as_xyz
  1  'x, y, z'
loop_
 _atom_site_type_symbol
 _atom_site_label
 _atom_site_symmetry_multiplicity
 _atom_site_fract_x
 _atom_site_fract_y
 _atom_site_fract_z
 _atom_site_occupancy
  Er  Er0  1  0.500487  0.500487  0.500487  1
  Tl  Tl1  1  0.001400  0.001400  0.001400  1
  Tl  Tl2  1  0.507393  0.999137  0.999137  1
  Tl  Tl3  1  0.999137  0.999137  0.507393  1
  Tl  Tl4  1  0.999137  0.507393  0.999137  1
  Os  Os5  1  0.999537  0.499934  0.499934  1
  Os  Os6  1  0.499934  0.499934  0.999537  1
  Os  Os7  1  0.499934  0.999537  0.499934  1
  O  O8  1  0.847143  0.428691  0.428691  1
  O  O9  1  0.423871  0.809744  0.809744  1
  O  O10  1  0.428691  0.428691  0.847143  1
  O  O11  1  0.809744  0.809744  0.423871  1
  O  O12  1  0.809744  0.423871  0.809744  1
  O  O13  1  0.428691  0.847143  0.428691  1
  O  O14  1  0.155096  0.568831  0.568831  1
  O  O15  1  0.575730  0.188981  0.188981  1
  O  O16  1  0.568831  0.568831  0.155096  1
  O  O17  1  0.188981  0.188981  0.575730  1
  O  O18  1  0.188981  0.575730  0.188981  1
  O  O19  1  0.568831  0.155096  0.568831  1
  O  O20  1  0.123703  0.123703  0.123703  1
