# generated using pymatgen
data_Eu6SbO12
_symmetry_space_group_name_H-M   'P 1'
_cell_length_a   6.63624919
_cell_length_b   6.63624948
_cell_length_c   6.63624883
_cell_angle_alpha   98.50772450
_cell_angle_beta   98.50772706
_cell_angle_gamma   98.50772369
_symmetry_Int_Tables_number   1
_chemical_formula_structural   Eu6SbO12
_chemical_formula_sum   'Eu6 Sb1 O12'
_cell_volume   281.52043411
_cell_formula_units_Z   1
loop_
 _symmetry_equiv_pos_site_id
 _symmetry_equiv_pos_as_xyz
  1  'x, y, z'
loop_
 _atom_site_type_symbol
 _atom_site_label
 _atom_site_symmetry_multiplicity
 _atom_site_fract_x
 _atom_site_fract_y
 _atom_site_fract_z
 _atom_site_occupancy
  Eu  Eu0  1  0.137883  0.298822  0.603651  1
  Eu  Eu1  1  0.396349  0.862117  0.701178  1
  Eu  Eu2  1  0.701178  0.396349  0.862117  1
  Eu  Eu3  1  0.298822  0.603651  0.137883  1
  Eu  Eu4  1  0.603651  0.137883  0.298822  1
  Eu  Eu5  1  0.862117  0.701178  0.396349  1
  Sb  Sb6  1  0.000000  0.000000  0.000000  1
  O  O7  1  0.067302  0.299324  0.961038  1
  O  O8  1  0.038962  0.932698  0.700676  1
  O  O9  1  0.407350  0.564750  0.823069  1
  O  O10  1  0.176931  0.592650  0.435250  1
  O  O11  1  0.700676  0.038962  0.932698  1
  O  O12  1  0.435250  0.176931  0.592650  1
  O  O13  1  0.564750  0.823069  0.407350  1
  O  O14  1  0.299324  0.961038  0.067302  1
  O  O15  1  0.823069  0.407350  0.564750  1
  O  O16  1  0.592650  0.435250  0.176931  1
  O  O17  1  0.961038  0.067302  0.299324  1
  O  O18  1  0.932698  0.700676  0.038962  1
