# generated using pymatgen
data_Tb4Dy6(InBi)3
_symmetry_space_group_name_H-M   'P 1'
_cell_length_a   9.08227864
_cell_length_b   9.08502171
_cell_length_c   6.62798700
_cell_angle_alpha   90.00000000
_cell_angle_beta   90.00000000
_cell_angle_gamma   119.98466836
_symmetry_Int_Tables_number   1
_chemical_formula_structural   Tb4Dy6(InBi)3
_chemical_formula_sum   'Tb4 Dy6 In3 Bi3'
_cell_volume   473.69646601
_cell_formula_units_Z   1
loop_
 _symmetry_equiv_pos_site_id
 _symmetry_equiv_pos_as_xyz
  1  'x, y, z'
loop_
 _atom_site_type_symbol
 _atom_site_label
 _atom_site_symmetry_multiplicity
 _atom_site_fract_x
 _atom_site_fract_y
 _atom_site_fract_z
 _atom_site_occupancy
  Tb  Tb0  1  0.000966  0.236123  0.750000  1
  Tb  Tb1  1  0.243720  0.241963  0.250000  1
  Tb  Tb2  1  0.756927  0.990011  0.250000  1
  Tb  Tb3  1  0.992078  0.758721  0.250000  1
  Dy  Dy4  1  0.660308  0.332707  0.998016  1
  Dy  Dy5  1  0.343892  0.668039  0.997661  1
  Dy  Dy6  1  0.343892  0.668039  0.502339  1
  Dy  Dy7  1  0.660308  0.332707  0.501984  1
  Dy  Dy8  1  0.754459  0.762785  0.750000  1
  Dy  Dy9  1  0.245477  0.009812  0.750000  1
  In  In10  1  0.395139  0.395665  0.750000  1
  In  In11  1  0.606560  0.003071  0.750000  1
  In  In12  1  0.603869  0.601189  0.250000  1
  Bi  Bi13  1  0.002316  0.610430  0.750000  1
  Bi  Bi14  1  0.391287  0.996743  0.250000  1
  Bi  Bi15  1  0.998804  0.391997  0.250000  1
