# generated using pymatgen
data_Ca8PrNdIr4
_symmetry_space_group_name_H-M   'P 1'
_cell_length_a   8.72657943
_cell_length_b   8.72658118
_cell_length_c   7.50535617
_cell_angle_alpha   82.88660756
_cell_angle_beta   82.88660551
_cell_angle_gamma   45.09414821
_symmetry_Int_Tables_number   1
_chemical_formula_structural   Ca8PrNdIr4
_chemical_formula_sum   'Ca8 Pr1 Nd1 Ir4'
_cell_volume   401.15994064
_cell_formula_units_Z   1
loop_
 _symmetry_equiv_pos_site_id
 _symmetry_equiv_pos_as_xyz
  1  'x, y, z'
loop_
 _atom_site_type_symbol
 _atom_site_label
 _atom_site_symmetry_multiplicity
 _atom_site_fract_x
 _atom_site_fract_y
 _atom_site_fract_z
 _atom_site_occupancy
  Ca  Ca0  1  0.016293  0.808202  0.916496  1
  Ca  Ca1  1  0.191798  0.983707  0.583504  1
  Ca  Ca2  1  0.983688  0.191762  0.083799  1
  Ca  Ca3  1  0.808238  0.016312  0.416201  1
  Ca  Ca4  1  0.359259  0.203166  0.820360  1
  Ca  Ca5  1  0.796834  0.640741  0.679640  1
  Ca  Ca6  1  0.640666  0.796710  0.179716  1
  Ca  Ca7  1  0.203290  0.359334  0.320284  1
  Pr  Pr8  1  0.565951  0.434049  0.750000  1
  Nd  Nd9  1  0.434507  0.565493  0.250000  1
  Ir  Ir10  1  0.184682  0.600543  0.577244  1
  Ir  Ir11  1  0.399457  0.815318  0.922756  1
  Ir  Ir12  1  0.815076  0.399740  0.421917  1
  Ir  Ir13  1  0.600260  0.184924  0.078083  1
