# generated using pymatgen
data_Dy2Ho4B14MoOs
_symmetry_space_group_name_H-M   'P 1'
_cell_length_a   8.07538253
_cell_length_b   8.07538382
_cell_length_c   9.36226635
_cell_angle_alpha   89.96924634
_cell_angle_beta   90.03075447
_cell_angle_gamma   154.99732641
_symmetry_Int_Tables_number   1
_chemical_formula_structural   Dy2Ho4B14MoOs
_chemical_formula_sum   'Dy2 Ho4 B14 Mo1 Os1'
_cell_volume   258.04706308
_cell_formula_units_Z   1
loop_
 _symmetry_equiv_pos_site_id
 _symmetry_equiv_pos_as_xyz
  1  'x, y, z'
loop_
 _atom_site_type_symbol
 _atom_site_label
 _atom_site_symmetry_multiplicity
 _atom_site_fract_x
 _atom_site_fract_y
 _atom_site_fract_z
 _atom_site_occupancy
  Dy  Dy0  1  0.745099  0.254901  0.749929  1
  Dy  Dy1  1  0.606071  0.393929  0.062340  1
  Ho  Ho2  1  0.256755  0.743245  0.250050  1
  Ho  Ho3  1  0.393265  0.606735  0.941456  1
  Ho  Ho4  1  0.393200  0.606800  0.558477  1
  Ho  Ho5  1  0.605841  0.394159  0.438149  1
  B  B6  1  0.978840  0.021160  0.096464  1
  B  B7  1  0.019340  0.980660  0.908741  1
  B  B8  1  0.019396  0.980604  0.590949  1
  B  B9  1  0.978916  0.021084  0.403881  1
  B  B10  1  0.773619  0.226381  0.035267  1
  B  B11  1  0.228305  0.771695  0.968300  1
  B  B12  1  0.228120  0.771880  0.531555  1
  B  B13  1  0.773344  0.226656  0.464595  1
  B  B14  1  0.868091  0.131909  0.151004  1
  B  B15  1  0.134689  0.865311  0.852479  1
  B  B16  1  0.134649  0.865351  0.647113  1
  B  B17  1  0.868075  0.131925  0.348996  1
  B  B18  1  0.042280  0.957720  0.250345  1
  B  B19  1  0.953970  0.046030  0.749896  1
  Mo  Mo20  1  0.552383  0.447617  0.749852  1
  Os  Os21  1  0.445752  0.554248  0.250162  1
