# generated using pymatgen
data_Nb14Si3AsP4
_symmetry_space_group_name_H-M   'P 1'
_cell_length_a   3.48385900
_cell_length_b   7.82544287
_cell_length_c   14.06716235
_cell_angle_alpha   104.18102445
_cell_angle_beta   90.00000000
_cell_angle_gamma   102.86168754
_symmetry_Int_Tables_number   1
_chemical_formula_structural   Nb14Si3AsP4
_chemical_formula_sum   'Nb14 Si3 As1 P4'
_cell_volume   361.88977017
_cell_formula_units_Z   1
loop_
 _symmetry_equiv_pos_site_id
 _symmetry_equiv_pos_as_xyz
  1  'x, y, z'
loop_
 _atom_site_type_symbol
 _atom_site_label
 _atom_site_symmetry_multiplicity
 _atom_site_fract_x
 _atom_site_fract_y
 _atom_site_fract_z
 _atom_site_occupancy
  Nb  Nb0  1  0.001371  0.002743  0.997964  1
  Nb  Nb1  1  0.500061  0.000122  0.500202  1
  Nb  Nb2  1  0.431181  0.862363  0.824343  1
  Nb  Nb3  1  0.573104  0.146207  0.172860  1
  Nb  Nb4  1  0.196942  0.393883  0.314264  1
  Nb  Nb5  1  0.800287  0.600574  0.688954  1
  Nb  Nb6  1  0.206713  0.413426  0.795504  1
  Nb  Nb7  1  0.791155  0.582309  0.206038  1
  Nb  Nb8  1  0.332287  0.664574  0.028678  1
  Nb  Nb9  1  0.662866  0.325731  0.966391  1
  Nb  Nb10  1  0.003724  0.007448  0.664313  1
  Nb  Nb11  1  0.999709  0.999419  0.340430  1
  Nb  Nb12  1  0.174839  0.349679  0.544566  1
  Nb  Nb13  1  0.824796  0.649593  0.454588  1
  Si  Si14  1  0.176778  0.353553  0.109598  1
  Si  Si15  1  0.824431  0.648865  0.889089  1
  Si  Si16  1  0.372278  0.744557  0.601767  1
  As  As17  1  0.937569  0.875138  0.152221  1
  P  P18  1  0.628281  0.256561  0.401158  1
  P  P19  1  0.371482  0.742961  0.336631  1
  P  P20  1  0.627638  0.255278  0.663420  1
  P  P21  1  0.062508  0.125015  0.847021  1
