# generated using pymatgen
data_Tm3FeB7
_symmetry_space_group_name_H-M   'P 1'
_cell_length_a   7.91095168
_cell_length_b   7.91095170
_cell_length_c   9.20330400
_cell_angle_alpha   90.00000000
_cell_angle_beta   90.00000000
_cell_angle_gamma   155.32176134
_symmetry_Int_Tables_number   1
_chemical_formula_structural   Tm3FeB7
_chemical_formula_sum   'Tm6 Fe2 B14'
_cell_volume   240.48089650
_cell_formula_units_Z   2
loop_
 _symmetry_equiv_pos_site_id
 _symmetry_equiv_pos_as_xyz
  1  'x, y, z'
loop_
 _atom_site_type_symbol
 _atom_site_label
 _atom_site_symmetry_multiplicity
 _atom_site_fract_x
 _atom_site_fract_y
 _atom_site_fract_z
 _atom_site_occupancy
  Tm  Tm0  1  0.894653  0.105347  0.059369  1
  Tm  Tm1  1  0.105347  0.894653  0.559369  1
  Tm  Tm2  1  0.105347  0.894653  0.940631  1
  Tm  Tm3  1  0.894653  0.105347  0.440631  1
  Tm  Tm4  1  0.243745  0.756255  0.250000  1
  Tm  Tm5  1  0.756255  0.243745  0.750000  1
  Fe  Fe6  1  0.053756  0.946244  0.250000  1
  Fe  Fe7  1  0.946244  0.053756  0.750000  1
  B  B8  1  0.457236  0.542764  0.250000  1
  B  B9  1  0.542764  0.457236  0.750000  1
  B  B10  1  0.727901  0.272099  0.033762  1
  B  B11  1  0.272099  0.727901  0.533762  1
  B  B12  1  0.272099  0.727901  0.966238  1
  B  B13  1  0.727901  0.272099  0.466238  1
  B  B14  1  0.630307  0.369693  0.347593  1
  B  B15  1  0.369693  0.630307  0.847593  1
  B  B16  1  0.369693  0.630307  0.652407  1
  B  B17  1  0.630307  0.369693  0.152407  1
  B  B18  1  0.520974  0.479026  0.402079  1
  B  B19  1  0.479026  0.520974  0.902079  1
  B  B20  1  0.479026  0.520974  0.597921  1
  B  B21  1  0.520974  0.479026  0.097921  1
