# generated using pymatgen
data_Dy2Er6In2RuRh
_symmetry_space_group_name_H-M   'P 1'
_cell_length_a   9.60376806
_cell_length_b   9.59758784
_cell_length_c   9.61631830
_cell_angle_alpha   59.82032946
_cell_angle_beta   59.86959842
_cell_angle_gamma   59.87246094
_symmetry_Int_Tables_number   1
_chemical_formula_structural   Dy2Er6In2RuRh
_chemical_formula_sum   'Dy4 Er12 In4 Ru2 Rh2'
_cell_volume   624.67963304
_cell_formula_units_Z   2
loop_
 _symmetry_equiv_pos_site_id
 _symmetry_equiv_pos_as_xyz
  1  'x, y, z'
loop_
 _atom_site_type_symbol
 _atom_site_label
 _atom_site_symmetry_multiplicity
 _atom_site_fract_x
 _atom_site_fract_y
 _atom_site_fract_z
 _atom_site_occupancy
  Dy  Dy0  1  0.189523  0.193793  0.809428  1
  Dy  Dy1  1  0.439044  0.061321  0.061565  1
  Dy  Dy2  1  0.442639  0.060029  0.436980  1
  Dy  Dy3  1  0.059392  0.440162  0.059385  1
  Er  Er4  1  0.651774  0.045457  0.651080  1
  Er  Er5  1  0.193317  0.807525  0.807414  1
  Er  Er6  1  0.058616  0.058168  0.439870  1
  Er  Er7  1  0.808478  0.192456  0.193263  1
  Er  Er8  1  0.808504  0.808798  0.194311  1
  Er  Er9  1  0.650754  0.651070  0.046166  1
  Er  Er10  1  0.653942  0.649929  0.649846  1
  Er  Er11  1  0.059386  0.441013  0.440581  1
  Er  Er12  1  0.044038  0.650982  0.649671  1
  Er  Er13  1  0.808141  0.194488  0.808549  1
  Er  Er14  1  0.444266  0.438363  0.058633  1
  Er  Er15  1  0.189711  0.808599  0.194414  1
  In  In16  1  0.417368  0.746703  0.417487  1
  In  In17  1  0.417932  0.417296  0.747501  1
  In  In18  1  0.750659  0.415611  0.416808  1
  In  In19  1  0.415786  0.419201  0.417532  1
  Ru  Ru20  1  0.856148  0.422250  0.859051  1
  Ru  Ru21  1  0.858451  0.859400  0.421129  1
  Rh  Rh22  1  0.421724  0.856857  0.859516  1
  Rh  Rh23  1  0.860405  0.860527  0.859815  1
