# generated using pymatgen
data_Ti18ReSi16Rh
_symmetry_space_group_name_H-M   'P 1'
_cell_length_a   6.67121890
_cell_length_b   6.67102849
_cell_length_c   12.11898709
_cell_angle_alpha   89.75090251
_cell_angle_beta   90.35122535
_cell_angle_gamma   89.83748137
_symmetry_Int_Tables_number   1
_chemical_formula_structural   Ti18ReSi16Rh
_chemical_formula_sum   'Ti18 Re1 Si16 Rh1'
_cell_volume   539.32464332
_cell_formula_units_Z   1
loop_
 _symmetry_equiv_pos_site_id
 _symmetry_equiv_pos_as_xyz
  1  'x, y, z'
loop_
 _atom_site_type_symbol
 _atom_site_label
 _atom_site_symmetry_multiplicity
 _atom_site_fract_x
 _atom_site_fract_y
 _atom_site_fract_z
 _atom_site_occupancy
  Ti  Ti0  1  0.997062  0.147297  0.624387  1
  Ti  Ti1  1  0.355951  0.501234  0.871218  1
  Ti  Ti2  1  0.649201  0.506044  0.371059  1
  Ti  Ti3  1  0.499856  0.355001  0.131176  1
  Ti  Ti4  1  0.503836  0.647295  0.626723  1
  Ti  Ti5  1  0.002859  0.846983  0.120117  1
  Ti  Ti6  1  0.146910  0.998832  0.376036  1
  Ti  Ti7  1  0.847786  0.004195  0.879428  1
  Ti  Ti8  1  0.995782  0.343125  0.221969  1
  Ti  Ti9  1  0.154900  0.502023  0.469785  1
  Ti  Ti10  1  0.835216  0.499232  0.972044  1
  Ti  Ti11  1  0.499994  0.156332  0.529804  1
  Ti  Ti12  1  0.500024  0.836981  0.027609  1
  Ti  Ti13  1  0.000445  0.655473  0.720842  1
  Ti  Ti14  1  0.347091  0.999505  0.780409  1
  Ti  Ti15  1  0.659399  0.000074  0.278422  1
  Ti  Ti16  1  0.671642  0.327023  0.752299  1
  Ti  Ti17  1  0.830147  0.828943  0.498490  1
  Re  Re18  1  0.327424  0.673211  0.246943  1
  Si  Si19  1  0.048487  0.300095  0.817712  1
  Si  Si20  1  0.199070  0.540709  0.062015  1
  Si  Si21  1  0.802954  0.455323  0.565394  1
  Si  Si22  1  0.540377  0.199090  0.938211  1
  Si  Si23  1  0.453957  0.802343  0.433876  1
  Si  Si24  1  0.959341  0.698403  0.314324  1
  Si  Si25  1  0.300844  0.045336  0.182903  1
  Si  Si26  1  0.698189  0.955480  0.684848  1
  Si  Si27  1  0.293721  0.357664  0.674046  1
  Si  Si28  1  0.138043  0.791469  0.921954  1
  Si  Si29  1  0.856413  0.206273  0.424663  1
  Si  Si30  1  0.792056  0.139241  0.077191  1
  Si  Si31  1  0.206222  0.858071  0.576094  1
  Si  Si32  1  0.705840  0.643936  0.172658  1
  Si  Si33  1  0.357887  0.295818  0.327915  1
  Si  Si34  1  0.645737  0.705323  0.824943  1
  Rh  Rh35  1  0.175336  0.176623  0.002488  1
