# generated using pymatgen
data_TbDyCo2Te
_symmetry_space_group_name_H-M   'P 1'
_cell_length_a   4.00864800
_cell_length_b   4.00864836
_cell_length_c   15.89069200
_cell_angle_alpha   90.00000000
_cell_angle_beta   90.00000000
_cell_angle_gamma   119.99998050
_symmetry_Int_Tables_number   1
_chemical_formula_structural   TbDyCo2Te
_chemical_formula_sum   'Tb2 Dy2 Co4 Te2'
_cell_volume   221.14107245
_cell_formula_units_Z   2
loop_
 _symmetry_equiv_pos_site_id
 _symmetry_equiv_pos_as_xyz
  1  'x, y, z'
loop_
 _atom_site_type_symbol
 _atom_site_label
 _atom_site_symmetry_multiplicity
 _atom_site_fract_x
 _atom_site_fract_y
 _atom_site_fract_z
 _atom_site_occupancy
  Tb  Tb0  1  0.000000  0.000000  0.386374  1
  Tb  Tb1  1  0.000000  0.000000  0.886374  1
  Dy  Dy2  1  0.000000  0.000000  0.113503  1
  Dy  Dy3  1  0.000000  0.000000  0.613503  1
  Co  Co4  1  0.666667  0.333333  0.998739  1
  Co  Co5  1  0.333333  0.666667  0.001723  1
  Co  Co6  1  0.666667  0.333333  0.501723  1
  Co  Co7  1  0.333333  0.666667  0.498739  1
  Te  Te8  1  0.666667  0.333333  0.249660  1
  Te  Te9  1  0.333333  0.666667  0.749660  1
