# generated using pymatgen
data_Np5(PaH10)3
_symmetry_space_group_name_H-M   'P 1'
_cell_length_a   7.55003509
_cell_length_b   7.55988083
_cell_length_c   7.56758158
_cell_angle_alpha   109.32564420
_cell_angle_beta   109.59461843
_cell_angle_gamma   109.58645640
_symmetry_Int_Tables_number   1
_chemical_formula_structural   Np5(PaH10)3
_chemical_formula_sum   'Np5 Pa3 H30'
_cell_volume   332.12154580
_cell_formula_units_Z   1
loop_
 _symmetry_equiv_pos_site_id
 _symmetry_equiv_pos_as_xyz
  1  'x, y, z'
loop_
 _atom_site_type_symbol
 _atom_site_label
 _atom_site_symmetry_multiplicity
 _atom_site_fract_x
 _atom_site_fract_y
 _atom_site_fract_z
 _atom_site_occupancy
  Np  Np0  1  0.916829  0.915273  0.915454  1
  Np  Np1  1  0.500007  0.000346  0.084956  1
  Np  Np2  1  0.999441  0.084447  0.500155  1
  Np  Np3  1  0.084332  0.499385  0.998874  1
  Np  Np4  1  0.000106  0.584444  0.501479  1
  Pa  Pa5  1  0.582600  0.502120  0.001488  1
  Pa  Pa6  1  0.500375  0.999480  0.580958  1
  Pa  Pa7  1  0.417408  0.418053  0.417435  1
  H  H8  1  0.649345  0.963677  0.370645  1
  H  H9  1  0.220264  0.313343  0.849393  1
  H  H10  1  0.190630  0.404266  0.536165  1
  H  H11  1  0.102162  0.285347  0.136380  1
  H  H12  1  0.286778  0.139114  0.102593  1
  H  H13  1  0.138236  0.101536  0.287059  1
  H  H14  1  0.467607  0.152927  0.864566  1
  H  H15  1  0.712290  0.348372  0.813928  1
  H  H16  1  0.621061  0.378247  0.250669  1
  H  H17  1  0.256505  0.626563  0.378463  1
  H  H18  1  0.746950  0.869396  0.122939  1
  H  H19  1  0.124145  0.748911  0.875097  1
  H  H20  1  0.380300  0.253350  0.625740  1
  H  H21  1  0.869807  0.122139  0.746793  1
  H  H22  1  0.777601  0.593214  0.627668  1
  H  H23  1  0.313997  0.849027  0.221040  1
  H  H24  1  0.371589  0.651089  0.965822  1
  H  H25  1  0.962342  0.366119  0.650730  1
  H  H26  1  0.532104  0.187476  0.405798  1
  H  H27  1  0.406226  0.534482  0.187430  1
  H  H28  1  0.849837  0.216709  0.312038  1
  H  H29  1  0.898491  0.682286  0.033963  1
  H  H30  1  0.810640  0.714881  0.346730  1
  H  H31  1  0.154230  0.868894  0.464495  1
  H  H32  1  0.683429  0.034258  0.897249  1
  H  H33  1  0.352805  0.816052  0.714807  1
  H  H34  1  0.863413  0.464934  0.149758  1
  H  H35  1  0.625582  0.779987  0.594862  1
  H  H36  1  0.594101  0.625665  0.779380  1
  H  H37  1  0.036437  0.904194  0.687006  1
