# generated using pymatgen
data_ZrSc2(SnIr)3
_symmetry_space_group_name_H-M   'P 1'
_cell_length_a   7.46254578
_cell_length_b   7.46254613
_cell_length_c   7.27133100
_cell_angle_alpha   90.00000000
_cell_angle_beta   90.00000000
_cell_angle_gamma   120.21210573
_symmetry_Int_Tables_number   1
_chemical_formula_structural   ZrSc2(SnIr)3
_chemical_formula_sum   'Zr2 Sc4 Sn6 Ir6'
_cell_volume   349.93419635
_cell_formula_units_Z   2
loop_
 _symmetry_equiv_pos_site_id
 _symmetry_equiv_pos_as_xyz
  1  'x, y, z'
loop_
 _atom_site_type_symbol
 _atom_site_label
 _atom_site_symmetry_multiplicity
 _atom_site_fract_x
 _atom_site_fract_y
 _atom_site_fract_z
 _atom_site_occupancy
  Zr  Zr0  1  0.990074  0.393737  0.250000  1
  Zr  Zr1  1  0.393737  0.990074  0.750000  1
  Sc  Sc2  1  0.403371  0.008185  0.250000  1
  Sc  Sc3  1  0.601329  0.602938  0.750000  1
  Sc  Sc4  1  0.602938  0.601329  0.250000  1
  Sc  Sc5  1  0.008185  0.403371  0.750000  1
  Sn  Sn6  1  0.274585  0.274585  0.500000  1
  Sn  Sn7  1  0.274585  0.274585  0.000000  1
  Sn  Sn8  1  0.729150  0.996856  0.996002  1
  Sn  Sn9  1  0.996856  0.729150  0.496002  1
  Sn  Sn10  1  0.729150  0.996856  0.503998  1
  Sn  Sn11  1  0.996856  0.729150  0.003998  1
  Ir  Ir12  1  0.667275  0.329254  0.514731  1
  Ir  Ir13  1  0.667275  0.329254  0.985269  1
  Ir  Ir14  1  0.329254  0.667275  0.014731  1
  Ir  Ir15  1  0.329254  0.667275  0.485269  1
  Ir  Ir16  1  0.006646  0.999478  0.750000  1
  Ir  Ir17  1  0.999478  0.006646  0.250000  1
