# generated using pymatgen
data_SrCaGdUO6
_symmetry_space_group_name_H-M   'P 1'
_cell_length_a   6.86599477
_cell_length_b   6.84538173
_cell_length_c   6.80576700
_cell_angle_alpha   91.72326418
_cell_angle_beta   91.60084462
_cell_angle_gamma   91.05129525
_symmetry_Int_Tables_number   1
_chemical_formula_structural   SrCaGdUO6
_chemical_formula_sum   'Sr2 Ca2 Gd2 U2 O12'
_cell_volume   319.54507069
_cell_formula_units_Z   2
loop_
 _symmetry_equiv_pos_site_id
 _symmetry_equiv_pos_as_xyz
  1  'x, y, z'
loop_
 _atom_site_type_symbol
 _atom_site_label
 _atom_site_symmetry_multiplicity
 _atom_site_fract_x
 _atom_site_fract_y
 _atom_site_fract_z
 _atom_site_occupancy
  Sr  Sr0  1  0.551393  0.251800  0.055941  1
  Sr  Sr1  1  0.252249  0.058890  0.554189  1
  Ca  Ca2  1  0.062130  0.555809  0.249169  1
  Ca  Ca3  1  0.444614  0.748792  0.941875  1
  Gd  Gd4  1  0.937891  0.442091  0.747283  1
  Gd  Gd5  1  0.749313  0.936412  0.440197  1
  U  U6  1  0.994593  0.991457  0.997536  1
  U  U7  1  0.499550  0.504917  0.499493  1
  O  O8  1  0.285231  0.048642  0.927634  1
  O  O9  1  0.051318  0.910787  0.296883  1
  O  O10  1  0.935037  0.296387  0.057152  1
  O  O11  1  0.702994  0.926567  0.089350  1
  O  O12  1  0.917562  0.087157  0.695114  1
  O  O13  1  0.070276  0.690974  0.925637  1
  O  O14  1  0.196512  0.422552  0.546730  1
  O  O15  1  0.406223  0.553459  0.208221  1
  O  O16  1  0.482864  0.804580  0.593951  1
  O  O17  1  0.602650  0.470814  0.793938  1
  O  O18  1  0.803940  0.594239  0.463015  1
  O  O19  1  0.553659  0.203676  0.416689  1
