# generated using pymatgen
data_Hg5BrF18
_symmetry_space_group_name_H-M   'P 1'
_cell_length_a   8.45363759
_cell_length_b   8.42352700
_cell_length_c   8.55292715
_cell_angle_alpha   90.31780999
_cell_angle_beta   89.69606247
_cell_angle_gamma   120.85685065
_symmetry_Int_Tables_number   1
_chemical_formula_structural   Hg5BrF18
_chemical_formula_sum   'Hg5 Br1 F18'
_cell_volume   522.82894713
_cell_formula_units_Z   1
loop_
 _symmetry_equiv_pos_site_id
 _symmetry_equiv_pos_as_xyz
  1  'x, y, z'
loop_
 _atom_site_type_symbol
 _atom_site_label
 _atom_site_symmetry_multiplicity
 _atom_site_fract_x
 _atom_site_fract_y
 _atom_site_fract_z
 _atom_site_occupancy
  Hg  Hg0  1  0.000000  0.500000  0.500000  1
  Hg  Hg1  1  0.000000  0.500000  0.000000  1
  Hg  Hg2  1  0.500000  0.000000  0.500000  1
  Hg  Hg3  1  0.500000  0.000000  0.000000  1
  Hg  Hg4  1  0.500000  0.500000  0.500000  1
  Br  Br5  1  0.500000  0.500000  0.000000  1
  F  F6  1  0.743441  0.573219  0.062022  1
  F  F7  1  0.256559  0.426781  0.937978  1
  F  F8  1  0.222191  0.430200  0.529641  1
  F  F9  1  0.777809  0.569800  0.470359  1
  F  F10  1  0.584594  0.747084  0.938195  1
  F  F11  1  0.415406  0.252916  0.061805  1
  F  F12  1  0.428161  0.220323  0.467887  1
  F  F13  1  0.571839  0.779677  0.532113  1
  F  F14  1  0.782824  0.218671  0.543957  1
  F  F15  1  0.217176  0.781329  0.456043  1
  F  F16  1  0.222341  0.776287  0.046216  1
  F  F17  1  0.777659  0.223713  0.953784  1
  F  F18  1  0.990592  0.433572  0.233635  1
  F  F19  1  0.009408  0.566428  0.766365  1
  F  F20  1  0.433914  0.988385  0.766317  1
  F  F21  1  0.566086  0.011615  0.233683  1
  F  F22  1  0.548388  0.445458  0.795480  1
  F  F23  1  0.451612  0.554542  0.204520  1
