# generated using pymatgen
data_TbU7B24(MoW)2
_symmetry_space_group_name_H-M   'P 1'
_cell_length_a   3.69277200
_cell_length_b   9.28602204
_cell_length_c   11.38137224
_cell_angle_alpha   90.02121473
_cell_angle_beta   90.00000000
_cell_angle_gamma   90.00000000
_symmetry_Int_Tables_number   1
_chemical_formula_structural   TbU7B24(MoW)2
_chemical_formula_sum   'Tb1 U7 B24 Mo2 W2'
_cell_volume   390.28045477
_cell_formula_units_Z   1
loop_
 _symmetry_equiv_pos_site_id
 _symmetry_equiv_pos_as_xyz
  1  'x, y, z'
loop_
 _atom_site_type_symbol
 _atom_site_label
 _atom_site_symmetry_multiplicity
 _atom_site_fract_x
 _atom_site_fract_y
 _atom_site_fract_z
 _atom_site_occupancy
  Tb  Tb0  1  0.000000  0.335315  0.407929  1
  U  U1  1  0.000000  0.664501  0.592439  1
  U  U2  1  0.000000  0.834497  0.092337  1
  U  U3  1  0.000000  0.165314  0.907553  1
  U  U4  1  0.000000  0.956232  0.394875  1
  U  U5  1  0.000000  0.044534  0.604864  1
  U  U6  1  0.000000  0.456435  0.105358  1
  U  U7  1  0.000000  0.543274  0.895054  1
  B  B8  1  0.500000  0.553189  0.433460  1
  B  B9  1  0.500000  0.451187  0.569143  1
  B  B10  1  0.500000  0.049537  0.066317  1
  B  B11  1  0.500000  0.949958  0.932811  1
  B  B12  1  0.500000  0.743285  0.424702  1
  B  B13  1  0.500000  0.255543  0.577130  1
  B  B14  1  0.500000  0.243759  0.075580  1
  B  B15  1  0.500000  0.756325  0.924221  1
  B  B16  1  0.500000  0.803937  0.272806  1
  B  B17  1  0.500000  0.196270  0.727640  1
  B  B18  1  0.500000  0.302930  0.224977  1
  B  B19  1  0.500000  0.696068  0.772484  1
  B  B20  1  0.500000  0.644604  0.187523  1
  B  B21  1  0.500000  0.355121  0.812808  1
  B  B22  1  0.500000  0.142727  0.311790  1
  B  B23  1  0.500000  0.855184  0.687412  1
  B  B24  1  0.500000  0.985643  0.218074  1
  B  B25  1  0.500000  0.014302  0.781364  1
  B  B26  1  0.500000  0.488086  0.280013  1
  B  B27  1  0.500000  0.514922  0.718373  1
  B  B28  1  0.500000  0.642304  0.039386  1
  B  B29  1  0.500000  0.358158  0.960785  1
  B  B30  1  0.500000  0.137663  0.461752  1
  B  B31  1  0.500000  0.857758  0.539697  1
  Mo  Mo32  1  0.000000  0.648453  0.319150  1
  Mo  Mo33  1  0.000000  0.355027  0.682769  1
  W  W34  1  0.000000  0.143065  0.177163  1
  W  W35  1  0.000000  0.854893  0.820257  1
