# generated using pymatgen
data_Zr10Sn6Ge
_symmetry_space_group_name_H-M   'P 1'
_cell_length_a   5.90236605
_cell_length_b   8.64532326
_cell_length_c   8.64491006
_cell_angle_alpha   120.00159138
_cell_angle_beta   89.99754185
_cell_angle_gamma   90.00491301
_symmetry_Int_Tables_number   1
_chemical_formula_structural   Zr10Sn6Ge
_chemical_formula_sum   'Zr10 Sn6 Ge1'
_cell_volume   382.02476922
_cell_formula_units_Z   1
loop_
 _symmetry_equiv_pos_site_id
 _symmetry_equiv_pos_as_xyz
  1  'x, y, z'
loop_
 _atom_site_type_symbol
 _atom_site_label
 _atom_site_symmetry_multiplicity
 _atom_site_fract_x
 _atom_site_fract_y
 _atom_site_fract_z
 _atom_site_occupancy
  Zr  Zr0  1  0.500001  0.333337  0.666677  1
  Zr  Zr1  1  0.500001  0.666661  0.333323  1
  Zr  Zr2  1  0.000001  0.666636  0.333271  1
  Zr  Zr3  1  0.000001  0.333365  0.666729  1
  Zr  Zr4  1  0.757945  0.257221  0.000000  1
  Zr  Zr5  1  0.757859  0.742810  0.742809  1
  Zr  Zr6  1  0.757859  0.000000  0.257191  1
  Zr  Zr7  1  0.242054  0.742778  0.000000  1
  Zr  Zr8  1  0.242138  0.257191  0.257191  1
  Zr  Zr9  1  0.242138  0.000001  0.742809  1
  Sn  Sn10  1  0.746528  0.609800  0.000000  1
  Sn  Sn11  1  0.746548  0.390228  0.390215  1
  Sn  Sn12  1  0.746548  0.000013  0.609785  1
  Sn  Sn13  1  0.253472  0.390200  0.000000  1
  Sn  Sn14  1  0.253454  0.609771  0.609784  1
  Sn  Sn15  1  0.253454  0.999987  0.390216  1
  Ge  Ge16  1  0.499998  0.000000  0.000000  1
