# generated using pymatgen
data_La8Cd2IrOs
_symmetry_space_group_name_H-M   'P 1'
_cell_length_a   10.11354146
_cell_length_b   10.11354275
_cell_length_c   10.16546700
_cell_angle_alpha   59.83002178
_cell_angle_beta   59.83001754
_cell_angle_gamma   59.67641272
_symmetry_Int_Tables_number   1
_chemical_formula_structural   La8Cd2IrOs
_chemical_formula_sum   'La16 Cd4 Ir2 Os2'
_cell_volume   731.52711643
_cell_formula_units_Z   2
loop_
 _symmetry_equiv_pos_site_id
 _symmetry_equiv_pos_as_xyz
  1  'x, y, z'
loop_
 _atom_site_type_symbol
 _atom_site_label
 _atom_site_symmetry_multiplicity
 _atom_site_fract_x
 _atom_site_fract_y
 _atom_site_fract_z
 _atom_site_occupancy
  La  La0  1  0.596058  0.596058  0.598831  1
  La  La1  1  0.596058  0.596058  0.209054  1
  La  La2  1  0.595006  0.210151  0.597421  1
  La  La3  1  0.210151  0.595006  0.597421  1
  La  La4  1  0.062294  0.440268  0.439997  1
  La  La5  1  0.440268  0.062294  0.057441  1
  La  La6  1  0.440268  0.062294  0.439997  1
  La  La7  1  0.062294  0.440268  0.057441  1
  La  La8  1  0.439629  0.439629  0.060371  1
  La  La9  1  0.059059  0.059059  0.440941  1
  La  La10  1  0.191181  0.807269  0.810182  1
  La  La11  1  0.807269  0.191181  0.191368  1
  La  La12  1  0.807269  0.191181  0.810182  1
  La  La13  1  0.191181  0.807269  0.191368  1
  La  La14  1  0.809536  0.809536  0.190464  1
  La  La15  1  0.192058  0.192058  0.807942  1
  Cd  Cd16  1  0.829521  0.829521  0.829738  1
  Cd  Cd17  1  0.829521  0.829521  0.511219  1
  Cd  Cd18  1  0.829369  0.511201  0.829714  1
  Cd  Cd19  1  0.511201  0.829369  0.829714  1
  Ir  Ir20  1  0.390886  0.830663  0.389225  1
  Ir  Ir21  1  0.830663  0.390886  0.389225  1
  Os  Os22  1  0.389630  0.389630  0.387863  1
  Os  Os23  1  0.389630  0.389630  0.832877  1
