# generated using pymatgen
data_Er5In4IrAu
_symmetry_space_group_name_H-M   'P 1'
_cell_length_a   3.60409500
_cell_length_b   8.15635809
_cell_length_c   18.30118140
_cell_angle_alpha   90.25478839
_cell_angle_beta   90.00000000
_cell_angle_gamma   90.00000000
_symmetry_Int_Tables_number   1
_chemical_formula_structural   Er5In4IrAu
_chemical_formula_sum   'Er10 In8 Ir2 Au2'
_cell_volume   537.98150563
_cell_formula_units_Z   2
loop_
 _symmetry_equiv_pos_site_id
 _symmetry_equiv_pos_as_xyz
  1  'x, y, z'
loop_
 _atom_site_type_symbol
 _atom_site_label
 _atom_site_symmetry_multiplicity
 _atom_site_fract_x
 _atom_site_fract_y
 _atom_site_fract_z
 _atom_site_occupancy
  Er  Er0  1  0.000000  0.500000  0.500000  1
  Er  Er1  1  0.000000  0.000000  0.000000  1
  Er  Er2  1  0.000000  0.768040  0.282061  1
  Er  Er3  1  0.000000  0.231960  0.717939  1
  Er  Er4  1  0.000000  0.771696  0.776577  1
  Er  Er5  1  0.000000  0.228304  0.223423  1
  Er  Er6  1  0.000000  0.622215  0.081455  1
  Er  Er7  1  0.000000  0.377785  0.918545  1
  Er  Er8  1  0.000000  0.880644  0.586355  1
  Er  Er9  1  0.000000  0.119356  0.413645  1
  In  In10  1  0.500000  0.707102  0.933134  1
  In  In11  1  0.500000  0.292898  0.066866  1
  In  In12  1  0.500000  0.795580  0.433549  1
  In  In13  1  0.500000  0.204420  0.566451  1
  In  In14  1  0.500000  0.573306  0.647867  1
  In  In15  1  0.500000  0.426694  0.352133  1
  In  In16  1  0.500000  0.928965  0.147591  1
  In  In17  1  0.500000  0.071035  0.852409  1
  Ir  Ir18  1  0.500000  0.970700  0.695182  1
  Ir  Ir19  1  0.500000  0.029300  0.304818  1
  Au  Au20  1  0.500000  0.530757  0.198212  1
  Au  Au21  1  0.500000  0.469243  0.801788  1
