# generated using pymatgen
data_Ba4CaCrN5
_symmetry_space_group_name_H-M   'P 1'
_cell_length_a   7.95715495
_cell_length_b   7.95715506
_cell_length_c   8.70657558
_cell_angle_alpha   75.95237241
_cell_angle_beta   75.95236936
_cell_angle_gamma   94.80045215
_symmetry_Int_Tables_number   1
_chemical_formula_structural   Ba4CaCrN5
_chemical_formula_sum   'Ba8 Ca2 Cr2 N10'
_cell_volume   512.79849494
_cell_formula_units_Z   2
loop_
 _symmetry_equiv_pos_site_id
 _symmetry_equiv_pos_as_xyz
  1  'x, y, z'
loop_
 _atom_site_type_symbol
 _atom_site_label
 _atom_site_symmetry_multiplicity
 _atom_site_fract_x
 _atom_site_fract_y
 _atom_site_fract_z
 _atom_site_occupancy
  Ba  Ba0  1  0.669566  0.669566  0.997967  1
  Ba  Ba1  1  0.330434  0.330434  0.002033  1
  Ba  Ba2  1  0.919757  0.919757  0.218467  1
  Ba  Ba3  1  0.080243  0.080243  0.781533  1
  Ba  Ba4  1  0.565470  0.091037  0.736737  1
  Ba  Ba5  1  0.908963  0.434530  0.263263  1
  Ba  Ba6  1  0.434530  0.908963  0.263263  1
  Ba  Ba7  1  0.091037  0.565470  0.736737  1
  Ca  Ca8  1  0.418360  0.418360  0.375230  1
  Ca  Ca9  1  0.581640  0.581640  0.624770  1
  Cr  Cr10  1  0.751546  0.248454  0.000000  1
  Cr  Cr11  1  0.248454  0.751546  0.000000  1
  N  N12  1  0.650062  0.650062  0.333650  1
  N  N13  1  0.349938  0.349938  0.666350  1
  N  N14  1  0.713655  0.029957  0.992751  1
  N  N15  1  0.970043  0.286345  0.007249  1
  N  N16  1  0.286345  0.970043  0.007249  1
  N  N17  1  0.029957  0.713655  0.992751  1
  N  N18  1  0.393098  0.721411  0.822527  1
  N  N19  1  0.278589  0.606902  0.177472  1
  N  N20  1  0.606902  0.278589  0.177472  1
  N  N21  1  0.721411  0.393098  0.822527  1
