# generated using pymatgen
data_Er9LuIn8(RuPt)2
_symmetry_space_group_name_H-M   'P 1'
_cell_length_a   3.58527600
_cell_length_b   8.02464917
_cell_length_c   18.22604802
_cell_angle_alpha   90.01482771
_cell_angle_beta   90.00000000
_cell_angle_gamma   90.00000000
_symmetry_Int_Tables_number   1
_chemical_formula_structural   Er9LuIn8(RuPt)2
_chemical_formula_sum   'Er9 Lu1 In8 Ru2 Pt2'
_cell_volume   524.37399315
_cell_formula_units_Z   1
loop_
 _symmetry_equiv_pos_site_id
 _symmetry_equiv_pos_as_xyz
  1  'x, y, z'
loop_
 _atom_site_type_symbol
 _atom_site_label
 _atom_site_symmetry_multiplicity
 _atom_site_fract_x
 _atom_site_fract_y
 _atom_site_fract_z
 _atom_site_occupancy
  Er  Er0  1  0.000000  0.115256  0.412334  1
  Er  Er1  1  0.000000  0.884354  0.587976  1
  Er  Er2  1  0.000000  0.381660  0.913506  1
  Er  Er3  1  0.000000  0.618710  0.086170  1
  Er  Er4  1  0.000000  0.236938  0.222721  1
  Er  Er5  1  0.000000  0.763484  0.777333  1
  Er  Er6  1  0.000000  0.247651  0.720200  1
  Er  Er7  1  0.000000  0.000274  0.999593  1
  Er  Er8  1  0.000000  0.500312  0.500374  1
  Lu  Lu9  1  0.000000  0.752966  0.279636  1
  In  In10  1  0.500000  0.426119  0.352005  1
  In  In11  1  0.500000  0.574844  0.648032  1
  In  In12  1  0.500000  0.069189  0.850118  1
  In  In13  1  0.500000  0.930514  0.149999  1
  In  In14  1  0.500000  0.291580  0.065833  1
  In  In15  1  0.500000  0.708873  0.933864  1
  In  In16  1  0.500000  0.207018  0.567895  1
  In  In17  1  0.500000  0.792858  0.431819  1
  Ru  Ru18  1  0.500000  0.018964  0.303806  1
  Ru  Ru19  1  0.500000  0.977460  0.696454  1
  Pt  Pt20  1  0.500000  0.475134  0.803576  1
  Pt  Pt21  1  0.500000  0.525840  0.196756  1
