# generated using pymatgen
data_Tm20Pt5Rh7
_symmetry_space_group_name_H-M   'P 1'
_cell_length_a   10.86862703
_cell_length_b   10.86862715
_cell_length_c   6.29987379
_cell_angle_alpha   89.92720495
_cell_angle_beta   89.92719921
_cell_angle_gamma   89.68486492
_symmetry_Int_Tables_number   1
_chemical_formula_structural   Tm20Pt5Rh7
_chemical_formula_sum   'Tm20 Pt5 Rh7'
_cell_volume   744.17308544
_cell_formula_units_Z   1
loop_
 _symmetry_equiv_pos_site_id
 _symmetry_equiv_pos_as_xyz
  1  'x, y, z'
loop_
 _atom_site_type_symbol
 _atom_site_label
 _atom_site_symmetry_multiplicity
 _atom_site_fract_x
 _atom_site_fract_y
 _atom_site_fract_z
 _atom_site_occupancy
  Tm  Tm0  1  0.292879  0.088887  0.381261  1
  Tm  Tm1  1  0.293253  0.914118  0.876826  1
  Tm  Tm2  1  0.707874  0.087687  0.878694  1
  Tm  Tm3  1  0.709249  0.912396  0.378607  1
  Tm  Tm4  1  0.589784  0.795216  0.876229  1
  Tm  Tm5  1  0.589315  0.205318  0.375392  1
  Tm  Tm6  1  0.413386  0.794985  0.375554  1
  Tm  Tm7  1  0.410568  0.205268  0.875708  1
  Tm  Tm8  1  0.204784  0.410216  0.623771  1
  Tm  Tm9  1  0.205015  0.586614  0.124446  1
  Tm  Tm10  1  0.794682  0.410685  0.124608  1
  Tm  Tm11  1  0.794732  0.589432  0.624292  1
  Tm  Tm12  1  0.911113  0.707121  0.118739  1
  Tm  Tm13  1  0.912313  0.292126  0.621306  1
  Tm  Tm14  1  0.085882  0.706747  0.623174  1
  Tm  Tm15  1  0.087604  0.290751  0.121393  1
  Tm  Tm16  1  0.999295  0.001594  0.500465  1
  Tm  Tm17  1  0.998406  0.000705  0.999535  1
  Tm  Tm18  1  0.500031  0.500347  0.999859  1
  Tm  Tm19  1  0.499653  0.499969  0.500141  1
  Pt  Pt20  1  0.154432  0.845568  0.250000  1
  Pt  Pt21  1  0.654556  0.345444  0.750000  1
  Pt  Pt22  1  0.654012  0.654371  0.250644  1
  Pt  Pt23  1  0.345629  0.345988  0.249356  1
  Pt  Pt24  1  0.345107  0.654893  0.750000  1
  Rh  Rh25  1  0.845196  0.154804  0.250000  1
  Rh  Rh26  1  0.846253  0.845638  0.749229  1
  Rh  Rh27  1  0.154362  0.153747  0.750771  1
  Rh  Rh28  1  0.500468  0.000353  0.122150  1
  Rh  Rh29  1  0.500465  0.999944  0.621292  1
  Rh  Rh30  1  0.000056  0.499535  0.878708  1
  Rh  Rh31  1  0.999647  0.499532  0.377850  1
