# generated using pymatgen
data_Ho2Zn11Cu6
_symmetry_space_group_name_H-M   'P 1'
_cell_length_a   6.63585726
_cell_length_b   6.63585808
_cell_length_c   6.63585793
_cell_angle_alpha   83.10132369
_cell_angle_beta   83.10132458
_cell_angle_gamma   83.10131304
_symmetry_Int_Tables_number   1
_chemical_formula_structural   Ho2Zn11Cu6
_chemical_formula_sum   'Ho2 Zn11 Cu6'
_cell_volume   286.33100861
_cell_formula_units_Z   1
loop_
 _symmetry_equiv_pos_site_id
 _symmetry_equiv_pos_as_xyz
  1  'x, y, z'
loop_
 _atom_site_type_symbol
 _atom_site_label
 _atom_site_symmetry_multiplicity
 _atom_site_fract_x
 _atom_site_fract_y
 _atom_site_fract_z
 _atom_site_occupancy
  Ho  Ho0  1  0.650070  0.650070  0.650070  1
  Ho  Ho1  1  0.341696  0.341696  0.341696  1
  Zn  Zn2  1  0.163964  0.651680  0.651680  1
  Zn  Zn3  1  0.651680  0.651680  0.163964  1
  Zn  Zn4  1  0.651680  0.163964  0.651680  1
  Zn  Zn5  1  0.892691  0.892691  0.892691  1
  Zn  Zn6  1  0.105500  0.105500  0.105500  1
  Zn  Zn7  1  0.002753  0.301444  0.698445  1
  Zn  Zn8  1  0.301443  0.698446  0.002753  1
  Zn  Zn9  1  0.301444  0.002753  0.698445  1
  Zn  Zn10  1  0.002752  0.698447  0.301442  1
  Zn  Zn11  1  0.698446  0.301443  0.002753  1
  Zn  Zn12  1  0.698447  0.002752  0.301442  1
  Cu  Cu13  1  0.346498  0.845570  0.346498  1
  Cu  Cu14  1  0.346498  0.346498  0.845570  1
  Cu  Cu15  1  0.845570  0.346498  0.346498  1
  Cu  Cu16  1  0.999212  0.500453  0.999211  1
  Cu  Cu17  1  0.500453  0.999212  0.999211  1
  Cu  Cu18  1  0.999211  0.999211  0.500453  1
