# generated using pymatgen
data_Tm(Hf3Sn2)3
_symmetry_space_group_name_H-M   'P 1'
_cell_length_a   8.53803387
_cell_length_b   8.53803415
_cell_length_c   5.76777100
_cell_angle_alpha   90.00000000
_cell_angle_beta   90.00000000
_cell_angle_gamma   120.78409056
_symmetry_Int_Tables_number   1
_chemical_formula_structural   Tm(Hf3Sn2)3
_chemical_formula_sum   'Tm1 Hf9 Sn6'
_cell_volume   361.21728365
_cell_formula_units_Z   1
loop_
 _symmetry_equiv_pos_site_id
 _symmetry_equiv_pos_as_xyz
  1  'x, y, z'
loop_
 _atom_site_type_symbol
 _atom_site_label
 _atom_site_symmetry_multiplicity
 _atom_site_fract_x
 _atom_site_fract_y
 _atom_site_fract_z
 _atom_site_occupancy
  Tm  Tm0  1  0.766820  0.766820  0.750000  1
  Hf  Hf1  1  0.249425  0.001305  0.750000  1
  Hf  Hf2  1  0.001305  0.249425  0.750000  1
  Hf  Hf3  1  0.235517  0.235517  0.250000  1
  Hf  Hf4  1  0.752726  0.000898  0.250000  1
  Hf  Hf5  1  0.000898  0.752726  0.250000  1
  Hf  Hf6  1  0.665160  0.332989  0.000455  1
  Hf  Hf7  1  0.332989  0.665160  0.000455  1
  Hf  Hf8  1  0.332989  0.665160  0.499545  1
  Hf  Hf9  1  0.665160  0.332989  0.499545  1
  Sn  Sn10  1  0.391348  0.391348  0.750000  1
  Sn  Sn11  1  0.605913  0.002063  0.750000  1
  Sn  Sn12  1  0.002063  0.605913  0.750000  1
  Sn  Sn13  1  0.606292  0.606292  0.250000  1
  Sn  Sn14  1  0.391993  0.999405  0.250000  1
  Sn  Sn15  1  0.999405  0.391993  0.250000  1
