# generated using pymatgen
data_Dy3InCu(HgPd)2
_symmetry_space_group_name_H-M   'P 1'
_cell_length_a   7.77915500
_cell_length_b   7.75586866
_cell_length_c   3.74792300
_cell_angle_alpha   90.00000000
_cell_angle_beta   90.00000000
_cell_angle_gamma   119.90102739
_symmetry_Int_Tables_number   1
_chemical_formula_structural   Dy3InCu(HgPd)2
_chemical_formula_sum   'Dy3 In1 Cu1 Hg2 Pd2'
_cell_volume   196.02724079
_cell_formula_units_Z   1
loop_
 _symmetry_equiv_pos_site_id
 _symmetry_equiv_pos_as_xyz
  1  'x, y, z'
loop_
 _atom_site_type_symbol
 _atom_site_label
 _atom_site_symmetry_multiplicity
 _atom_site_fract_x
 _atom_site_fract_y
 _atom_site_fract_z
 _atom_site_occupancy
  Dy  Dy0  1  0.585830  0.993694  0.500000  1
  Dy  Dy1  1  0.414170  0.407863  0.500000  1
  Dy  Dy2  1  0.000000  0.605832  0.500000  1
  In  In3  1  0.000000  0.254177  0.000000  1
  Cu  Cu4  1  0.000000  0.003502  0.500000  1
  Hg  Hg5  1  0.737380  0.742335  0.000000  1
  Hg  Hg6  1  0.262620  0.004954  0.000000  1
  Pd  Pd7  1  0.676646  0.332144  0.000000  1
  Pd  Pd8  1  0.323354  0.655499  0.000000  1
