# generated using pymatgen
data_Ba6Tb(IrO6)2
_symmetry_space_group_name_H-M   'P 1'
_cell_length_a   9.28486620
_cell_length_b   9.28486492
_cell_length_c   7.43160740
_cell_angle_alpha   67.98373702
_cell_angle_beta   67.98373769
_cell_angle_gamma   36.86451673
_symmetry_Int_Tables_number   1
_chemical_formula_structural   Ba6Tb(IrO6)2
_chemical_formula_sum   'Ba6 Tb1 Ir2 O12'
_cell_volume   353.07497723
_cell_formula_units_Z   1
loop_
 _symmetry_equiv_pos_site_id
 _symmetry_equiv_pos_as_xyz
  1  'x, y, z'
loop_
 _atom_site_type_symbol
 _atom_site_label
 _atom_site_symmetry_multiplicity
 _atom_site_fract_x
 _atom_site_fract_y
 _atom_site_fract_z
 _atom_site_occupancy
  Ba  Ba0  1  0.880501  0.880501  0.710929  1
  Ba  Ba1  1  0.216245  0.216245  0.707134  1
  Ba  Ba2  1  0.549141  0.549141  0.704625  1
  Ba  Ba3  1  0.450859  0.450859  0.295375  1
  Ba  Ba4  1  0.783755  0.783755  0.292866  1
  Ba  Ba5  1  0.119499  0.119499  0.289071  1
  Tb  Tb6  1  0.000000  0.000000  0.000000  1
  Ir  Ir7  1  0.670584  0.670584  0.999486  1
  Ir  Ir8  1  0.329416  0.329416  0.000514  1
  O  O9  1  0.942354  0.942354  0.333565  1
  O  O10  1  0.281808  0.281808  0.305555  1
  O  O11  1  0.617537  0.617537  0.303576  1
  O  O12  1  0.382463  0.382463  0.696424  1
  O  O13  1  0.718192  0.718192  0.694445  1
  O  O14  1  0.057646  0.057646  0.666435  1
  O  O15  1  0.500000  0.000000  0.000000  1
  O  O16  1  0.823595  0.356700  0.998844  1
  O  O17  1  0.176405  0.643300  0.001156  1
  O  O18  1  0.000000  0.500000  0.000000  1
  O  O19  1  0.356700  0.823595  0.998844  1
  O  O20  1  0.643300  0.176405  0.001156  1
