# generated using pymatgen
data_Dy5Y2P12Ir2Rh15
_symmetry_space_group_name_H-M   'P 1'
_cell_length_a   12.82835200
_cell_length_b   12.96364292
_cell_length_c   3.95480200
_cell_angle_alpha   90.00000000
_cell_angle_beta   90.00000000
_cell_angle_gamma   119.65536516
_symmetry_Int_Tables_number   1
_chemical_formula_structural   Dy5Y2P12Ir2Rh15
_chemical_formula_sum   'Dy5 Y2 P12 Ir2 Rh15'
_cell_volume   571.54582696
_cell_formula_units_Z   1
loop_
 _symmetry_equiv_pos_site_id
 _symmetry_equiv_pos_as_xyz
  1  'x, y, z'
loop_
 _atom_site_type_symbol
 _atom_site_label
 _atom_site_symmetry_multiplicity
 _atom_site_fract_x
 _atom_site_fract_y
 _atom_site_fract_z
 _atom_site_occupancy
  Dy  Dy0  1  0.330755  0.663403  0.500000  1
  Dy  Dy1  1  0.667353  0.336597  0.500000  1
  Dy  Dy2  1  0.000794  0.815613  0.000000  1
  Dy  Dy3  1  0.185180  0.184387  0.000000  1
  Dy  Dy4  1  0.809677  0.000000  0.000000  1
  Y  Y5  1  0.998122  0.443095  0.500000  1
  Y  Y6  1  0.555027  0.556905  0.500000  1
  P  P7  1  0.008256  0.656540  0.500000  1
  P  P8  1  0.351717  0.343460  0.500000  1
  P  P9  1  0.638196  0.000000  0.500000  1
  P  P10  1  0.514784  0.690894  0.000000  1
  P  P11  1  0.312881  0.829928  0.000000  1
  P  P12  1  0.170622  0.481390  0.000000  1
  P  P13  1  0.482952  0.170072  0.000000  1
  P  P14  1  0.689233  0.518610  0.000000  1
  P  P15  1  0.823890  0.309106  0.000000  1
  P  P16  1  0.998722  0.174303  0.500000  1
  P  P17  1  0.824420  0.825697  0.500000  1
  P  P18  1  0.182791  0.000000  0.500000  1
  Ir  Ir19  1  0.285561  0.000000  0.000000  1
  Ir  Ir20  1  0.004746  0.000000  0.500000  1
  Rh  Rh21  1  0.507911  0.869045  0.000000  1
  Rh  Rh22  1  0.126250  0.649068  0.000000  1
  Rh  Rh23  1  0.355036  0.490813  0.000000  1
  Rh  Rh24  1  0.477183  0.350932  0.000000  1
  Rh  Rh25  1  0.864225  0.509187  0.000000  1
  Rh  Rh26  1  0.638868  0.130955  0.000000  1
  Rh  Rh27  1  0.459258  0.000000  0.500000  1
  Rh  Rh28  1  0.995588  0.270495  0.000000  1
  Rh  Rh29  1  0.725093  0.729505  0.000000  1
  Rh  Rh30  1  0.624533  0.811415  0.500000  1
  Rh  Rh31  1  0.206954  0.827382  0.500000  1
  Rh  Rh32  1  0.178789  0.366848  0.500000  1
  Rh  Rh33  1  0.379572  0.172618  0.500000  1
  Rh  Rh34  1  0.811942  0.633152  0.500000  1
  Rh  Rh35  1  0.813118  0.188585  0.500000  1
