# generated using pymatgen
data_Tb4MnTc2Ru5
_symmetry_space_group_name_H-M   'P 1'
_cell_length_a   5.28589923
_cell_length_b   5.14532026
_cell_length_c   9.06038800
_cell_angle_alpha   90.00000000
_cell_angle_beta   90.00000000
_cell_angle_gamma   117.55473020
_symmetry_Int_Tables_number   1
_chemical_formula_structural   Tb4MnTc2Ru5
_chemical_formula_sum   'Tb4 Mn1 Tc2 Ru5'
_cell_volume   218.46949433
_cell_formula_units_Z   1
loop_
 _symmetry_equiv_pos_site_id
 _symmetry_equiv_pos_as_xyz
  1  'x, y, z'
loop_
 _atom_site_type_symbol
 _atom_site_label
 _atom_site_symmetry_multiplicity
 _atom_site_fract_x
 _atom_site_fract_y
 _atom_site_fract_z
 _atom_site_occupancy
  Tb  Tb0  1  0.330612  0.666245  0.432948  1
  Tb  Tb1  1  0.672607  0.332642  0.564115  1
  Tb  Tb2  1  0.672607  0.332642  0.935885  1
  Tb  Tb3  1  0.330612  0.666245  0.067052  1
  Mn  Mn4  1  0.835391  0.164419  0.250000  1
  Tc  Tc5  1  0.158446  0.837528  0.750000  1
  Tc  Tc6  1  0.168686  0.348380  0.750000  1
  Ru  Ru7  1  0.009126  0.001221  0.497190  1
  Ru  Ru8  1  0.009126  0.001221  0.002810  1
  Ru  Ru9  1  0.822363  0.652253  0.250000  1
  Ru  Ru10  1  0.343506  0.174126  0.250000  1
  Ru  Ru11  1  0.646918  0.823078  0.750000  1
