# generated using pymatgen
data_Na2LiGaBi2
_symmetry_space_group_name_H-M   'P 1'
_cell_length_a   10.33157964
_cell_length_b   10.33157944
_cell_length_c   6.35267600
_cell_angle_alpha   90.00000000
_cell_angle_beta   90.00000000
_cell_angle_gamma   98.38600010
_symmetry_Int_Tables_number   1
_chemical_formula_structural   Na2LiGaBi2
_chemical_formula_sum   'Na8 Li4 Ga4 Bi8'
_cell_volume   670.84420566
_cell_formula_units_Z   4
loop_
 _symmetry_equiv_pos_site_id
 _symmetry_equiv_pos_as_xyz
  1  'x, y, z'
loop_
 _atom_site_type_symbol
 _atom_site_label
 _atom_site_symmetry_multiplicity
 _atom_site_fract_x
 _atom_site_fract_y
 _atom_site_fract_z
 _atom_site_occupancy
  Na  Na0  1  0.425551  0.074449  0.250000  1
  Na  Na1  1  0.074449  0.425551  0.750000  1
  Na  Na2  1  0.574449  0.925551  0.750000  1
  Na  Na3  1  0.325779  0.674221  0.277827  1
  Na  Na4  1  0.825779  0.174221  0.222173  1
  Na  Na5  1  0.674221  0.325779  0.722173  1
  Na  Na6  1  0.174221  0.825779  0.777827  1
  Na  Na7  1  0.925551  0.574449  0.250000  1
  Li  Li8  1  0.380414  0.380414  0.500000  1
  Li  Li9  1  0.119586  0.119586  0.000000  1
  Li  Li10  1  0.619586  0.619586  0.500000  1
  Li  Li11  1  0.880414  0.880414  0.000000  1
  Ga  Ga12  1  0.868148  0.868148  0.500000  1
  Ga  Ga13  1  0.131852  0.131852  0.500000  1
  Ga  Ga14  1  0.631852  0.631852  0.000000  1
  Ga  Ga15  1  0.368148  0.368148  0.000000  1
  Bi  Bi16  1  0.111486  0.888514  0.278039  1
  Bi  Bi17  1  0.611486  0.388514  0.221961  1
  Bi  Bi18  1  0.888514  0.111486  0.721961  1
  Bi  Bi19  1  0.388514  0.611486  0.778039  1
  Bi  Bi20  1  0.137350  0.362650  0.250000  1
  Bi  Bi21  1  0.362650  0.137350  0.750000  1
  Bi  Bi22  1  0.862650  0.637350  0.750000  1
  Bi  Bi23  1  0.637350  0.862650  0.250000  1
