# generated using pymatgen
data_NdEu(IO4)2
_symmetry_space_group_name_H-M   'P 1'
_cell_length_a   5.70520988
_cell_length_b   5.73039100
_cell_length_c   11.16286825
_cell_angle_alpha   90.00000000
_cell_angle_beta   89.31086567
_cell_angle_gamma   90.00000000
_symmetry_Int_Tables_number   1
_chemical_formula_structural   NdEu(IO4)2
_chemical_formula_sum   'Nd2 Eu2 I4 O16'
_cell_volume   364.92218470
_cell_formula_units_Z   2
loop_
 _symmetry_equiv_pos_site_id
 _symmetry_equiv_pos_as_xyz
  1  'x, y, z'
loop_
 _atom_site_type_symbol
 _atom_site_label
 _atom_site_symmetry_multiplicity
 _atom_site_fract_x
 _atom_site_fract_y
 _atom_site_fract_z
 _atom_site_occupancy
  Nd  Nd0  1  0.494443  0.313627  0.890331  1
  Nd  Nd1  1  0.505557  0.813627  0.109669  1
  Eu  Eu2  1  0.011132  0.813353  0.896289  1
  Eu  Eu3  1  0.988868  0.313353  0.103711  1
  I  I4  1  0.003214  0.327633  0.637443  1
  I  I5  1  0.996786  0.827633  0.362557  1
  I  I6  1  0.493632  0.826919  0.636090  1
  I  I7  1  0.506368  0.326919  0.363910  1
  O  O8  1  0.244587  0.066705  0.008768  1
  O  O9  1  0.755413  0.566705  0.991232  1
  O  O10  1  0.254754  0.565065  0.007353  1
  O  O11  1  0.745246  0.065065  0.992647  1
  O  O12  1  0.131476  0.431695  0.778696  1
  O  O13  1  0.868524  0.931695  0.221304  1
  O  O14  1  0.363565  0.933553  0.778200  1
  O  O15  1  0.636435  0.433553  0.221800  1
  O  O16  1  0.841240  0.087392  0.716417  1
  O  O17  1  0.158760  0.587392  0.283583  1
  O  O18  1  0.645453  0.580201  0.712701  1
  O  O19  1  0.354547  0.080201  0.287299  1
  O  O20  1  0.245391  0.163806  0.564525  1
  O  O21  1  0.754609  0.663806  0.435475  1
  O  O22  1  0.251348  0.666873  0.564582  1
  O  O23  1  0.748652  0.166873  0.435418  1
