# generated using pymatgen
data_Ho3ThMgFe
_symmetry_space_group_name_H-M   'P 1'
_cell_length_a   9.59119516
_cell_length_b   9.59119577
_cell_length_c   9.59119600
_cell_angle_alpha   60.00000611
_cell_angle_beta   60.00000401
_cell_angle_gamma   60.00000278
_symmetry_Int_Tables_number   1
_chemical_formula_structural   Ho3ThMgFe
_chemical_formula_sum   'Ho12 Th4 Mg4 Fe4'
_cell_volume   623.88320482
_cell_formula_units_Z   4
loop_
 _symmetry_equiv_pos_site_id
 _symmetry_equiv_pos_as_xyz
  1  'x, y, z'
loop_
 _atom_site_type_symbol
 _atom_site_label
 _atom_site_symmetry_multiplicity
 _atom_site_fract_x
 _atom_site_fract_y
 _atom_site_fract_z
 _atom_site_occupancy
  Ho  Ho0  1  0.813970  0.186030  0.186030  1
  Ho  Ho1  1  0.186030  0.813970  0.813970  1
  Ho  Ho2  1  0.186030  0.813970  0.186030  1
  Ho  Ho3  1  0.813970  0.186030  0.813970  1
  Ho  Ho4  1  0.186030  0.186030  0.813970  1
  Ho  Ho5  1  0.813970  0.813970  0.186030  1
  Ho  Ho6  1  0.936445  0.563555  0.563555  1
  Ho  Ho7  1  0.563555  0.936445  0.936445  1
  Ho  Ho8  1  0.563555  0.936445  0.563555  1
  Ho  Ho9  1  0.936445  0.563555  0.936445  1
  Ho  Ho10  1  0.563555  0.563555  0.936445  1
  Ho  Ho11  1  0.936445  0.936445  0.563555  1
  Th  Th12  1  0.343115  0.343115  0.343115  1
  Th  Th13  1  0.343115  0.343115  0.970657  1
  Th  Th14  1  0.343115  0.970657  0.343115  1
  Th  Th15  1  0.970657  0.343115  0.343115  1
  Mg  Mg16  1  0.579586  0.579586  0.579586  1
  Mg  Mg17  1  0.579586  0.579586  0.261240  1
  Mg  Mg18  1  0.579586  0.261240  0.579586  1
  Mg  Mg19  1  0.261240  0.579586  0.579586  1
  Fe  Fe20  1  0.144105  0.144105  0.144105  1
  Fe  Fe21  1  0.144105  0.144105  0.567686  1
  Fe  Fe22  1  0.144105  0.567686  0.144105  1
  Fe  Fe23  1  0.567686  0.144105  0.144105  1
