# generated using pymatgen
data_Ba3PbI2
_symmetry_space_group_name_H-M   'P 1'
_cell_length_a   17.24028346
_cell_length_b   16.45954425
_cell_length_c   8.92897298
_cell_angle_alpha   79.52960790
_cell_angle_beta   69.85387555
_cell_angle_gamma   30.61651868
_symmetry_Int_Tables_number   1
_chemical_formula_structural   Ba3PbI2
_chemical_formula_sum   'Ba12 Pb4 I8'
_cell_volume   1176.10152483
_cell_formula_units_Z   4
loop_
 _symmetry_equiv_pos_site_id
 _symmetry_equiv_pos_as_xyz
  1  'x, y, z'
loop_
 _atom_site_type_symbol
 _atom_site_label
 _atom_site_symmetry_multiplicity
 _atom_site_fract_x
 _atom_site_fract_y
 _atom_site_fract_z
 _atom_site_occupancy
  Ba  Ba0  1  0.032626  0.467374  0.467374  1
  Ba  Ba1  1  0.782626  0.217374  0.217374  1
  Ba  Ba2  1  0.092615  0.586342  0.934902  1
  Ba  Ba3  1  0.863858  0.315098  0.663658  1
  Ba  Ba4  1  0.586342  0.092615  0.386142  1
  Ba  Ba5  1  0.157385  0.663658  0.315098  1
  Ba  Ba6  1  0.315098  0.863858  0.157385  1
  Ba  Ba7  1  0.386142  0.934902  0.586342  1
  Ba  Ba8  1  0.217374  0.782626  0.782626  1
  Ba  Ba9  1  0.467374  0.032626  0.032626  1
  Ba  Ba10  1  0.934902  0.386142  0.092615  1
  Ba  Ba11  1  0.663658  0.157385  0.863858  1
  Pb  Pb12  1  0.333899  0.333899  0.166101  1
  Pb  Pb13  1  0.166101  0.166101  0.333899  1
  Pb  Pb14  1  0.083899  0.083899  0.916101  1
  Pb  Pb15  1  0.916101  0.916101  0.083899  1
  I  I16  1  0.578201  0.578201  0.421799  1
  I  I17  1  0.671799  0.671799  0.828201  1
  I  I18  1  0.253656  0.253656  0.746344  1
  I  I19  1  0.421799  0.421799  0.578201  1
  I  I20  1  0.996344  0.996344  0.503656  1
  I  I21  1  0.746344  0.746344  0.253656  1
  I  I22  1  0.828201  0.828201  0.671799  1
  I  I23  1  0.503656  0.503656  0.996344  1
