# generated using pymatgen
data_Ce4Mg(FeB3)2
_symmetry_space_group_name_H-M   'P 1'
_cell_length_a   5.29582548
_cell_length_b   5.29582662
_cell_length_c   8.48703545
_cell_angle_alpha   71.82048825
_cell_angle_beta   71.82049951
_cell_angle_gamma   59.99999635
_symmetry_Int_Tables_number   1
_chemical_formula_structural   Ce4Mg(FeB3)2
_chemical_formula_sum   'Ce4 Mg1 Fe2 B6'
_cell_volume   192.29438724
_cell_formula_units_Z   1
loop_
 _symmetry_equiv_pos_site_id
 _symmetry_equiv_pos_as_xyz
  1  'x, y, z'
loop_
 _atom_site_type_symbol
 _atom_site_label
 _atom_site_symmetry_multiplicity
 _atom_site_fract_x
 _atom_site_fract_y
 _atom_site_fract_z
 _atom_site_occupancy
  Ce  Ce0  1  0.746886  0.746886  0.759342  1
  Ce  Ce1  1  0.253114  0.253114  0.240658  1
  Ce  Ce2  1  0.586110  0.586110  0.241670  1
  Ce  Ce3  1  0.413890  0.413890  0.758330  1
  Mg  Mg4  1  0.000000  0.000000  0.000000  1
  Fe  Fe5  1  0.882296  0.882296  0.353113  1
  Fe  Fe6  1  0.117704  0.117704  0.646888  1
  B  B7  1  0.500000  0.167832  0.500000  1
  B  B8  1  0.832168  0.500000  0.500000  1
  B  B9  1  0.167832  0.832168  0.500000  1
  B  B10  1  0.167832  0.500000  0.500000  1
  B  B11  1  0.832168  0.167832  0.500000  1
  B  B12  1  0.500000  0.832168  0.500000  1
