# generated using pymatgen
data_Mg4Ni2As6IrRu4
_symmetry_space_group_name_H-M   'P 1'
_cell_length_a   7.00105967
_cell_length_b   6.94848701
_cell_length_c   6.94848519
_cell_angle_alpha   109.09877438
_cell_angle_beta   109.49440972
_cell_angle_gamma   109.51387539
_symmetry_Int_Tables_number   1
_chemical_formula_structural   Mg4Ni2As6IrRu4
_chemical_formula_sum   'Mg4 Ni2 As6 Ir1 Ru4'
_cell_volume   261.18566278
_cell_formula_units_Z   1
loop_
 _symmetry_equiv_pos_site_id
 _symmetry_equiv_pos_as_xyz
  1  'x, y, z'
loop_
 _atom_site_type_symbol
 _atom_site_label
 _atom_site_symmetry_multiplicity
 _atom_site_fract_x
 _atom_site_fract_y
 _atom_site_fract_z
 _atom_site_occupancy
  Mg  Mg0  1  0.000154  0.993700  0.500740  1
  Mg  Mg1  1  0.500079  0.003012  0.996837  1
  Mg  Mg2  1  0.000154  0.499413  0.006454  1
  Mg  Mg3  1  0.500079  0.503243  0.497068  1
  Ni  Ni4  1  0.243614  0.495573  0.748041  1
  Ni  Ni5  1  0.755484  0.251656  0.503828  1
  As  As6  1  0.692372  0.689362  0.003010  1
  As  As7  1  0.315114  0.314817  0.000297  1
  As  As8  1  0.996013  0.679914  0.689790  1
  As  As9  1  0.996013  0.306223  0.316099  1
  As  As10  1  0.690015  0.004043  0.685971  1
  As  As11  1  0.311787  0.002290  0.309497  1
  Ir  Ir12  1  0.250664  0.746632  0.504031  1
  Ru  Ru13  1  0.000158  0.000648  0.999510  1
  Ru  Ru14  1  0.498321  0.255454  0.741937  1
  Ru  Ru15  1  0.498321  0.756384  0.242867  1
  Ru  Ru16  1  0.751657  0.497636  0.254021  1
