# generated using pymatgen
data_Gd4Ho(In2Rh)2
_symmetry_space_group_name_H-M   'P 1'
_cell_length_a   3.56406700
_cell_length_b   7.98685500
_cell_length_c   18.19590900
_cell_angle_alpha   90.00000000
_cell_angle_beta   90.00000000
_cell_angle_gamma   90.00000000
_symmetry_Int_Tables_number   1
_chemical_formula_structural   Gd4Ho(In2Rh)2
_chemical_formula_sum   'Gd8 Ho2 In8 Rh4'
_cell_volume   517.95903825
_cell_formula_units_Z   2
loop_
 _symmetry_equiv_pos_site_id
 _symmetry_equiv_pos_as_xyz
  1  'x, y, z'
loop_
 _atom_site_type_symbol
 _atom_site_label
 _atom_site_symmetry_multiplicity
 _atom_site_fract_x
 _atom_site_fract_y
 _atom_site_fract_z
 _atom_site_occupancy
  Gd  Gd0  1  0.000000  0.745867  0.278862  1
  Gd  Gd1  1  0.000000  0.254133  0.721138  1
  Gd  Gd2  1  0.000000  0.754133  0.778862  1
  Gd  Gd3  1  0.000000  0.245867  0.221138  1
  Gd  Gd4  1  0.000000  0.620532  0.084920  1
  Gd  Gd5  1  0.000000  0.379468  0.915080  1
  Gd  Gd6  1  0.000000  0.879468  0.584920  1
  Gd  Gd7  1  0.000000  0.120532  0.415080  1
  Ho  Ho8  1  0.000000  0.500000  0.500000  1
  Ho  Ho9  1  0.000000  0.000000  0.000000  1
  In  In10  1  0.500000  0.710223  0.931551  1
  In  In11  1  0.500000  0.289777  0.068449  1
  In  In12  1  0.500000  0.789777  0.431551  1
  In  In13  1  0.500000  0.210223  0.568449  1
  In  In14  1  0.500000  0.566597  0.649222  1
  In  In15  1  0.500000  0.433403  0.350778  1
  In  In16  1  0.500000  0.933403  0.149222  1
  In  In17  1  0.500000  0.066597  0.850778  1
  Rh  Rh18  1  0.500000  0.523762  0.195101  1
  Rh  Rh19  1  0.500000  0.476238  0.804899  1
  Rh  Rh20  1  0.500000  0.976238  0.695101  1
  Rh  Rh21  1  0.500000  0.023762  0.304899  1
