# generated using pymatgen
data_Ba2CeAlSe5
_symmetry_space_group_name_H-M   'P 1'
_cell_length_a   7.44784005
_cell_length_b   8.96894236
_cell_length_c   9.67791368
_cell_angle_alpha   103.70992923
_cell_angle_beta   102.67183021
_cell_angle_gamma   107.73956547
_symmetry_Int_Tables_number   1
_chemical_formula_structural   Ba2CeAlSe5
_chemical_formula_sum   'Ba4 Ce2 Al2 Se10'
_cell_volume   567.71872219
_cell_formula_units_Z   2
loop_
 _symmetry_equiv_pos_site_id
 _symmetry_equiv_pos_as_xyz
  1  'x, y, z'
loop_
 _atom_site_type_symbol
 _atom_site_label
 _atom_site_symmetry_multiplicity
 _atom_site_fract_x
 _atom_site_fract_y
 _atom_site_fract_z
 _atom_site_occupancy
  Ba  Ba0  1  0.633840  0.978051  0.293836  1
  Ba  Ba1  1  0.366160  0.021949  0.706164  1
  Ba  Ba2  1  0.340244  0.508939  0.703859  1
  Ba  Ba3  1  0.659756  0.491061  0.296141  1
  Ce  Ce4  1  0.997431  0.732447  0.997736  1
  Ce  Ce5  1  0.002569  0.267553  0.002264  1
  Al  Al6  1  0.806430  0.872334  0.688494  1
  Al  Al7  1  0.193570  0.127666  0.311506  1
  Se  Se8  1  0.987225  0.689942  0.679989  1
  Se  Se9  1  0.012775  0.310058  0.320011  1
  Se  Se10  1  0.983289  0.144338  0.684367  1
  Se  Se11  1  0.016711  0.855662  0.315633  1
  Se  Se12  1  0.706090  0.904751  0.917202  1
  Se  Se13  1  0.293910  0.095249  0.082798  1
  Se  Se14  1  0.697788  0.408231  0.945280  1
  Se  Se15  1  0.302212  0.591769  0.054720  1
  Se  Se16  1  0.496809  0.743832  0.495987  1
  Se  Se17  1  0.503191  0.256168  0.504013  1
