# generated using pymatgen
data_Y3Er5B24MoRu3
_symmetry_space_group_name_H-M   'P 1'
_cell_length_a   3.64930600
_cell_length_b   9.14628136
_cell_length_c   11.54057303
_cell_angle_alpha   89.87201230
_cell_angle_beta   90.00000000
_cell_angle_gamma   90.00000000
_symmetry_Int_Tables_number   1
_chemical_formula_structural   Y3Er5B24MoRu3
_chemical_formula_sum   'Y3 Er5 B24 Mo1 Ru3'
_cell_volume   385.19543232
_cell_formula_units_Z   1
loop_
 _symmetry_equiv_pos_site_id
 _symmetry_equiv_pos_as_xyz
  1  'x, y, z'
loop_
 _atom_site_type_symbol
 _atom_site_label
 _atom_site_symmetry_multiplicity
 _atom_site_fract_x
 _atom_site_fract_y
 _atom_site_fract_z
 _atom_site_occupancy
  Y  Y0  1  0.000000  0.322110  0.413479  1
  Y  Y1  1  0.000000  0.677612  0.584688  1
  Y  Y2  1  0.000000  0.820434  0.087212  1
  Er  Er3  1  0.000000  0.177212  0.914906  1
  Er  Er4  1  0.000000  0.945272  0.372251  1
  Er  Er5  1  0.000000  0.058158  0.629494  1
  Er  Er6  1  0.000000  0.442561  0.126783  1
  Er  Er7  1  0.000000  0.556951  0.870373  1
  B  B8  1  0.500000  0.551350  0.435228  1
  B  B9  1  0.500000  0.445828  0.568470  1
  B  B10  1  0.500000  0.053925  0.066936  1
  B  B11  1  0.500000  0.946369  0.932923  1
  B  B12  1  0.500000  0.751162  0.421083  1
  B  B13  1  0.500000  0.251906  0.581857  1
  B  B14  1  0.500000  0.248115  0.080098  1
  B  B15  1  0.500000  0.751290  0.918443  1
  B  B16  1  0.500000  0.794214  0.264705  1
  B  B17  1  0.500000  0.208888  0.735049  1
  B  B18  1  0.500000  0.290401  0.232700  1
  B  B19  1  0.500000  0.709782  0.765809  1
  B  B20  1  0.500000  0.630922  0.183169  1
  B  B21  1  0.500000  0.368255  0.815234  1
  B  B22  1  0.500000  0.131022  0.313759  1
  B  B23  1  0.500000  0.870150  0.685853  1
  B  B24  1  0.500000  0.983596  0.212672  1
  B  B25  1  0.500000  0.017590  0.788419  1
  B  B26  1  0.500000  0.478462  0.286281  1
  B  B27  1  0.500000  0.516197  0.713080  1
  B  B28  1  0.500000  0.604530  0.027342  1
  B  B29  1  0.500000  0.393789  0.969758  1
  B  B30  1  0.500000  0.105943  0.471589  1
  B  B31  1  0.500000  0.897266  0.530074  1
  Mo  Mo32  1  0.000000  0.637630  0.320808  1
  Ru  Ru33  1  0.000000  0.360562  0.681172  1
  Ru  Ru34  1  0.000000  0.137843  0.177587  1
  Ru  Ru35  1  0.000000  0.862703  0.820717  1
