# generated using pymatgen
data_Cs6Na4Zr2As5P
_symmetry_space_group_name_H-M   'P 1'
_cell_length_a   11.14071302
_cell_length_b   11.13343583
_cell_length_c   16.81458738
_cell_angle_alpha   89.96975035
_cell_angle_beta   90.04512981
_cell_angle_gamma   142.84161164
_symmetry_Int_Tables_number   1
_chemical_formula_structural   Cs6Na4Zr2As5P
_chemical_formula_sum   'Cs12 Na8 Zr4 As10 P2'
_cell_volume   1259.73711920
_cell_formula_units_Z   2
loop_
 _symmetry_equiv_pos_site_id
 _symmetry_equiv_pos_as_xyz
  1  'x, y, z'
loop_
 _atom_site_type_symbol
 _atom_site_label
 _atom_site_symmetry_multiplicity
 _atom_site_fract_x
 _atom_site_fract_y
 _atom_site_fract_z
 _atom_site_occupancy
  Cs  Cs0  1  0.948243  0.608285  0.824366  1
  Cs  Cs1  1  0.552469  0.891712  0.326599  1
  Cs  Cs2  1  0.391507  0.051622  0.175328  1
  Cs  Cs3  1  0.051813  0.391658  0.176303  1
  Cs  Cs4  1  0.891881  0.551122  0.325780  1
  Cs  Cs5  1  0.447475  0.107929  0.673654  1
  Cs  Cs6  1  0.608314  0.948428  0.824229  1
  Cs  Cs7  1  0.279498  0.282359  0.317513  1
  Cs  Cs8  1  0.782759  0.782261  0.185197  1
  Cs  Cs9  1  0.217515  0.217517  0.815499  1
  Cs  Cs10  1  0.717969  0.718599  0.682965  1
  Cs  Cs11  1  0.108084  0.447258  0.674087  1
  Na  Na12  1  0.919971  0.080437  0.000128  1
  Na  Na13  1  0.580797  0.421907  0.499374  1
  Na  Na14  1  0.080153  0.919632  0.000048  1
  Na  Na15  1  0.419072  0.579852  0.498476  1
  Na  Na16  1  0.754489  0.245626  0.000086  1
  Na  Na17  1  0.749656  0.255471  0.499005  1
  Na  Na18  1  0.245789  0.754638  0.000105  1
  Na  Na19  1  0.252318  0.742820  0.499416  1
  Zr  Zr20  1  0.585888  0.414174  0.000297  1
  Zr  Zr21  1  0.914977  0.086388  0.497821  1
  Zr  Zr22  1  0.414215  0.585900  0.000295  1
  Zr  Zr23  1  0.082794  0.913768  0.498407  1
  As  As24  1  0.872011  0.559692  0.092132  1
  As  As25  1  0.440225  0.128062  0.908470  1
  As  As26  1  0.626572  0.938864  0.590212  1
  As  As27  1  0.938735  0.627563  0.590490  1
  As  As28  1  0.128062  0.440423  0.908456  1
  As  As29  1  0.560024  0.871848  0.092413  1
  As  As30  1  0.370539  0.059440  0.406746  1
  As  As31  1  0.201034  0.201368  0.583045  1
  As  As32  1  0.699067  0.699218  0.916092  1
  As  As33  1  0.300801  0.300793  0.084501  1
  P  P34  1  0.057746  0.365318  0.411473  1
  P  P35  1  0.807539  0.808047  0.420993  1
