# generated using pymatgen
data_Be8V2MoOs
_symmetry_space_group_name_H-M   'P 1'
_cell_length_a   4.35432800
_cell_length_b   4.35432829
_cell_length_c   7.14510200
_cell_angle_alpha   90.00000000
_cell_angle_beta   90.00000000
_cell_angle_gamma   119.99999779
_symmetry_Int_Tables_number   1
_chemical_formula_structural   Be8V2MoOs
_chemical_formula_sum   'Be8 V2 Mo1 Os1'
_cell_volume   117.32252026
_cell_formula_units_Z   1
loop_
 _symmetry_equiv_pos_site_id
 _symmetry_equiv_pos_as_xyz
  1  'x, y, z'
loop_
 _atom_site_type_symbol
 _atom_site_label
 _atom_site_symmetry_multiplicity
 _atom_site_fract_x
 _atom_site_fract_y
 _atom_site_fract_z
 _atom_site_occupancy
  Be  Be0  1  0.000000  0.000000  0.000929  1
  Be  Be1  1  0.000000  0.000000  0.499065  1
  Be  Be2  1  0.830462  0.660924  0.248070  1
  Be  Be3  1  0.169492  0.830508  0.751889  1
  Be  Be4  1  0.661016  0.830508  0.751889  1
  Be  Be5  1  0.339076  0.169538  0.248070  1
  Be  Be6  1  0.830462  0.169538  0.248070  1
  Be  Be7  1  0.169492  0.338984  0.751889  1
  V  V8  1  0.666667  0.333333  0.938448  1
  V  V9  1  0.333333  0.666667  0.434295  1
  Mo  Mo10  1  0.666667  0.333333  0.563791  1
  Os  Os11  1  0.333333  0.666667  0.063593  1
