# generated using pymatgen
data_Ba5As4
_symmetry_space_group_name_H-M   'P 1'
_cell_length_a   9.58646406
_cell_length_b   9.58646345
_cell_length_c   8.73520600
_cell_angle_alpha   90.00000000
_cell_angle_beta   90.00000000
_cell_angle_gamma   126.29845316
_symmetry_Int_Tables_number   1
_chemical_formula_structural   Ba5As4
_chemical_formula_sum   'Ba10 As8'
_cell_volume   646.98621773
_cell_formula_units_Z   2
loop_
 _symmetry_equiv_pos_site_id
 _symmetry_equiv_pos_as_xyz
  1  'x, y, z'
loop_
 _atom_site_type_symbol
 _atom_site_label
 _atom_site_symmetry_multiplicity
 _atom_site_fract_x
 _atom_site_fract_y
 _atom_site_fract_z
 _atom_site_occupancy
  Ba  Ba0  1  0.500000  0.500000  0.500000  1
  Ba  Ba1  1  0.000000  0.000000  0.000000  1
  Ba  Ba2  1  0.314887  0.021473  0.663122  1
  Ba  Ba3  1  0.521473  0.814887  0.836878  1
  Ba  Ba4  1  0.185113  0.478527  0.163122  1
  Ba  Ba5  1  0.978527  0.685113  0.336878  1
  Ba  Ba6  1  0.685113  0.978527  0.336878  1
  Ba  Ba7  1  0.478527  0.185113  0.163122  1
  Ba  Ba8  1  0.814887  0.521473  0.836878  1
  Ba  Ba9  1  0.021473  0.314887  0.663122  1
  As  As10  1  0.895218  0.895218  0.604807  1
  As  As11  1  0.395218  0.395218  0.895193  1
  As  As12  1  0.604782  0.604782  0.104807  1
  As  As13  1  0.104782  0.104782  0.395193  1
  As  As14  1  0.197837  0.802163  0.000000  1
  As  As15  1  0.302163  0.697837  0.500000  1
  As  As16  1  0.802163  0.197837  0.000000  1
  As  As17  1  0.697837  0.302163  0.500000  1
