# generated using pymatgen
data_Dy10Zn3CuB16
_symmetry_space_group_name_H-M   'P 1'
_cell_length_a   7.16851321
_cell_length_b   7.16851321
_cell_length_c   8.44312400
_cell_angle_alpha   90.00000000
_cell_angle_beta   90.00000000
_cell_angle_gamma   89.93343679
_symmetry_Int_Tables_number   1
_chemical_formula_structural   Dy10Zn3CuB16
_chemical_formula_sum   'Dy10 Zn3 Cu1 B16'
_cell_volume   433.87143100
_cell_formula_units_Z   1
loop_
 _symmetry_equiv_pos_site_id
 _symmetry_equiv_pos_as_xyz
  1  'x, y, z'
loop_
 _atom_site_type_symbol
 _atom_site_label
 _atom_site_symmetry_multiplicity
 _atom_site_fract_x
 _atom_site_fract_y
 _atom_site_fract_z
 _atom_site_occupancy
  Dy  Dy0  1  0.681390  0.181390  0.212534  1
  Dy  Dy1  1  0.317692  0.817692  0.788087  1
  Dy  Dy2  1  0.317692  0.817692  0.211913  1
  Dy  Dy3  1  0.818413  0.681134  0.212637  1
  Dy  Dy4  1  0.818413  0.681134  0.787363  1
  Dy  Dy5  1  0.681390  0.181390  0.787466  1
  Dy  Dy6  1  0.181134  0.318413  0.787363  1
  Dy  Dy7  1  0.181134  0.318413  0.212637  1
  Dy  Dy8  1  0.001637  0.992330  0.500000  1
  Dy  Dy9  1  0.492330  0.501637  0.500000  1
  Zn  Zn10  1  0.889236  0.389236  0.500000  1
  Zn  Zn11  1  0.381297  0.117749  0.500000  1
  Zn  Zn12  1  0.617749  0.881297  0.500000  1
  Cu  Cu13  1  0.124469  0.624469  0.500000  1
  B  B14  1  0.171704  0.040309  0.000000  1
  B  B15  1  0.827734  0.959171  0.000000  1
  B  B16  1  0.959037  0.171997  0.000000  1
  B  B17  1  0.327548  0.540464  0.000000  1
  B  B18  1  0.040464  0.827548  0.000000  1
  B  B19  1  0.671997  0.459037  0.000000  1
  B  B20  1  0.540309  0.671704  0.000000  1
  B  B21  1  0.459171  0.327734  0.000000  1
  B  B22  1  0.090323  0.590323  0.000000  1
  B  B23  1  0.909284  0.409284  0.000000  1
  B  B24  1  0.409370  0.090222  0.000000  1
  B  B25  1  0.590222  0.909370  0.000000  1
  B  B26  1  0.999691  0.999739  0.156388  1
  B  B27  1  0.999691  0.999739  0.843612  1
  B  B28  1  0.499739  0.499691  0.843612  1
  B  B29  1  0.499739  0.499691  0.156388  1
