# generated using pymatgen
data_PrPb6ClO7
_symmetry_space_group_name_H-M   'P 1'
_cell_length_a   10.45883651
_cell_length_b   10.45883690
_cell_length_c   9.80228406
_cell_angle_alpha   63.88617093
_cell_angle_beta   116.11382824
_cell_angle_gamma   133.96625056
_symmetry_Int_Tables_number   1
_chemical_formula_structural   PrPb6ClO7
_chemical_formula_sum   'Pr2 Pb12 Cl2 O14'
_cell_volume   677.77602040
_cell_formula_units_Z   2
loop_
 _symmetry_equiv_pos_site_id
 _symmetry_equiv_pos_as_xyz
  1  'x, y, z'
loop_
 _atom_site_type_symbol
 _atom_site_label
 _atom_site_symmetry_multiplicity
 _atom_site_fract_x
 _atom_site_fract_y
 _atom_site_fract_z
 _atom_site_occupancy
  Pr  Pr0  1  0.499999  0.999999  0.000000  1
  Pr  Pr1  1  0.999999  0.499999  0.000000  1
  Pb  Pb2  1  0.364101  0.098568  0.560866  1
  Pb  Pb3  1  0.098568  0.364101  0.439135  1
  Pb  Pb4  1  0.635898  0.901431  0.439135  1
  Pb  Pb5  1  0.901431  0.635898  0.560866  1
  Pb  Pb6  1  0.563540  0.436461  0.762662  1
  Pb  Pb7  1  0.436461  0.563540  0.237338  1
  Pb  Pb8  1  0.344209  0.655792  0.796371  1
  Pb  Pb9  1  0.655792  0.344209  0.203629  1
  Pb  Pb10  1  0.796322  0.203679  0.727026  1
  Pb  Pb11  1  0.203680  0.796322  0.272974  1
  Pb  Pb12  1  0.057239  0.942763  0.831162  1
  Pb  Pb13  1  0.942763  0.057238  0.168838  1
  Cl  Cl14  1  0.733296  0.733296  0.000000  1
  Cl  Cl15  1  0.266703  0.266703  0.000000  1
  O  O16  1  0.182691  0.817310  0.030942  1
  O  O17  1  0.817311  0.182691  0.969058  1
  O  O18  1  0.653081  0.346921  0.622108  1
  O  O19  1  0.346921  0.653081  0.377893  1
  O  O20  1  0.332885  0.111236  0.762278  1
  O  O21  1  0.111236  0.332885  0.237722  1
  O  O22  1  0.667115  0.888764  0.237722  1
  O  O23  1  0.888765  0.667115  0.762278  1
  O  O24  1  0.475905  0.959763  0.743344  1
  O  O25  1  0.959763  0.475905  0.256655  1
  O  O26  1  0.524094  0.040236  0.256655  1
  O  O27  1  0.040236  0.524094  0.743344  1
  O  O28  1  0.670893  0.329109  0.989349  1
  O  O29  1  0.329109  0.670893  0.010651  1
