# generated using pymatgen
data_Ce3GeRh3Au2
_symmetry_space_group_name_H-M   'P 1'
_cell_length_a   7.38148500
_cell_length_b   7.47903931
_cell_length_c   3.85891400
_cell_angle_alpha   90.00000000
_cell_angle_beta   90.00000000
_cell_angle_gamma   119.56944353
_symmetry_Int_Tables_number   1
_chemical_formula_structural   Ce3GeRh3Au2
_chemical_formula_sum   'Ce3 Ge1 Rh3 Au2'
_cell_volume   185.29052201
_cell_formula_units_Z   1
loop_
 _symmetry_equiv_pos_site_id
 _symmetry_equiv_pos_as_xyz
  1  'x, y, z'
loop_
 _atom_site_type_symbol
 _atom_site_label
 _atom_site_symmetry_multiplicity
 _atom_site_fract_x
 _atom_site_fract_y
 _atom_site_fract_z
 _atom_site_occupancy
  Ce  Ce0  1  0.403623  0.000000  0.500000  1
  Ce  Ce1  1  0.002138  0.397379  0.500000  1
  Ce  Ce2  1  0.604759  0.602621  0.500000  1
  Ge  Ge3  1  0.730866  0.000000  0.000000  1
  Rh  Rh4  1  0.361873  0.676445  0.000000  1
  Rh  Rh5  1  0.685429  0.323555  0.000000  1
  Rh  Rh6  1  0.940217  0.000000  0.500000  1
  Au  Au7  1  0.011763  0.752431  0.000000  1
  Au  Au8  1  0.259332  0.247569  0.000000  1
