# generated using pymatgen
data_Ho3(Cd2Ga)2
_symmetry_space_group_name_H-M   'P 1'
_cell_length_a   7.32089500
_cell_length_b   7.32089521
_cell_length_c   4.45688000
_cell_angle_alpha   90.00000000
_cell_angle_beta   90.00000000
_cell_angle_gamma   120.00000358
_symmetry_Int_Tables_number   1
_chemical_formula_structural   Ho3(Cd2Ga)2
_chemical_formula_sum   'Ho3 Cd4 Ga2'
_cell_volume   206.86638511
_cell_formula_units_Z   1
loop_
 _symmetry_equiv_pos_site_id
 _symmetry_equiv_pos_as_xyz
  1  'x, y, z'
loop_
 _atom_site_type_symbol
 _atom_site_label
 _atom_site_symmetry_multiplicity
 _atom_site_fract_x
 _atom_site_fract_y
 _atom_site_fract_z
 _atom_site_occupancy
  Ho  Ho0  1  0.570167  0.000000  0.000000  1
  Ho  Ho1  1  0.000000  0.570167  0.000000  1
  Ho  Ho2  1  0.429833  0.429833  0.000000  1
  Cd  Cd3  1  0.253246  0.000000  0.500000  1
  Cd  Cd4  1  0.000000  0.253246  0.500000  1
  Cd  Cd5  1  0.746754  0.746754  0.500000  1
  Cd  Cd6  1  0.000000  0.000000  0.000000  1
  Ga  Ga7  1  0.333333  0.666667  0.500000  1
  Ga  Ga8  1  0.666667  0.333333  0.500000  1
