# generated using pymatgen
data_Ho3Tm13(In3Ir)2
_symmetry_space_group_name_H-M   'P 1'
_cell_length_a   10.30255000
_cell_length_b   10.30254998
_cell_length_c   7.00825500
_cell_angle_alpha   90.00000000
_cell_angle_beta   90.00000000
_cell_angle_gamma   120.00000007
_symmetry_Int_Tables_number   1
_chemical_formula_structural   Ho3Tm13(In3Ir)2
_chemical_formula_sum   'Ho3 Tm13 In6 Ir2'
_cell_volume   644.21374673
_cell_formula_units_Z   1
loop_
 _symmetry_equiv_pos_site_id
 _symmetry_equiv_pos_as_xyz
  1  'x, y, z'
loop_
 _atom_site_type_symbol
 _atom_site_label
 _atom_site_symmetry_multiplicity
 _atom_site_fract_x
 _atom_site_fract_y
 _atom_site_fract_z
 _atom_site_occupancy
  Ho  Ho0  1  0.532831  0.065664  0.514704  1
  Ho  Ho1  1  0.934336  0.467169  0.514704  1
  Ho  Ho2  1  0.532831  0.467169  0.514704  1
  Tm  Tm3  1  0.466299  0.932596  0.015027  1
  Tm  Tm4  1  0.067404  0.533701  0.015027  1
  Tm  Tm5  1  0.466299  0.533701  0.015027  1
  Tm  Tm6  1  0.176787  0.353573  0.721252  1
  Tm  Tm7  1  0.646427  0.823213  0.721252  1
  Tm  Tm8  1  0.176787  0.823213  0.721252  1
  Tm  Tm9  1  0.823210  0.646421  0.219353  1
  Tm  Tm10  1  0.353579  0.176790  0.219353  1
  Tm  Tm11  1  0.823210  0.176790  0.219353  1
  Tm  Tm12  1  0.666667  0.333333  0.897171  1
  Tm  Tm13  1  0.333333  0.666667  0.396771  1
  Tm  Tm14  1  0.000000  0.000000  0.500456  1
  Tm  Tm15  1  0.000000  0.000000  0.000902  1
  In  In16  1  0.837522  0.675044  0.762134  1
  In  In17  1  0.324956  0.162478  0.762134  1
  In  In18  1  0.837522  0.162478  0.762134  1
  In  In19  1  0.162843  0.325687  0.261426  1
  In  In20  1  0.674313  0.837157  0.261426  1
  In  In21  1  0.162843  0.837157  0.261426  1
  Ir  Ir22  1  0.666667  0.333333  0.290034  1
  Ir  Ir23  1  0.333333  0.666667  0.790985  1
