# generated using pymatgen
data_Zr6Ga6Pd5Pt
_symmetry_space_group_name_H-M   'P 1'
_cell_length_a   7.24169000
_cell_length_b   7.24169043
_cell_length_c   7.07370600
_cell_angle_alpha   90.00000000
_cell_angle_beta   90.00000000
_cell_angle_gamma   119.99999805
_symmetry_Int_Tables_number   1
_chemical_formula_structural   Zr6Ga6Pd5Pt
_chemical_formula_sum   'Zr6 Ga6 Pd5 Pt1'
_cell_volume   321.26064791
_cell_formula_units_Z   1
loop_
 _symmetry_equiv_pos_site_id
 _symmetry_equiv_pos_as_xyz
  1  'x, y, z'
loop_
 _atom_site_type_symbol
 _atom_site_label
 _atom_site_symmetry_multiplicity
 _atom_site_fract_x
 _atom_site_fract_y
 _atom_site_fract_z
 _atom_site_occupancy
  Zr  Zr0  1  0.387881  0.410348  0.750949  1
  Zr  Zr1  1  0.022468  0.612119  0.750949  1
  Zr  Zr2  1  0.589652  0.977532  0.750949  1
  Zr  Zr3  1  0.611030  0.020474  0.249461  1
  Zr  Zr4  1  0.979526  0.590556  0.249461  1
  Zr  Zr5  1  0.409444  0.388970  0.249461  1
  Ga  Ga6  1  0.268521  0.002072  0.000570  1
  Ga  Ga7  1  0.733551  0.731479  0.000570  1
  Ga  Ga8  1  0.997928  0.266449  0.000570  1
  Ga  Ga9  1  0.732066  0.732206  0.500315  1
  Ga  Ga10  1  0.267794  0.999860  0.500315  1
  Ga  Ga11  1  0.000140  0.267934  0.500315  1
  Pd  Pd12  1  0.666667  0.333333  0.967790  1
  Pd  Pd13  1  0.000000  0.000000  0.750742  1
  Pd  Pd14  1  0.666667  0.333333  0.532697  1
  Pd  Pd15  1  0.333333  0.666667  0.465328  1
  Pd  Pd16  1  0.000000  0.000000  0.249994  1
  Pt  Pt17  1  0.333333  0.666667  0.029565  1
