# generated using pymatgen
data_Y14Th2MgCd3Ni4
_symmetry_space_group_name_H-M   'P 1'
_cell_length_a   9.63593188
_cell_length_b   9.63593335
_cell_length_c   9.69202338
_cell_angle_alpha   59.93838221
_cell_angle_beta   59.93837549
_cell_angle_gamma   59.86663460
_symmetry_Int_Tables_number   1
_chemical_formula_structural   Y14Th2MgCd3Ni4
_chemical_formula_sum   'Y14 Th2 Mg1 Cd3 Ni4'
_cell_volume   635.10130546
_cell_formula_units_Z   1
loop_
 _symmetry_equiv_pos_site_id
 _symmetry_equiv_pos_as_xyz
  1  'x, y, z'
loop_
 _atom_site_type_symbol
 _atom_site_label
 _atom_site_symmetry_multiplicity
 _atom_site_fract_x
 _atom_site_fract_y
 _atom_site_fract_z
 _atom_site_occupancy
  Y  Y0  1  0.597778  0.202369  0.599790  1
  Y  Y1  1  0.202369  0.597778  0.599790  1
  Y  Y2  1  0.060639  0.440389  0.440032  1
  Y  Y3  1  0.439637  0.063107  0.062459  1
  Y  Y4  1  0.440389  0.060639  0.440032  1
  Y  Y5  1  0.063107  0.439637  0.062459  1
  Y  Y6  1  0.439839  0.439839  0.061526  1
  Y  Y7  1  0.062761  0.062761  0.438158  1
  Y  Y8  1  0.187573  0.815679  0.815850  1
  Y  Y9  1  0.813593  0.186588  0.184315  1
  Y  Y10  1  0.815679  0.187573  0.815850  1
  Y  Y11  1  0.186588  0.813593  0.184315  1
  Y  Y12  1  0.813990  0.813990  0.187445  1
  Y  Y13  1  0.185575  0.185575  0.814749  1
  Th  Th14  1  0.593495  0.593495  0.598905  1
  Th  Th15  1  0.593016  0.593016  0.212891  1
  Mg  Mg16  1  0.826220  0.826220  0.825721  1
  Cd  Cd17  1  0.832673  0.832673  0.503655  1
  Cd  Cd18  1  0.833115  0.504376  0.830608  1
  Cd  Cd19  1  0.504376  0.833115  0.830608  1
  Ni  Ni20  1  0.395807  0.395807  0.386629  1
  Ni  Ni21  1  0.394239  0.394239  0.821120  1
  Ni  Ni22  1  0.398977  0.818562  0.391546  1
  Ni  Ni23  1  0.818562  0.398977  0.391546  1
