# generated using pymatgen
data_KNi6(BIr)6
_symmetry_space_group_name_H-M   'P 1'
_cell_length_a   6.32460501
_cell_length_b   6.32460434
_cell_length_c   6.32460518
_cell_angle_alpha   103.38635799
_cell_angle_beta   103.38635455
_cell_angle_gamma   103.38633359
_symmetry_Int_Tables_number   1
_chemical_formula_structural   KNi6(BIr)6
_chemical_formula_sum   'K1 Ni6 B6 Ir6'
_cell_volume   228.30445880
_cell_formula_units_Z   1
loop_
 _symmetry_equiv_pos_site_id
 _symmetry_equiv_pos_as_xyz
  1  'x, y, z'
loop_
 _atom_site_type_symbol
 _atom_site_label
 _atom_site_symmetry_multiplicity
 _atom_site_fract_x
 _atom_site_fract_y
 _atom_site_fract_z
 _atom_site_occupancy
  K  K0  1  0.000000  0.000000  0.000000  1
  Ni  Ni1  1  0.541496  0.800503  0.541496  1
  Ni  Ni2  1  0.541496  0.541496  0.800503  1
  Ni  Ni3  1  0.800503  0.541496  0.541496  1
  Ni  Ni4  1  0.458504  0.199497  0.458504  1
  Ni  Ni5  1  0.458504  0.458504  0.199497  1
  Ni  Ni6  1  0.199497  0.458504  0.458504  1
  B  B7  1  0.769373  0.344403  0.769373  1
  B  B8  1  0.769373  0.769373  0.344403  1
  B  B9  1  0.344403  0.769373  0.769373  1
  B  B10  1  0.230627  0.655597  0.230627  1
  B  B11  1  0.230627  0.230627  0.655597  1
  B  B12  1  0.655597  0.230627  0.230627  1
  Ir  Ir13  1  0.138972  0.861028  0.500000  1
  Ir  Ir14  1  0.500000  0.138972  0.861028  1
  Ir  Ir15  1  0.861028  0.500000  0.138972  1
  Ir  Ir16  1  0.500000  0.861028  0.138972  1
  Ir  Ir17  1  0.138972  0.500000  0.861028  1
  Ir  Ir18  1  0.861028  0.138972  0.500000  1
