# generated using pymatgen
data_YbHf(NbS2)6
_symmetry_space_group_name_H-M   'P 1'
_cell_length_a   5.82601000
_cell_length_b   5.82600943
_cell_length_c   13.56495700
_cell_angle_alpha   90.00000000
_cell_angle_beta   90.00000000
_cell_angle_gamma   120.00000326
_symmetry_Int_Tables_number   1
_chemical_formula_structural   YbHf(NbS2)6
_chemical_formula_sum   'Yb1 Hf1 Nb6 S12'
_cell_volume   398.74150850
_cell_formula_units_Z   1
loop_
 _symmetry_equiv_pos_site_id
 _symmetry_equiv_pos_as_xyz
  1  'x, y, z'
loop_
 _atom_site_type_symbol
 _atom_site_label
 _atom_site_symmetry_multiplicity
 _atom_site_fract_x
 _atom_site_fract_y
 _atom_site_fract_z
 _atom_site_occupancy
  Yb  Yb0  1  0.333333  0.666667  0.250000  1
  Hf  Hf1  1  0.666667  0.333333  0.750000  1
  Nb  Nb2  1  0.333333  0.666667  0.513673  1
  Nb  Nb3  1  0.666667  0.333333  0.987970  1
  Nb  Nb4  1  0.666667  0.333333  0.512030  1
  Nb  Nb5  1  0.333333  0.666667  0.986327  1
  Nb  Nb6  1  0.000000  0.000000  0.513618  1
  Nb  Nb7  1  0.000000  0.000000  0.986382  1
  S  S8  1  0.331136  0.330781  0.103218  1
  S  S9  1  0.669219  0.000355  0.103218  1
  S  S10  1  0.999645  0.668864  0.103218  1
  S  S11  1  0.001390  0.333440  0.630561  1
  S  S12  1  0.666560  0.998610  0.869439  1
  S  S13  1  0.666560  0.667950  0.630561  1
  S  S14  1  0.332050  0.998610  0.630561  1
  S  S15  1  0.669219  0.668864  0.396782  1
  S  S16  1  0.331136  0.000355  0.396782  1
  S  S17  1  0.332050  0.333440  0.869439  1
  S  S18  1  0.001390  0.667950  0.869439  1
  S  S19  1  0.999645  0.330781  0.396782  1
