# generated using pymatgen
data_YbLuRu4
_symmetry_space_group_name_H-M   'P 1'
_cell_length_a   5.23414561
_cell_length_b   5.23414530
_cell_length_c   8.82916300
_cell_angle_alpha   89.99944755
_cell_angle_beta   90.00055075
_cell_angle_gamma   119.99922799
_symmetry_Int_Tables_number   1
_chemical_formula_structural   YbLuRu4
_chemical_formula_sum   'Yb2 Lu2 Ru8'
_cell_volume   209.48123174
_cell_formula_units_Z   2
loop_
 _symmetry_equiv_pos_site_id
 _symmetry_equiv_pos_as_xyz
  1  'x, y, z'
loop_
 _atom_site_type_symbol
 _atom_site_label
 _atom_site_symmetry_multiplicity
 _atom_site_fract_x
 _atom_site_fract_y
 _atom_site_fract_z
 _atom_site_occupancy
  Yb  Yb0  1  0.333340  0.666660  0.061293  1
  Yb  Yb1  1  0.666660  0.333340  0.938707  1
  Lu  Lu2  1  0.666661  0.333339  0.570725  1
  Lu  Lu3  1  0.333339  0.666661  0.429275  1
  Ru  Ru4  1  0.000000  0.000000  0.500000  1
  Ru  Ru5  1  0.000000  0.000000  0.000000  1
  Ru  Ru6  1  0.172098  0.344197  0.747111  1
  Ru  Ru7  1  0.172088  0.827912  0.747112  1
  Ru  Ru8  1  0.655803  0.827902  0.747111  1
  Ru  Ru9  1  0.827902  0.655803  0.252889  1
  Ru  Ru10  1  0.827912  0.172088  0.252888  1
  Ru  Ru11  1  0.344197  0.172098  0.252889  1
