# generated using pymatgen
data_La4Pr2FeBr10
_symmetry_space_group_name_H-M   'P 1'
_cell_length_a   7.82288837
_cell_length_b   9.35054987
_cell_length_c   9.81206557
_cell_angle_alpha   108.12429917
_cell_angle_beta   98.09201285
_cell_angle_gamma   105.02664108
_symmetry_Int_Tables_number   1
_chemical_formula_structural   La4Pr2FeBr10
_chemical_formula_sum   'La4 Pr2 Fe1 Br10'
_cell_volume   639.34499508
_cell_formula_units_Z   1
loop_
 _symmetry_equiv_pos_site_id
 _symmetry_equiv_pos_as_xyz
  1  'x, y, z'
loop_
 _atom_site_type_symbol
 _atom_site_label
 _atom_site_symmetry_multiplicity
 _atom_site_fract_x
 _atom_site_fract_y
 _atom_site_fract_z
 _atom_site_occupancy
  La  La0  1  0.534831  0.230064  0.421245  1
  La  La1  1  0.465169  0.769936  0.578755  1
  La  La2  1  0.128682  0.355623  0.309105  1
  La  La3  1  0.871318  0.644377  0.690895  1
  Pr  Pr4  1  0.628642  0.553564  0.252824  1
  Pr  Pr5  1  0.371358  0.446436  0.747176  1
  Fe  Fe6  1  0.500000  0.500000  0.500000  1
  Br  Br7  1  0.155351  0.040223  0.229062  1
  Br  Br8  1  0.844649  0.959777  0.770938  1
  Br  Br9  1  0.253866  0.416882  0.047965  1
  Br  Br10  1  0.746134  0.583118  0.952035  1
  Br  Br11  1  0.702132  0.245624  0.156797  1
  Br  Br12  1  0.297868  0.754376  0.843203  1
  Br  Br13  1  0.043336  0.676678  0.419926  1
  Br  Br14  1  0.956664  0.323322  0.580074  1
  Br  Br15  1  0.413696  0.128651  0.671139  1
  Br  Br16  1  0.586304  0.871349  0.328861  1
