# generated using pymatgen
data_MgIn(Ni7B2)3
_symmetry_space_group_name_H-M   'P 1'
_cell_length_a   7.45249526
_cell_length_b   7.45249551
_cell_length_c   7.45249500
_cell_angle_alpha   59.99999781
_cell_angle_beta   59.99999670
_cell_angle_gamma   59.99999891
_symmetry_Int_Tables_number   1
_chemical_formula_structural   MgIn(Ni7B2)3
_chemical_formula_sum   'Mg1 In1 Ni21 B6'
_cell_volume   292.67801781
_cell_formula_units_Z   1
loop_
 _symmetry_equiv_pos_site_id
 _symmetry_equiv_pos_as_xyz
  1  'x, y, z'
loop_
 _atom_site_type_symbol
 _atom_site_label
 _atom_site_symmetry_multiplicity
 _atom_site_fract_x
 _atom_site_fract_y
 _atom_site_fract_z
 _atom_site_occupancy
  Mg  Mg0  1  0.250000  0.250000  0.250000  1
  In  In1  1  0.750000  0.750000  0.750000  1
  Ni  Ni2  1  0.846154  0.384615  0.384615  1
  Ni  Ni3  1  0.159214  0.613595  0.613595  1
  Ni  Ni4  1  0.613595  0.613595  0.613595  1
  Ni  Ni5  1  0.613595  0.613595  0.159214  1
  Ni  Ni6  1  0.384615  0.846154  0.384615  1
  Ni  Ni7  1  0.661955  0.335614  0.001215  1
  Ni  Ni8  1  0.001215  0.335614  0.661955  1
  Ni  Ni9  1  0.384615  0.384615  0.384615  1
  Ni  Ni10  1  0.001215  0.001215  0.335614  1
  Ni  Ni11  1  0.001215  0.001215  0.661955  1
  Ni  Ni12  1  0.001215  0.335614  0.001215  1
  Ni  Ni13  1  0.661955  0.001215  0.335614  1
  Ni  Ni14  1  0.335614  0.001215  0.001215  1
  Ni  Ni15  1  0.001215  0.661955  0.001215  1
  Ni  Ni16  1  0.335614  0.001215  0.661955  1
  Ni  Ni17  1  0.001215  0.661955  0.335614  1
  Ni  Ni18  1  0.335614  0.661955  0.001215  1
  Ni  Ni19  1  0.613595  0.159214  0.613595  1
  Ni  Ni20  1  0.000000  0.000000  0.000000  1
  Ni  Ni21  1  0.661955  0.001215  0.001215  1
  Ni  Ni22  1  0.384615  0.384615  0.846154  1
  B  B23  1  0.727189  0.727189  0.272811  1
  B  B24  1  0.727189  0.272811  0.727189  1
  B  B25  1  0.272811  0.727189  0.727189  1
  B  B26  1  0.272811  0.272811  0.727189  1
  B  B27  1  0.272811  0.727189  0.272811  1
  B  B28  1  0.727189  0.272811  0.272811  1
