# generated using pymatgen
data_Ho4HgIr
_symmetry_space_group_name_H-M   'P 1'
_cell_length_a   9.57174943
_cell_length_b   9.57174982
_cell_length_c   9.57174900
_cell_angle_alpha   59.99999936
_cell_angle_beta   59.99999803
_cell_angle_gamma   60.00000002
_symmetry_Int_Tables_number   1
_chemical_formula_structural   Ho4HgIr
_chemical_formula_sum   'Ho16 Hg4 Ir4'
_cell_volume   620.09603572
_cell_formula_units_Z   4
loop_
 _symmetry_equiv_pos_site_id
 _symmetry_equiv_pos_as_xyz
  1  'x, y, z'
loop_
 _atom_site_type_symbol
 _atom_site_label
 _atom_site_symmetry_multiplicity
 _atom_site_fract_x
 _atom_site_fract_y
 _atom_site_fract_z
 _atom_site_occupancy
  Ho  Ho0  1  0.600558  0.600558  0.600558  1
  Ho  Ho1  1  0.600558  0.600558  0.198326  1
  Ho  Ho2  1  0.600558  0.198326  0.600558  1
  Ho  Ho3  1  0.198326  0.600558  0.600558  1
  Ho  Ho4  1  0.059740  0.440260  0.440260  1
  Ho  Ho5  1  0.440260  0.059740  0.059740  1
  Ho  Ho6  1  0.440260  0.059740  0.440260  1
  Ho  Ho7  1  0.059740  0.440260  0.059740  1
  Ho  Ho8  1  0.440260  0.440260  0.059740  1
  Ho  Ho9  1  0.059740  0.059740  0.440260  1
  Ho  Ho10  1  0.188341  0.811659  0.811659  1
  Ho  Ho11  1  0.811659  0.188341  0.188341  1
  Ho  Ho12  1  0.811659  0.188341  0.811659  1
  Ho  Ho13  1  0.188341  0.811659  0.188341  1
  Ho  Ho14  1  0.811659  0.811659  0.188341  1
  Ho  Ho15  1  0.188341  0.188341  0.811659  1
  Hg  Hg16  1  0.834643  0.834643  0.834643  1
  Hg  Hg17  1  0.834643  0.834643  0.496071  1
  Hg  Hg18  1  0.834643  0.496071  0.834643  1
  Hg  Hg19  1  0.496071  0.834643  0.834643  1
  Ir  Ir20  1  0.391896  0.391896  0.391896  1
  Ir  Ir21  1  0.391896  0.391896  0.824314  1
  Ir  Ir22  1  0.391896  0.824314  0.391896  1
  Ir  Ir23  1  0.824314  0.391896  0.391896  1
