# generated using pymatgen
data_Tb7USiPd24
_symmetry_space_group_name_H-M   'P 1'
_cell_length_a   8.36495255
_cell_length_b   8.36495209
_cell_length_c   8.36495200
_cell_angle_alpha   89.97931450
_cell_angle_beta   89.97931450
_cell_angle_gamma   89.97931388
_symmetry_Int_Tables_number   1
_chemical_formula_structural   Tb7USiPd24
_chemical_formula_sum   'Tb7 U1 Si1 Pd24'
_cell_volume   585.31588107
_cell_formula_units_Z   1
loop_
 _symmetry_equiv_pos_site_id
 _symmetry_equiv_pos_as_xyz
  1  'x, y, z'
loop_
 _atom_site_type_symbol
 _atom_site_label
 _atom_site_symmetry_multiplicity
 _atom_site_fract_x
 _atom_site_fract_y
 _atom_site_fract_z
 _atom_site_occupancy
  Tb  Tb0  1  0.745732  0.745732  0.745732  1
  Tb  Tb1  1  0.745711  0.745711  0.254295  1
  Tb  Tb2  1  0.745711  0.254295  0.745711  1
  Tb  Tb3  1  0.253908  0.253908  0.747113  1
  Tb  Tb4  1  0.253908  0.747113  0.253908  1
  Tb  Tb5  1  0.254295  0.745711  0.745711  1
  Tb  Tb6  1  0.747113  0.253908  0.253908  1
  U  U7  1  0.253238  0.253238  0.253238  1
  Si  Si8  1  0.999947  0.999947  0.999947  1
  Pd  Pd9  1  0.256879  0.498090  0.003238  1
  Pd  Pd10  1  0.742989  0.499838  0.000255  1
  Pd  Pd11  1  0.003238  0.256879  0.498090  1
  Pd  Pd12  1  0.498090  0.256879  0.003238  1
  Pd  Pd13  1  0.000255  0.742989  0.499838  1
  Pd  Pd14  1  0.499838  0.742989  0.000255  1
  Pd  Pd15  1  0.498090  0.003238  0.256879  1
  Pd  Pd16  1  0.256879  0.003238  0.498090  1
  Pd  Pd17  1  0.499838  0.000255  0.742989  1
  Pd  Pd18  1  0.742989  0.000255  0.499838  1
  Pd  Pd19  1  0.003238  0.498090  0.256879  1
  Pd  Pd20  1  0.000255  0.499838  0.742989  1
  Pd  Pd21  1  0.252390  0.498838  0.498838  1
  Pd  Pd22  1  0.748278  0.499634  0.499634  1
  Pd  Pd23  1  0.498838  0.252390  0.498838  1
  Pd  Pd24  1  0.499634  0.748278  0.499634  1
  Pd  Pd25  1  0.498838  0.498838  0.252390  1
  Pd  Pd26  1  0.499634  0.499634  0.748278  1
  Pd  Pd27  1  0.280232  0.999800  0.999800  1
  Pd  Pd28  1  0.720532  0.999942  0.999942  1
  Pd  Pd29  1  0.999800  0.280232  0.999800  1
  Pd  Pd30  1  0.999942  0.720532  0.999942  1
  Pd  Pd31  1  0.999800  0.999800  0.280232  1
  Pd  Pd32  1  0.999942  0.999942  0.720532  1
