# generated using pymatgen
data_Nb6Zn5GaN2
_symmetry_space_group_name_H-M   'P 1'
_cell_length_a   8.29604859
_cell_length_b   8.29828197
_cell_length_c   8.29828219
_cell_angle_alpha   60.02157059
_cell_angle_beta   60.00890264
_cell_angle_gamma   60.00890594
_symmetry_Int_Tables_number   1
_chemical_formula_structural   Nb6Zn5GaN2
_chemical_formula_sum   'Nb12 Zn10 Ga2 N4'
_cell_volume   404.07490702
_cell_formula_units_Z   2
loop_
 _symmetry_equiv_pos_site_id
 _symmetry_equiv_pos_as_xyz
  1  'x, y, z'
loop_
 _atom_site_type_symbol
 _atom_site_label
 _atom_site_symmetry_multiplicity
 _atom_site_fract_x
 _atom_site_fract_y
 _atom_site_fract_z
 _atom_site_occupancy
  Nb  Nb0  1  0.433626  0.432786  0.066563  1
  Nb  Nb1  1  0.067025  0.432786  0.066563  1
  Nb  Nb2  1  0.432841  0.067159  0.067159  1
  Nb  Nb3  1  0.067025  0.066563  0.432786  1
  Nb  Nb4  1  0.433626  0.066563  0.432786  1
  Nb  Nb5  1  0.066537  0.433463  0.433463  1
  Nb  Nb6  1  0.817231  0.816769  0.182763  1
  Nb  Nb7  1  0.183236  0.816769  0.182763  1
  Nb  Nb8  1  0.816254  0.183746  0.183746  1
  Nb  Nb9  1  0.183236  0.182763  0.816769  1
  Nb  Nb10  1  0.817231  0.182763  0.816769  1
  Nb  Nb11  1  0.182111  0.817889  0.817889  1
  Zn  Zn12  1  0.499695  0.833819  0.833819  1
  Zn  Zn13  1  0.832668  0.833819  0.833819  1
  Zn  Zn14  1  0.417278  0.417072  0.748372  1
  Zn  Zn15  1  0.417278  0.748372  0.417072  1
  Zn  Zn16  1  0.748381  0.417071  0.417071  1
  Zn  Zn17  1  0.417476  0.417071  0.417071  1
  Zn  Zn18  1  0.623529  0.626124  0.126819  1
  Zn  Zn19  1  0.623529  0.126819  0.626124  1
  Zn  Zn20  1  0.128292  0.624741  0.624741  1
  Zn  Zn21  1  0.622225  0.624741  0.624741  1
  Ga  Ga22  1  0.834000  0.835824  0.496178  1
  Ga  Ga23  1  0.834000  0.496178  0.835824  1
  N  N24  1  0.125684  0.124886  0.623746  1
  N  N25  1  0.125684  0.623746  0.124886  1
  N  N26  1  0.624739  0.124850  0.124850  1
  N  N27  1  0.125561  0.124850  0.124850  1
