# generated using pymatgen
data_LaPr3F12
_symmetry_space_group_name_H-M   'P 1'
_cell_length_a   4.55030177
_cell_length_b   6.88666302
_cell_length_c   7.28712600
_cell_angle_alpha   90.00000000
_cell_angle_beta   90.00000000
_cell_angle_gamma   90.13124956
_symmetry_Int_Tables_number   1
_chemical_formula_structural   LaPr3F12
_chemical_formula_sum   'La1 Pr3 F12'
_cell_volume   228.35165933
_cell_formula_units_Z   1
loop_
 _symmetry_equiv_pos_site_id
 _symmetry_equiv_pos_as_xyz
  1  'x, y, z'
loop_
 _atom_site_type_symbol
 _atom_site_label
 _atom_site_symmetry_multiplicity
 _atom_site_fract_x
 _atom_site_fract_y
 _atom_site_fract_z
 _atom_site_occupancy
  La  La0  1  0.059560  0.366573  0.250000  1
  Pr  Pr1  1  0.935225  0.632810  0.750000  1
  Pr  Pr2  1  0.434668  0.867334  0.250000  1
  Pr  Pr3  1  0.562382  0.131688  0.750000  1
  F  F4  1  0.389091  0.162266  0.435672  1
  F  F5  1  0.887833  0.336115  0.567428  1
  F  F6  1  0.113734  0.663711  0.063169  1
  F  F7  1  0.612328  0.837204  0.935297  1
  F  F8  1  0.580173  0.525190  0.250000  1
  F  F9  1  0.074932  0.980133  0.750000  1
  F  F10  1  0.922918  0.016107  0.250000  1
  F  F11  1  0.424173  0.481573  0.750000  1
  F  F12  1  0.389091  0.162266  0.064328  1
  F  F13  1  0.887833  0.336115  0.932572  1
  F  F14  1  0.113734  0.663711  0.436831  1
  F  F15  1  0.612328  0.837204  0.564703  1
