# generated using pymatgen
data_Hf18TiRe7Rh2
_symmetry_space_group_name_H-M   'P 1'
_cell_length_a   8.67254400
_cell_length_b   8.67254450
_cell_length_c   8.50271300
_cell_angle_alpha   90.00000000
_cell_angle_beta   90.00000000
_cell_angle_gamma   119.99999808
_symmetry_Int_Tables_number   1
_chemical_formula_structural   Hf18TiRe7Rh2
_chemical_formula_sum   'Hf18 Ti1 Re7 Rh2'
_cell_volume   553.83603477
_cell_formula_units_Z   1
loop_
 _symmetry_equiv_pos_site_id
 _symmetry_equiv_pos_as_xyz
  1  'x, y, z'
loop_
 _atom_site_type_symbol
 _atom_site_label
 _atom_site_symmetry_multiplicity
 _atom_site_fract_x
 _atom_site_fract_y
 _atom_site_fract_z
 _atom_site_occupancy
  Hf  Hf0  1  0.196460  0.803540  0.446400  1
  Hf  Hf1  1  0.196460  0.392919  0.446400  1
  Hf  Hf2  1  0.607081  0.803540  0.446400  1
  Hf  Hf3  1  0.803540  0.196460  0.553600  1
  Hf  Hf4  1  0.803540  0.607081  0.553600  1
  Hf  Hf5  1  0.392919  0.196460  0.553600  1
  Hf  Hf6  1  0.803770  0.196230  0.944645  1
  Hf  Hf7  1  0.803770  0.607542  0.944645  1
  Hf  Hf8  1  0.392458  0.196230  0.944645  1
  Hf  Hf9  1  0.196230  0.803770  0.055355  1
  Hf  Hf10  1  0.196230  0.392458  0.055355  1
  Hf  Hf11  1  0.607542  0.803770  0.055355  1
  Hf  Hf12  1  0.542685  0.457315  0.248811  1
  Hf  Hf13  1  0.542685  0.085370  0.248811  1
  Hf  Hf14  1  0.914630  0.457315  0.248811  1
  Hf  Hf15  1  0.457315  0.542685  0.751189  1
  Hf  Hf16  1  0.457315  0.914630  0.751189  1
  Hf  Hf17  1  0.085370  0.542685  0.751189  1
  Ti  Ti18  1  0.000000  0.000000  0.500000  1
  Re  Re19  1  0.888569  0.111431  0.251047  1
  Re  Re20  1  0.888569  0.777136  0.251047  1
  Re  Re21  1  0.222864  0.111431  0.251047  1
  Re  Re22  1  0.111431  0.888569  0.748953  1
  Re  Re23  1  0.111431  0.222864  0.748953  1
  Re  Re24  1  0.777136  0.888569  0.748953  1
  Re  Re25  1  0.000000  0.000000  0.000000  1
  Rh  Rh26  1  0.333333  0.666667  0.249543  1
  Rh  Rh27  1  0.666667  0.333333  0.750457  1
