# generated using pymatgen
data_Dy5Ti3SiP11Ir16
_symmetry_space_group_name_H-M   'P 1'
_cell_length_a   12.77843116
_cell_length_b   12.82486758
_cell_length_c   3.94313200
_cell_angle_alpha   90.00000000
_cell_angle_beta   90.00000000
_cell_angle_gamma   120.12027880
_symmetry_Int_Tables_number   1
_chemical_formula_structural   Dy5Ti3SiP11Ir16
_chemical_formula_sum   'Dy5 Ti3 Si1 P11 Ir16'
_cell_volume   558.95227578
_cell_formula_units_Z   1
loop_
 _symmetry_equiv_pos_site_id
 _symmetry_equiv_pos_as_xyz
  1  'x, y, z'
loop_
 _atom_site_type_symbol
 _atom_site_label
 _atom_site_symmetry_multiplicity
 _atom_site_fract_x
 _atom_site_fract_y
 _atom_site_fract_z
 _atom_site_occupancy
  Dy  Dy0  1  0.333030  0.666732  0.500000  1
  Dy  Dy1  1  0.666970  0.333701  0.500000  1
  Dy  Dy2  1  0.000000  0.812185  0.000000  1
  Dy  Dy3  1  0.188200  0.188293  0.000000  1
  Dy  Dy4  1  0.811800  0.000092  0.000000  1
  Ti  Ti5  1  0.000000  0.439502  0.500000  1
  Ti  Ti6  1  0.552246  0.553830  0.500000  1
  Ti  Ti7  1  0.447754  0.001585  0.500000  1
  Si  Si8  1  0.000000  0.639326  0.500000  1
  P  P9  1  0.360737  0.359652  0.500000  1
  P  P10  1  0.639263  0.998915  0.500000  1
  P  P11  1  0.516685  0.685026  0.000000  1
  P  P12  1  0.313925  0.831633  0.000000  1
  P  P13  1  0.167719  0.483553  0.000000  1
  P  P14  1  0.483315  0.168341  0.000000  1
  P  P15  1  0.686075  0.517707  0.000000  1
  P  P16  1  0.832281  0.315834  0.000000  1
  P  P17  1  0.000000  0.176461  0.500000  1
  P  P18  1  0.822721  0.822564  0.500000  1
  P  P19  1  0.177279  0.999843  0.500000  1
  Ir  Ir20  1  0.508950  0.867386  0.000000  1
  Ir  Ir21  1  0.129379  0.641172  0.000000  1
  Ir  Ir22  1  0.358073  0.491319  0.000000  1
  Ir  Ir23  1  0.491050  0.358435  0.000000  1
  Ir  Ir24  1  0.870621  0.511792  0.000000  1
  Ir  Ir25  1  0.641927  0.133245  0.000000  1
  Ir  Ir26  1  0.000000  0.281861  0.000000  1
  Ir  Ir27  1  0.717555  0.718982  0.000000  1
  Ir  Ir28  1  0.282445  0.001427  0.000000  1
  Ir  Ir29  1  0.625603  0.804853  0.500000  1
  Ir  Ir30  1  0.198194  0.823512  0.500000  1
  Ir  Ir31  1  0.179153  0.372866  0.500000  1
  Ir  Ir32  1  0.374397  0.179250  0.500000  1
  Ir  Ir33  1  0.801806  0.625318  0.500000  1
  Ir  Ir34  1  0.820847  0.193713  0.500000  1
  Ir  Ir35  1  0.000000  0.000096  0.500000  1
