# generated using pymatgen
data_LuNb5(IrRh8)2
_symmetry_space_group_name_H-M   'P 1'
_cell_length_a   5.56683200
_cell_length_b   5.56838559
_cell_length_c   13.56640600
_cell_angle_alpha   90.00000000
_cell_angle_beta   90.00000000
_cell_angle_gamma   120.00923736
_symmetry_Int_Tables_number   1
_chemical_formula_structural   LuNb5(IrRh8)2
_chemical_formula_sum   'Lu1 Nb5 Ir2 Rh16'
_cell_volume   364.16015537
_cell_formula_units_Z   1
loop_
 _symmetry_equiv_pos_site_id
 _symmetry_equiv_pos_as_xyz
  1  'x, y, z'
loop_
 _atom_site_type_symbol
 _atom_site_label
 _atom_site_symmetry_multiplicity
 _atom_site_fract_x
 _atom_site_fract_y
 _atom_site_fract_z
 _atom_site_occupancy
  Lu  Lu0  1  0.000091  0.000046  0.750000  1
  Nb  Nb1  1  0.997518  0.998759  0.250000  1
  Nb  Nb2  1  0.334573  0.667287  0.411349  1
  Nb  Nb3  1  0.666768  0.333384  0.591927  1
  Nb  Nb4  1  0.666768  0.333384  0.908073  1
  Nb  Nb5  1  0.334573  0.667287  0.088651  1
  Ir  Ir6  1  0.504043  0.495875  0.250000  1
  Ir  Ir7  1  0.504043  0.008168  0.250000  1
  Rh  Rh8  1  0.993249  0.496624  0.250000  1
  Rh  Rh9  1  0.496183  0.504338  0.750000  1
  Rh  Rh10  1  0.496183  0.991845  0.750000  1
  Rh  Rh11  1  0.008850  0.504425  0.750000  1
  Rh  Rh12  1  0.168148  0.336260  0.921871  1
  Rh  Rh13  1  0.663417  0.831708  0.922131  1
  Rh  Rh14  1  0.168148  0.831887  0.921871  1
  Rh  Rh15  1  0.833886  0.668250  0.083626  1
  Rh  Rh16  1  0.331093  0.165547  0.084285  1
  Rh  Rh17  1  0.833886  0.165636  0.083626  1
  Rh  Rh18  1  0.833886  0.668250  0.416374  1
  Rh  Rh19  1  0.331093  0.165547  0.415715  1
  Rh  Rh20  1  0.833886  0.165636  0.416374  1
  Rh  Rh21  1  0.168148  0.336260  0.578129  1
  Rh  Rh22  1  0.663417  0.831708  0.577869  1
  Rh  Rh23  1  0.168148  0.831887  0.578129  1
