# generated using pymatgen
data_TbDy3SbRh3O14
_symmetry_space_group_name_H-M   'P 1'
_cell_length_a   7.32197266
_cell_length_b   7.32197298
_cell_length_c   7.32197393
_cell_angle_alpha   59.10132377
_cell_angle_beta   59.10131873
_cell_angle_gamma   59.10132962
_symmetry_Int_Tables_number   1
_chemical_formula_structural   TbDy3SbRh3O14
_chemical_formula_sum   'Tb1 Dy3 Sb1 Rh3 O14'
_cell_volume   271.88145633
_cell_formula_units_Z   1
loop_
 _symmetry_equiv_pos_site_id
 _symmetry_equiv_pos_as_xyz
  1  'x, y, z'
loop_
 _atom_site_type_symbol
 _atom_site_label
 _atom_site_symmetry_multiplicity
 _atom_site_fract_x
 _atom_site_fract_y
 _atom_site_fract_z
 _atom_site_occupancy
  Tb  Tb0  1  0.125000  0.125000  0.125000  1
  Dy  Dy1  1  0.125000  0.625000  0.125000  1
  Dy  Dy2  1  0.125000  0.125000  0.625000  1
  Dy  Dy3  1  0.625000  0.125000  0.125000  1
  Sb  Sb4  1  0.625000  0.625000  0.625000  1
  Rh  Rh5  1  0.125000  0.625000  0.625000  1
  Rh  Rh6  1  0.625000  0.125000  0.625000  1
  Rh  Rh7  1  0.625000  0.625000  0.125000  1
  O  O8  1  0.290126  0.711512  0.711512  1
  O  O9  1  0.543227  0.963176  0.963176  1
  O  O10  1  0.711512  0.290126  0.711512  1
  O  O11  1  0.286824  0.286824  0.706773  1
  O  O12  1  0.711512  0.711512  0.290126  1
  O  O13  1  0.000293  0.000293  0.000293  1
  O  O14  1  0.286824  0.706773  0.286824  1
  O  O15  1  0.963176  0.543227  0.963176  1
  O  O16  1  0.963176  0.963176  0.543227  1
  O  O17  1  0.538488  0.538488  0.959874  1
  O  O18  1  0.249707  0.249707  0.249707  1
  O  O19  1  0.538488  0.959874  0.538488  1
  O  O20  1  0.706773  0.286824  0.286824  1
  O  O21  1  0.959874  0.538488  0.538488  1
