# generated using pymatgen
data_SmTmHf2(NiP)4
_symmetry_space_group_name_H-M   'P 1'
_cell_length_a   3.85189600
_cell_length_b   3.85189618
_cell_length_c   14.61110300
_cell_angle_alpha   90.00000000
_cell_angle_beta   90.00000000
_cell_angle_gamma   119.99999843
_symmetry_Int_Tables_number   1
_chemical_formula_structural   SmTmHf2(NiP)4
_chemical_formula_sum   'Sm1 Tm1 Hf2 Ni4 P4'
_cell_volume   187.74257366
_cell_formula_units_Z   1
loop_
 _symmetry_equiv_pos_site_id
 _symmetry_equiv_pos_as_xyz
  1  'x, y, z'
loop_
 _atom_site_type_symbol
 _atom_site_label
 _atom_site_symmetry_multiplicity
 _atom_site_fract_x
 _atom_site_fract_y
 _atom_site_fract_z
 _atom_site_occupancy
  Sm  Sm0  1  0.000000  0.000000  0.500000  1
  Tm  Tm1  1  0.000000  0.000000  0.000000  1
  Hf  Hf2  1  0.000000  0.000000  0.246715  1
  Hf  Hf3  1  0.000000  0.000000  0.753285  1
  Ni  Ni4  1  0.333333  0.666667  0.345963  1
  Ni  Ni5  1  0.666667  0.333333  0.654037  1
  Ni  Ni6  1  0.666667  0.333333  0.854314  1
  Ni  Ni7  1  0.333333  0.666667  0.145686  1
  P  P8  1  0.333333  0.666667  0.878826  1
  P  P9  1  0.666667  0.333333  0.121174  1
  P  P10  1  0.666667  0.333333  0.370574  1
  P  P11  1  0.333333  0.666667  0.629426  1
