# generated using pymatgen
data_DyGa9CoNi2
_symmetry_space_group_name_H-M   'P 1'
_cell_length_a   10.12448886
_cell_length_b   10.13068041
_cell_length_c   10.12444053
_cell_angle_alpha   42.06639047
_cell_angle_beta   42.12187403
_cell_angle_gamma   42.08098281
_symmetry_Int_Tables_number   1
_chemical_formula_structural   DyGa9CoNi2
_chemical_formula_sum   'Dy2 Ga18 Co2 Ni4'
_cell_volume   422.11746933
_cell_formula_units_Z   2
loop_
 _symmetry_equiv_pos_site_id
 _symmetry_equiv_pos_as_xyz
  1  'x, y, z'
loop_
 _atom_site_type_symbol
 _atom_site_label
 _atom_site_symmetry_multiplicity
 _atom_site_fract_x
 _atom_site_fract_y
 _atom_site_fract_z
 _atom_site_occupancy
  Dy  Dy0  1  0.167287  0.167580  0.167571  1
  Dy  Dy1  1  0.833290  0.833369  0.833616  1
  Ga  Ga2  1  0.050800  0.051167  0.050188  1
  Ga  Ga3  1  0.710382  0.500341  0.291177  1
  Ga  Ga4  1  0.665814  0.332364  0.000956  1
  Ga  Ga5  1  0.105397  0.434119  0.762744  1
  Ga  Ga6  1  0.434140  0.763170  0.105658  1
  Ga  Ga7  1  0.386342  0.384965  0.384428  1
  Ga  Ga8  1  0.332091  0.998695  0.666783  1
  Ga  Ga9  1  0.613392  0.616417  0.611444  1
  Ga  Ga10  1  0.236803  0.569612  0.895883  1
  Ga  Ga11  1  0.567267  0.893564  0.241451  1
  Ga  Ga12  1  0.500005  0.290896  0.708141  1
  Ga  Ga13  1  0.762920  0.104746  0.434196  1
  Ga  Ga14  1  0.952008  0.945756  0.947691  1
  Ga  Ga15  1  0.290018  0.710053  0.501205  1
  Ga  Ga16  1  0.998337  0.668002  0.331754  1
  Ga  Ga17  1  0.715781  0.716430  0.716862  1
  Ga  Ga18  1  0.280191  0.282612  0.285012  1
  Ga  Ga19  1  0.898097  0.238926  0.565450  1
  Co  Co20  1  0.240315  0.923271  0.581330  1
  Co  Co21  1  0.923393  0.581653  0.240698  1
  Ni  Ni22  1  0.759068  0.418529  0.077256  1
  Ni  Ni23  1  0.077943  0.757391  0.417739  1
  Ni  Ni24  1  0.417438  0.077168  0.757692  1
  Ni  Ni25  1  0.581479  0.239204  0.923076  1
