# generated using pymatgen
data_Hf5In3HgRh2
_symmetry_space_group_name_H-M   'P 1'
_cell_length_a   3.35375200
_cell_length_b   7.62550800
_cell_length_c   17.51233901
_cell_angle_alpha   90.00308881
_cell_angle_beta   90.00000000
_cell_angle_gamma   90.00000000
_symmetry_Int_Tables_number   1
_chemical_formula_structural   Hf5In3HgRh2
_chemical_formula_sum   'Hf10 In6 Hg2 Rh4'
_cell_volume   447.86165539
_cell_formula_units_Z   2
loop_
 _symmetry_equiv_pos_site_id
 _symmetry_equiv_pos_as_xyz
  1  'x, y, z'
loop_
 _atom_site_type_symbol
 _atom_site_label
 _atom_site_symmetry_multiplicity
 _atom_site_fract_x
 _atom_site_fract_y
 _atom_site_fract_z
 _atom_site_occupancy
  Hf  Hf0  1  0.000000  0.261309  0.222331  1
  Hf  Hf1  1  0.000000  0.637332  0.080410  1
  Hf  Hf2  1  0.000000  0.761844  0.279743  1
  Hf  Hf3  1  0.000000  0.862836  0.580359  1
  Hf  Hf4  1  0.000000  0.238755  0.722349  1
  Hf  Hf5  1  0.000000  0.737984  0.779787  1
  Hf  Hf6  1  0.000000  0.132324  0.419556  1
  Hf  Hf7  1  0.000000  0.999545  0.999848  1
  Hf  Hf8  1  0.000000  0.367671  0.919878  1
  Hf  Hf9  1  0.000000  0.500700  0.499497  1
  In  In10  1  0.500000  0.061077  0.851646  1
  In  In11  1  0.500000  0.561679  0.648353  1
  In  In12  1  0.500000  0.199106  0.566205  1
  In  In13  1  0.500000  0.938185  0.148494  1
  In  In14  1  0.500000  0.438945  0.351330  1
  In  In15  1  0.500000  0.300767  0.066539  1
  Hg  Hg16  1  0.500000  0.798501  0.432617  1
  Hg  Hg17  1  0.500000  0.701446  0.932970  1
  Rh  Rh18  1  0.500000  0.450401  0.805921  1
  Rh  Rh19  1  0.500000  0.548758  0.193185  1
  Rh  Rh20  1  0.500000  0.951342  0.693256  1
  Rh  Rh21  1  0.500000  0.049494  0.305727  1
