# generated using pymatgen
data_La2Nd5As12Pd17
_symmetry_space_group_name_H-M   'P 1'
_cell_length_a   12.80890914
_cell_length_b   12.80890932
_cell_length_c   14.02422570
_cell_angle_alpha   68.64332417
_cell_angle_beta   68.64332426
_cell_angle_gamma   18.86417058
_symmetry_Int_Tables_number   1
_chemical_formula_structural   La2Nd5As12Pd17
_chemical_formula_sum   'La2 Nd5 As12 Pd17'
_cell_volume   691.40021048
_cell_formula_units_Z   1
loop_
 _symmetry_equiv_pos_site_id
 _symmetry_equiv_pos_as_xyz
  1  'x, y, z'
loop_
 _atom_site_type_symbol
 _atom_site_label
 _atom_site_symmetry_multiplicity
 _atom_site_fract_x
 _atom_site_fract_y
 _atom_site_fract_z
 _atom_site_occupancy
  La  La0  1  0.500006  0.500006  0.499937  1
  La  La1  1  0.367014  0.367014  0.000945  1
  Nd  Nd2  1  0.633057  0.633057  0.999232  1
  Nd  Nd3  1  0.233182  0.233182  0.313101  1
  Nd  Nd4  1  0.766645  0.766645  0.687089  1
  Nd  Nd5  1  0.419076  0.419076  0.260076  1
  Nd  Nd6  1  0.581221  0.581221  0.740081  1
  As  As7  1  0.062132  0.062132  0.924686  1
  As  As8  1  0.938372  0.938372  0.075833  1
  As  As9  1  0.884867  0.884867  0.828141  1
  As  As10  1  0.115027  0.115027  0.170705  1
  As  As11  1  0.189444  0.189444  0.620020  1
  As  As12  1  0.810390  0.810390  0.380387  1
  As  As13  1  0.364991  0.364991  0.579479  1
  As  As14  1  0.634987  0.634987  0.420341  1
  As  As15  1  0.012168  0.012168  0.669599  1
  As  As16  1  0.987842  0.987842  0.330473  1
  As  As17  1  0.233491  0.233491  0.883132  1
  As  As18  1  0.765893  0.765893  0.117454  1
  Pd  Pd19  1  0.838338  0.838338  0.193950  1
  Pd  Pd20  1  0.161630  0.161630  0.806477  1
  Pd  Pd21  1  0.024914  0.024914  0.127615  1
  Pd  Pd22  1  0.975633  0.975633  0.871885  1
  Pd  Pd23  1  0.887548  0.887548  0.459203  1
  Pd  Pd24  1  0.112427  0.112427  0.540894  1
  Pd  Pd25  1  0.500322  0.500322  0.000069  1
  Pd  Pd26  1  0.548147  0.548147  0.252848  1
  Pd  Pd27  1  0.451883  0.451883  0.746789  1
  Pd  Pd28  1  0.295209  0.295209  0.490194  1
  Pd  Pd29  1  0.704746  0.704746  0.509862  1
  Pd  Pd30  1  0.663681  0.663681  0.225473  1
  Pd  Pd31  1  0.336181  0.336181  0.774509  1
  Pd  Pd32  1  0.909152  0.909152  0.638676  1
  Pd  Pd33  1  0.090870  0.090870  0.361181  1
  Pd  Pd34  1  0.219824  0.219824  0.071636  1
  Pd  Pd35  1  0.779685  0.779685  0.928030  1
