# generated using pymatgen
data_YTm2Zr(Ga3Rh)6
_symmetry_space_group_name_H-M   'P 1'
_cell_length_a   7.54696294
_cell_length_b   7.52888875
_cell_length_c   9.45658300
_cell_angle_alpha   90.00000000
_cell_angle_beta   90.00000000
_cell_angle_gamma   119.77986676
_symmetry_Int_Tables_number   1
_chemical_formula_structural   YTm2Zr(Ga3Rh)6
_chemical_formula_sum   'Y1 Tm2 Zr1 Ga18 Rh6'
_cell_volume   466.36618738
_cell_formula_units_Z   1
loop_
 _symmetry_equiv_pos_site_id
 _symmetry_equiv_pos_as_xyz
  1  'x, y, z'
loop_
 _atom_site_type_symbol
 _atom_site_label
 _atom_site_symmetry_multiplicity
 _atom_site_fract_x
 _atom_site_fract_y
 _atom_site_fract_z
 _atom_site_occupancy
  Y  Y0  1  0.004129  0.330196  0.750000  1
  Tm  Tm1  1  0.669794  0.997900  0.250000  1
  Tm  Tm2  1  0.330709  0.003551  0.750000  1
  Zr  Zr3  1  0.996602  0.668649  0.250000  1
  Ga  Ga4  1  0.123752  0.122732  0.250000  1
  Ga  Ga5  1  0.872905  0.872000  0.750000  1
  Ga  Ga6  1  0.999068  0.337201  0.083569  1
  Ga  Ga7  1  0.001068  0.666189  0.922804  1
  Ga  Ga8  1  0.001068  0.666189  0.577196  1
  Ga  Ga9  1  0.331848  0.997197  0.416873  1
  Ga  Ga10  1  0.999068  0.337201  0.416431  1
  Ga  Ga11  1  0.664635  0.999268  0.579125  1
  Ga  Ga12  1  0.664635  0.999268  0.920875  1
  Ga  Ga13  1  0.331848  0.997197  0.083127  1
  Ga  Ga14  1  0.333600  0.332615  0.564315  1
  Ga  Ga15  1  0.669827  0.668084  0.430698  1
  Ga  Ga16  1  0.669827  0.668084  0.069302  1
  Ga  Ga17  1  0.333600  0.332615  0.935685  1
  Ga  Ga18  1  0.337223  0.549128  0.250000  1
  Ga  Ga19  1  0.661361  0.452837  0.750000  1
  Ga  Ga20  1  0.551874  0.340482  0.250000  1
  Ga  Ga21  1  0.452149  0.661271  0.750000  1
  Rh  Rh22  1  0.672229  0.328621  0.001094  1
  Rh  Rh23  1  0.327939  0.672222  0.001808  1
  Rh  Rh24  1  0.327939  0.672222  0.498192  1
  Rh  Rh25  1  0.672229  0.328621  0.498906  1
  Rh  Rh26  1  0.999536  0.999227  0.001115  1
  Rh  Rh27  1  0.999536  0.999227  0.498885  1
