# generated using pymatgen
data_Ce2NiIr2Ru
_symmetry_space_group_name_H-M   'P 1'
_cell_length_a   5.13820238
_cell_length_b   5.13820221
_cell_length_c   5.22537689
_cell_angle_alpha   63.13093362
_cell_angle_beta   63.13093901
_cell_angle_gamma   63.61055977
_symmetry_Int_Tables_number   1
_chemical_formula_structural   Ce2NiIr2Ru
_chemical_formula_sum   'Ce2 Ni1 Ir2 Ru1'
_cell_volume   104.65560072
_cell_formula_units_Z   1
loop_
 _symmetry_equiv_pos_site_id
 _symmetry_equiv_pos_as_xyz
  1  'x, y, z'
loop_
 _atom_site_type_symbol
 _atom_site_label
 _atom_site_symmetry_multiplicity
 _atom_site_fract_x
 _atom_site_fract_y
 _atom_site_fract_z
 _atom_site_occupancy
  Ce  Ce0  1  0.626180  0.626180  0.622728  1
  Ce  Ce1  1  0.373820  0.373820  0.377272  1
  Ni  Ni2  1  0.000000  0.000000  0.000000  1
  Ir  Ir3  1  0.000000  0.500000  0.000000  1
  Ir  Ir4  1  0.500000  0.000000  0.000000  1
  Ru  Ru5  1  0.000000  0.000000  0.500000  1
