# generated using pymatgen
data_Ba4LaPrU2O12
_symmetry_space_group_name_H-M   'P 1'
_cell_length_a   6.32935990
_cell_length_b   6.34400926
_cell_length_c   8.91875713
_cell_angle_alpha   90.35239975
_cell_angle_beta   90.05618987
_cell_angle_gamma   90.02796779
_symmetry_Int_Tables_number   1
_chemical_formula_structural   Ba4LaPrU2O12
_chemical_formula_sum   'Ba4 La1 Pr1 U2 O12'
_cell_volume   358.11248419
_cell_formula_units_Z   1
loop_
 _symmetry_equiv_pos_site_id
 _symmetry_equiv_pos_as_xyz
  1  'x, y, z'
loop_
 _atom_site_type_symbol
 _atom_site_label
 _atom_site_symmetry_multiplicity
 _atom_site_fract_x
 _atom_site_fract_y
 _atom_site_fract_z
 _atom_site_occupancy
  Ba  Ba0  1  0.018565  0.990694  0.750671  1
  Ba  Ba1  1  0.481427  0.489079  0.250535  1
  Ba  Ba2  1  0.518573  0.510921  0.749465  1
  Ba  Ba3  1  0.981436  0.009306  0.249329  1
  La  La4  1  0.500000  0.000000  0.500000  1
  Pr  Pr5  1  0.000000  0.500000  0.000000  1
  U  U6  1  0.000000  0.500000  0.500000  1
  U  U7  1  0.500000  0.000000  0.000000  1
  O  O8  1  0.238640  0.213887  0.048004  1
  O  O9  1  0.515292  0.914530  0.234756  1
  O  O10  1  0.742049  0.283749  0.451983  1
  O  O11  1  0.716422  0.257923  0.046591  1
  O  O12  1  0.781760  0.754977  0.545161  1
  O  O13  1  0.015861  0.583347  0.263663  1
  O  O14  1  0.218240  0.245023  0.454839  1
  O  O15  1  0.283578  0.742077  0.953409  1
  O  O16  1  0.257951  0.716251  0.548017  1
  O  O17  1  0.484708  0.085470  0.765244  1
  O  O18  1  0.761360  0.786113  0.951996  1
  O  O19  1  0.984139  0.416653  0.736337  1
