# generated using pymatgen
data_Tb2Y6Hf11Si16Hg
_symmetry_space_group_name_H-M   'P 1'
_cell_length_a   7.31076043
_cell_length_b   7.31035120
_cell_length_c   13.31334612
_cell_angle_alpha   89.78837822
_cell_angle_beta   90.20554612
_cell_angle_gamma   89.79712897
_symmetry_Int_Tables_number   1
_chemical_formula_structural   Tb2Y6Hf11Si16Hg
_chemical_formula_sum   'Tb2 Y6 Hf11 Si16 Hg1'
_cell_volume   711.50755784
_cell_formula_units_Z   1
loop_
 _symmetry_equiv_pos_site_id
 _symmetry_equiv_pos_as_xyz
  1  'x, y, z'
loop_
 _atom_site_type_symbol
 _atom_site_label
 _atom_site_symmetry_multiplicity
 _atom_site_fract_x
 _atom_site_fract_y
 _atom_site_fract_z
 _atom_site_occupancy
  Tb  Tb0  1  0.346254  0.997391  0.788372  1
  Tb  Tb1  1  0.656327  0.004476  0.284022  1
  Y  Y2  1  0.997270  0.346436  0.211813  1
  Y  Y3  1  0.004299  0.656191  0.716022  1
  Y  Y4  1  0.154981  0.496149  0.465052  1
  Y  Y5  1  0.499194  0.846915  0.032830  1
  Y  Y6  1  0.846963  0.499159  0.967066  1
  Y  Y7  1  0.496052  0.155033  0.534931  1
  Hf  Hf8  1  0.824629  0.824569  0.499963  1
  Hf  Hf9  1  0.323293  0.676767  0.249950  1
  Hf  Hf10  1  0.676783  0.323367  0.750029  1
  Hf  Hf11  1  0.145127  0.997035  0.375224  1
  Hf  Hf12  1  0.855930  0.002431  0.878124  1
  Hf  Hf13  1  0.504739  0.646938  0.626248  1
  Hf  Hf14  1  0.355909  0.491349  0.877485  1
  Hf  Hf15  1  0.491292  0.355863  0.122485  1
  Hf  Hf16  1  0.646938  0.504777  0.373803  1
  Hf  Hf17  1  0.997228  0.145038  0.624859  1
  Hf  Hf18  1  0.002391  0.855985  0.121838  1
  Si  Si19  1  0.359950  0.296130  0.317028  1
  Si  Si20  1  0.640138  0.703574  0.819279  1
  Si  Si21  1  0.207004  0.860745  0.568689  1
  Si  Si22  1  0.130911  0.772462  0.926381  1
  Si  Si23  1  0.772848  0.130975  0.073590  1
  Si  Si24  1  0.860737  0.207052  0.431485  1
  Si  Si25  1  0.296087  0.360138  0.682903  1
  Si  Si26  1  0.703682  0.639937  0.180693  1
  Si  Si27  1  0.297861  0.048660  0.192554  1
  Si  Si28  1  0.705495  0.950525  0.686379  1
  Si  Si29  1  0.449991  0.794945  0.436155  1
  Si  Si30  1  0.211071  0.569712  0.065000  1
  Si  Si31  1  0.569924  0.211149  0.935006  1
  Si  Si32  1  0.795026  0.450119  0.563835  1
  Si  Si33  1  0.048545  0.298193  0.807327  1
  Si  Si34  1  0.950644  0.705356  0.313538  1
  Hg  Hg35  1  0.174486  0.174459  0.000038  1
