# generated using pymatgen
data_Tm5Sc(Rh2Pb)6
_symmetry_space_group_name_H-M   'P 1'
_cell_length_a   4.55580476
_cell_length_b   7.21888914
_cell_length_c   13.54293003
_cell_angle_alpha   89.99241626
_cell_angle_beta   90.00154066
_cell_angle_gamma   90.06495006
_symmetry_Int_Tables_number   1
_chemical_formula_structural   Tm5Sc(Rh2Pb)6
_chemical_formula_sum   'Tm5 Sc1 Rh12 Pb6'
_cell_volume   445.39755400
_cell_formula_units_Z   1
loop_
 _symmetry_equiv_pos_site_id
 _symmetry_equiv_pos_as_xyz
  1  'x, y, z'
loop_
 _atom_site_type_symbol
 _atom_site_label
 _atom_site_symmetry_multiplicity
 _atom_site_fract_x
 _atom_site_fract_y
 _atom_site_fract_z
 _atom_site_occupancy
  Tm  Tm0  1  0.999962  0.000071  0.998148  1
  Tm  Tm1  1  0.499778  0.499865  0.165650  1
  Tm  Tm2  1  0.999787  0.999992  0.333251  1
  Tm  Tm3  1  0.500015  0.499985  0.500973  1
  Tm  Tm4  1  0.000119  0.000287  0.668636  1
  Sc  Sc5  1  0.500060  0.499831  0.833331  1
  Rh  Rh6  1  0.500048  0.256088  0.996306  1
  Rh  Rh7  1  0.500085  0.743720  0.996281  1
  Rh  Rh8  1  0.999819  0.248725  0.165617  1
  Rh  Rh9  1  0.000061  0.751097  0.165535  1
  Rh  Rh10  1  0.500320  0.250347  0.333302  1
  Rh  Rh11  1  0.499797  0.749756  0.333322  1
  Rh  Rh12  1  0.000019  0.248386  0.500933  1
  Rh  Rh13  1  0.000217  0.751992  0.500967  1
  Rh  Rh14  1  0.500259  0.256485  0.670536  1
  Rh  Rh15  1  0.500213  0.743576  0.670489  1
  Rh  Rh16  1  0.999782  0.256788  0.833349  1
  Rh  Rh17  1  0.000389  0.743380  0.833372  1
  Pb  Pb18  1  0.999831  0.500077  0.997774  1
  Pb  Pb19  1  0.499423  0.999751  0.164659  1
  Pb  Pb20  1  0.999642  0.499783  0.333339  1
  Pb  Pb21  1  0.499666  0.999920  0.502171  1
  Pb  Pb22  1  0.000326  0.500501  0.668648  1
  Pb  Pb23  1  0.500377  0.999598  0.833412  1
