# generated using pymatgen
data_CaTh(Ga3Ir)3
_symmetry_space_group_name_H-M   'P 1'
_cell_length_a   7.64567926
_cell_length_b   7.65751831
_cell_length_c   9.57395300
_cell_angle_alpha   90.00000000
_cell_angle_beta   90.00000000
_cell_angle_gamma   119.71340508
_symmetry_Int_Tables_number   1
_chemical_formula_structural   CaTh(Ga3Ir)3
_chemical_formula_sum   'Ca2 Th2 Ga18 Ir6'
_cell_volume   486.82516529
_cell_formula_units_Z   2
loop_
 _symmetry_equiv_pos_site_id
 _symmetry_equiv_pos_as_xyz
  1  'x, y, z'
loop_
 _atom_site_type_symbol
 _atom_site_label
 _atom_site_symmetry_multiplicity
 _atom_site_fract_x
 _atom_site_fract_y
 _atom_site_fract_z
 _atom_site_occupancy
  Ca  Ca0  1  0.669236  0.996296  0.250000  1
  Ca  Ca1  1  0.330764  0.003704  0.750000  1
  Th  Th2  1  0.997914  0.668992  0.250000  1
  Th  Th3  1  0.002086  0.331008  0.750000  1
  Ga  Ga4  1  0.129831  0.128593  0.250000  1
  Ga  Ga5  1  0.870169  0.871407  0.750000  1
  Ga  Ga6  1  0.998806  0.327858  0.082083  1
  Ga  Ga7  1  0.001194  0.672142  0.917917  1
  Ga  Ga8  1  0.001194  0.672142  0.582083  1
  Ga  Ga9  1  0.341161  0.004454  0.424696  1
  Ga  Ga10  1  0.998806  0.327858  0.417917  1
  Ga  Ga11  1  0.658839  0.995546  0.575304  1
  Ga  Ga12  1  0.658839  0.995546  0.924696  1
  Ga  Ga13  1  0.341161  0.004454  0.075304  1
  Ga  Ga14  1  0.336705  0.331376  0.562219  1
  Ga  Ga15  1  0.663295  0.668624  0.437781  1
  Ga  Ga16  1  0.663295  0.668624  0.062219  1
  Ga  Ga17  1  0.336705  0.331376  0.937781  1
  Ga  Ga18  1  0.340624  0.545237  0.250000  1
  Ga  Ga19  1  0.659376  0.454763  0.750000  1
  Ga  Ga20  1  0.543033  0.335144  0.250000  1
  Ga  Ga21  1  0.456967  0.664856  0.750000  1
  Ir  Ir22  1  0.676494  0.333721  0.999569  1
  Ir  Ir23  1  0.323506  0.666279  0.000431  1
  Ir  Ir24  1  0.323506  0.666279  0.499569  1
  Ir  Ir25  1  0.676494  0.333721  0.500431  1
  Ir  Ir26  1  0.000000  0.000000  0.000000  1
  Ir  Ir27  1  0.000000  0.000000  0.500000  1
