# generated using pymatgen
data_PrHoFe3P7Ru9
_symmetry_space_group_name_H-M   'P 1'
_cell_length_a   9.34654600
_cell_length_b   9.34654563
_cell_length_c   3.87108300
_cell_angle_alpha   90.00000000
_cell_angle_beta   90.00000000
_cell_angle_gamma   119.99998716
_symmetry_Int_Tables_number   1
_chemical_formula_structural   PrHoFe3P7Ru9
_chemical_formula_sum   'Pr1 Ho1 Fe3 P7 Ru9'
_cell_volume   292.86363553
_cell_formula_units_Z   1
loop_
 _symmetry_equiv_pos_site_id
 _symmetry_equiv_pos_as_xyz
  1  'x, y, z'
loop_
 _atom_site_type_symbol
 _atom_site_label
 _atom_site_symmetry_multiplicity
 _atom_site_fract_x
 _atom_site_fract_y
 _atom_site_fract_z
 _atom_site_occupancy
  Pr  Pr0  1  0.333333  0.666667  0.000000  1
  Ho  Ho1  1  0.666667  0.333333  0.500000  1
  Fe  Fe2  1  0.156848  0.890282  0.000000  1
  Fe  Fe3  1  0.109718  0.266567  0.000000  1
  Fe  Fe4  1  0.733433  0.843152  0.000000  1
  P  P5  1  0.413530  0.107597  0.000000  1
  P  P6  1  0.892403  0.305934  0.000000  1
  P  P7  1  0.694066  0.586470  0.000000  1
  P  P8  1  0.112581  0.720803  0.500000  1
  P  P9  1  0.279197  0.391778  0.500000  1
  P  P10  1  0.608222  0.887419  0.500000  1
  P  P11  1  0.000000  0.000000  0.000000  1
  Ru  Ru12  1  0.420524  0.357911  0.000000  1
  Ru  Ru13  1  0.642089  0.062611  0.000000  1
  Ru  Ru14  1  0.937389  0.579476  0.000000  1
  Ru  Ru15  1  0.387040  0.952005  0.500000  1
  Ru  Ru16  1  0.047995  0.435034  0.500000  1
  Ru  Ru17  1  0.564966  0.612960  0.500000  1
  Ru  Ru18  1  0.203128  0.115030  0.500000  1
  Ru  Ru19  1  0.884970  0.088100  0.500000  1
  Ru  Ru20  1  0.911900  0.796872  0.500000  1
