# generated using pymatgen
data_KV3(PO4)3
_symmetry_space_group_name_H-M   'P 1'
_cell_length_a   9.22734358
_cell_length_b   9.22734326
_cell_length_c   9.22734310
_cell_angle_alpha   137.79329856
_cell_angle_beta   108.78278327
_cell_angle_gamma   86.40477886
_symmetry_Int_Tables_number   1
_chemical_formula_structural   KV3(PO4)3
_chemical_formula_sum   'K2 V6 P6 O24'
_cell_volume   480.23320624
_cell_formula_units_Z   2
loop_
 _symmetry_equiv_pos_site_id
 _symmetry_equiv_pos_as_xyz
  1  'x, y, z'
loop_
 _atom_site_type_symbol
 _atom_site_label
 _atom_site_symmetry_multiplicity
 _atom_site_fract_x
 _atom_site_fract_y
 _atom_site_fract_z
 _atom_site_occupancy
  K  K0  1  0.250000  0.647819  0.397819  1
  K  K1  1  0.750000  0.352181  0.602181  1
  V  V2  1  0.385483  0.885483  0.000000  1
  V  V3  1  0.000000  0.000000  0.000000  1
  V  V4  1  0.114517  0.114517  0.500000  1
  V  V5  1  0.614517  0.114517  0.000000  1
  V  V6  1  0.885483  0.885483  0.500000  1
  V  V7  1  0.500000  0.500000  0.000000  1
  P  P8  1  0.678269  0.678269  0.500000  1
  P  P9  1  0.178269  0.678269  0.000000  1
  P  P10  1  0.750000  0.841116  0.091116  1
  P  P11  1  0.250000  0.158884  0.908884  1
  P  P12  1  0.821731  0.321731  0.000000  1
  P  P13  1  0.321731  0.321731  0.500000  1
  O  O14  1  0.366318  0.713840  0.067361  1
  O  O15  1  0.647863  0.431352  0.344879  1
  O  O16  1  0.913526  0.568648  0.216511  1
  O  O17  1  0.345098  0.379153  0.034054  1
  O  O18  1  0.133682  0.201042  0.347521  1
  O  O19  1  0.654902  0.620847  0.965946  1
  O  O20  1  0.853521  0.201042  0.067361  1
  O  O21  1  0.086474  0.431352  0.783489  1
  O  O22  1  0.413526  0.197016  0.344879  1
  O  O23  1  0.866682  0.985232  0.351914  1
  O  O24  1  0.146479  0.798958  0.932639  1
  O  O25  1  0.646479  0.713840  0.347521  1
  O  O26  1  0.353521  0.286160  0.652479  1
  O  O27  1  0.633318  0.985232  0.118550  1
  O  O28  1  0.366682  0.014768  0.881450  1
  O  O29  1  0.154902  0.188956  0.034054  1
  O  O30  1  0.633682  0.286160  0.932639  1
  O  O31  1  0.845098  0.811044  0.965946  1
  O  O32  1  0.866318  0.798958  0.652479  1
  O  O33  1  0.147863  0.802984  0.216511  1
  O  O34  1  0.852137  0.197016  0.783489  1
  O  O35  1  0.352137  0.568648  0.655121  1
  O  O36  1  0.133318  0.014768  0.648086  1
  O  O37  1  0.586474  0.802984  0.655121  1
