# generated using pymatgen
data_SbRhBr18
_symmetry_space_group_name_H-M   'P 1'
_cell_length_a   9.29265151
_cell_length_b   9.34521241
_cell_length_c   9.27357714
_cell_angle_alpha   92.12978598
_cell_angle_beta   92.18183708
_cell_angle_gamma   92.02436950
_symmetry_Int_Tables_number   1
_chemical_formula_structural   SbRhBr18
_chemical_formula_sum   'Sb1 Rh1 Br18'
_cell_volume   803.64993014
_cell_formula_units_Z   1
loop_
 _symmetry_equiv_pos_site_id
 _symmetry_equiv_pos_as_xyz
  1  'x, y, z'
loop_
 _atom_site_type_symbol
 _atom_site_label
 _atom_site_symmetry_multiplicity
 _atom_site_fract_x
 _atom_site_fract_y
 _atom_site_fract_z
 _atom_site_occupancy
  Sb  Sb0  1  0.500000  0.500000  0.500000  1
  Rh  Rh1  1  0.000000  0.000000  0.000000  1
  Br  Br2  1  0.803199  0.474115  0.534963  1
  Br  Br3  1  0.534837  0.801315  0.473547  1
  Br  Br4  1  0.474400  0.535895  0.803525  1
  Br  Br5  1  0.196801  0.525885  0.465037  1
  Br  Br6  1  0.465163  0.198685  0.526453  1
  Br  Br7  1  0.525600  0.464105  0.196475  1
  Br  Br8  1  0.902486  0.363467  0.767236  1
  Br  Br9  1  0.766782  0.901106  0.364362  1
  Br  Br10  1  0.364325  0.767132  0.902368  1
  Br  Br11  1  0.097514  0.636533  0.232764  1
  Br  Br12  1  0.233218  0.098894  0.635638  1
  Br  Br13  1  0.635675  0.232868  0.097632  1
  Br  Br14  1  0.009574  0.971532  0.730726  1
  Br  Br15  1  0.731413  0.009977  0.970368  1
  Br  Br16  1  0.970428  0.733019  0.008589  1
  Br  Br17  1  0.990426  0.028468  0.269274  1
  Br  Br18  1  0.268587  0.990023  0.029632  1
  Br  Br19  1  0.029572  0.266981  0.991411  1
