# generated using pymatgen
data_Li5(Cu2As3)2
_symmetry_space_group_name_H-M   'P 1'
_cell_length_a   8.32145069
_cell_length_b   8.32145021
_cell_length_c   8.32145020
_cell_angle_alpha   152.18208273
_cell_angle_beta   111.72766215
_cell_angle_gamma   75.24831813
_symmetry_Int_Tables_number   1
_chemical_formula_structural   Li5(Cu2As3)2
_chemical_formula_sum   'Li5 Cu4 As6'
_cell_volume   246.25549047
_cell_formula_units_Z   1
loop_
 _symmetry_equiv_pos_site_id
 _symmetry_equiv_pos_as_xyz
  1  'x, y, z'
loop_
 _atom_site_type_symbol
 _atom_site_label
 _atom_site_symmetry_multiplicity
 _atom_site_fract_x
 _atom_site_fract_y
 _atom_site_fract_z
 _atom_site_occupancy
  Li  Li0  1  0.000000  0.000000  0.000000  1
  Li  Li1  1  0.730085  0.730085  0.000000  1
  Li  Li2  1  0.660163  0.500000  0.160163  1
  Li  Li3  1  0.339837  0.500000  0.839837  1
  Li  Li4  1  0.269915  0.269915  0.000000  1
  Cu  Cu5  1  0.910955  0.182156  0.728800  1
  Cu  Cu6  1  0.546644  0.817844  0.728800  1
  Cu  Cu7  1  0.453356  0.182156  0.271200  1
  Cu  Cu8  1  0.089045  0.817844  0.271200  1
  As  As9  1  0.991535  0.359258  0.632277  1
  As  As10  1  0.726980  0.359258  0.367723  1
  As  As11  1  0.592835  0.092835  0.500000  1
  As  As12  1  0.407165  0.907165  0.500000  1
  As  As13  1  0.273020  0.640742  0.632277  1
  As  As14  1  0.008465  0.640742  0.367723  1
