# generated using pymatgen
data_PrLuP7Ru12
_symmetry_space_group_name_H-M   'P 1'
_cell_length_a   9.44123400
_cell_length_b   9.44123221
_cell_length_c   3.95789800
_cell_angle_alpha   90.00000000
_cell_angle_beta   90.00000000
_cell_angle_gamma   119.99999926
_symmetry_Int_Tables_number   1
_chemical_formula_structural   PrLuP7Ru12
_chemical_formula_sum   'Pr1 Lu1 P7 Ru12'
_cell_volume   305.52916548
_cell_formula_units_Z   1
loop_
 _symmetry_equiv_pos_site_id
 _symmetry_equiv_pos_as_xyz
  1  'x, y, z'
loop_
 _atom_site_type_symbol
 _atom_site_label
 _atom_site_symmetry_multiplicity
 _atom_site_fract_x
 _atom_site_fract_y
 _atom_site_fract_z
 _atom_site_occupancy
  Pr  Pr0  1  0.333333  0.666667  0.000000  1
  Lu  Lu1  1  0.666667  0.333333  0.500000  1
  P  P2  1  0.605011  0.718829  0.500000  1
  P  P3  1  0.000000  0.000000  0.000000  1
  P  P4  1  0.281171  0.886182  0.500000  1
  P  P5  1  0.113818  0.394989  0.500000  1
  P  P6  1  0.885617  0.571234  0.000000  1
  P  P7  1  0.428766  0.314384  0.000000  1
  P  P8  1  0.685616  0.114383  0.000000  1
  Ru  Ru9  1  0.560207  0.956850  0.500000  1
  Ru  Ru10  1  0.396644  0.439793  0.500000  1
  Ru  Ru11  1  0.914742  0.119787  0.500000  1
  Ru  Ru12  1  0.205045  0.085258  0.500000  1
  Ru  Ru13  1  0.880213  0.794955  0.500000  1
  Ru  Ru14  1  0.728173  0.892466  0.000000  1
  Ru  Ru15  1  0.107534  0.835705  0.000000  1
  Ru  Ru16  1  0.164295  0.271827  0.000000  1
  Ru  Ru17  1  0.423370  0.070501  0.000000  1
  Ru  Ru18  1  0.929499  0.352870  0.000000  1
  Ru  Ru19  1  0.647130  0.576630  0.000000  1
  Ru  Ru20  1  0.043150  0.603356  0.500000  1
