# generated using pymatgen
data_Ho20FeBi8Rh3
_symmetry_space_group_name_H-M   'P 1'
_cell_length_a   7.97095911
_cell_length_b   8.96948300
_cell_length_c   12.38597840
_cell_angle_alpha   90.00000000
_cell_angle_beta   89.99461283
_cell_angle_gamma   90.00000000
_symmetry_Int_Tables_number   1
_chemical_formula_structural   Ho20FeBi8Rh3
_chemical_formula_sum   'Ho20 Fe1 Bi8 Rh3'
_cell_volume   885.54025624
_cell_formula_units_Z   1
loop_
 _symmetry_equiv_pos_site_id
 _symmetry_equiv_pos_as_xyz
  1  'x, y, z'
loop_
 _atom_site_type_symbol
 _atom_site_label
 _atom_site_symmetry_multiplicity
 _atom_site_fract_x
 _atom_site_fract_y
 _atom_site_fract_z
 _atom_site_occupancy
  Ho  Ho0  1  0.839191  0.750000  0.790056  1
  Ho  Ho1  1  0.159008  0.250000  0.207686  1
  Ho  Ho2  1  0.343116  0.250000  0.706183  1
  Ho  Ho3  1  0.653369  0.750000  0.301592  1
  Ho  Ho4  1  0.383597  0.750000  0.690261  1
  Ho  Ho5  1  0.621843  0.250000  0.305597  1
  Ho  Ho6  1  0.877167  0.250000  0.806488  1
  Ho  Ho7  1  0.121085  0.750000  0.193493  1
  Ho  Ho8  1  0.946678  0.750000  0.502596  1
  Ho  Ho9  1  0.053229  0.250000  0.497389  1
  Ho  Ho10  1  0.451529  0.250000  0.999495  1
  Ho  Ho11  1  0.551869  0.750000  0.002333  1
  Ho  Ho12  1  0.673231  0.031686  0.562146  1
  Ho  Ho13  1  0.322240  0.950364  0.436347  1
  Ho  Ho14  1  0.178110  0.956887  0.933122  1
  Ho  Ho15  1  0.322240  0.549636  0.436347  1
  Ho  Ho16  1  0.823585  0.043461  0.066330  1
  Ho  Ho17  1  0.673231  0.468314  0.562146  1
  Ho  Ho18  1  0.823585  0.456539  0.066330  1
  Ho  Ho19  1  0.178110  0.543113  0.933122  1
  Fe  Fe20  1  0.573653  0.750000  0.512288  1
  Bi  Bi21  1  0.570031  0.490653  0.827275  1
  Bi  Bi22  1  0.430145  0.509772  0.173576  1
  Bi  Bi23  1  0.070596  0.508206  0.672570  1
  Bi  Bi24  1  0.430145  0.990228  0.173576  1
  Bi  Bi25  1  0.929522  0.491078  0.327250  1
  Bi  Bi26  1  0.570031  0.009347  0.827275  1
  Bi  Bi27  1  0.929522  0.008922  0.327250  1
  Bi  Bi28  1  0.070596  0.991794  0.672570  1
  Rh  Rh29  1  0.427823  0.250000  0.489473  1
  Rh  Rh30  1  0.073394  0.250000  0.989667  1
  Rh  Rh31  1  0.928531  0.750000  0.008170  1
