# generated using pymatgen
data_Nd2CdCuNi
_symmetry_space_group_name_H-M   'P 1'
_cell_length_a   7.69554000
_cell_length_b   7.74231500
_cell_length_c   3.78218100
_cell_angle_alpha   90.00000000
_cell_angle_beta   90.00000000
_cell_angle_gamma   90.00000000
_symmetry_Int_Tables_number   1
_chemical_formula_structural   Nd2CdCuNi
_chemical_formula_sum   'Nd4 Cd2 Cu2 Ni2'
_cell_volume   225.34724105
_cell_formula_units_Z   2
loop_
 _symmetry_equiv_pos_site_id
 _symmetry_equiv_pos_as_xyz
  1  'x, y, z'
loop_
 _atom_site_type_symbol
 _atom_site_label
 _atom_site_symmetry_multiplicity
 _atom_site_fract_x
 _atom_site_fract_y
 _atom_site_fract_z
 _atom_site_occupancy
  Nd  Nd0  1  0.324488  0.811482  0.500000  1
  Nd  Nd1  1  0.824488  0.688518  0.500000  1
  Nd  Nd2  1  0.178047  0.337291  0.500000  1
  Nd  Nd3  1  0.678047  0.162709  0.500000  1
  Cd  Cd4  1  0.005878  0.003380  0.000000  1
  Cd  Cd5  1  0.505878  0.496620  0.000000  1
  Cu  Cu6  1  0.378837  0.112656  0.000000  1
  Cu  Cu7  1  0.878837  0.387344  0.000000  1
  Ni  Ni8  1  0.112750  0.616432  0.000000  1
  Ni  Ni9  1  0.612750  0.883568  0.000000  1
