# generated using pymatgen
data_La2InGaIr2
_symmetry_space_group_name_H-M   'P 1'
_cell_length_a   4.24270500
_cell_length_b   7.57293600
_cell_length_c   16.78492400
_cell_angle_alpha   90.00000000
_cell_angle_beta   90.00000000
_cell_angle_gamma   90.00000000
_symmetry_Int_Tables_number   1
_chemical_formula_structural   La2InGaIr2
_chemical_formula_sum   'La8 In4 Ga4 Ir8'
_cell_volume   539.29513379
_cell_formula_units_Z   4
loop_
 _symmetry_equiv_pos_site_id
 _symmetry_equiv_pos_as_xyz
  1  'x, y, z'
loop_
 _atom_site_type_symbol
 _atom_site_label
 _atom_site_symmetry_multiplicity
 _atom_site_fract_x
 _atom_site_fract_y
 _atom_site_fract_z
 _atom_site_occupancy
  La  La0  1  0.250000  0.541904  0.784287  1
  La  La1  1  0.750000  0.458096  0.215713  1
  La  La2  1  0.750000  0.958096  0.284287  1
  La  La3  1  0.250000  0.041904  0.715713  1
  La  La4  1  0.250000  0.672501  0.559154  1
  La  La5  1  0.750000  0.327499  0.440846  1
  La  La6  1  0.750000  0.827499  0.059154  1
  La  La7  1  0.250000  0.172501  0.940846  1
  In  In8  1  0.250000  0.628228  0.349703  1
  In  In9  1  0.750000  0.371772  0.650297  1
  In  In10  1  0.750000  0.871772  0.849703  1
  In  In11  1  0.250000  0.128228  0.150297  1
  Ga  Ga12  1  0.250000  0.501718  0.062875  1
  Ga  Ga13  1  0.750000  0.498282  0.937125  1
  Ga  Ga14  1  0.750000  0.998282  0.562875  1
  Ga  Ga15  1  0.250000  0.001718  0.437125  1
  Ir  Ir16  1  0.250000  0.745720  0.180005  1
  Ir  Ir17  1  0.750000  0.254280  0.819995  1
  Ir  Ir18  1  0.750000  0.754280  0.680005  1
  Ir  Ir19  1  0.250000  0.245720  0.319995  1
  Ir  Ir20  1  0.250000  0.716975  0.937121  1
  Ir  Ir21  1  0.750000  0.283025  0.062879  1
  Ir  Ir22  1  0.750000  0.783025  0.437121  1
  Ir  Ir23  1  0.250000  0.216975  0.562879  1
