# generated using pymatgen
data_MnCr20(IrC3)2
_symmetry_space_group_name_H-M   'P 1'
_cell_length_a   7.50861835
_cell_length_b   7.50829538
_cell_length_c   7.50721603
_cell_angle_alpha   60.02412296
_cell_angle_beta   60.00243872
_cell_angle_gamma   60.00114539
_symmetry_Int_Tables_number   1
_chemical_formula_structural   MnCr20(IrC3)2
_chemical_formula_sum   'Mn1 Cr20 Ir2 C6'
_cell_volume   299.33408799
_cell_formula_units_Z   1
loop_
 _symmetry_equiv_pos_site_id
 _symmetry_equiv_pos_as_xyz
  1  'x, y, z'
loop_
 _atom_site_type_symbol
 _atom_site_label
 _atom_site_symmetry_multiplicity
 _atom_site_fract_x
 _atom_site_fract_y
 _atom_site_fract_z
 _atom_site_occupancy
  Mn  Mn0  1  0.000000  0.000000  0.000000  1
  Cr  Cr1  1  0.615312  0.615252  0.154094  1
  Cr  Cr2  1  0.615369  0.154042  0.615244  1
  Cr  Cr3  1  0.154033  0.615417  0.615355  1
  Cr  Cr4  1  0.615175  0.615376  0.615365  1
  Cr  Cr5  1  0.384688  0.384748  0.845906  1
  Cr  Cr6  1  0.384631  0.845958  0.384756  1
  Cr  Cr7  1  0.845967  0.384583  0.384645  1
  Cr  Cr8  1  0.384825  0.384624  0.384635  1
  Cr  Cr9  1  0.999922  0.000029  0.335643  1
  Cr  Cr10  1  0.664503  0.000010  0.335634  1
  Cr  Cr11  1  0.999988  0.664657  0.335415  1
  Cr  Cr12  1  0.664521  0.335545  0.000023  1
  Cr  Cr13  1  0.999933  0.335557  0.000088  1
  Cr  Cr14  1  0.000012  0.335343  0.664585  1
  Cr  Cr15  1  0.335479  0.664455  0.999977  1
  Cr  Cr16  1  0.335497  0.999990  0.664366  1
  Cr  Cr17  1  0.335365  0.000022  0.000068  1
  Cr  Cr18  1  0.000078  0.999971  0.664357  1
  Cr  Cr19  1  0.000067  0.664443  0.999912  1
  Cr  Cr20  1  0.664635  0.999978  0.999932  1
  Ir  Ir21  1  0.749987  0.750108  0.750002  1
  Ir  Ir22  1  0.250013  0.249892  0.249998  1
  C  C23  1  0.723482  0.723543  0.276461  1
  C  C24  1  0.276485  0.723569  0.276507  1
  C  C25  1  0.723674  0.276321  0.276408  1
  C  C26  1  0.276518  0.276457  0.723539  1
  C  C27  1  0.723515  0.276431  0.723493  1
  C  C28  1  0.276326  0.723679  0.723592  1
