# generated using pymatgen
data_Ce2Ho13Th(CdIr)4
_symmetry_space_group_name_H-M   'P 1'
_cell_length_a   9.66082041
_cell_length_b   9.66055848
_cell_length_c   9.69854700
_cell_angle_alpha   59.86983747
_cell_angle_beta   59.87073906
_cell_angle_gamma   59.68528186
_symmetry_Int_Tables_number   1
_chemical_formula_structural   Ce2Ho13Th(CdIr)4
_chemical_formula_sum   'Ce2 Ho13 Th1 Cd4 Ir4'
_cell_volume   637.25622224
_cell_formula_units_Z   1
loop_
 _symmetry_equiv_pos_site_id
 _symmetry_equiv_pos_as_xyz
  1  'x, y, z'
loop_
 _atom_site_type_symbol
 _atom_site_label
 _atom_site_symmetry_multiplicity
 _atom_site_fract_x
 _atom_site_fract_y
 _atom_site_fract_z
 _atom_site_occupancy
  Ce  Ce0  1  0.597335  0.600013  0.598568  1
  Ce  Ce1  1  0.597335  0.600013  0.204086  1
  Ho  Ho2  1  0.196941  0.601724  0.600669  1
  Ho  Ho3  1  0.060770  0.438433  0.440309  1
  Ho  Ho4  1  0.436871  0.061816  0.063050  1
  Ho  Ho5  1  0.436871  0.061816  0.438263  1
  Ho  Ho6  1  0.060770  0.438433  0.060488  1
  Ho  Ho7  1  0.438677  0.438579  0.061372  1
  Ho  Ho8  1  0.063087  0.060848  0.438033  1
  Ho  Ho9  1  0.189433  0.812058  0.812810  1
  Ho  Ho10  1  0.814020  0.187004  0.184674  1
  Ho  Ho11  1  0.814020  0.187004  0.814302  1
  Ho  Ho12  1  0.189433  0.812058  0.185700  1
  Ho  Ho13  1  0.813951  0.813440  0.186305  1
  Ho  Ho14  1  0.186697  0.186132  0.813586  1
  Th  Th15  1  0.598384  0.201750  0.599934  1
  Cd  Cd16  1  0.832777  0.829337  0.833179  1
  Cd  Cd17  1  0.832777  0.829337  0.504706  1
  Cd  Cd18  1  0.831449  0.504733  0.831909  1
  Cd  Cd19  1  0.503153  0.829748  0.833550  1
  Ir  Ir20  1  0.394224  0.394318  0.389618  1
  Ir  Ir21  1  0.394224  0.394318  0.821842  1
  Ir  Ir22  1  0.395894  0.821805  0.391151  1
  Ir  Ir23  1  0.820912  0.395288  0.391901  1
