# generated using pymatgen
data_Tb5Ho3Ti11Si16Ir
_symmetry_space_group_name_H-M   'P 1'
_cell_length_a   7.04140755
_cell_length_b   7.03981815
_cell_length_c   12.88608028
_cell_angle_alpha   90.13606168
_cell_angle_beta   89.85647533
_cell_angle_gamma   89.85635446
_symmetry_Int_Tables_number   1
_chemical_formula_structural   Tb5Ho3Ti11Si16Ir
_chemical_formula_sum   'Tb5 Ho3 Ti11 Si16 Ir1'
_cell_volume   638.76012315
_cell_formula_units_Z   1
loop_
 _symmetry_equiv_pos_site_id
 _symmetry_equiv_pos_as_xyz
  1  'x, y, z'
loop_
 _atom_site_type_symbol
 _atom_site_label
 _atom_site_symmetry_multiplicity
 _atom_site_fract_x
 _atom_site_fract_y
 _atom_site_fract_z
 _atom_site_occupancy
  Tb  Tb0  1  0.340322  0.004581  0.467411  1
  Tb  Tb1  1  0.496350  0.841498  0.718089  1
  Tb  Tb2  1  0.501217  0.158534  0.214866  1
  Tb  Tb3  1  0.841628  0.496328  0.281936  1
  Tb  Tb4  1  0.158482  0.501241  0.785152  1
  Ho  Ho5  1  0.657573  0.998223  0.968665  1
  Ho  Ho6  1  0.003749  0.340842  0.532739  1
  Ho  Ho7  1  0.998224  0.657594  0.031299  1
  Ti  Ti8  1  0.175450  0.826993  0.248055  1
  Ti  Ti9  1  0.827067  0.175539  0.751941  1
  Ti  Ti10  1  0.673899  0.673623  0.499991  1
  Ti  Ti11  1  0.149142  0.002731  0.875986  1
  Ti  Ti12  1  0.493835  0.656717  0.124565  1
  Ti  Ti13  1  0.506832  0.349264  0.628072  1
  Ti  Ti14  1  0.656771  0.493846  0.875381  1
  Ti  Ti15  1  0.349232  0.506650  0.371970  1
  Ti  Ti16  1  0.848879  0.993824  0.374944  1
  Ti  Ti17  1  0.002630  0.149207  0.124010  1
  Ti  Ti18  1  0.993809  0.848847  0.625089  1
  Si  Si19  1  0.201552  0.132659  0.685623  1
  Si  Si20  1  0.372692  0.701884  0.934352  1
  Si  Si21  1  0.631524  0.296267  0.435000  1
  Si  Si22  1  0.701905  0.372700  0.065598  1
  Si  Si23  1  0.295495  0.629994  0.565185  1
  Si  Si24  1  0.797062  0.867985  0.183523  1
  Si  Si25  1  0.132077  0.202282  0.314235  1
  Si  Si26  1  0.868048  0.796981  0.816487  1
  Si  Si27  1  0.285972  0.951309  0.063695  1
  Si  Si28  1  0.547565  0.791280  0.315487  1
  Si  Si29  1  0.449658  0.210177  0.818764  1
  Si  Si30  1  0.791764  0.547061  0.684269  1
  Si  Si31  1  0.210135  0.449758  0.181199  1
  Si  Si32  1  0.710043  0.048873  0.565699  1
  Si  Si33  1  0.951254  0.285970  0.936285  1
  Si  Si34  1  0.048117  0.708731  0.434472  1
  Ir  Ir35  1  0.330048  0.330006  0.999968  1
