# generated using pymatgen
data_Y4Th2Co17MoP12
_symmetry_space_group_name_H-M   'P 1'
_cell_length_a   3.72325000
_cell_length_b   10.56392800
_cell_length_c   12.26141300
_cell_angle_alpha   90.00000000
_cell_angle_beta   90.00000000
_cell_angle_gamma   90.00000000
_symmetry_Int_Tables_number   1
_chemical_formula_structural   Y4Th2Co17MoP12
_chemical_formula_sum   'Y4 Th2 Co17 Mo1 P12'
_cell_volume   482.26767311
_cell_formula_units_Z   1
loop_
 _symmetry_equiv_pos_site_id
 _symmetry_equiv_pos_as_xyz
  1  'x, y, z'
loop_
 _atom_site_type_symbol
 _atom_site_label
 _atom_site_symmetry_multiplicity
 _atom_site_fract_x
 _atom_site_fract_y
 _atom_site_fract_z
 _atom_site_occupancy
  Y  Y0  1  0.500000  0.816927  0.204769  1
  Y  Y1  1  0.500000  0.183073  0.204769  1
  Y  Y2  1  0.000000  0.684005  0.797361  1
  Y  Y3  1  0.000000  0.315995  0.797361  1
  Th  Th4  1  0.000000  0.500000  0.527685  1
  Th  Th5  1  0.500000  0.000000  0.475299  1
  Co  Co6  1  0.000000  0.000000  0.842669  1
  Co  Co7  1  0.500000  0.500000  0.701863  1
  Co  Co8  1  0.000000  0.000000  0.297018  1
  Co  Co9  1  0.000000  0.500000  0.985764  1
  Co  Co10  1  0.500000  0.000000  0.014350  1
  Co  Co11  1  0.500000  0.331327  0.990533  1
  Co  Co12  1  0.500000  0.668673  0.990533  1
  Co  Co13  1  0.000000  0.165455  0.005444  1
  Co  Co14  1  0.000000  0.834545  0.005444  1
  Co  Co15  1  0.500000  0.297677  0.431054  1
  Co  Co16  1  0.500000  0.702323  0.431054  1
  Co  Co17  1  0.000000  0.200705  0.570027  1
  Co  Co18  1  0.000000  0.799295  0.570027  1
  Co  Co19  1  0.500000  0.880463  0.711851  1
  Co  Co20  1  0.500000  0.119537  0.711851  1
  Co  Co21  1  0.000000  0.620483  0.289770  1
  Co  Co22  1  0.000000  0.379517  0.289770  1
  Mo  Mo23  1  0.500000  0.500000  0.153209  1
  P  P24  1  0.500000  0.500000  0.880965  1
  P  P25  1  0.000000  0.000000  0.117318  1
  P  P26  1  0.500000  0.500000  0.344423  1
  P  P27  1  0.000000  0.000000  0.661191  1
  P  P28  1  0.500000  0.305510  0.619095  1
  P  P29  1  0.500000  0.694490  0.619095  1
  P  P30  1  0.000000  0.193710  0.382241  1
  P  P31  1  0.000000  0.806290  0.382241  1
  P  P32  1  0.500000  0.849317  0.893071  1
  P  P33  1  0.500000  0.150683  0.893071  1
  P  P34  1  0.000000  0.656969  0.103907  1
  P  P35  1  0.000000  0.343031  0.103907  1
