# generated using pymatgen
data_Nd2DyHo5(Si3Rh)4
_symmetry_space_group_name_H-M   'P 1'
_cell_length_a   8.19907300
_cell_length_b   8.19907326
_cell_length_c   7.99984800
_cell_angle_alpha   90.00000000
_cell_angle_beta   90.00000000
_cell_angle_gamma   120.00334347
_symmetry_Int_Tables_number   1
_chemical_formula_structural   Nd2DyHo5(Si3Rh)4
_chemical_formula_sum   'Nd2 Dy1 Ho5 Si12 Rh4'
_cell_volume   465.72253679
_cell_formula_units_Z   1
loop_
 _symmetry_equiv_pos_site_id
 _symmetry_equiv_pos_as_xyz
  1  'x, y, z'
loop_
 _atom_site_type_symbol
 _atom_site_label
 _atom_site_symmetry_multiplicity
 _atom_site_fract_x
 _atom_site_fract_y
 _atom_site_fract_z
 _atom_site_occupancy
  Nd  Nd0  1  0.999987  0.000013  0.250000  1
  Nd  Nd1  1  0.000020  0.999980  0.750000  1
  Dy  Dy2  1  0.508814  0.491186  0.250000  1
  Ho  Ho3  1  0.508794  0.017530  0.250000  1
  Ho  Ho4  1  0.982470  0.491206  0.250000  1
  Ho  Ho5  1  0.491214  0.508786  0.750000  1
  Ho  Ho6  1  0.491212  0.982435  0.750000  1
  Ho  Ho7  1  0.017565  0.508788  0.750000  1
  Si  Si8  1  0.168312  0.831688  0.500575  1
  Si  Si9  1  0.168230  0.336580  0.500611  1
  Si  Si10  1  0.663420  0.831770  0.500611  1
  Si  Si11  1  0.831684  0.168316  0.499451  1
  Si  Si12  1  0.831808  0.663439  0.499547  1
  Si  Si13  1  0.336561  0.168192  0.499547  1
  Si  Si14  1  0.831684  0.168316  0.000549  1
  Si  Si15  1  0.831808  0.663439  0.000453  1
  Si  Si16  1  0.336561  0.168192  0.000453  1
  Si  Si17  1  0.168312  0.831688  0.999425  1
  Si  Si18  1  0.168230  0.336580  0.999389  1
  Si  Si19  1  0.663420  0.831770  0.999389  1
  Rh  Rh20  1  0.333223  0.666777  0.465726  1
  Rh  Rh21  1  0.666723  0.333277  0.534539  1
  Rh  Rh22  1  0.666723  0.333277  0.965461  1
  Rh  Rh23  1  0.333223  0.666777  0.034274  1
