# generated using pymatgen
data_TaFe2RuCl16
_symmetry_space_group_name_H-M   'P 1'
_cell_length_a   9.88934862
_cell_length_b   9.88934856
_cell_length_c   8.68918900
_cell_angle_alpha   90.00000000
_cell_angle_beta   90.00000000
_cell_angle_gamma   128.81373864
_symmetry_Int_Tables_number   1
_chemical_formula_structural   TaFe2RuCl16
_chemical_formula_sum   'Ta1 Fe2 Ru1 Cl16'
_cell_volume   662.15048155
_cell_formula_units_Z   1
loop_
 _symmetry_equiv_pos_site_id
 _symmetry_equiv_pos_as_xyz
  1  'x, y, z'
loop_
 _atom_site_type_symbol
 _atom_site_label
 _atom_site_symmetry_multiplicity
 _atom_site_fract_x
 _atom_site_fract_y
 _atom_site_fract_z
 _atom_site_occupancy
  Ta  Ta0  1  0.115246  0.884754  0.750000  1
  Fe  Fe1  1  0.314868  0.685132  0.750000  1
  Fe  Fe2  1  0.686637  0.313363  0.250000  1
  Ru  Ru3  1  0.879525  0.120475  0.250000  1
  Cl  Cl4  1  0.380212  0.619788  0.542258  1
  Cl  Cl5  1  0.620263  0.379737  0.456371  1
  Cl  Cl6  1  0.424914  0.970336  0.750000  1
  Cl  Cl7  1  0.971563  0.421736  0.250000  1
  Cl  Cl8  1  0.578264  0.028437  0.250000  1
  Cl  Cl9  1  0.029664  0.575086  0.750000  1
  Cl  Cl10  1  0.237783  0.169739  0.750000  1
  Cl  Cl11  1  0.158950  0.234387  0.250000  1
  Cl  Cl12  1  0.765613  0.841050  0.250000  1
  Cl  Cl13  1  0.830261  0.762217  0.750000  1
  Cl  Cl14  1  0.133221  0.866779  0.485365  1
  Cl  Cl15  1  0.869660  0.130340  0.511725  1
  Cl  Cl16  1  0.869660  0.130340  0.988275  1
  Cl  Cl17  1  0.133221  0.866779  0.014635  1
  Cl  Cl18  1  0.380212  0.619788  0.957742  1
  Cl  Cl19  1  0.620263  0.379737  0.043629  1
