# generated using pymatgen
data_TbHo4Ta2BiO14
_symmetry_space_group_name_H-M   'P 1'
_cell_length_a   6.51801027
_cell_length_b   6.51800941
_cell_length_c   7.50144910
_cell_angle_alpha   90.11884730
_cell_angle_beta   89.88115306
_cell_angle_gamma   108.13830892
_symmetry_Int_Tables_number   1
_chemical_formula_structural   TbHo4Ta2BiO14
_chemical_formula_sum   'Tb1 Ho4 Ta2 Bi1 O14'
_cell_volume   302.85730777
_cell_formula_units_Z   1
loop_
 _symmetry_equiv_pos_site_id
 _symmetry_equiv_pos_as_xyz
  1  'x, y, z'
loop_
 _atom_site_type_symbol
 _atom_site_label
 _atom_site_symmetry_multiplicity
 _atom_site_fract_x
 _atom_site_fract_y
 _atom_site_fract_z
 _atom_site_occupancy
  Tb  Tb0  1  0.459466  0.459466  0.000000  1
  Ho  Ho1  1  0.999698  0.535953  0.238511  1
  Ho  Ho2  1  0.999803  0.465344  0.743550  1
  Ho  Ho3  1  0.535953  0.999698  0.761489  1
  Ho  Ho4  1  0.465344  0.999803  0.256450  1
  Ta  Ta5  1  0.006108  0.006108  0.500000  1
  Ta  Ta6  1  0.997653  0.997653  0.000000  1
  Bi  Bi7  1  0.538552  0.538552  0.500000  1
  O  O8  1  0.932565  0.068230  0.749794  1
  O  O9  1  0.068230  0.932565  0.250206  1
  O  O10  1  0.356117  0.645247  0.239952  1
  O  O11  1  0.645247  0.356117  0.760048  1
  O  O12  1  0.367004  0.635774  0.760331  1
  O  O13  1  0.635774  0.367004  0.239669  1
  O  O14  1  0.327061  0.079907  0.976017  1
  O  O15  1  0.671574  0.918878  0.475272  1
  O  O16  1  0.304610  0.040771  0.547026  1
  O  O17  1  0.694863  0.954823  0.045475  1
  O  O18  1  0.040771  0.304610  0.452974  1
  O  O19  1  0.954823  0.694863  0.954525  1
  O  O20  1  0.918878  0.671574  0.524728  1
  O  O21  1  0.079907  0.327061  0.023983  1
