# generated using pymatgen
data_Li3CePr2Pt3
_symmetry_space_group_name_H-M   'P 1'
_cell_length_a   7.37717209
_cell_length_b   7.31131717
_cell_length_c   4.13728300
_cell_angle_alpha   90.00000000
_cell_angle_beta   90.00000000
_cell_angle_gamma   120.30249611
_symmetry_Int_Tables_number   1
_chemical_formula_structural   Li3CePr2Pt3
_chemical_formula_sum   'Li3 Ce1 Pr2 Pt3'
_cell_volume   192.66353179
_cell_formula_units_Z   1
loop_
 _symmetry_equiv_pos_site_id
 _symmetry_equiv_pos_as_xyz
  1  'x, y, z'
loop_
 _atom_site_type_symbol
 _atom_site_label
 _atom_site_symmetry_multiplicity
 _atom_site_fract_x
 _atom_site_fract_y
 _atom_site_fract_z
 _atom_site_occupancy
  Li  Li0  1  0.228360  0.000023  0.500000  1
  Li  Li1  1  0.999201  0.231931  0.500000  1
  Li  Li2  1  0.767263  0.768070  0.500000  1
  Ce  Ce3  1  0.593572  0.999985  0.000000  1
  Pr  Pr4  1  0.002083  0.593472  0.000000  1
  Pr  Pr5  1  0.408600  0.406505  0.000000  1
  Pt  Pt6  1  0.346935  0.681387  0.500000  1
  Pt  Pt7  1  0.665556  0.318610  0.500000  1
  Pt  Pt8  1  0.988431  0.000016  0.000000  1
