# generated using pymatgen
data_Er5(RuO6)2
_symmetry_space_group_name_H-M   'P 1'
_cell_length_a   5.66145200
_cell_length_b   7.39941700
_cell_length_c   12.33194256
_cell_angle_alpha   107.23799355
_cell_angle_beta   90.00000000
_cell_angle_gamma   90.00000000
_symmetry_Int_Tables_number   1
_chemical_formula_structural   Er5(RuO6)2
_chemical_formula_sum   'Er10 Ru4 O24'
_cell_volume   493.39814817
_cell_formula_units_Z   2
loop_
 _symmetry_equiv_pos_site_id
 _symmetry_equiv_pos_as_xyz
  1  'x, y, z'
loop_
 _atom_site_type_symbol
 _atom_site_label
 _atom_site_symmetry_multiplicity
 _atom_site_fract_x
 _atom_site_fract_y
 _atom_site_fract_z
 _atom_site_occupancy
  Er  Er0  1  0.250000  0.609981  0.437703  1
  Er  Er1  1  0.750000  0.390019  0.562297  1
  Er  Er2  1  0.250000  0.089652  0.448329  1
  Er  Er3  1  0.750000  0.910348  0.551671  1
  Er  Er4  1  0.250000  0.890138  0.062323  1
  Er  Er5  1  0.750000  0.109862  0.937677  1
  Er  Er6  1  0.250000  0.410449  0.051624  1
  Er  Er7  1  0.750000  0.589551  0.948376  1
  Er  Er8  1  0.250000  0.249896  0.750004  1
  Er  Er9  1  0.750000  0.750104  0.249996  1
  Ru  Ru10  1  0.472280  0.749850  0.750162  1
  Ru  Ru11  1  0.972280  0.250150  0.249838  1
  Ru  Ru12  1  0.527720  0.250150  0.249838  1
  Ru  Ru13  1  0.027720  0.749850  0.750162  1
  O  O14  1  0.250000  0.954206  0.752061  1
  O  O15  1  0.750000  0.045794  0.247939  1
  O  O16  1  0.501651  0.330234  0.902668  1
  O  O17  1  0.001651  0.669766  0.097332  1
  O  O18  1  0.498349  0.669766  0.097332  1
  O  O19  1  0.998349  0.330234  0.902668  1
  O  O20  1  0.250000  0.545479  0.748348  1
  O  O21  1  0.750000  0.454521  0.251652  1
  O  O22  1  0.250000  0.073449  0.250992  1
  O  O23  1  0.750000  0.926551  0.749008  1
  O  O24  1  0.502998  0.830400  0.917249  1
  O  O25  1  0.002998  0.169600  0.082751  1
  O  O26  1  0.497002  0.169600  0.082751  1
  O  O27  1  0.997002  0.830400  0.917249  1
  O  O28  1  0.501628  0.169658  0.597308  1
  O  O29  1  0.001628  0.830342  0.402692  1
  O  O30  1  0.498372  0.830342  0.402692  1
  O  O31  1  0.998372  0.169658  0.597308  1
  O  O32  1  0.502855  0.669493  0.582889  1
  O  O33  1  0.002855  0.330507  0.417111  1
  O  O34  1  0.497145  0.330507  0.417111  1
  O  O35  1  0.997145  0.669493  0.582889  1
  O  O36  1  0.250000  0.426950  0.248874  1
  O  O37  1  0.750000  0.573050  0.751126  1
