# generated using pymatgen
data_Tb6Nd(CCl5)2
_symmetry_space_group_name_H-M   'P 1'
_cell_length_a   10.36563342
_cell_length_b   10.36563304
_cell_length_c   12.95176383
_cell_angle_alpha   80.10372294
_cell_angle_beta   80.10372407
_cell_angle_gamma   20.99369882
_symmetry_Int_Tables_number   1
_chemical_formula_structural   Tb6Nd(CCl5)2
_chemical_formula_sum   'Tb6 Nd1 C2 Cl10'
_cell_volume   490.89392155
_cell_formula_units_Z   1
loop_
 _symmetry_equiv_pos_site_id
 _symmetry_equiv_pos_as_xyz
  1  'x, y, z'
loop_
 _atom_site_type_symbol
 _atom_site_label
 _atom_site_symmetry_multiplicity
 _atom_site_fract_x
 _atom_site_fract_y
 _atom_site_fract_z
 _atom_site_occupancy
  Tb  Tb0  1  0.819071  0.819071  0.506446  1
  Tb  Tb1  1  0.180929  0.180929  0.493554  1
  Tb  Tb2  1  0.698523  0.698523  0.722429  1
  Tb  Tb3  1  0.301477  0.301477  0.277571  1
  Tb  Tb4  1  0.345434  0.345434  0.731356  1
  Tb  Tb5  1  0.654566  0.654566  0.268644  1
  Nd  Nd6  1  0.000000  0.000000  0.000000  1
  C  C7  1  0.261369  0.261369  0.626311  1
  C  C8  1  0.738631  0.738631  0.373689  1
  Cl  Cl9  1  0.447956  0.447956  0.872280  1
  Cl  Cl10  1  0.552044  0.552044  0.127720  1
  Cl  Cl11  1  0.785109  0.785109  0.867597  1
  Cl  Cl12  1  0.214891  0.214891  0.132403  1
  Cl  Cl13  1  0.123339  0.123339  0.864092  1
  Cl  Cl14  1  0.075803  0.075803  0.374512  1
  Cl  Cl15  1  0.924197  0.924197  0.625488  1
  Cl  Cl16  1  0.402366  0.402366  0.385218  1
  Cl  Cl17  1  0.597634  0.597634  0.614782  1
  Cl  Cl18  1  0.876661  0.876661  0.135908  1
