# generated using pymatgen
data_KSc3(CuTe3)2
_symmetry_space_group_name_H-M   'P 1'
_cell_length_a   9.08158007
_cell_length_b   9.08158039
_cell_length_c   10.29769003
_cell_angle_alpha   66.89434857
_cell_angle_beta   66.89435569
_cell_angle_gamma   26.81813818
_symmetry_Int_Tables_number   1
_chemical_formula_structural   KSc3(CuTe3)2
_chemical_formula_sum   'K1 Sc3 Cu2 Te6'
_cell_volume   350.60681928
_cell_formula_units_Z   1
loop_
 _symmetry_equiv_pos_site_id
 _symmetry_equiv_pos_as_xyz
  1  'x, y, z'
loop_
 _atom_site_type_symbol
 _atom_site_label
 _atom_site_symmetry_multiplicity
 _atom_site_fract_x
 _atom_site_fract_y
 _atom_site_fract_z
 _atom_site_occupancy
  K  K0  1  0.000000  0.000000  0.000000  1
  Sc  Sc1  1  0.288458  0.288458  0.635066  1
  Sc  Sc2  1  0.711542  0.711542  0.364934  1
  Sc  Sc3  1  0.000000  0.000000  0.500000  1
  Cu  Cu4  1  0.274729  0.274729  0.916390  1
  Cu  Cu5  1  0.725271  0.725271  0.083610  1
  Te  Te6  1  0.571957  0.571957  0.286005  1
  Te  Te7  1  0.139783  0.139783  0.578403  1
  Te  Te8  1  0.698098  0.698098  0.851917  1
  Te  Te9  1  0.860217  0.860217  0.421597  1
  Te  Te10  1  0.428043  0.428043  0.713995  1
  Te  Te11  1  0.301902  0.301902  0.148083  1
