# generated using pymatgen
data_Ce3Er9Tc3Ru
_symmetry_space_group_name_H-M   'P 1'
_cell_length_a   6.30651465
_cell_length_b   7.17748901
_cell_length_c   9.35339600
_cell_angle_alpha   90.00000000
_cell_angle_beta   90.00000000
_cell_angle_gamma   90.80797002
_symmetry_Int_Tables_number   1
_chemical_formula_structural   Ce3Er9Tc3Ru
_chemical_formula_sum   'Ce3 Er9 Tc3 Ru1'
_cell_volume   423.33880931
_cell_formula_units_Z   1
loop_
 _symmetry_equiv_pos_site_id
 _symmetry_equiv_pos_as_xyz
  1  'x, y, z'
loop_
 _atom_site_type_symbol
 _atom_site_label
 _atom_site_symmetry_multiplicity
 _atom_site_fract_x
 _atom_site_fract_y
 _atom_site_fract_z
 _atom_site_occupancy
  Ce  Ce0  1  0.866407  0.557975  0.250000  1
  Ce  Ce1  1  0.629984  0.056390  0.250000  1
  Ce  Ce2  1  0.137211  0.441021  0.750000  1
  Er  Er3  1  0.333273  0.679128  0.060967  1
  Er  Er4  1  0.163641  0.176379  0.437198  1
  Er  Er5  1  0.665258  0.325874  0.564505  1
  Er  Er6  1  0.832176  0.821546  0.933510  1
  Er  Er7  1  0.665258  0.325874  0.935495  1
  Er  Er8  1  0.832176  0.821546  0.566490  1
  Er  Er9  1  0.333273  0.679128  0.439033  1
  Er  Er10  1  0.163641  0.176379  0.062802  1
  Er  Er11  1  0.372986  0.959133  0.750000  1
  Tc  Tc12  1  0.008776  0.864161  0.250000  1
  Tc  Tc13  1  0.492336  0.361176  0.250000  1
  Tc  Tc14  1  0.980905  0.141381  0.750000  1
  Ru  Ru15  1  0.522700  0.612908  0.750000  1
