# generated using pymatgen
data_TbY3(SiNi2)4
_symmetry_space_group_name_H-M   'P 1'
_cell_length_a   5.44192552
_cell_length_b   6.40008000
_cell_length_c   7.09178005
_cell_angle_alpha   90.00000000
_cell_angle_beta   89.95052445
_cell_angle_gamma   90.00000000
_symmetry_Int_Tables_number   1
_chemical_formula_structural   TbY3(SiNi2)4
_chemical_formula_sum   'Tb1 Y3 Si4 Ni8'
_cell_volume   246.99780399
_cell_formula_units_Z   1
loop_
 _symmetry_equiv_pos_site_id
 _symmetry_equiv_pos_as_xyz
  1  'x, y, z'
loop_
 _atom_site_type_symbol
 _atom_site_label
 _atom_site_symmetry_multiplicity
 _atom_site_fract_x
 _atom_site_fract_y
 _atom_site_fract_z
 _atom_site_occupancy
  Tb  Tb0  1  0.349103  0.750000  0.031320  1
  Y  Y1  1  0.149541  0.750000  0.531118  1
  Y  Y2  1  0.649927  0.250000  0.968705  1
  Y  Y3  1  0.850641  0.250000  0.468816  1
  Si  Si4  1  0.650293  0.750000  0.376297  1
  Si  Si5  1  0.849048  0.750000  0.875716  1
  Si  Si6  1  0.350096  0.250000  0.624109  1
  Si  Si7  1  0.150115  0.250000  0.123964  1
  Ni  Ni8  1  0.910412  0.557507  0.171065  1
  Ni  Ni9  1  0.589477  0.942527  0.670651  1
  Ni  Ni10  1  0.090528  0.057113  0.829559  1
  Ni  Ni11  1  0.410200  0.442606  0.328703  1
  Ni  Ni12  1  0.090528  0.442887  0.829559  1
  Ni  Ni13  1  0.410200  0.057394  0.328703  1
  Ni  Ni14  1  0.910412  0.942493  0.171065  1
  Ni  Ni15  1  0.589477  0.557473  0.670651  1
