# generated using pymatgen
data_TbEr2(In2Ru)2
_symmetry_space_group_name_H-M   'P 1'
_cell_length_a   8.03349615
_cell_length_b   8.02099934
_cell_length_c   3.62499800
_cell_angle_alpha   90.00000000
_cell_angle_beta   90.00000000
_cell_angle_gamma   120.02957502
_symmetry_Int_Tables_number   1
_chemical_formula_structural   TbEr2(In2Ru)2
_chemical_formula_sum   'Tb1 Er2 In4 Ru2'
_cell_volume   202.22831747
_cell_formula_units_Z   1
loop_
 _symmetry_equiv_pos_site_id
 _symmetry_equiv_pos_as_xyz
  1  'x, y, z'
loop_
 _atom_site_type_symbol
 _atom_site_label
 _atom_site_symmetry_multiplicity
 _atom_site_fract_x
 _atom_site_fract_y
 _atom_site_fract_z
 _atom_site_occupancy
  Tb  Tb0  1  0.705721  0.959711  0.500000  1
  Er  Er1  1  0.254253  0.292826  0.500000  1
  Er  Er2  1  0.038851  0.746085  0.500000  1
  In  In3  1  0.934689  0.338006  0.000000  1
  In  In4  1  0.401793  0.066481  0.000000  1
  In  In5  1  0.663801  0.596423  0.000000  1
  In  In6  1  0.331772  0.665745  0.000000  1
  Ru  Ru7  1  0.666697  0.334216  0.500000  1
  Ru  Ru8  1  0.002424  0.000506  0.000000  1
