# generated using pymatgen
data_RbNa3PbO4
_symmetry_space_group_name_H-M   'P 1'
_cell_length_a   6.82335764
_cell_length_b   8.74907317
_cell_length_c   11.61838880
_cell_angle_alpha   83.54771509
_cell_angle_beta   76.64769480
_cell_angle_gamma   79.69029761
_symmetry_Int_Tables_number   1
_chemical_formula_structural   RbNa3PbO4
_chemical_formula_sum   'Rb4 Na12 Pb4 O16'
_cell_volume   662.11959776
_cell_formula_units_Z   4
loop_
 _symmetry_equiv_pos_site_id
 _symmetry_equiv_pos_as_xyz
  1  'x, y, z'
loop_
 _atom_site_type_symbol
 _atom_site_label
 _atom_site_symmetry_multiplicity
 _atom_site_fract_x
 _atom_site_fract_y
 _atom_site_fract_z
 _atom_site_occupancy
  Rb  Rb0  1  0.989919  0.617997  0.121482  1
  Rb  Rb1  1  0.010081  0.382003  0.878518  1
  Rb  Rb2  1  0.959031  0.858158  0.374635  1
  Rb  Rb3  1  0.040969  0.141842  0.625365  1
  Na  Na4  1  0.427726  0.042030  0.377269  1
  Na  Na5  1  0.572274  0.957970  0.622731  1
  Na  Na6  1  0.818166  0.051121  0.106221  1
  Na  Na7  1  0.181834  0.948879  0.893779  1
  Na  Na8  1  0.539500  0.431127  0.125322  1
  Na  Na9  1  0.460500  0.568873  0.874678  1
  Na  Na10  1  0.185054  0.444166  0.396995  1
  Na  Na11  1  0.814946  0.555834  0.603005  1
  Na  Na12  1  0.193194  0.179715  0.146406  1
  Na  Na13  1  0.806806  0.820285  0.853594  1
  Na  Na14  1  0.521532  0.675317  0.385206  1
  Na  Na15  1  0.478468  0.324683  0.614794  1
  Pb  Pb16  1  0.827350  0.292321  0.351882  1
  Pb  Pb17  1  0.172650  0.707679  0.648118  1
  Pb  Pb18  1  0.438198  0.793632  0.133337  1
  Pb  Pb19  1  0.561802  0.206368  0.866663  1
  O  O20  1  0.133130  0.195865  0.356040  1
  O  O21  1  0.866870  0.804135  0.643960  1
  O  O22  1  0.372479  0.335464  0.004295  1
  O  O23  1  0.627521  0.664536  0.995705  1
  O  O24  1  0.328791  0.613941  0.256111  1
  O  O25  1  0.671209  0.386059  0.743889  1
  O  O26  1  0.813116  0.514750  0.409229  1
  O  O27  1  0.186884  0.485250  0.590771  1
  O  O28  1  0.173549  0.934248  0.095990  1
  O  O29  1  0.826451  0.065752  0.904010  1
  O  O30  1  0.834250  0.293112  0.169395  1
  O  O31  1  0.165750  0.706888  0.830605  1
  O  O32  1  0.614986  0.885715  0.227084  1
  O  O33  1  0.385014  0.114285  0.772916  1
  O  O34  1  0.630210  0.156463  0.466159  1
  O  O35  1  0.369790  0.843537  0.533841  1
