# generated using pymatgen
data_Lu12InFe2AgIr
_symmetry_space_group_name_H-M   'P 1'
_cell_length_a   8.16032813
_cell_length_b   8.16033052
_cell_length_c   8.16032901
_cell_angle_alpha   110.40253191
_cell_angle_beta   106.50066439
_cell_angle_gamma   111.55288402
_symmetry_Int_Tables_number   1
_chemical_formula_structural   Lu12InFe2AgIr
_chemical_formula_sum   'Lu12 In1 Fe2 Ag1 Ir1'
_cell_volume   417.43060651
_cell_formula_units_Z   1
loop_
 _symmetry_equiv_pos_site_id
 _symmetry_equiv_pos_as_xyz
  1  'x, y, z'
loop_
 _atom_site_type_symbol
 _atom_site_label
 _atom_site_symmetry_multiplicity
 _atom_site_fract_x
 _atom_site_fract_y
 _atom_site_fract_z
 _atom_site_occupancy
  Lu  Lu0  1  0.309330  0.309103  0.618425  1
  Lu  Lu1  1  0.690670  0.690897  0.381575  1
  Lu  Lu2  1  0.690679  0.309103  0.999773  1
  Lu  Lu3  1  0.309321  0.690897  0.000227  1
  Lu  Lu4  1  0.195841  0.447211  0.251370  1
  Lu  Lu5  1  0.804159  0.552789  0.748630  1
  Lu  Lu6  1  0.195846  0.944479  0.748634  1
  Lu  Lu7  1  0.961240  0.192193  0.769020  1
  Lu  Lu8  1  0.804154  0.055521  0.251366  1
  Lu  Lu9  1  0.038760  0.807807  0.230980  1
  Lu  Lu10  1  0.423171  0.192193  0.230952  1
  Lu  Lu11  1  0.576829  0.807807  0.769048  1
  In  In12  1  0.500000  0.000000  0.500000  1
  Fe  Fe13  1  0.383376  0.383464  0.000088  1
  Fe  Fe14  1  0.616624  0.616536  0.999912  1
  Ag  Ag15  1  0.000000  0.500000  0.500000  1
  Ir  Ir16  1  0.000000  0.000000  0.000000  1
