# generated using pymatgen
data_K2Si(AuSe2)2
_symmetry_space_group_name_H-M   'P 1'
_cell_length_a   13.48632932
_cell_length_b   11.95433219
_cell_length_c   7.74652988
_cell_angle_alpha   83.47901155
_cell_angle_beta   61.72316340
_cell_angle_gamma   34.79783196
_symmetry_Int_Tables_number   1
_chemical_formula_structural   K2Si(AuSe2)2
_chemical_formula_sum   'K4 Si2 Au4 Se8'
_cell_volume   525.00813503
_cell_formula_units_Z   2
loop_
 _symmetry_equiv_pos_site_id
 _symmetry_equiv_pos_as_xyz
  1  'x, y, z'
loop_
 _atom_site_type_symbol
 _atom_site_label
 _atom_site_symmetry_multiplicity
 _atom_site_fract_x
 _atom_site_fract_y
 _atom_site_fract_z
 _atom_site_occupancy
  K  K0  1  0.316139  0.316139  0.683861  1
  K  K1  1  0.683861  0.683861  0.316139  1
  K  K2  1  0.933861  0.933861  0.566139  1
  K  K3  1  0.566139  0.566139  0.933861  1
  Si  Si4  1  0.500000  0.500000  0.500000  1
  Si  Si5  1  0.750000  0.750000  0.750000  1
  Au  Au6  1  0.932556  0.932556  0.067444  1
  Au  Au7  1  0.067444  0.067444  0.932556  1
  Au  Au8  1  0.317444  0.317444  0.182556  1
  Au  Au9  1  0.182556  0.182556  0.317444  1
  Se  Se10  1  0.530415  0.352289  0.265939  1
  Se  Se11  1  0.851357  0.265939  0.352289  1
  Se  Se12  1  0.265939  0.851357  0.530415  1
  Se  Se13  1  0.352289  0.530415  0.851357  1
  Se  Se14  1  0.719585  0.897711  0.984061  1
  Se  Se15  1  0.398643  0.984061  0.897711  1
  Se  Se16  1  0.984061  0.398643  0.719585  1
  Se  Se17  1  0.897711  0.719585  0.398643  1
