# generated using pymatgen
data_PrAs12Os3Ru
_symmetry_space_group_name_H-M   'P 1'
_cell_length_a   7.47485920
_cell_length_b   7.47485978
_cell_length_c   7.47486011
_cell_angle_alpha   109.46154798
_cell_angle_beta   109.46155491
_cell_angle_gamma   109.46156367
_symmetry_Int_Tables_number   1
_chemical_formula_structural   PrAs12Os3Ru
_chemical_formula_sum   'Pr1 As12 Os3 Ru1'
_cell_volume   321.61963648
_cell_formula_units_Z   1
loop_
 _symmetry_equiv_pos_site_id
 _symmetry_equiv_pos_as_xyz
  1  'x, y, z'
loop_
 _atom_site_type_symbol
 _atom_site_label
 _atom_site_symmetry_multiplicity
 _atom_site_fract_x
 _atom_site_fract_y
 _atom_site_fract_z
 _atom_site_occupancy
  Pr  Pr0  1  0.000000  0.000000  0.000000  1
  As  As1  1  0.149486  0.800704  0.651197  1
  As  As2  1  0.850514  0.199296  0.348803  1
  As  As3  1  0.150028  0.498411  0.349036  1
  As  As4  1  0.849972  0.501589  0.650964  1
  As  As5  1  0.651197  0.149486  0.800704  1
  As  As6  1  0.348803  0.850514  0.199296  1
  As  As7  1  0.349036  0.150028  0.498411  1
  As  As8  1  0.650964  0.849972  0.501589  1
  As  As9  1  0.800704  0.651197  0.149486  1
  As  As10  1  0.199296  0.348803  0.850514  1
  As  As11  1  0.498411  0.349036  0.150028  1
  As  As12  1  0.501589  0.650964  0.849972  1
  Os  Os13  1  0.500000  0.000000  0.000000  1
  Os  Os14  1  0.000000  0.000000  0.500000  1
  Os  Os15  1  0.000000  0.500000  0.000000  1
  Ru  Ru16  1  0.500000  0.500000  0.500000  1
