# generated using pymatgen
data_Ho3Sc2(In2Ir)2
_symmetry_space_group_name_H-M   'P 1'
_cell_length_a   3.54094400
_cell_length_b   7.88348800
_cell_length_c   17.93659600
_cell_angle_alpha   90.00000000
_cell_angle_beta   90.00000000
_cell_angle_gamma   90.00000000
_symmetry_Int_Tables_number   1
_chemical_formula_structural   Ho3Sc2(In2Ir)2
_chemical_formula_sum   'Ho6 Sc4 In8 Ir4'
_cell_volume   500.69988959
_cell_formula_units_Z   2
loop_
 _symmetry_equiv_pos_site_id
 _symmetry_equiv_pos_as_xyz
  1  'x, y, z'
loop_
 _atom_site_type_symbol
 _atom_site_label
 _atom_site_symmetry_multiplicity
 _atom_site_fract_x
 _atom_site_fract_y
 _atom_site_fract_z
 _atom_site_occupancy
  Ho  Ho0  1  0.000000  0.000000  0.000000  1
  Ho  Ho1  1  0.000000  0.500000  0.500000  1
  Ho  Ho2  1  0.000000  0.748018  0.780956  1
  Ho  Ho3  1  0.000000  0.251982  0.219044  1
  Ho  Ho4  1  0.000000  0.248018  0.719044  1
  Ho  Ho5  1  0.000000  0.751982  0.280956  1
  Sc  Sc6  1  0.000000  0.878147  0.588153  1
  Sc  Sc7  1  0.000000  0.121853  0.411847  1
  Sc  Sc8  1  0.000000  0.378147  0.911847  1
  Sc  Sc9  1  0.000000  0.621853  0.088153  1
  In  In10  1  0.500000  0.807499  0.437548  1
  In  In11  1  0.500000  0.192501  0.562452  1
  In  In12  1  0.500000  0.307499  0.062452  1
  In  In13  1  0.500000  0.692501  0.937548  1
  In  In14  1  0.500000  0.926356  0.149218  1
  In  In15  1  0.500000  0.073644  0.850782  1
  In  In16  1  0.500000  0.426356  0.350782  1
  In  In17  1  0.500000  0.573644  0.649218  1
  Ir  Ir18  1  0.500000  0.962881  0.692115  1
  Ir  Ir19  1  0.500000  0.037119  0.307885  1
  Ir  Ir20  1  0.500000  0.462881  0.807885  1
  Ir  Ir21  1  0.500000  0.537119  0.192115  1
