# generated using pymatgen
data_Ca2HoTm5(B6Os)4
_symmetry_space_group_name_H-M   'P 1'
_cell_length_a   3.62252400
_cell_length_b   9.11270779
_cell_length_c   11.51114306
_cell_angle_alpha   89.82288664
_cell_angle_beta   90.00000000
_cell_angle_gamma   90.00000000
_symmetry_Int_Tables_number   1
_chemical_formula_structural   Ca2HoTm5(B6Os)4
_chemical_formula_sum   'Ca2 Ho1 Tm5 B24 Os4'
_cell_volume   379.99255874
_cell_formula_units_Z   1
loop_
 _symmetry_equiv_pos_site_id
 _symmetry_equiv_pos_as_xyz
  1  'x, y, z'
loop_
 _atom_site_type_symbol
 _atom_site_label
 _atom_site_symmetry_multiplicity
 _atom_site_fract_x
 _atom_site_fract_y
 _atom_site_fract_z
 _atom_site_occupancy
  Ca  Ca0  1  0.000000  0.323229  0.414690  1
  Ca  Ca1  1  0.000000  0.676756  0.585335  1
  Ho  Ho2  1  0.000000  0.821835  0.086216  1
  Tm  Tm3  1  0.000000  0.178251  0.913784  1
  Tm  Tm4  1  0.000000  0.942478  0.370169  1
  Tm  Tm5  1  0.000000  0.057588  0.629885  1
  Tm  Tm6  1  0.000000  0.442854  0.129534  1
  Tm  Tm7  1  0.000000  0.556943  0.870394  1
  B  B8  1  0.500000  0.554337  0.431818  1
  B  B9  1  0.500000  0.445633  0.568209  1
  B  B10  1  0.500000  0.053682  0.066032  1
  B  B11  1  0.500000  0.946699  0.933746  1
  B  B12  1  0.500000  0.748979  0.417074  1
  B  B13  1  0.500000  0.251025  0.582967  1
  B  B14  1  0.500000  0.248653  0.080354  1
  B  B15  1  0.500000  0.751332  0.919291  1
  B  B16  1  0.500000  0.791826  0.264051  1
  B  B17  1  0.500000  0.208023  0.736227  1
  B  B18  1  0.500000  0.290223  0.233302  1
  B  B19  1  0.500000  0.709786  0.766653  1
  B  B20  1  0.500000  0.631177  0.184359  1
  B  B21  1  0.500000  0.368564  0.815829  1
  B  B22  1  0.500000  0.130006  0.313343  1
  B  B23  1  0.500000  0.870041  0.686667  1
  B  B24  1  0.500000  0.982497  0.211367  1
  B  B25  1  0.500000  0.017880  0.788760  1
  B  B26  1  0.500000  0.483622  0.286873  1
  B  B27  1  0.500000  0.516320  0.713136  1
  B  B28  1  0.500000  0.602910  0.028255  1
  B  B29  1  0.500000  0.396650  0.971624  1
  B  B30  1  0.500000  0.098460  0.472778  1
  B  B31  1  0.500000  0.901558  0.527241  1
  Os  Os32  1  0.000000  0.640546  0.317530  1
  Os  Os33  1  0.000000  0.359285  0.682660  1
  Os  Os34  1  0.000000  0.136585  0.177059  1
  Os  Os35  1  0.000000  0.863764  0.822790  1
