# generated using pymatgen
data_Nb12AlAu7N4
_symmetry_space_group_name_H-M   'P 1'
_cell_length_a   7.16945774
_cell_length_b   7.16945774
_cell_length_c   7.16945774
_cell_angle_alpha   90.05642311
_cell_angle_beta   90.05642311
_cell_angle_gamma   90.05642311
_symmetry_Int_Tables_number   1
_chemical_formula_structural   Nb12AlAu7N4
_chemical_formula_sum   'Nb12 Al1 Au7 N4'
_cell_volume   368.51765179
_cell_formula_units_Z   1
loop_
 _symmetry_equiv_pos_site_id
 _symmetry_equiv_pos_as_xyz
  1  'x, y, z'
loop_
 _atom_site_type_symbol
 _atom_site_label
 _atom_site_symmetry_multiplicity
 _atom_site_fract_x
 _atom_site_fract_y
 _atom_site_fract_z
 _atom_site_occupancy
  Nb  Nb0  1  0.787332  0.954173  0.376795  1
  Nb  Nb1  1  0.709927  0.041837  0.877640  1
  Nb  Nb2  1  0.208824  0.459483  0.127877  1
  Nb  Nb3  1  0.293362  0.540003  0.627093  1
  Nb  Nb4  1  0.954173  0.376795  0.787332  1
  Nb  Nb5  1  0.041837  0.877640  0.709927  1
  Nb  Nb6  1  0.459483  0.127877  0.208824  1
  Nb  Nb7  1  0.540003  0.627093  0.293362  1
  Nb  Nb8  1  0.376795  0.787332  0.954173  1
  Nb  Nb9  1  0.877640  0.709927  0.041837  1
  Nb  Nb10  1  0.127877  0.208824  0.459483  1
  Nb  Nb11  1  0.627093  0.293362  0.540003  1
  Al  Al12  1  0.070263  0.070263  0.070263  1
  Au  Au13  1  0.178176  0.828510  0.302486  1
  Au  Au14  1  0.302486  0.178176  0.828510  1
  Au  Au15  1  0.828510  0.302486  0.178176  1
  Au  Au16  1  0.685147  0.685147  0.685147  1
  Au  Au17  1  0.565392  0.431046  0.937174  1
  Au  Au18  1  0.431046  0.937174  0.565392  1
  Au  Au19  1  0.937174  0.565392  0.431046  1
  N  N20  1  0.873093  0.125611  0.621733  1
  N  N21  1  0.621733  0.873093  0.125611  1
  N  N22  1  0.125611  0.621733  0.873093  1
  N  N23  1  0.377026  0.377026  0.377026  1
