# generated using pymatgen
data_Y2Tm7Lu7(In3Co)2
_symmetry_space_group_name_H-M   'P 1'
_cell_length_a   10.16027801
_cell_length_b   10.16027857
_cell_length_c   6.97503501
_cell_angle_alpha   90.00505605
_cell_angle_beta   89.99494411
_cell_angle_gamma   119.99889299
_symmetry_Int_Tables_number   1
_chemical_formula_structural   Y2Tm7Lu7(In3Co)2
_chemical_formula_sum   'Y2 Tm7 Lu7 In6 Co2'
_cell_volume   623.58128479
_cell_formula_units_Z   1
loop_
 _symmetry_equiv_pos_site_id
 _symmetry_equiv_pos_as_xyz
  1  'x, y, z'
loop_
 _atom_site_type_symbol
 _atom_site_label
 _atom_site_symmetry_multiplicity
 _atom_site_fract_x
 _atom_site_fract_y
 _atom_site_fract_z
 _atom_site_occupancy
  Y  Y0  1  0.000133  0.999867  0.495658  1
  Y  Y1  1  0.000202  0.999798  0.994750  1
  Tm  Tm2  1  0.465180  0.534820  0.482439  1
  Tm  Tm3  1  0.070114  0.535352  0.482566  1
  Tm  Tm4  1  0.464648  0.929886  0.482566  1
  Tm  Tm5  1  0.534871  0.465129  0.982234  1
  Tm  Tm6  1  0.930339  0.465571  0.981844  1
  Tm  Tm7  1  0.534429  0.069661  0.981844  1
  Tm  Tm8  1  0.820389  0.179611  0.276928  1
  Lu  Lu9  1  0.359950  0.179915  0.277096  1
  Lu  Lu10  1  0.820085  0.640050  0.277096  1
  Lu  Lu11  1  0.179909  0.820091  0.777228  1
  Lu  Lu12  1  0.640146  0.820074  0.777027  1
  Lu  Lu13  1  0.179926  0.359854  0.777027  1
  Lu  Lu14  1  0.333363  0.666637  0.089835  1
  Lu  Lu15  1  0.666456  0.333544  0.590351  1
  In  In16  1  0.163092  0.836908  0.233525  1
  In  In17  1  0.673131  0.835691  0.233607  1
  In  In18  1  0.164309  0.326869  0.233607  1
  In  In19  1  0.836856  0.163144  0.734890  1
  In  In20  1  0.326037  0.163107  0.733688  1
  In  In21  1  0.836893  0.673963  0.733688  1
  Co  Co22  1  0.333332  0.666668  0.707616  1
  Co  Co23  1  0.666210  0.333790  0.207441  1
