# generated using pymatgen
data_Hf17Fe4Au3
_symmetry_space_group_name_H-M   'P 1'
_cell_length_a   8.66824786
_cell_length_b   8.66995936
_cell_length_c   8.66843000
_cell_angle_alpha   60.22330892
_cell_angle_beta   60.24337353
_cell_angle_gamma   60.23214573
_symmetry_Int_Tables_number   1
_chemical_formula_structural   Hf17Fe4Au3
_chemical_formula_sum   'Hf17 Fe4 Au3'
_cell_volume   463.08218613
_cell_formula_units_Z   1
loop_
 _symmetry_equiv_pos_site_id
 _symmetry_equiv_pos_as_xyz
  1  'x, y, z'
loop_
 _atom_site_type_symbol
 _atom_site_label
 _atom_site_symmetry_multiplicity
 _atom_site_fract_x
 _atom_site_fract_y
 _atom_site_fract_z
 _atom_site_occupancy
  Hf  Hf0  1  0.712046  0.095300  0.095595  1
  Hf  Hf1  1  0.095339  0.712090  0.095487  1
  Hf  Hf2  1  0.095473  0.095343  0.711999  1
  Hf  Hf3  1  0.104332  0.104177  0.104377  1
  Hf  Hf4  1  0.312503  0.312462  0.675616  1
  Hf  Hf5  1  0.688753  0.688852  0.311429  1
  Hf  Hf6  1  0.312487  0.675604  0.312491  1
  Hf  Hf7  1  0.688769  0.311402  0.688872  1
  Hf  Hf8  1  0.675522  0.312530  0.312574  1
  Hf  Hf9  1  0.311329  0.688912  0.688912  1
  Hf  Hf10  1  0.944471  0.944446  0.555496  1
  Hf  Hf11  1  0.561060  0.561191  0.944478  1
  Hf  Hf12  1  0.944477  0.555641  0.944463  1
  Hf  Hf13  1  0.561242  0.944475  0.561031  1
  Hf  Hf14  1  0.555508  0.944479  0.944491  1
  Hf  Hf15  1  0.944503  0.561273  0.560948  1
  Hf  Hf16  1  0.325917  0.325950  0.325936  1
  Fe  Fe17  1  0.329164  0.893263  0.893312  1
  Fe  Fe18  1  0.893436  0.328937  0.893342  1
  Fe  Fe19  1  0.893515  0.893350  0.328821  1
  Fe  Fe20  1  0.888166  0.888244  0.888244  1
  Au  Au21  1  0.983829  0.339101  0.339105  1
  Au  Au22  1  0.339082  0.983874  0.339107  1
  Au  Au23  1  0.339076  0.339094  0.983872  1
