# generated using pymatgen
data_TbHoTm2(Si3Rh)2
_symmetry_space_group_name_H-M   'P 1'
_cell_length_a   8.14792105
_cell_length_b   8.14792016
_cell_length_c   7.83118000
_cell_angle_alpha   90.00000000
_cell_angle_beta   90.00000000
_cell_angle_gamma   119.98326077
_symmetry_Int_Tables_number   1
_chemical_formula_structural   TbHoTm2(Si3Rh)2
_chemical_formula_sum   'Tb2 Ho2 Tm4 Si12 Rh4'
_cell_volume   450.32353556
_cell_formula_units_Z   2
loop_
 _symmetry_equiv_pos_site_id
 _symmetry_equiv_pos_as_xyz
  1  'x, y, z'
loop_
 _atom_site_type_symbol
 _atom_site_label
 _atom_site_symmetry_multiplicity
 _atom_site_fract_x
 _atom_site_fract_y
 _atom_site_fract_z
 _atom_site_occupancy
  Tb  Tb0  1  0.000075  0.999925  0.250000  1
  Tb  Tb1  1  0.999922  0.000078  0.750000  1
  Ho  Ho2  1  0.490999  0.981696  0.750000  1
  Ho  Ho3  1  0.018304  0.509001  0.750000  1
  Tm  Tm4  1  0.509105  0.490895  0.250000  1
  Tm  Tm5  1  0.509064  0.018198  0.250000  1
  Tm  Tm6  1  0.981802  0.490936  0.250000  1
  Tm  Tm7  1  0.491187  0.508813  0.750000  1
  Si  Si8  1  0.167384  0.832616  0.499108  1
  Si  Si9  1  0.167635  0.334905  0.499692  1
  Si  Si10  1  0.665095  0.832365  0.499692  1
  Si  Si11  1  0.832669  0.167331  0.499192  1
  Si  Si12  1  0.832628  0.665397  0.499326  1
  Si  Si13  1  0.334603  0.167372  0.499326  1
  Si  Si14  1  0.832669  0.167331  0.000808  1
  Si  Si15  1  0.832628  0.665397  0.000674  1
  Si  Si16  1  0.334603  0.167372  0.000674  1
  Si  Si17  1  0.167384  0.832616  0.000892  1
  Si  Si18  1  0.167635  0.334905  0.000308  1
  Si  Si19  1  0.665095  0.832365  0.000308  1
  Rh  Rh20  1  0.333495  0.666505  0.463136  1
  Rh  Rh21  1  0.666264  0.333736  0.533133  1
  Rh  Rh22  1  0.666264  0.333736  0.966867  1
  Rh  Rh23  1  0.333495  0.666505  0.036864  1
