# generated using pymatgen
data_Lu4Zn2(OsRu)3
_symmetry_space_group_name_H-M   'P 1'
_cell_length_a   5.28846938
_cell_length_b   5.28847184
_cell_length_c   8.79456500
_cell_angle_alpha   90.00000000
_cell_angle_beta   90.00000000
_cell_angle_gamma   120.92093355
_symmetry_Int_Tables_number   1
_chemical_formula_structural   Lu4Zn2(OsRu)3
_chemical_formula_sum   'Lu4 Zn2 Os3 Ru3'
_cell_volume   211.00837332
_cell_formula_units_Z   1
loop_
 _symmetry_equiv_pos_site_id
 _symmetry_equiv_pos_as_xyz
  1  'x, y, z'
loop_
 _atom_site_type_symbol
 _atom_site_label
 _atom_site_symmetry_multiplicity
 _atom_site_fract_x
 _atom_site_fract_y
 _atom_site_fract_z
 _atom_site_occupancy
  Lu  Lu0  1  0.329861  0.670139  0.442106  1
  Lu  Lu1  1  0.665383  0.334617  0.568296  1
  Lu  Lu2  1  0.665383  0.334617  0.931704  1
  Lu  Lu3  1  0.329861  0.670139  0.057894  1
  Zn  Zn4  1  0.344254  0.163060  0.250000  1
  Zn  Zn5  1  0.836940  0.655746  0.250000  1
  Os  Os6  1  0.170174  0.337151  0.750000  1
  Os  Os7  1  0.174559  0.825441  0.750000  1
  Os  Os8  1  0.662849  0.829826  0.750000  1
  Ru  Ru9  1  0.991330  0.008670  0.001138  1
  Ru  Ru10  1  0.838078  0.161922  0.250000  1
  Ru  Ru11  1  0.991330  0.008670  0.498862  1
