# generated using pymatgen
data_Nd4Er15LuBi12
_symmetry_space_group_name_H-M   'P 1'
_cell_length_a   8.30668333
_cell_length_b   9.46535900
_cell_length_c   12.10998649
_cell_angle_alpha   90.00000000
_cell_angle_beta   89.96753703
_cell_angle_gamma   90.00000000
_symmetry_Int_Tables_number   1
_chemical_formula_structural   Nd4Er15LuBi12
_chemical_formula_sum   'Nd4 Er15 Lu1 Bi12'
_cell_volume   952.15649419
_cell_formula_units_Z   1
loop_
 _symmetry_equiv_pos_site_id
 _symmetry_equiv_pos_as_xyz
  1  'x, y, z'
loop_
 _atom_site_type_symbol
 _atom_site_label
 _atom_site_symmetry_multiplicity
 _atom_site_fract_x
 _atom_site_fract_y
 _atom_site_fract_z
 _atom_site_occupancy
  Nd  Nd0  1  0.168297  0.750000  0.222946  1
  Nd  Nd1  1  0.331796  0.750000  0.722990  1
  Nd  Nd2  1  0.831851  0.250000  0.777060  1
  Nd  Nd3  1  0.668264  0.250000  0.277041  1
  Er  Er4  1  0.812750  0.565008  0.063148  1
  Er  Er5  1  0.687161  0.934966  0.563162  1
  Er  Er6  1  0.187128  0.064889  0.936848  1
  Er  Er7  1  0.312874  0.435032  0.436858  1
  Er  Er8  1  0.187128  0.435111  0.936848  1
  Er  Er9  1  0.312874  0.064968  0.436858  1
  Er  Er10  1  0.812750  0.934992  0.063148  1
  Er  Er11  1  0.687161  0.565034  0.563162  1
  Er  Er12  1  0.021375  0.750000  0.503371  1
  Er  Er13  1  0.521472  0.250000  0.996607  1
  Er  Er14  1  0.978628  0.250000  0.496617  1
  Er  Er15  1  0.668828  0.750000  0.288395  1
  Er  Er16  1  0.831071  0.750000  0.788535  1
  Er  Er17  1  0.331109  0.250000  0.711519  1
  Er  Er18  1  0.168825  0.250000  0.211455  1
  Lu  Lu19  1  0.478690  0.750000  0.003393  1
  Bi  Bi20  1  0.400571  0.750000  0.461960  1
  Bi  Bi21  1  0.099636  0.750000  0.961932  1
  Bi  Bi22  1  0.599376  0.250000  0.538091  1
  Bi  Bi23  1  0.900705  0.250000  0.038071  1
  Bi  Bi24  1  0.935933  0.505770  0.328562  1
  Bi  Bi25  1  0.563912  0.994073  0.828730  1
  Bi  Bi26  1  0.064067  0.005771  0.671442  1
  Bi  Bi27  1  0.435926  0.494453  0.171259  1
  Bi  Bi28  1  0.064067  0.494229  0.671442  1
  Bi  Bi29  1  0.435926  0.005547  0.171259  1
  Bi  Bi30  1  0.935933  0.994230  0.328562  1
  Bi  Bi31  1  0.563912  0.505927  0.828730  1
