# generated using pymatgen
data_LaGd5OsBr10
_symmetry_space_group_name_H-M   'P 1'
_cell_length_a   7.53451878
_cell_length_b   9.19033285
_cell_length_c   9.52198100
_cell_angle_alpha   108.47526743
_cell_angle_beta   97.20447936
_cell_angle_gamma   105.24731348
_symmetry_Int_Tables_number   1
_chemical_formula_structural   LaGd5OsBr10
_chemical_formula_sum   'La1 Gd5 Os1 Br10'
_cell_volume   587.44258380
_cell_formula_units_Z   1
loop_
 _symmetry_equiv_pos_site_id
 _symmetry_equiv_pos_as_xyz
  1  'x, y, z'
loop_
 _atom_site_type_symbol
 _atom_site_label
 _atom_site_symmetry_multiplicity
 _atom_site_fract_x
 _atom_site_fract_y
 _atom_site_fract_z
 _atom_site_occupancy
  La  La0  1  0.532107  0.207895  0.410692  1
  Gd  Gd1  1  0.466502  0.787674  0.588134  1
  Gd  Gd2  1  0.130861  0.359786  0.313752  1
  Gd  Gd3  1  0.870584  0.644081  0.686789  1
  Gd  Gd4  1  0.631327  0.549109  0.248783  1
  Gd  Gd5  1  0.372013  0.450503  0.752361  1
  Os  Os6  1  0.502509  0.492767  0.498170  1
  Br  Br7  1  0.133402  0.039406  0.220804  1
  Br  Br8  1  0.844023  0.958287  0.771442  1
  Br  Br9  1  0.252153  0.417601  0.044847  1
  Br  Br10  1  0.749790  0.586277  0.956409  1
  Br  Br11  1  0.718139  0.247881  0.144986  1
  Br  Br12  1  0.291841  0.759017  0.845788  1
  Br  Br13  1  0.051730  0.680502  0.420351  1
  Br  Br14  1  0.959481  0.326115  0.586035  1
  Br  Br15  1  0.407047  0.127438  0.681594  1
  Br  Br16  1  0.586489  0.865659  0.329064  1
