# generated using pymatgen
data_Tc3As7
_symmetry_space_group_name_H-M   'P 1'
_cell_length_a   7.64044629
_cell_length_b   7.64044678
_cell_length_c   7.64044600
_cell_angle_alpha   109.47121592
_cell_angle_beta   109.47121720
_cell_angle_gamma   109.47122278
_symmetry_Int_Tables_number   1
_chemical_formula_structural   Tc3As7
_chemical_formula_sum   'Tc6 As14'
_cell_volume   343.34785151
_cell_formula_units_Z   2
loop_
 _symmetry_equiv_pos_site_id
 _symmetry_equiv_pos_as_xyz
  1  'x, y, z'
loop_
 _atom_site_type_symbol
 _atom_site_label
 _atom_site_symmetry_multiplicity
 _atom_site_fract_x
 _atom_site_fract_y
 _atom_site_fract_z
 _atom_site_occupancy
  Tc  Tc0  1  0.342304  0.000000  0.342304  1
  Tc  Tc1  1  0.000000  0.342304  0.342304  1
  Tc  Tc2  1  0.000000  0.657696  0.657696  1
  Tc  Tc3  1  0.342304  0.342304  0.000000  1
  Tc  Tc4  1  0.657696  0.657696  0.000000  1
  Tc  Tc5  1  0.657696  0.000000  0.657696  1
  As  As6  1  0.750000  0.500000  0.250000  1
  As  As7  1  0.500000  0.750000  0.250000  1
  As  As8  1  0.500000  0.250000  0.750000  1
  As  As9  1  0.750000  0.250000  0.500000  1
  As  As10  1  0.250000  0.750000  0.500000  1
  As  As11  1  0.250000  0.500000  0.750000  1
  As  As12  1  0.000000  0.000000  0.331275  1
  As  As13  1  0.668725  0.000000  0.000000  1
  As  As14  1  0.000000  0.668725  0.000000  1
  As  As15  1  0.331275  0.331275  0.331275  1
  As  As16  1  0.000000  0.331275  0.000000  1
  As  As17  1  0.668725  0.668725  0.668725  1
  As  As18  1  0.331275  0.000000  0.000000  1
  As  As19  1  0.000000  0.000000  0.668725  1
