# generated using pymatgen
data_Ba3PrInO6
_symmetry_space_group_name_H-M   'P 1'
_cell_length_a   7.39061222
_cell_length_b   7.39061219
_cell_length_c   7.39061262
_cell_angle_alpha   92.41492562
_cell_angle_beta   92.41493143
_cell_angle_gamma   92.41492902
_symmetry_Int_Tables_number   1
_chemical_formula_structural   Ba3PrInO6
_chemical_formula_sum   'Ba6 Pr2 In2 O12'
_cell_volume   402.57696008
_cell_formula_units_Z   2
loop_
 _symmetry_equiv_pos_site_id
 _symmetry_equiv_pos_as_xyz
  1  'x, y, z'
loop_
 _atom_site_type_symbol
 _atom_site_label
 _atom_site_symmetry_multiplicity
 _atom_site_fract_x
 _atom_site_fract_y
 _atom_site_fract_z
 _atom_site_occupancy
  Ba  Ba0  1  0.250000  0.887617  0.612383  1
  Ba  Ba1  1  0.887617  0.612383  0.250000  1
  Ba  Ba2  1  0.750000  0.112383  0.387617  1
  Ba  Ba3  1  0.387617  0.750000  0.112383  1
  Ba  Ba4  1  0.112383  0.387617  0.750000  1
  Ba  Ba5  1  0.612383  0.250000  0.887617  1
  Pr  Pr6  1  0.750000  0.750000  0.750000  1
  Pr  Pr7  1  0.250000  0.250000  0.250000  1
  In  In8  1  0.500000  0.500000  0.500000  1
  In  In9  1  0.000000  0.000000  0.000000  1
  O  O10  1  0.593781  0.789028  0.459070  1
  O  O11  1  0.459070  0.593781  0.789028  1
  O  O12  1  0.789028  0.459070  0.593781  1
  O  O13  1  0.906219  0.040930  0.710972  1
  O  O14  1  0.710972  0.906219  0.040930  1
  O  O15  1  0.040930  0.710972  0.906219  1
  O  O16  1  0.406219  0.210972  0.540930  1
  O  O17  1  0.540930  0.406219  0.210972  1
  O  O18  1  0.210972  0.540930  0.406219  1
  O  O19  1  0.093781  0.959070  0.289028  1
  O  O20  1  0.959070  0.289028  0.093781  1
  O  O21  1  0.289028  0.093781  0.959070  1
