# generated using pymatgen
data_Er8ZnGa2Pt
_symmetry_space_group_name_H-M   'P 1'
_cell_length_a   10.03133699
_cell_length_b   10.03133775
_cell_length_c   6.91664700
_cell_angle_alpha   90.00000000
_cell_angle_beta   90.00000000
_cell_angle_gamma   120.23254687
_symmetry_Int_Tables_number   1
_chemical_formula_structural   Er8ZnGa2Pt
_chemical_formula_sum   'Er16 Zn2 Ga4 Pt2'
_cell_volume   601.34189082
_cell_formula_units_Z   2
loop_
 _symmetry_equiv_pos_site_id
 _symmetry_equiv_pos_as_xyz
  1  'x, y, z'
loop_
 _atom_site_type_symbol
 _atom_site_label
 _atom_site_symmetry_multiplicity
 _atom_site_fract_x
 _atom_site_fract_y
 _atom_site_fract_z
 _atom_site_occupancy
  Er  Er0  1  0.002291  0.997709  0.266997  1
  Er  Er1  1  0.997709  0.002291  0.766997  1
  Er  Er2  1  0.169171  0.830829  0.983768  1
  Er  Er3  1  0.830829  0.169171  0.483768  1
  Er  Er4  1  0.165945  0.337536  0.996799  1
  Er  Er5  1  0.662464  0.834055  0.996799  1
  Er  Er6  1  0.337536  0.165945  0.496799  1
  Er  Er7  1  0.834055  0.662464  0.496799  1
  Er  Er8  1  0.332427  0.667573  0.658871  1
  Er  Er9  1  0.667573  0.332427  0.158871  1
  Er  Er10  1  0.468446  0.531554  0.295050  1
  Er  Er11  1  0.531554  0.468446  0.795050  1
  Er  Er12  1  0.464780  0.934830  0.295653  1
  Er  Er13  1  0.065170  0.535220  0.295653  1
  Er  Er14  1  0.934830  0.464780  0.795653  1
  Er  Er15  1  0.535220  0.065170  0.795653  1
  Zn  Zn16  1  0.164987  0.835013  0.545881  1
  Zn  Zn17  1  0.835013  0.164987  0.045881  1
  Ga  Ga18  1  0.165476  0.328767  0.541339  1
  Ga  Ga19  1  0.671233  0.834524  0.541339  1
  Ga  Ga20  1  0.328767  0.165476  0.041339  1
  Ga  Ga21  1  0.834524  0.671233  0.041339  1
  Pt  Pt22  1  0.333345  0.666655  0.054913  1
  Pt  Pt23  1  0.666655  0.333345  0.554913  1
