# generated using pymatgen
data_Tb6Zn20PRu3
_symmetry_space_group_name_H-M   'P 1'
_cell_length_a   9.04596838
_cell_length_b   8.96589757
_cell_length_c   8.94133700
_cell_angle_alpha   60.65625008
_cell_angle_beta   59.80229769
_cell_angle_gamma   59.73605966
_symmetry_Int_Tables_number   1
_chemical_formula_structural   Tb6Zn20PRu3
_chemical_formula_sum   'Tb6 Zn20 P1 Ru3'
_cell_volume   513.45730776
_cell_formula_units_Z   1
loop_
 _symmetry_equiv_pos_site_id
 _symmetry_equiv_pos_as_xyz
  1  'x, y, z'
loop_
 _atom_site_type_symbol
 _atom_site_label
 _atom_site_symmetry_multiplicity
 _atom_site_fract_x
 _atom_site_fract_y
 _atom_site_fract_z
 _atom_site_occupancy
  Tb  Tb0  1  0.723852  0.276028  0.290131  1
  Tb  Tb1  1  0.725373  0.274672  0.713975  1
  Tb  Tb2  1  0.715428  0.715546  0.284593  1
  Tb  Tb3  1  0.276148  0.723972  0.709869  1
  Tb  Tb4  1  0.274627  0.725328  0.286025  1
  Tb  Tb5  1  0.284572  0.284454  0.715407  1
  Zn  Zn6  1  0.626064  0.121273  0.129153  1
  Zn  Zn7  1  0.121198  0.626144  0.123486  1
  Zn  Zn8  1  0.128760  0.124867  0.622374  1
  Zn  Zn9  1  0.124796  0.128785  0.123997  1
  Zn  Zn10  1  0.373936  0.878727  0.870847  1
  Zn  Zn11  1  0.878802  0.373856  0.876514  1
  Zn  Zn12  1  0.871240  0.875133  0.377626  1
  Zn  Zn13  1  0.875204  0.871215  0.876003  1
  Zn  Zn14  1  0.500000  0.000000  0.000000  1
  Zn  Zn15  1  0.500000  0.500000  0.000000  1
  Zn  Zn16  1  0.000000  0.500000  0.500000  1
  Zn  Zn17  1  0.000000  0.000000  0.000000  1
  Zn  Zn18  1  0.012381  0.329367  0.327142  1
  Zn  Zn19  1  0.329346  0.012446  0.331109  1
  Zn  Zn20  1  0.329735  0.337386  0.001823  1
  Zn  Zn21  1  0.337358  0.329750  0.331044  1
  Zn  Zn22  1  0.987619  0.670633  0.672858  1
  Zn  Zn23  1  0.670654  0.987554  0.668891  1
  Zn  Zn24  1  0.670265  0.662614  0.998177  1
  Zn  Zn25  1  0.662642  0.670250  0.668956  1
  P  P26  1  0.500000  0.500000  0.500000  1
  Ru  Ru27  1  0.500000  0.000000  0.500000  1
  Ru  Ru28  1  0.000000  0.500000  0.000000  1
  Ru  Ru29  1  0.000000  0.000000  0.500000  1
