# generated using pymatgen
data_NaSr3RhO6
_symmetry_space_group_name_H-M   'P 1'
_cell_length_a   6.82596687
_cell_length_b   6.82596710
_cell_length_c   6.82596789
_cell_angle_alpha   90.66189919
_cell_angle_beta   90.66190230
_cell_angle_gamma   90.66188820
_symmetry_Int_Tables_number   1
_chemical_formula_structural   NaSr3RhO6
_chemical_formula_sum   'Na2 Sr6 Rh2 O12'
_cell_volume   317.98379408
_cell_formula_units_Z   2
loop_
 _symmetry_equiv_pos_site_id
 _symmetry_equiv_pos_as_xyz
  1  'x, y, z'
loop_
 _atom_site_type_symbol
 _atom_site_label
 _atom_site_symmetry_multiplicity
 _atom_site_fract_x
 _atom_site_fract_y
 _atom_site_fract_z
 _atom_site_occupancy
  Na  Na0  1  0.250000  0.250000  0.250000  1
  Na  Na1  1  0.750000  0.750000  0.750000  1
  Sr  Sr2  1  0.890391  0.609609  0.250000  1
  Sr  Sr3  1  0.250000  0.890391  0.609609  1
  Sr  Sr4  1  0.609609  0.250000  0.890391  1
  Sr  Sr5  1  0.109609  0.390391  0.750000  1
  Sr  Sr6  1  0.750000  0.109609  0.390391  1
  Sr  Sr7  1  0.390391  0.750000  0.109609  1
  Rh  Rh8  1  0.500000  0.500000  0.500000  1
  Rh  Rh9  1  0.000000  0.000000  0.000000  1
  O  O10  1  0.425174  0.219336  0.555597  1
  O  O11  1  0.555597  0.425174  0.219336  1
  O  O12  1  0.219336  0.555597  0.425174  1
  O  O13  1  0.074826  0.944403  0.280664  1
  O  O14  1  0.280664  0.074826  0.944403  1
  O  O15  1  0.944403  0.280664  0.074826  1
  O  O16  1  0.574826  0.780664  0.444403  1
  O  O17  1  0.444403  0.574826  0.780664  1
  O  O18  1  0.780664  0.444403  0.574826  1
  O  O19  1  0.925174  0.055597  0.719336  1
  O  O20  1  0.055597  0.719336  0.925174  1
  O  O21  1  0.719336  0.925174  0.055597  1
