# generated using pymatgen
data_Zr4Al24Pd7Rh2
_symmetry_space_group_name_H-M   'P 1'
_cell_length_a   7.45890867
_cell_length_b   7.46200161
_cell_length_c   12.94166100
_cell_angle_alpha   84.43010961
_cell_angle_beta   101.08432285
_cell_angle_gamma   119.93618304
_symmetry_Int_Tables_number   1
_chemical_formula_structural   Zr4Al24Pd7Rh2
_chemical_formula_sum   'Zr4 Al24 Pd7 Rh2'
_cell_volume   612.56428394
_cell_formula_units_Z   1
loop_
 _symmetry_equiv_pos_site_id
 _symmetry_equiv_pos_as_xyz
  1  'x, y, z'
loop_
 _atom_site_type_symbol
 _atom_site_label
 _atom_site_symmetry_multiplicity
 _atom_site_fract_x
 _atom_site_fract_y
 _atom_site_fract_z
 _atom_site_occupancy
  Zr  Zr0  1  0.731431  0.999370  0.188874  1
  Zr  Zr1  1  0.268960  0.002700  0.810750  1
  Zr  Zr2  1  0.059318  0.667984  0.188518  1
  Zr  Zr3  1  0.938576  0.331207  0.811397  1
  Al  Al4  1  0.815883  0.876049  0.817693  1
  Al  Al5  1  0.184807  0.123199  0.182335  1
  Al  Al6  1  0.988960  0.669883  0.943721  1
  Al  Al7  1  0.017416  0.333881  0.055253  1
  Al  Al8  1  0.390503  0.662843  0.819117  1
  Al  Al9  1  0.607394  0.336417  0.182641  1
  Al  Al10  1  0.887653  0.665186  0.678741  1
  Al  Al11  1  0.113337  0.334979  0.321044  1
  Al  Al12  1  0.602663  0.452875  0.817052  1
  Al  Al13  1  0.397621  0.550096  0.181178  1
  Al  Al14  1  0.230086  0.337800  0.676889  1
  Al  Al15  1  0.769778  0.662325  0.323124  1
  Al  Al16  1  0.852891  0.332860  0.562391  1
  Al  Al17  1  0.187942  0.000196  0.561992  1
  Al  Al18  1  0.812892  0.000069  0.437993  1
  Al  Al19  1  0.348840  0.992256  0.056368  1
  Al  Al20  1  0.647898  0.001121  0.944620  1
  Al  Al21  1  0.558538  0.994802  0.679088  1
  Al  Al22  1  0.441388  0.004175  0.321107  1
  Al  Al23  1  0.521529  0.666564  0.564085  1
  Al  Al24  1  0.478736  0.333182  0.435768  1
  Al  Al25  1  0.685971  0.673834  0.046172  1
  Al  Al26  1  0.310753  0.329460  0.953914  1
  Al  Al27  1  0.146819  0.666318  0.437861  1
  Pd  Pd28  1  0.545919  0.323461  0.638371  1
  Pd  Pd29  1  0.454318  0.676057  0.361173  1
  Pd  Pd30  1  0.888421  0.008430  0.639253  1
  Pd  Pd31  1  0.111916  0.991133  0.360701  1
  Pd  Pd32  1  0.671964  0.327597  0.999733  1
  Pd  Pd33  1  0.203606  0.666486  0.639236  1
  Pd  Pd34  1  0.797043  0.333101  0.361268  1
  Rh  Rh35  1  0.328209  0.672026  0.000541  1
  Rh  Rh36  1  0.000021  0.000081  0.000039  1
