# generated using pymatgen
data_Lu8Co5
_symmetry_space_group_name_H-M   'P 1'
_cell_length_a   7.00525100
_cell_length_b   6.86400819
_cell_length_c   23.53567600
_cell_angle_alpha   77.73693316
_cell_angle_beta   90.00000000
_cell_angle_gamma   90.00000000
_symmetry_Int_Tables_number   1
_chemical_formula_structural   Lu8Co5
_chemical_formula_sum   'Lu32 Co20'
_cell_volume   1105.86964331
_cell_formula_units_Z   4
loop_
 _symmetry_equiv_pos_site_id
 _symmetry_equiv_pos_as_xyz
  1  'x, y, z'
loop_
 _atom_site_type_symbol
 _atom_site_label
 _atom_site_symmetry_multiplicity
 _atom_site_fract_x
 _atom_site_fract_y
 _atom_site_fract_z
 _atom_site_occupancy
  Lu  Lu0  1  0.182244  0.643138  0.963014  1
  Lu  Lu1  1  0.682244  0.356862  0.536986  1
  Lu  Lu2  1  0.817756  0.356862  0.036986  1
  Lu  Lu3  1  0.317756  0.643138  0.463014  1
  Lu  Lu4  1  0.165572  0.530476  0.822864  1
  Lu  Lu5  1  0.665572  0.469524  0.677136  1
  Lu  Lu6  1  0.834428  0.469524  0.177136  1
  Lu  Lu7  1  0.334428  0.530476  0.322864  1
  Lu  Lu8  1  0.815587  0.689272  0.297510  1
  Lu  Lu9  1  0.315587  0.310728  0.202490  1
  Lu  Lu10  1  0.184413  0.310728  0.702490  1
  Lu  Lu11  1  0.684413  0.689272  0.797510  1
  Lu  Lu12  1  0.835273  0.787719  0.441301  1
  Lu  Lu13  1  0.335273  0.212281  0.058699  1
  Lu  Lu14  1  0.164727  0.212281  0.558699  1
  Lu  Lu15  1  0.664727  0.787719  0.941301  1
  Lu  Lu16  1  0.185797  0.001215  0.334862  1
  Lu  Lu17  1  0.685797  0.998785  0.165138  1
  Lu  Lu18  1  0.814203  0.998785  0.665138  1
  Lu  Lu19  1  0.314203  0.001215  0.834862  1
  Lu  Lu20  1  0.186691  0.815961  0.196214  1
  Lu  Lu21  1  0.686691  0.184039  0.303786  1
  Lu  Lu22  1  0.813309  0.184039  0.803786  1
  Lu  Lu23  1  0.313309  0.815961  0.696214  1
  Lu  Lu24  1  0.960576  0.314261  0.415034  1
  Lu  Lu25  1  0.460576  0.685739  0.084966  1
  Lu  Lu26  1  0.039424  0.685739  0.584966  1
  Lu  Lu27  1  0.539424  0.314261  0.915034  1
  Lu  Lu28  1  0.977758  0.860719  0.064410  1
  Lu  Lu29  1  0.477758  0.139281  0.435590  1
  Lu  Lu30  1  0.022242  0.139281  0.935590  1
  Lu  Lu31  1  0.522242  0.860719  0.564410  1
  Co  Co32  1  0.149940  0.974240  0.482508  1
  Co  Co33  1  0.649940  0.025760  0.017492  1
  Co  Co34  1  0.850060  0.025760  0.517492  1
  Co  Co35  1  0.350060  0.974240  0.982508  1
  Co  Co36  1  0.032079  0.164265  0.131543  1
  Co  Co37  1  0.532079  0.835735  0.368457  1
  Co  Co38  1  0.967921  0.835735  0.868457  1
  Co  Co39  1  0.467921  0.164265  0.631543  1
  Co  Co40  1  0.031601  0.363402  0.283084  1
  Co  Co41  1  0.531601  0.636598  0.216916  1
  Co  Co42  1  0.968399  0.636598  0.716916  1
  Co  Co43  1  0.468399  0.363402  0.783084  1
  Co  Co44  1  0.028330  0.909332  0.764526  1
  Co  Co45  1  0.528330  0.090668  0.735474  1
  Co  Co46  1  0.971670  0.090668  0.235474  1
  Co  Co47  1  0.471670  0.909332  0.264526  1
  Co  Co48  1  0.881385  0.504647  0.905213  1
  Co  Co49  1  0.381385  0.495353  0.594787  1
  Co  Co50  1  0.118615  0.495353  0.094787  1
  Co  Co51  1  0.618615  0.504647  0.405213  1
