# generated using pymatgen
data_Hf16ReNi4W3
_symmetry_space_group_name_H-M   'P 1'
_cell_length_a   8.68108267
_cell_length_b   8.68108210
_cell_length_c   8.68108200
_cell_angle_alpha   60.20475927
_cell_angle_beta   60.20474624
_cell_angle_gamma   60.20475817
_symmetry_Int_Tables_number   1
_chemical_formula_structural   Hf16ReNi4W3
_chemical_formula_sum   'Hf16 Re1 Ni4 W3'
_cell_volume   464.74579479
_cell_formula_units_Z   1
loop_
 _symmetry_equiv_pos_site_id
 _symmetry_equiv_pos_as_xyz
  1  'x, y, z'
loop_
 _atom_site_type_symbol
 _atom_site_label
 _atom_site_symmetry_multiplicity
 _atom_site_fract_x
 _atom_site_fract_y
 _atom_site_fract_z
 _atom_site_occupancy
  Hf  Hf0  1  0.691398  0.103034  0.103034  1
  Hf  Hf1  1  0.103034  0.691398  0.103034  1
  Hf  Hf2  1  0.103034  0.103034  0.691398  1
  Hf  Hf3  1  0.102986  0.102986  0.102986  1
  Hf  Hf4  1  0.314801  0.314801  0.683794  1
  Hf  Hf5  1  0.685368  0.685368  0.314729  1
  Hf  Hf6  1  0.314801  0.683794  0.314801  1
  Hf  Hf7  1  0.685368  0.314729  0.685368  1
  Hf  Hf8  1  0.683794  0.314801  0.314801  1
  Hf  Hf9  1  0.314729  0.685368  0.685368  1
  Hf  Hf10  1  0.953704  0.953704  0.546264  1
  Hf  Hf11  1  0.545736  0.545736  0.954809  1
  Hf  Hf12  1  0.953704  0.546264  0.953704  1
  Hf  Hf13  1  0.545736  0.954809  0.545736  1
  Hf  Hf14  1  0.546264  0.953704  0.953704  1
  Hf  Hf15  1  0.954809  0.545736  0.545736  1
  Re  Re16  1  0.333871  0.333871  0.333871  1
  Ni  Ni17  1  0.325768  0.890961  0.890961  1
  Ni  Ni18  1  0.890961  0.325768  0.890961  1
  Ni  Ni19  1  0.890961  0.890961  0.325768  1
  Ni  Ni20  1  0.891533  0.891533  0.891533  1
  W  W21  1  0.002220  0.332710  0.332710  1
  W  W22  1  0.332710  0.002220  0.332710  1
  W  W23  1  0.332710  0.332710  0.002220  1
