# generated using pymatgen
data_HoLu3Th6(Ge5Rh2)4
_symmetry_space_group_name_H-M   'P 1'
_cell_length_a   13.09948306
_cell_length_b   13.09948306
_cell_length_c   4.37145000
_cell_angle_alpha   90.00000000
_cell_angle_beta   90.00000000
_cell_angle_gamma   90.01133714
_symmetry_Int_Tables_number   1
_chemical_formula_structural   HoLu3Th6(Ge5Rh2)4
_chemical_formula_sum   'Ho1 Lu3 Th6 Ge20 Rh8'
_cell_volume   750.12531529
_cell_formula_units_Z   1
loop_
 _symmetry_equiv_pos_site_id
 _symmetry_equiv_pos_as_xyz
  1  'x, y, z'
loop_
 _atom_site_type_symbol
 _atom_site_label
 _atom_site_symmetry_multiplicity
 _atom_site_fract_x
 _atom_site_fract_y
 _atom_site_fract_z
 _atom_site_occupancy
  Ho  Ho0  1  0.674957  0.174957  0.500000  1
  Lu  Lu1  1  0.325280  0.825280  0.500000  1
  Lu  Lu2  1  0.825318  0.674695  0.500000  1
  Lu  Lu3  1  0.174695  0.325318  0.500000  1
  Th  Th4  1  0.499973  0.500035  0.000000  1
  Th  Th5  1  0.000035  0.999973  0.000000  1
  Th  Th6  1  0.887685  0.387685  0.500000  1
  Th  Th7  1  0.387393  0.112363  0.500000  1
  Th  Th8  1  0.612363  0.887393  0.500000  1
  Th  Th9  1  0.112458  0.612458  0.500000  1
  Ge  Ge10  1  0.432586  0.932586  0.000000  1
  Ge  Ge11  1  0.932712  0.567287  0.000000  1
  Ge  Ge12  1  0.067287  0.432712  0.000000  1
  Ge  Ge13  1  0.566802  0.066802  0.000000  1
  Ge  Ge14  1  0.336955  0.300751  0.000000  1
  Ge  Ge15  1  0.662959  0.699267  0.000000  1
  Ge  Ge16  1  0.699560  0.337639  0.000000  1
  Ge  Ge17  1  0.300693  0.662972  0.000000  1
  Ge  Ge18  1  0.800751  0.836955  0.000000  1
  Ge  Ge19  1  0.837639  0.199560  0.000000  1
  Ge  Ge20  1  0.162972  0.800693  0.000000  1
  Ge  Ge21  1  0.199267  0.162959  0.000000  1
  Ge  Ge22  1  0.337449  0.496723  0.500000  1
  Ge  Ge23  1  0.662560  0.503186  0.500000  1
  Ge  Ge24  1  0.502884  0.337684  0.500000  1
  Ge  Ge25  1  0.496705  0.662560  0.500000  1
  Ge  Ge26  1  0.996723  0.837449  0.500000  1
  Ge  Ge27  1  0.837684  0.002884  0.500000  1
  Ge  Ge28  1  0.003186  0.162560  0.500000  1
  Ge  Ge29  1  0.162560  0.996705  0.500000  1
  Rh  Rh30  1  0.255410  0.476930  0.000000  1
  Rh  Rh31  1  0.744607  0.523186  0.000000  1
  Rh  Rh32  1  0.522542  0.255746  0.000000  1
  Rh  Rh33  1  0.476938  0.744547  0.000000  1
  Rh  Rh34  1  0.976930  0.755410  0.000000  1
  Rh  Rh35  1  0.755746  0.022542  0.000000  1
  Rh  Rh36  1  0.244547  0.976938  0.000000  1
  Rh  Rh37  1  0.023186  0.244607  0.000000  1
