# generated using pymatgen
data_NdGd3Se3N2
_symmetry_space_group_name_H-M   'P 1'
_cell_length_a   8.19227633
_cell_length_b   8.19227677
_cell_length_c   6.36134521
_cell_angle_alpha   90.17897867
_cell_angle_beta   90.17897647
_cell_angle_gamma   75.28203433
_symmetry_Int_Tables_number   1
_chemical_formula_structural   NdGd3Se3N2
_chemical_formula_sum   'Nd2 Gd6 Se6 N4'
_cell_volume   412.91984441
_cell_formula_units_Z   2
loop_
 _symmetry_equiv_pos_site_id
 _symmetry_equiv_pos_as_xyz
  1  'x, y, z'
loop_
 _atom_site_type_symbol
 _atom_site_label
 _atom_site_symmetry_multiplicity
 _atom_site_fract_x
 _atom_site_fract_y
 _atom_site_fract_z
 _atom_site_occupancy
  Nd  Nd0  1  0.192000  0.557857  0.469789  1
  Nd  Nd1  1  0.442143  0.808000  0.030211  1
  Gd  Gd2  1  0.243388  0.088407  0.573275  1
  Gd  Gd3  1  0.911593  0.756612  0.926725  1
  Gd  Gd4  1  0.756561  0.913389  0.426944  1
  Gd  Gd5  1  0.086611  0.243439  0.073056  1
  Gd  Gd6  1  0.813689  0.443607  0.529082  1
  Gd  Gd7  1  0.556393  0.186311  0.970918  1
  Se  Se8  1  0.748581  0.481992  0.035738  1
  Se  Se9  1  0.093138  0.906862  0.250000  1
  Se  Se10  1  0.518008  0.251419  0.464262  1
  Se  Se11  1  0.251909  0.515147  0.964842  1
  Se  Se12  1  0.905195  0.094805  0.750000  1
  Se  Se13  1  0.484853  0.748091  0.535158  1
  N  N14  1  0.080553  0.325936  0.414436  1
  N  N15  1  0.328265  0.086943  0.913562  1
  N  N16  1  0.913057  0.671735  0.586438  1
  N  N17  1  0.674064  0.919447  0.085564  1
