# generated using pymatgen
data_Sc(Si2Ir3)2
_symmetry_space_group_name_H-M   'P 1'
_cell_length_a   7.02302100
_cell_length_b   7.02302073
_cell_length_c   3.78856300
_cell_angle_alpha   90.00000000
_cell_angle_beta   90.00000000
_cell_angle_gamma   120.00000597
_symmetry_Int_Tables_number   1
_chemical_formula_structural   Sc(Si2Ir3)2
_chemical_formula_sum   'Sc1 Si4 Ir6'
_cell_volume   161.82776518
_cell_formula_units_Z   1
loop_
 _symmetry_equiv_pos_site_id
 _symmetry_equiv_pos_as_xyz
  1  'x, y, z'
loop_
 _atom_site_type_symbol
 _atom_site_label
 _atom_site_symmetry_multiplicity
 _atom_site_fract_x
 _atom_site_fract_y
 _atom_site_fract_z
 _atom_site_occupancy
  Sc  Sc0  1  0.000000  0.000000  0.000000  1
  Si  Si1  1  0.666667  0.333333  0.000000  1
  Si  Si2  1  0.194990  0.389978  0.500000  1
  Si  Si3  1  0.194987  0.805010  0.500000  1
  Si  Si4  1  0.610022  0.805013  0.500000  1
  Ir  Ir5  1  0.467564  0.933354  0.000000  1
  Ir  Ir6  1  0.465789  0.532436  0.000000  1
  Ir  Ir7  1  0.066646  0.534211  0.000000  1
  Ir  Ir8  1  0.804510  0.609681  0.500000  1
  Ir  Ir9  1  0.805171  0.195490  0.500000  1
  Ir  Ir10  1  0.390319  0.194829  0.500000  1
