# generated using pymatgen
data_Np3U(B6Mo)2
_symmetry_space_group_name_H-M   'P 1'
_cell_length_a   3.67744800
_cell_length_b   9.27248313
_cell_length_c   11.32007016
_cell_angle_alpha   89.98050103
_cell_angle_beta   90.00000000
_cell_angle_gamma   90.00000000
_symmetry_Int_Tables_number   1
_chemical_formula_structural   Np3U(B6Mo)2
_chemical_formula_sum   'Np6 U2 B24 Mo4'
_cell_volume   386.00389416
_cell_formula_units_Z   2
loop_
 _symmetry_equiv_pos_site_id
 _symmetry_equiv_pos_as_xyz
  1  'x, y, z'
loop_
 _atom_site_type_symbol
 _atom_site_label
 _atom_site_symmetry_multiplicity
 _atom_site_fract_x
 _atom_site_fract_y
 _atom_site_fract_z
 _atom_site_occupancy
  Np  Np0  1  0.000000  0.838338  0.092424  1
  Np  Np1  1  0.000000  0.161662  0.907576  1
  Np  Np2  1  0.000000  0.958639  0.399138  1
  Np  Np3  1  0.000000  0.041361  0.600862  1
  Np  Np4  1  0.000000  0.458843  0.100272  1
  Np  Np5  1  0.000000  0.541157  0.899728  1
  U  U6  1  0.000000  0.336084  0.407833  1
  U  U7  1  0.000000  0.663916  0.592167  1
  B  B8  1  0.500000  0.550666  0.432986  1
  B  B9  1  0.500000  0.449334  0.567014  1
  B  B10  1  0.500000  0.051679  0.067627  1
  B  B11  1  0.500000  0.948321  0.932373  1
  B  B12  1  0.500000  0.744411  0.424233  1
  B  B13  1  0.500000  0.255589  0.575767  1
  B  B14  1  0.500000  0.244745  0.075772  1
  B  B15  1  0.500000  0.755255  0.924228  1
  B  B16  1  0.500000  0.805861  0.273637  1
  B  B17  1  0.500000  0.194139  0.726363  1
  B  B18  1  0.500000  0.306124  0.226772  1
  B  B19  1  0.500000  0.693876  0.773228  1
  B  B20  1  0.500000  0.645834  0.187276  1
  B  B21  1  0.500000  0.354166  0.812724  1
  B  B22  1  0.500000  0.146224  0.313087  1
  B  B23  1  0.500000  0.853776  0.686913  1
  B  B24  1  0.500000  0.987433  0.220423  1
  B  B25  1  0.500000  0.012567  0.779577  1
  B  B26  1  0.500000  0.487016  0.280044  1
  B  B27  1  0.500000  0.512984  0.719956  1
  B  B28  1  0.500000  0.640804  0.039156  1
  B  B29  1  0.500000  0.359196  0.960844  1
  B  B30  1  0.500000  0.141791  0.460934  1
  B  B31  1  0.500000  0.858209  0.539066  1
  Mo  Mo32  1  0.000000  0.645444  0.320146  1
  Mo  Mo33  1  0.000000  0.354556  0.679854  1
  Mo  Mo34  1  0.000000  0.147494  0.181264  1
  Mo  Mo35  1  0.000000  0.852506  0.818736  1
