# generated using pymatgen
data_Pd8W
_symmetry_space_group_name_H-M   'P 1'
_cell_length_a   6.25297333
_cell_length_b   6.25297220
_cell_length_c   6.25297315
_cell_angle_alpha   95.62915936
_cell_angle_beta   95.62916156
_cell_angle_gamma   143.49656540
_symmetry_Int_Tables_number   1
_chemical_formula_structural   Pd8W
_chemical_formula_sum   'Pd8 W1'
_cell_volume   138.12241362
_cell_formula_units_Z   1
loop_
 _symmetry_equiv_pos_site_id
 _symmetry_equiv_pos_as_xyz
  1  'x, y, z'
loop_
 _atom_site_type_symbol
 _atom_site_label
 _atom_site_symmetry_multiplicity
 _atom_site_fract_x
 _atom_site_fract_y
 _atom_site_fract_z
 _atom_site_occupancy
  Pd  Pd0  1  0.661232  0.338769  0.000000  1
  Pd  Pd1  1  0.338769  0.661232  0.000000  1
  Pd  Pd2  1  0.661232  0.661232  0.322460  1
  Pd  Pd3  1  0.327527  0.000000  0.327527  1
  Pd  Pd4  1  0.000000  0.327527  0.327527  1
  Pd  Pd5  1  0.672473  0.000000  0.672473  1
  Pd  Pd6  1  0.000000  0.672473  0.672473  1
  Pd  Pd7  1  0.338769  0.338769  0.677540  1
  W  W8  1  0.000000  0.000000  0.000000  1
