# generated using pymatgen
data_Ho6ErSn23Ru6
_symmetry_space_group_name_H-M   'P 1'
_cell_length_a   9.84040825
_cell_length_b   9.83788098
_cell_length_c   10.07313803
_cell_angle_alpha   89.99658351
_cell_angle_beta   90.00863176
_cell_angle_gamma   119.98395028
_symmetry_Int_Tables_number   1
_chemical_formula_structural   Ho6ErSn23Ru6
_chemical_formula_sum   'Ho6 Er1 Sn23 Ru6'
_cell_volume   844.65684773
_cell_formula_units_Z   1
loop_
 _symmetry_equiv_pos_site_id
 _symmetry_equiv_pos_as_xyz
  1  'x, y, z'
loop_
 _atom_site_type_symbol
 _atom_site_label
 _atom_site_symmetry_multiplicity
 _atom_site_fract_x
 _atom_site_fract_y
 _atom_site_fract_z
 _atom_site_occupancy
  Ho  Ho0  1  0.484698  0.515277  0.302852  1
  Ho  Ho1  1  0.515276  0.484714  0.697140  1
  Ho  Ho2  1  0.484697  0.969426  0.302834  1
  Ho  Ho3  1  0.515272  0.030555  0.697158  1
  Ho  Ho4  1  0.030568  0.515287  0.302846  1
  Ho  Ho5  1  0.999994  0.999999  0.999999  1
  Er  Er6  1  0.969776  0.484873  0.697304  1
  Sn  Sn7  1  0.118678  0.881318  0.273947  1
  Sn  Sn8  1  0.881324  0.118810  0.726031  1
  Sn  Sn9  1  0.118688  0.237361  0.273948  1
  Sn  Sn10  1  0.881313  0.762512  0.726023  1
  Sn  Sn11  1  0.762631  0.881310  0.273964  1
  Sn  Sn12  1  0.237362  0.118687  0.726034  1
  Sn  Sn13  1  0.779914  0.220181  0.462617  1
  Sn  Sn14  1  0.220033  0.779755  0.537523  1
  Sn  Sn15  1  0.779899  0.559749  0.462616  1
  Sn  Sn16  1  0.220050  0.440263  0.537522  1
  Sn  Sn17  1  0.440220  0.220135  0.462537  1
  Sn  Sn18  1  0.559764  0.779861  0.537462  1
  Sn  Sn19  1  0.348833  0.999982  0.999990  1
  Sn  Sn20  1  0.651144  0.999999  0.000002  1
  Sn  Sn21  1  0.999998  0.348878  0.999975  1
  Sn  Sn22  1  0.999991  0.651115  0.999970  1
  Sn  Sn23  1  0.651167  0.651166  0.999999  1
  Sn  Sn24  1  0.348812  0.348831  0.999992  1
  Sn  Sn25  1  0.333348  0.666667  0.128648  1
  Sn  Sn26  1  0.666841  0.333427  0.871238  1
  Sn  Sn27  1  0.333269  0.666633  0.822117  1
  Sn  Sn28  1  0.666659  0.333333  0.177856  1
  Sn  Sn29  1  0.999989  0.999994  0.499997  1
  Ru  Ru30  1  0.829961  0.170059  0.202374  1
  Ru  Ru31  1  0.169925  0.829740  0.797566  1
  Ru  Ru32  1  0.829955  0.659890  0.202360  1
  Ru  Ru33  1  0.169931  0.340199  0.797576  1
  Ru  Ru34  1  0.340132  0.170064  0.202348  1
  Ru  Ru35  1  0.659887  0.829947  0.797637  1
