# generated using pymatgen
data_Tb3Pr6Dy(Sn5Rh2)4
_symmetry_space_group_name_H-M   'P 1'
_cell_length_a   14.21401005
_cell_length_b   14.21401005
_cell_length_c   4.59792500
_cell_angle_alpha   90.00000000
_cell_angle_beta   90.00000000
_cell_angle_gamma   90.00972262
_symmetry_Int_Tables_number   1
_chemical_formula_structural   Tb3Pr6Dy(Sn5Rh2)4
_chemical_formula_sum   'Tb3 Pr6 Dy1 Sn20 Rh8'
_cell_volume   928.95593358
_cell_formula_units_Z   1
loop_
 _symmetry_equiv_pos_site_id
 _symmetry_equiv_pos_as_xyz
  1  'x, y, z'
loop_
 _atom_site_type_symbol
 _atom_site_label
 _atom_site_symmetry_multiplicity
 _atom_site_fract_x
 _atom_site_fract_y
 _atom_site_fract_z
 _atom_site_occupancy
  Tb  Tb0  1  0.677177  0.177203  0.500000  1
  Tb  Tb1  1  0.322797  0.822823  0.500000  1
  Tb  Tb2  1  0.177177  0.322823  0.500000  1
  Pr  Pr3  1  0.499992  0.500012  0.000000  1
  Pr  Pr4  1  0.999988  0.000008  0.000000  1
  Pr  Pr5  1  0.888109  0.388120  0.500000  1
  Pr  Pr6  1  0.111880  0.611891  0.500000  1
  Pr  Pr7  1  0.388084  0.111916  0.500000  1
  Pr  Pr8  1  0.611921  0.888079  0.500000  1
  Dy  Dy9  1  0.822909  0.677091  0.500000  1
  Sn  Sn10  1  0.570067  0.070050  0.000000  1
  Sn  Sn11  1  0.429950  0.929933  0.000000  1
  Sn  Sn12  1  0.070046  0.429954  0.000000  1
  Sn  Sn13  1  0.929823  0.570177  0.000000  1
  Sn  Sn14  1  0.654527  0.698134  0.000000  1
  Sn  Sn15  1  0.345586  0.301846  0.000000  1
  Sn  Sn16  1  0.154411  0.801848  0.000000  1
  Sn  Sn17  1  0.845596  0.198150  0.000000  1
  Sn  Sn18  1  0.301850  0.654404  0.000000  1
  Sn  Sn19  1  0.698152  0.345589  0.000000  1
  Sn  Sn20  1  0.198154  0.154414  0.000000  1
  Sn  Sn21  1  0.801866  0.845473  0.000000  1
  Sn  Sn22  1  0.664139  0.505546  0.500000  1
  Sn  Sn23  1  0.335918  0.494524  0.500000  1
  Sn  Sn24  1  0.164110  0.994531  0.500000  1
  Sn  Sn25  1  0.835924  0.005508  0.500000  1
  Sn  Sn26  1  0.494492  0.664076  0.500000  1
  Sn  Sn27  1  0.505469  0.335890  0.500000  1
  Sn  Sn28  1  0.005476  0.164082  0.500000  1
  Sn  Sn29  1  0.994454  0.835861  0.500000  1
  Rh  Rh30  1  0.747163  0.529412  0.000000  1
  Rh  Rh31  1  0.252879  0.470757  0.000000  1
  Rh  Rh32  1  0.247130  0.970718  0.000000  1
  Rh  Rh33  1  0.752916  0.029244  0.000000  1
  Rh  Rh34  1  0.470756  0.747084  0.000000  1
  Rh  Rh35  1  0.529282  0.252870  0.000000  1
  Rh  Rh36  1  0.029243  0.247121  0.000000  1
  Rh  Rh37  1  0.970588  0.752837  0.000000  1
