# generated using pymatgen
data_Dy2ErCo8P6Os
_symmetry_space_group_name_H-M   'P 1'
_cell_length_a   3.71750700
_cell_length_b   10.49940200
_cell_length_c   12.24498900
_cell_angle_alpha   90.00000000
_cell_angle_beta   90.00000000
_cell_angle_gamma   90.00000000
_symmetry_Int_Tables_number   1
_chemical_formula_structural   Dy2ErCo8P6Os
_chemical_formula_sum   'Dy4 Er2 Co16 P12 Os2'
_cell_volume   477.94151793
_cell_formula_units_Z   2
loop_
 _symmetry_equiv_pos_site_id
 _symmetry_equiv_pos_as_xyz
  1  'x, y, z'
loop_
 _atom_site_type_symbol
 _atom_site_label
 _atom_site_symmetry_multiplicity
 _atom_site_fract_x
 _atom_site_fract_y
 _atom_site_fract_z
 _atom_site_occupancy
  Dy  Dy0  1  0.000000  0.500000  0.524287  1
  Dy  Dy1  1  0.500000  0.000000  0.475234  1
  Dy  Dy2  1  0.000000  0.682971  0.793071  1
  Dy  Dy3  1  0.000000  0.317029  0.793071  1
  Er  Er4  1  0.500000  0.817322  0.207019  1
  Er  Er5  1  0.500000  0.182678  0.207019  1
  Co  Co6  1  0.500000  0.500000  0.703760  1
  Co  Co7  1  0.000000  0.000000  0.295861  1
  Co  Co8  1  0.000000  0.500000  0.987477  1
  Co  Co9  1  0.500000  0.000000  0.013722  1
  Co  Co10  1  0.500000  0.332318  0.990559  1
  Co  Co11  1  0.500000  0.667682  0.990559  1
  Co  Co12  1  0.000000  0.167233  0.010661  1
  Co  Co13  1  0.000000  0.832767  0.010661  1
  Co  Co14  1  0.500000  0.297412  0.430308  1
  Co  Co15  1  0.500000  0.702588  0.430308  1
  Co  Co16  1  0.000000  0.202327  0.568712  1
  Co  Co17  1  0.000000  0.797673  0.568712  1
  Co  Co18  1  0.500000  0.879485  0.708582  1
  Co  Co19  1  0.500000  0.120515  0.708582  1
  Co  Co20  1  0.000000  0.621037  0.290927  1
  Co  Co21  1  0.000000  0.378963  0.290927  1
  P  P22  1  0.500000  0.500000  0.881283  1
  P  P23  1  0.000000  0.000000  0.119720  1
  P  P24  1  0.500000  0.500000  0.350511  1
  P  P25  1  0.000000  0.000000  0.649289  1
  P  P26  1  0.500000  0.311500  0.615687  1
  P  P27  1  0.500000  0.688500  0.615687  1
  P  P28  1  0.000000  0.188195  0.383123  1
  P  P29  1  0.000000  0.811805  0.383123  1
  P  P30  1  0.500000  0.846678  0.893224  1
  P  P31  1  0.500000  0.153322  0.893224  1
  P  P32  1  0.000000  0.654136  0.107498  1
  P  P33  1  0.000000  0.345864  0.107498  1
  Os  Os34  1  0.500000  0.500000  0.158891  1
  Os  Os35  1  0.000000  0.000000  0.841223  1
