# generated using pymatgen
data_Tb2DyMg3Pb2Au
_symmetry_space_group_name_H-M   'P 1'
_cell_length_a   7.60965310
_cell_length_b   7.60965348
_cell_length_c   4.51279700
_cell_angle_alpha   90.00000000
_cell_angle_beta   90.00000000
_cell_angle_gamma   119.98144985
_symmetry_Int_Tables_number   1
_chemical_formula_structural   Tb2DyMg3Pb2Au
_chemical_formula_sum   'Tb2 Dy1 Mg3 Pb2 Au1'
_cell_volume   226.35355483
_cell_formula_units_Z   1
loop_
 _symmetry_equiv_pos_site_id
 _symmetry_equiv_pos_as_xyz
  1  'x, y, z'
loop_
 _atom_site_type_symbol
 _atom_site_label
 _atom_site_symmetry_multiplicity
 _atom_site_fract_x
 _atom_site_fract_y
 _atom_site_fract_z
 _atom_site_occupancy
  Tb  Tb0  1  0.597690  0.999923  0.000000  1
  Tb  Tb1  1  0.999923  0.597690  0.000000  1
  Dy  Dy2  1  0.402049  0.402049  0.000000  1
  Mg  Mg3  1  0.233790  0.000104  0.500000  1
  Mg  Mg4  1  0.000104  0.233790  0.500000  1
  Mg  Mg5  1  0.766189  0.766189  0.500000  1
  Pb  Pb6  1  0.333472  0.666416  0.500000  1
  Pb  Pb7  1  0.666416  0.333472  0.500000  1
  Au  Au8  1  0.000368  0.000368  0.000000  1
