# generated using pymatgen
data_Li4Ac3Sn3Sb
_symmetry_space_group_name_H-M   'P 1'
_cell_length_a   4.80664704
_cell_length_b   7.54351355
_cell_length_c   9.07602300
_cell_angle_alpha   114.55544331
_cell_angle_beta   105.35501798
_cell_angle_gamma   90.00000816
_symmetry_Int_Tables_number   1
_chemical_formula_structural   Li4Ac3Sn3Sb
_chemical_formula_sum   'Li4 Ac3 Sn3 Sb1'
_cell_volume   286.35914372
_cell_formula_units_Z   1
loop_
 _symmetry_equiv_pos_site_id
 _symmetry_equiv_pos_as_xyz
  1  'x, y, z'
loop_
 _atom_site_type_symbol
 _atom_site_label
 _atom_site_symmetry_multiplicity
 _atom_site_fract_x
 _atom_site_fract_y
 _atom_site_fract_z
 _atom_site_occupancy
  Li  Li0  1  0.327597  0.013530  0.655192  1
  Li  Li1  1  0.673095  0.984073  0.346193  1
  Li  Li2  1  0.327597  0.641662  0.655192  1
  Li  Li3  1  0.673095  0.362120  0.346193  1
  Ac  Ac4  1  0.870041  0.370041  0.740081  1
  Ac  Ac5  1  0.131961  0.631961  0.263923  1
  Ac  Ac6  1  0.998158  0.998158  0.996316  1
  Sn  Sn7  1  0.784702  0.784702  0.569405  1
  Sn  Sn8  1  0.499904  0.307111  0.999807  1
  Sn  Sn9  1  0.499904  0.692696  0.999807  1
  Sb  Sb10  1  0.213946  0.213946  0.427890  1
