# generated using pymatgen
data_Sc6Al15V2Ir7
_symmetry_space_group_name_H-M   'P 1'
_cell_length_a   8.82226182
_cell_length_b   8.82226074
_cell_length_c   8.82226100
_cell_angle_alpha   120.21391659
_cell_angle_beta   119.65438712
_cell_angle_gamma   90.11477187
_symmetry_Int_Tables_number   1
_chemical_formula_structural   Sc6Al15V2Ir7
_chemical_formula_sum   'Sc6 Al15 V2 Ir7'
_cell_volume   486.00743825
_cell_formula_units_Z   1
loop_
 _symmetry_equiv_pos_site_id
 _symmetry_equiv_pos_as_xyz
  1  'x, y, z'
loop_
 _atom_site_type_symbol
 _atom_site_label
 _atom_site_symmetry_multiplicity
 _atom_site_fract_x
 _atom_site_fract_y
 _atom_site_fract_z
 _atom_site_occupancy
  Sc  Sc0  1  0.784518  0.280130  0.061501  1
  Sc  Sc1  1  0.218628  0.280130  0.495612  1
  Sc  Sc2  1  0.218702  0.718702  0.500000  1
  Sc  Sc3  1  0.218628  0.723017  0.938499  1
  Sc  Sc4  1  0.784518  0.723017  0.504388  1
  Sc  Sc5  1  0.779078  0.279078  0.500000  1
  Al  Al6  1  0.997124  0.497124  0.500000  1
  Al  Al7  1  0.161324  0.342534  0.181208  1
  Al  Al8  1  0.161324  0.980116  0.818792  1
  Al  Al9  1  0.157034  0.341940  0.815094  1
  Al  Al10  1  0.526846  0.341940  0.184906  1
  Al  Al11  1  0.838980  0.658323  0.819343  1
  Al  Al12  1  0.838980  0.019638  0.180657  1
  Al  Al13  1  0.836285  0.660887  0.175398  1
  Al  Al14  1  0.485489  0.660887  0.824602  1
  Al  Al15  1  0.379484  0.122407  0.257078  1
  Al  Al16  1  0.865331  0.122407  0.742922  1
  Al  Al17  1  0.619422  0.876965  0.257544  1
  Al  Al18  1  0.619422  0.361878  0.742456  1
  Al  Al19  1  0.620523  0.876718  0.743803  1
  Al  Al20  1  0.132914  0.876718  0.256197  1
  V  V21  1  0.380922  0.127266  0.746344  1
  V  V22  1  0.380922  0.634577  0.253656  1
  Ir  Ir23  1  0.004323  0.000558  0.502561  1
  Ir  Ir24  1  0.497996  0.000558  0.996234  1
  Ir  Ir25  1  0.496469  0.496469  0.000000  1
  Ir  Ir26  1  0.497996  0.501761  0.497439  1
  Ir  Ir27  1  0.004323  0.501761  0.003766  1
  Ir  Ir28  1  0.001759  0.001759  0.000000  1
  Ir  Ir29  1  0.490733  0.990733  0.500000  1
