# generated using pymatgen
data_Ho2Tc3Ge4
_symmetry_space_group_name_H-M   'P 1'
_cell_length_a   8.31605800
_cell_length_b   5.66680757
_cell_length_c   7.00111547
_cell_angle_alpha   76.08547479
_cell_angle_beta   90.00000000
_cell_angle_gamma   90.00000000
_symmetry_Int_Tables_number   1
_chemical_formula_structural   Ho2Tc3Ge4
_chemical_formula_sum   'Ho4 Tc6 Ge8'
_cell_volume   320.24942444
_cell_formula_units_Z   2
loop_
 _symmetry_equiv_pos_site_id
 _symmetry_equiv_pos_as_xyz
  1  'x, y, z'
loop_
 _atom_site_type_symbol
 _atom_site_label
 _atom_site_symmetry_multiplicity
 _atom_site_fract_x
 _atom_site_fract_y
 _atom_site_fract_z
 _atom_site_occupancy
  Ho  Ho0  1  0.552308  0.077445  0.244994  1
  Ho  Ho1  1  0.052308  0.422555  0.755006  1
  Ho  Ho2  1  0.447692  0.922555  0.755006  1
  Ho  Ho3  1  0.947692  0.577445  0.244994  1
  Tc  Tc4  1  0.204668  0.114906  0.112847  1
  Tc  Tc5  1  0.704668  0.385094  0.887153  1
  Tc  Tc6  1  0.795332  0.885094  0.887153  1
  Tc  Tc7  1  0.295332  0.614906  0.112847  1
  Tc  Tc8  1  0.000000  0.000000  0.500000  1
  Tc  Tc9  1  0.500000  0.500000  0.500000  1
  Ge  Ge10  1  0.900434  0.119484  0.129809  1
  Ge  Ge11  1  0.400434  0.380516  0.870191  1
  Ge  Ge12  1  0.099566  0.880516  0.870191  1
  Ge  Ge13  1  0.599566  0.619484  0.129809  1
  Ge  Ge14  1  0.749046  0.223983  0.578081  1
  Ge  Ge15  1  0.249046  0.276017  0.421919  1
  Ge  Ge16  1  0.250954  0.776017  0.421919  1
  Ge  Ge17  1  0.750954  0.723983  0.578081  1
