# generated using pymatgen
data_LiNd3GeS7
_symmetry_space_group_name_H-M   'P 1'
_cell_length_a   10.21976500
_cell_length_b   10.21958434
_cell_length_c   5.82380000
_cell_angle_alpha   90.00000000
_cell_angle_beta   90.00000000
_cell_angle_gamma   120.00054557
_symmetry_Int_Tables_number   1
_chemical_formula_structural   LiNd3GeS7
_chemical_formula_sum   'Li2 Nd6 Ge2 S14'
_cell_volume   526.75520769
_cell_formula_units_Z   2
loop_
 _symmetry_equiv_pos_site_id
 _symmetry_equiv_pos_as_xyz
  1  'x, y, z'
loop_
 _atom_site_type_symbol
 _atom_site_label
 _atom_site_symmetry_multiplicity
 _atom_site_fract_x
 _atom_site_fract_y
 _atom_site_fract_z
 _atom_site_occupancy
  Li  Li0  1  0.999999  0.000000  0.213129  1
  Li  Li1  1  0.000001  0.000000  0.713129  1
  Nd  Nd2  1  0.643297  0.768804  0.475137  1
  Nd  Nd3  1  0.125508  0.356706  0.475135  1
  Nd  Nd4  1  0.231201  0.874496  0.475138  1
  Nd  Nd5  1  0.356703  0.231196  0.975135  1
  Nd  Nd6  1  0.768800  0.125505  0.975138  1
  Nd  Nd7  1  0.874493  0.643294  0.975135  1
  Ge  Ge8  1  0.333328  0.666663  0.057183  1
  Ge  Ge9  1  0.666672  0.333336  0.557183  1
  S  S10  1  0.666676  0.333339  0.179942  1
  S  S11  1  0.104971  0.586804  0.213603  1
  S  S12  1  0.413194  0.518168  0.213593  1
  S  S13  1  0.481831  0.895025  0.213594  1
  S  S14  1  0.841695  0.086682  0.453682  1
  S  S15  1  0.244986  0.158307  0.453682  1
  S  S16  1  0.913320  0.755018  0.453682  1
  S  S17  1  0.333325  0.666662  0.679941  1
  S  S18  1  0.895029  0.413195  0.713602  1
  S  S19  1  0.586806  0.481831  0.713594  1
  S  S20  1  0.518170  0.104976  0.713594  1
  S  S21  1  0.086681  0.244983  0.953680  1
  S  S22  1  0.158304  0.913318  0.953682  1
  S  S23  1  0.755014  0.841692  0.953682  1
