# generated using pymatgen
data_Sm4Sn(PbO6)2
_symmetry_space_group_name_H-M   'P 1'
_cell_length_a   6.55023337
_cell_length_b   6.63994290
_cell_length_c   6.77056800
_cell_angle_alpha   100.28818227
_cell_angle_beta   98.09180137
_cell_angle_gamma   99.53114652
_symmetry_Int_Tables_number   1
_chemical_formula_structural   Sm4Sn(PbO6)2
_chemical_formula_sum   'Sm4 Sn1 Pb2 O12'
_cell_volume   281.30245696
_cell_formula_units_Z   1
loop_
 _symmetry_equiv_pos_site_id
 _symmetry_equiv_pos_as_xyz
  1  'x, y, z'
loop_
 _atom_site_type_symbol
 _atom_site_label
 _atom_site_symmetry_multiplicity
 _atom_site_fract_x
 _atom_site_fract_y
 _atom_site_fract_z
 _atom_site_occupancy
  Sm  Sm0  1  0.389141  0.703480  0.864821  1
  Sm  Sm1  1  0.700723  0.869233  0.388874  1
  Sm  Sm2  1  0.610859  0.296520  0.135179  1
  Sm  Sm3  1  0.299277  0.130767  0.611126  1
  Sn  Sn4  1  0.000000  0.000000  0.000000  1
  Pb  Pb5  1  0.853215  0.400730  0.680624  1
  Pb  Pb6  1  0.146785  0.599270  0.319376  1
  O  O7  1  0.030017  0.687555  0.893183  1
  O  O8  1  0.692434  0.938874  0.054226  1
  O  O9  1  0.923216  0.073596  0.702732  1
  O  O10  1  0.969983  0.312445  0.106817  1
  O  O11  1  0.307566  0.061126  0.945774  1
  O  O12  1  0.076784  0.926404  0.297268  1
  O  O13  1  0.590082  0.188459  0.437914  1
  O  O14  1  0.168632  0.426764  0.583403  1
  O  O15  1  0.422079  0.585769  0.177478  1
  O  O16  1  0.409918  0.811541  0.562086  1
  O  O17  1  0.831368  0.573236  0.416597  1
  O  O18  1  0.577921  0.414231  0.822522  1
