# generated using pymatgen
data_YEr3Ga18(PdRh2)2
_symmetry_space_group_name_H-M   'P 1'
_cell_length_a   7.58801415
_cell_length_b   7.58895035
_cell_length_c   9.46771000
_cell_angle_alpha   90.00000000
_cell_angle_beta   90.00000000
_cell_angle_gamma   119.71607101
_symmetry_Int_Tables_number   1
_chemical_formula_structural   YEr3Ga18(PdRh2)2
_chemical_formula_sum   'Y1 Er3 Ga18 Pd2 Rh4'
_cell_volume   473.50096325
_cell_formula_units_Z   1
loop_
 _symmetry_equiv_pos_site_id
 _symmetry_equiv_pos_as_xyz
  1  'x, y, z'
loop_
 _atom_site_type_symbol
 _atom_site_label
 _atom_site_symmetry_multiplicity
 _atom_site_fract_x
 _atom_site_fract_y
 _atom_site_fract_z
 _atom_site_occupancy
  Y  Y0  1  0.996893  0.672216  0.250000  1
  Er  Er1  1  0.002946  0.327646  0.750000  1
  Er  Er2  1  0.672083  0.996818  0.250000  1
  Er  Er3  1  0.327932  0.003151  0.750000  1
  Ga  Ga4  1  0.131708  0.132487  0.250000  1
  Ga  Ga5  1  0.868648  0.869099  0.750000  1
  Ga  Ga6  1  0.999037  0.337771  0.079718  1
  Ga  Ga7  1  0.001294  0.661374  0.917777  1
  Ga  Ga8  1  0.001294  0.661374  0.582223  1
  Ga  Ga9  1  0.339297  0.999873  0.420164  1
  Ga  Ga10  1  0.999037  0.337771  0.420282  1
  Ga  Ga11  1  0.661659  0.001426  0.581475  1
  Ga  Ga12  1  0.661659  0.001426  0.918525  1
  Ga  Ga13  1  0.339297  0.999873  0.079836  1
  Ga  Ga14  1  0.335532  0.335610  0.568875  1
  Ga  Ga15  1  0.663187  0.663765  0.433040  1
  Ga  Ga16  1  0.663187  0.663765  0.066960  1
  Ga  Ga17  1  0.335532  0.335610  0.931125  1
  Ga  Ga18  1  0.336507  0.548928  0.250000  1
  Ga  Ga19  1  0.662894  0.451441  0.750000  1
  Ga  Ga20  1  0.548062  0.335584  0.250000  1
  Ga  Ga21  1  0.451349  0.663438  0.750000  1
  Pd  Pd22  1  0.000332  0.999554  0.999834  1
  Pd  Pd23  1  0.000332  0.999554  0.500166  1
  Rh  Rh24  1  0.671617  0.328583  0.999666  1
  Rh  Rh25  1  0.328534  0.671641  0.999695  1
  Rh  Rh26  1  0.328534  0.671641  0.500305  1
  Rh  Rh27  1  0.671617  0.328583  0.500334  1
