# generated using pymatgen
data_YTmSiP4O15
_symmetry_space_group_name_H-M   'P 1'
_cell_length_a   5.54931900
_cell_length_b   7.04876260
_cell_length_c   16.50627011
_cell_angle_alpha   89.79221445
_cell_angle_beta   90.00000000
_cell_angle_gamma   90.00000000
_symmetry_Int_Tables_number   1
_chemical_formula_structural   YTmSiP4O15
_chemical_formula_sum   'Y2 Tm2 Si2 P8 O30'
_cell_volume   645.65224639
_cell_formula_units_Z   2
loop_
 _symmetry_equiv_pos_site_id
 _symmetry_equiv_pos_as_xyz
  1  'x, y, z'
loop_
 _atom_site_type_symbol
 _atom_site_label
 _atom_site_symmetry_multiplicity
 _atom_site_fract_x
 _atom_site_fract_y
 _atom_site_fract_z
 _atom_site_occupancy
  Y  Y0  1  0.133594  0.095107  0.281522  1
  Y  Y1  1  0.133594  0.904893  0.718478  1
  Tm  Tm2  1  0.865135  0.404703  0.782789  1
  Tm  Tm3  1  0.865135  0.595297  0.217211  1
  Si  Si4  1  0.459400  0.500000  0.500000  1
  Si  Si5  1  0.541203  0.000000  0.000000  1
  P  P6  1  0.692009  0.909537  0.831334  1
  P  P7  1  0.692009  0.090463  0.168666  1
  P  P8  1  0.307682  0.589824  0.329392  1
  P  P9  1  0.307682  0.410176  0.670608  1
  P  P10  1  0.643394  0.137197  0.425662  1
  P  P11  1  0.643394  0.862803  0.574338  1
  P  P12  1  0.357833  0.364326  0.924852  1
  P  P13  1  0.357833  0.635674  0.075148  1
  O  O14  1  0.646345  0.337416  0.468715  1
  O  O15  1  0.646345  0.662584  0.531285  1
  O  O16  1  0.355253  0.162728  0.967475  1
  O  O17  1  0.355253  0.837272  0.032525  1
  O  O18  1  0.719583  0.076586  0.071841  1
  O  O19  1  0.719583  0.923414  0.928159  1
  O  O20  1  0.284073  0.425909  0.573486  1
  O  O21  1  0.284073  0.574091  0.426514  1
  O  O22  1  0.834423  0.078042  0.794169  1
  O  O23  1  0.834423  0.921958  0.205831  1
  O  O24  1  0.160629  0.424852  0.292202  1
  O  O25  1  0.160629  0.575148  0.707798  1
  O  O26  1  0.424835  0.909149  0.812836  1
  O  O27  1  0.424835  0.090851  0.187164  1
  O  O28  1  0.574360  0.590037  0.309176  1
  O  O29  1  0.574360  0.409963  0.690824  1
  O  O30  1  0.833054  0.732995  0.803039  1
  O  O31  1  0.833054  0.267005  0.196961  1
  O  O32  1  0.164148  0.765678  0.301676  1
  O  O33  1  0.164148  0.234322  0.698324  1
  O  O34  1  0.427041  0.118315  0.372104  1
  O  O35  1  0.427041  0.881685  0.627896  1
  O  O36  1  0.577400  0.386471  0.872745  1
  O  O37  1  0.577400  0.613529  0.127255  1
  O  O38  1  0.885406  0.103851  0.388482  1
  O  O39  1  0.885406  0.896149  0.611518  1
  O  O40  1  0.117584  0.395962  0.885666  1
  O  O41  1  0.117584  0.604038  0.114334  1
  O  O42  1  0.599261  0.000000  0.500000  1
  O  O43  1  0.392574  0.500000  0.000000  1
