# generated using pymatgen
data_Na4DyBiO6
_symmetry_space_group_name_H-M   'P 1'
_cell_length_a   5.85965981
_cell_length_b   5.85965811
_cell_length_c   5.94344877
_cell_angle_alpha   99.60397130
_cell_angle_beta   99.60413835
_cell_angle_gamma   119.94621410
_symmetry_Int_Tables_number   1
_chemical_formula_structural   Na4DyBiO6
_chemical_formula_sum   'Na4 Dy1 Bi1 O6'
_cell_volume   166.70969519
_cell_formula_units_Z   1
loop_
 _symmetry_equiv_pos_site_id
 _symmetry_equiv_pos_as_xyz
  1  'x, y, z'
loop_
 _atom_site_type_symbol
 _atom_site_label
 _atom_site_symmetry_multiplicity
 _atom_site_fract_x
 _atom_site_fract_y
 _atom_site_fract_z
 _atom_site_occupancy
  Na  Na0  1  0.499349  0.500651  0.999999  1
  Na  Na1  1  0.657401  0.342601  0.499999  1
  Na  Na2  1  0.336840  0.663161  0.500000  1
  Na  Na3  1  0.010868  0.989135  0.500001  1
  Dy  Dy4  1  0.832668  0.167332  0.000000  1
  Bi  Bi5  1  0.166951  0.833048  0.000000  1
  O  O6  1  0.944344  0.589833  0.216169  1
  O  O7  1  0.557717  0.930631  0.220578  1
  O  O8  1  0.217551  0.203220  0.221743  1
  O  O9  1  0.796781  0.782450  0.778258  1
  O  O10  1  0.069369  0.442283  0.779424  1
  O  O11  1  0.410165  0.055655  0.783831  1
