# generated using pymatgen
data_Tb2Er2Ga17SiRh6
_symmetry_space_group_name_H-M   'P 1'
_cell_length_a   7.55193157
_cell_length_b   7.52456044
_cell_length_c   9.47318900
_cell_angle_alpha   90.05838040
_cell_angle_beta   89.87640924
_cell_angle_gamma   119.89139846
_symmetry_Int_Tables_number   1
_chemical_formula_structural   Tb2Er2Ga17SiRh6
_chemical_formula_sum   'Tb2 Er2 Ga17 Si1 Rh6'
_cell_volume   466.70153603
_cell_formula_units_Z   1
loop_
 _symmetry_equiv_pos_site_id
 _symmetry_equiv_pos_as_xyz
  1  'x, y, z'
loop_
 _atom_site_type_symbol
 _atom_site_label
 _atom_site_symmetry_multiplicity
 _atom_site_fract_x
 _atom_site_fract_y
 _atom_site_fract_z
 _atom_site_occupancy
  Tb  Tb0  1  0.673775  0.002855  0.247829  1
  Tb  Tb1  1  0.329974  0.002490  0.749667  1
  Er  Er2  1  0.996240  0.663531  0.247635  1
  Er  Er3  1  0.003093  0.330909  0.752292  1
  Ga  Ga4  1  0.128162  0.127390  0.250548  1
  Ga  Ga5  1  0.872325  0.874695  0.750452  1
  Ga  Ga6  1  0.998450  0.670155  0.918593  1
  Ga  Ga7  1  0.999573  0.664729  0.579296  1
  Ga  Ga8  1  0.333307  0.998224  0.419513  1
  Ga  Ga9  1  0.001204  0.335514  0.422106  1
  Ga  Ga10  1  0.665864  0.999883  0.579796  1
  Ga  Ga11  1  0.659305  0.995077  0.918136  1
  Ga  Ga12  1  0.332649  0.998075  0.080658  1
  Ga  Ga13  1  0.332955  0.332598  0.565686  1
  Ga  Ga14  1  0.669061  0.669008  0.434021  1
  Ga  Ga15  1  0.667641  0.668593  0.067833  1
  Ga  Ga16  1  0.338396  0.333234  0.933222  1
  Ga  Ga17  1  0.338794  0.547335  0.251110  1
  Ga  Ga18  1  0.663470  0.451528  0.751003  1
  Ga  Ga19  1  0.547015  0.338618  0.250535  1
  Ga  Ga20  1  0.450438  0.659073  0.750270  1
  Si  Si21  1  0.001302  0.335176  0.074224  1
  Rh  Rh22  1  0.683614  0.330054  0.003624  1
  Rh  Rh23  1  0.314539  0.657591  0.001452  1
  Rh  Rh24  1  0.328414  0.671164  0.500143  1
  Rh  Rh25  1  0.671969  0.328712  0.499648  1
  Rh  Rh26  1  0.998545  0.013375  0.000925  1
  Rh  Rh27  1  0.999924  0.000414  0.499780  1
