# generated using pymatgen
data_Sm4GaI6
_symmetry_space_group_name_H-M   'P 1'
_cell_length_a   4.29161500
_cell_length_b   14.36036700
_cell_length_c   15.14391200
_cell_angle_alpha   90.00000000
_cell_angle_beta   90.00000000
_cell_angle_gamma   90.00000000
_symmetry_Int_Tables_number   1
_chemical_formula_structural   Sm4GaI6
_chemical_formula_sum   'Sm8 Ga2 I12'
_cell_volume   933.30667294
_cell_formula_units_Z   2
loop_
 _symmetry_equiv_pos_site_id
 _symmetry_equiv_pos_as_xyz
  1  'x, y, z'
loop_
 _atom_site_type_symbol
 _atom_site_label
 _atom_site_symmetry_multiplicity
 _atom_site_fract_x
 _atom_site_fract_y
 _atom_site_fract_z
 _atom_site_occupancy
  Sm  Sm0  1  0.500000  0.115438  0.344453  1
  Sm  Sm1  1  0.500000  0.884562  0.655547  1
  Sm  Sm2  1  0.500000  0.615438  0.155547  1
  Sm  Sm3  1  0.500000  0.384562  0.844453  1
  Sm  Sm4  1  0.000000  0.115651  0.577586  1
  Sm  Sm5  1  0.000000  0.884349  0.422414  1
  Sm  Sm6  1  0.000000  0.615651  0.922414  1
  Sm  Sm7  1  0.000000  0.384349  0.077586  1
  Ga  Ga8  1  0.500000  0.000000  0.500000  1
  Ga  Ga9  1  0.500000  0.500000  0.000000  1
  I  I10  1  0.500000  0.245280  0.165689  1
  I  I11  1  0.500000  0.754720  0.834311  1
  I  I12  1  0.500000  0.745280  0.334311  1
  I  I13  1  0.500000  0.254720  0.665689  1
  I  I14  1  0.000000  0.258929  0.415172  1
  I  I15  1  0.000000  0.741071  0.584828  1
  I  I16  1  0.000000  0.758929  0.084828  1
  I  I17  1  0.000000  0.241071  0.915172  1
  I  I18  1  0.000000  0.997791  0.239507  1
  I  I19  1  0.000000  0.002209  0.760493  1
  I  I20  1  0.000000  0.497791  0.260493  1
  I  I21  1  0.000000  0.502209  0.739507  1
