# generated using pymatgen
data_Nd4Si10Ir5Ru
_symmetry_space_group_name_H-M   'P 1'
_cell_length_a   8.23436737
_cell_length_b   8.23436723
_cell_length_c   5.94228924
_cell_angle_alpha   68.94279622
_cell_angle_beta   68.94279891
_cell_angle_gamma   90.46072438
_symmetry_Int_Tables_number   1
_chemical_formula_structural   Nd4Si10Ir5Ru
_chemical_formula_sum   'Nd4 Si10 Ir5 Ru1'
_cell_volume   346.52312324
_cell_formula_units_Z   1
loop_
 _symmetry_equiv_pos_site_id
 _symmetry_equiv_pos_as_xyz
  1  'x, y, z'
loop_
 _atom_site_type_symbol
 _atom_site_label
 _atom_site_symmetry_multiplicity
 _atom_site_fract_x
 _atom_site_fract_y
 _atom_site_fract_z
 _atom_site_occupancy
  Nd  Nd0  1  0.861434  0.600591  0.768361  1
  Nd  Nd1  1  0.399409  0.138566  0.731639  1
  Nd  Nd2  1  0.138589  0.399446  0.231088  1
  Nd  Nd3  1  0.600554  0.861411  0.268912  1
  Si  Si4  1  0.046892  0.256548  0.851787  1
  Si  Si5  1  0.743452  0.953108  0.648213  1
  Si  Si6  1  0.953117  0.743406  0.153711  1
  Si  Si7  1  0.256594  0.046883  0.346289  1
  Si  Si8  1  0.226326  0.773674  0.750000  1
  Si  Si9  1  0.775033  0.224967  0.250000  1
  Si  Si10  1  0.500311  0.499689  0.750000  1
  Si  Si11  1  0.499652  0.500348  0.250000  1
  Si  Si12  1  0.773699  0.226301  0.750000  1
  Si  Si13  1  0.224985  0.775015  0.250000  1
  Ir  Ir14  1  0.247769  0.527221  0.611783  1
  Ir  Ir15  1  0.472779  0.752231  0.888217  1
  Ir  Ir16  1  0.752179  0.472753  0.386383  1
  Ir  Ir17  1  0.527247  0.247821  0.113617  1
  Ir  Ir18  1  0.999850  0.000150  0.750000  1
  Ru  Ru19  1  0.000125  0.999875  0.250000  1
