# generated using pymatgen
data_Np2Al9RePd2
_symmetry_space_group_name_H-M   'P 1'
_cell_length_a   7.59127944
_cell_length_b   7.59243985
_cell_length_c   9.41646100
_cell_angle_alpha   90.00000000
_cell_angle_beta   90.00000000
_cell_angle_gamma   117.31505931
_symmetry_Int_Tables_number   1
_chemical_formula_structural   Np2Al9RePd2
_chemical_formula_sum   'Np4 Al18 Re2 Pd4'
_cell_volume   482.21403516
_cell_formula_units_Z   2
loop_
 _symmetry_equiv_pos_site_id
 _symmetry_equiv_pos_as_xyz
  1  'x, y, z'
loop_
 _atom_site_type_symbol
 _atom_site_label
 _atom_site_symmetry_multiplicity
 _atom_site_fract_x
 _atom_site_fract_y
 _atom_site_fract_z
 _atom_site_occupancy
  Np  Np0  1  0.992696  0.703779  0.250000  1
  Np  Np1  1  0.007304  0.296221  0.750000  1
  Np  Np2  1  0.703692  0.992645  0.250000  1
  Np  Np3  1  0.296308  0.007355  0.750000  1
  Al  Al4  1  0.152575  0.152583  0.250000  1
  Al  Al5  1  0.847425  0.847417  0.750000  1
  Al  Al6  1  0.003584  0.347320  0.082347  1
  Al  Al7  1  0.996416  0.652680  0.917653  1
  Al  Al8  1  0.996416  0.652680  0.582347  1
  Al  Al9  1  0.347329  0.003613  0.417710  1
  Al  Al10  1  0.003584  0.347320  0.417653  1
  Al  Al11  1  0.652671  0.996387  0.582290  1
  Al  Al12  1  0.652671  0.996387  0.917710  1
  Al  Al13  1  0.347329  0.003613  0.082290  1
  Al  Al14  1  0.331869  0.331885  0.543064  1
  Al  Al15  1  0.668131  0.668115  0.456936  1
  Al  Al16  1  0.668131  0.668115  0.043064  1
  Al  Al17  1  0.331869  0.331885  0.956936  1
  Al  Al18  1  0.350517  0.566850  0.250000  1
  Al  Al19  1  0.649483  0.433150  0.750000  1
  Al  Al20  1  0.566927  0.350373  0.250000  1
  Al  Al21  1  0.433073  0.649627  0.750000  1
  Re  Re22  1  0.000000  0.000000  0.000000  1
  Re  Re23  1  0.000000  0.000000  0.500000  1
  Pd  Pd24  1  0.671489  0.328580  0.999993  1
  Pd  Pd25  1  0.328511  0.671420  0.000007  1
  Pd  Pd26  1  0.328511  0.671420  0.499993  1
  Pd  Pd27  1  0.671489  0.328580  0.500007  1
