# generated using pymatgen
data_Tm2Fe7Ni(MoP3)2
_symmetry_space_group_name_H-M   'P 1'
_cell_length_a   3.67877500
_cell_length_b   10.39523800
_cell_length_c   11.94237700
_cell_angle_alpha   90.00000000
_cell_angle_beta   90.00000000
_cell_angle_gamma   90.00000000
_symmetry_Int_Tables_number   1
_chemical_formula_structural   Tm2Fe7Ni(MoP3)2
_chemical_formula_sum   'Tm4 Fe14 Ni2 Mo4 P12'
_cell_volume   456.69729620
_cell_formula_units_Z   2
loop_
 _symmetry_equiv_pos_site_id
 _symmetry_equiv_pos_as_xyz
  1  'x, y, z'
loop_
 _atom_site_type_symbol
 _atom_site_label
 _atom_site_symmetry_multiplicity
 _atom_site_fract_x
 _atom_site_fract_y
 _atom_site_fract_z
 _atom_site_occupancy
  Tm  Tm0  1  0.250000  0.580115  0.707236  1
  Tm  Tm1  1  0.250000  0.919885  0.207236  1
  Tm  Tm2  1  0.750000  0.416374  0.292520  1
  Tm  Tm3  1  0.750000  0.083626  0.792520  1
  Fe  Fe4  1  0.750000  0.588711  0.510606  1
  Fe  Fe5  1  0.750000  0.911289  0.010606  1
  Fe  Fe6  1  0.250000  0.218675  0.175878  1
  Fe  Fe7  1  0.250000  0.281325  0.675878  1
  Fe  Fe8  1  0.750000  0.783902  0.821178  1
  Fe  Fe9  1  0.750000  0.716098  0.321178  1
  Fe  Fe10  1  0.250000  0.876740  0.702840  1
  Fe  Fe11  1  0.250000  0.623260  0.202840  1
  Fe  Fe12  1  0.750000  0.119937  0.300090  1
  Fe  Fe13  1  0.750000  0.380063  0.800090  1
  Fe  Fe14  1  0.250000  0.464568  0.934836  1
  Fe  Fe15  1  0.250000  0.035432  0.434836  1
  Fe  Fe16  1  0.750000  0.538061  0.068892  1
  Fe  Fe17  1  0.750000  0.961939  0.568892  1
  Ni  Ni18  1  0.250000  0.403128  0.485043  1
  Ni  Ni19  1  0.250000  0.096872  0.985043  1
  Mo  Mo20  1  0.250000  0.706215  0.988561  1
  Mo  Mo21  1  0.250000  0.793785  0.488561  1
  Mo  Mo22  1  0.750000  0.295376  0.012452  1
  Mo  Mo23  1  0.750000  0.204624  0.512452  1
  P  P24  1  0.250000  0.424570  0.115089  1
  P  P25  1  0.250000  0.075430  0.615089  1
  P  P26  1  0.750000  0.575235  0.885900  1
  P  P27  1  0.750000  0.924765  0.385900  1
  P  P28  1  0.250000  0.271505  0.861366  1
  P  P29  1  0.250000  0.228495  0.361366  1
  P  P30  1  0.750000  0.739267  0.131340  1
  P  P31  1  0.750000  0.760733  0.631340  1
  P  P32  1  0.250000  0.592852  0.392560  1
  P  P33  1  0.250000  0.907148  0.892560  1
  P  P34  1  0.750000  0.404737  0.613612  1
  P  P35  1  0.750000  0.095263  0.113612  1
