# generated using pymatgen
data_Tm3Ga6Ni8Ir
_symmetry_space_group_name_H-M   'P 1'
_cell_length_a   8.89536092
_cell_length_b   9.04500019
_cell_length_c   3.90762300
_cell_angle_alpha   90.00000000
_cell_angle_beta   90.00000000
_cell_angle_gamma   120.55805088
_symmetry_Int_Tables_number   1
_chemical_formula_structural   Tm3Ga6Ni8Ir
_chemical_formula_sum   'Tm3 Ga6 Ni8 Ir1'
_cell_volume   270.73581375
_cell_formula_units_Z   1
loop_
 _symmetry_equiv_pos_site_id
 _symmetry_equiv_pos_as_xyz
  1  'x, y, z'
loop_
 _atom_site_type_symbol
 _atom_site_label
 _atom_site_symmetry_multiplicity
 _atom_site_fract_x
 _atom_site_fract_y
 _atom_site_fract_z
 _atom_site_occupancy
  Tm  Tm0  1  0.000000  0.000000  0.000000  1
  Tm  Tm1  1  0.683066  0.341533  0.500000  1
  Tm  Tm2  1  0.316934  0.658467  0.500000  1
  Ga  Ga3  1  0.673288  0.679964  0.500000  1
  Ga  Ga4  1  0.326712  0.006676  0.500000  1
  Ga  Ga5  1  0.000000  0.303132  0.500000  1
  Ga  Ga6  1  0.326712  0.320036  0.500000  1
  Ga  Ga7  1  0.673288  0.993324  0.500000  1
  Ga  Ga8  1  0.000000  0.696868  0.500000  1
  Ni  Ni9  1  0.500000  0.500000  0.000000  1
  Ni  Ni10  1  0.500000  0.000000  0.000000  1
  Ni  Ni11  1  0.818634  0.168817  0.000000  1
  Ni  Ni12  1  0.818634  0.649816  0.000000  1
  Ni  Ni13  1  0.364351  0.182175  0.000000  1
  Ni  Ni14  1  0.181366  0.831183  0.000000  1
  Ni  Ni15  1  0.635649  0.817825  0.000000  1
  Ni  Ni16  1  0.181366  0.350184  0.000000  1
  Ir  Ir17  1  0.000000  0.500000  0.000000  1
