# generated using pymatgen
data_U2Cr3Fe9As7
_symmetry_space_group_name_H-M   'P 1'
_cell_length_a   3.77686700
_cell_length_b   9.42998786
_cell_length_c   9.42998900
_cell_angle_alpha   120.00000050
_cell_angle_beta   90.00000000
_cell_angle_gamma   90.00000000
_symmetry_Int_Tables_number   1
_chemical_formula_structural   U2Cr3Fe9As7
_chemical_formula_sum   'U2 Cr3 Fe9 As7'
_cell_volume   290.86042931
_cell_formula_units_Z   1
loop_
 _symmetry_equiv_pos_site_id
 _symmetry_equiv_pos_as_xyz
  1  'x, y, z'
loop_
 _atom_site_type_symbol
 _atom_site_label
 _atom_site_symmetry_multiplicity
 _atom_site_fract_x
 _atom_site_fract_y
 _atom_site_fract_z
 _atom_site_occupancy
  U  U0  1  0.000000  0.666667  0.333333  1
  U  U1  1  0.500000  0.333333  0.666667  1
  Cr  Cr2  1  0.500000  0.782407  0.891187  1
  Cr  Cr3  1  0.500000  0.108780  0.217593  1
  Cr  Cr4  1  0.500000  0.108813  0.891220  1
  Fe  Fe5  1  0.000000  0.565830  0.932163  1
  Fe  Fe6  1  0.000000  0.366333  0.434170  1
  Fe  Fe7  1  0.000000  0.067837  0.633667  1
  Fe  Fe8  1  0.000000  0.871632  0.152444  1
  Fe  Fe9  1  0.000000  0.280812  0.128368  1
  Fe  Fe10  1  0.000000  0.847556  0.719188  1
  Fe  Fe11  1  0.500000  0.938794  0.379964  1
  Fe  Fe12  1  0.500000  0.441168  0.061206  1
  Fe  Fe13  1  0.500000  0.620036  0.558832  1
  As  As14  1  0.000000  0.000000  0.000000  1
  As  As15  1  0.500000  0.707513  0.112749  1
  As  As16  1  0.500000  0.405237  0.292487  1
  As  As17  1  0.500000  0.887251  0.594763  1
  As  As18  1  0.000000  0.591035  0.696874  1
  As  As19  1  0.000000  0.105839  0.408965  1
  As  As20  1  0.000000  0.303126  0.894161  1
