# generated using pymatgen
data_CaYbSiO4
_symmetry_space_group_name_H-M   'P 1'
_cell_length_a   5.09196100
_cell_length_b   6.77559400
_cell_length_c   11.28498700
_cell_angle_alpha   90.00000000
_cell_angle_beta   90.00000000
_cell_angle_gamma   90.00000000
_symmetry_Int_Tables_number   1
_chemical_formula_structural   CaYbSiO4
_chemical_formula_sum   'Ca4 Yb4 Si4 O16'
_cell_volume   389.34401810
_cell_formula_units_Z   4
loop_
 _symmetry_equiv_pos_site_id
 _symmetry_equiv_pos_as_xyz
  1  'x, y, z'
loop_
 _atom_site_type_symbol
 _atom_site_label
 _atom_site_symmetry_multiplicity
 _atom_site_fract_x
 _atom_site_fract_y
 _atom_site_fract_z
 _atom_site_occupancy
  Ca  Ca0  1  0.011521  0.750000  0.719751  1
  Ca  Ca1  1  0.988479  0.250000  0.280249  1
  Ca  Ca2  1  0.511521  0.250000  0.780249  1
  Ca  Ca3  1  0.488479  0.750000  0.219751  1
  Yb  Yb4  1  0.500000  0.500000  0.500000  1
  Yb  Yb5  1  0.000000  0.500000  0.000000  1
  Yb  Yb6  1  0.500000  0.000000  0.500000  1
  Yb  Yb7  1  0.000000  0.000000  0.000000  1
  Si  Si8  1  0.575174  0.750000  0.906142  1
  Si  Si9  1  0.424826  0.250000  0.093858  1
  Si  Si10  1  0.075174  0.250000  0.593858  1
  Si  Si11  1  0.924826  0.750000  0.406142  1
  O  O12  1  0.707071  0.554503  0.840025  1
  O  O13  1  0.292929  0.445497  0.159975  1
  O  O14  1  0.207071  0.445497  0.659975  1
  O  O15  1  0.292929  0.054503  0.159975  1
  O  O16  1  0.792929  0.554503  0.340025  1
  O  O17  1  0.707071  0.945497  0.840025  1
  O  O18  1  0.792929  0.945497  0.340025  1
  O  O19  1  0.207071  0.054503  0.659975  1
  O  O20  1  0.790743  0.750000  0.541244  1
  O  O21  1  0.209257  0.250000  0.458756  1
  O  O22  1  0.290743  0.250000  0.958756  1
  O  O23  1  0.709257  0.750000  0.041244  1
  O  O24  1  0.252743  0.750000  0.910561  1
  O  O25  1  0.747257  0.250000  0.089439  1
  O  O26  1  0.752743  0.250000  0.589439  1
  O  O27  1  0.247257  0.750000  0.410561  1
