# generated using pymatgen
data_NaGd(ThB12)2
_symmetry_space_group_name_H-M   'P 1'
_cell_length_a   7.14228966
_cell_length_b   7.14228839
_cell_length_c   5.81820300
_cell_angle_alpha   90.00000000
_cell_angle_beta   90.00000000
_cell_angle_gamma   109.57077596
_symmetry_Int_Tables_number   1
_chemical_formula_structural   NaGd(ThB12)2
_chemical_formula_sum   'Na1 Gd1 Th2 B24'
_cell_volume   279.65327837
_cell_formula_units_Z   1
loop_
 _symmetry_equiv_pos_site_id
 _symmetry_equiv_pos_as_xyz
  1  'x, y, z'
loop_
 _atom_site_type_symbol
 _atom_site_label
 _atom_site_symmetry_multiplicity
 _atom_site_fract_x
 _atom_site_fract_y
 _atom_site_fract_z
 _atom_site_occupancy
  Na  Na0  1  0.000000  0.000000  0.000000  1
  Gd  Gd1  1  0.500000  0.500000  0.000000  1
  Th  Th2  1  0.751600  0.248400  0.500000  1
  Th  Th3  1  0.248400  0.751600  0.500000  1
  B  B4  1  0.175442  0.325656  0.650545  1
  B  B5  1  0.924388  0.574725  0.150788  1
  B  B6  1  0.674344  0.824559  0.650545  1
  B  B7  1  0.425275  0.075613  0.150788  1
  B  B8  1  0.175442  0.325656  0.349455  1
  B  B9  1  0.924388  0.574725  0.849212  1
  B  B10  1  0.674344  0.824559  0.349455  1
  B  B11  1  0.425275  0.075613  0.849212  1
  B  B12  1  0.400834  0.400834  0.500000  1
  B  B13  1  0.149492  0.651339  0.000000  1
  B  B14  1  0.900089  0.900089  0.500000  1
  B  B15  1  0.651339  0.149493  0.000000  1
  B  B16  1  0.325656  0.175441  0.650545  1
  B  B17  1  0.075612  0.425275  0.150788  1
  B  B18  1  0.824558  0.674344  0.650545  1
  B  B19  1  0.574725  0.924387  0.150788  1
  B  B20  1  0.099911  0.099911  0.500000  1
  B  B21  1  0.850508  0.348661  0.000000  1
  B  B22  1  0.599166  0.599166  0.500000  1
  B  B23  1  0.348661  0.850507  0.000000  1
  B  B24  1  0.325656  0.175441  0.349455  1
  B  B25  1  0.075612  0.425275  0.849212  1
  B  B26  1  0.824558  0.674344  0.349455  1
  B  B27  1  0.574725  0.924387  0.849212  1
