# generated using pymatgen
data_La8Ho11TmSi16
_symmetry_space_group_name_H-M   'P 1'
_cell_length_a   7.55125610
_cell_length_b   7.83749610
_cell_length_c   14.89132800
_cell_angle_alpha   90.00000000
_cell_angle_beta   90.00000000
_cell_angle_gamma   90.01833313
_symmetry_Int_Tables_number   1
_chemical_formula_structural   La8Ho11TmSi16
_chemical_formula_sum   'La8 Ho11 Tm1 Si16'
_cell_volume   881.31252955
_cell_formula_units_Z   1
loop_
 _symmetry_equiv_pos_site_id
 _symmetry_equiv_pos_as_xyz
  1  'x, y, z'
loop_
 _atom_site_type_symbol
 _atom_site_label
 _atom_site_symmetry_multiplicity
 _atom_site_fract_x
 _atom_site_fract_y
 _atom_site_fract_z
 _atom_site_occupancy
  La  La0  1  0.976645  0.822021  0.098160  1
  La  La1  1  0.476784  0.678078  0.401867  1
  La  La2  1  0.523273  0.321888  0.901962  1
  La  La3  1  0.023256  0.178138  0.598059  1
  La  La4  1  0.023256  0.178138  0.901941  1
  La  La5  1  0.523273  0.321888  0.598038  1
  La  La6  1  0.476784  0.678078  0.098133  1
  La  La7  1  0.976645  0.822021  0.401840  1
  Ho  Ho8  1  0.149839  0.509278  0.250000  1
  Ho  Ho9  1  0.850205  0.490609  0.750000  1
  Ho  Ho10  1  0.350222  0.009387  0.750000  1
  Ho  Ho11  1  0.681094  0.822433  0.876504  1
  Ho  Ho12  1  0.181069  0.677535  0.623523  1
  Ho  Ho13  1  0.818750  0.322317  0.123515  1
  Ho  Ho14  1  0.319073  0.177444  0.376467  1
  Ho  Ho15  1  0.319073  0.177444  0.123533  1
  Ho  Ho16  1  0.818750  0.322317  0.376485  1
  Ho  Ho17  1  0.181069  0.677535  0.876477  1
  Ho  Ho18  1  0.681094  0.822433  0.623496  1
  Tm  Tm19  1  0.649816  0.990733  0.250000  1
  Si  Si20  1  0.770117  0.619789  0.250000  1
  Si  Si21  1  0.270858  0.880863  0.250000  1
  Si  Si22  1  0.729833  0.119145  0.750000  1
  Si  Si23  1  0.229898  0.380841  0.750000  1
  Si  Si24  1  0.023154  0.114925  0.250000  1
  Si  Si25  1  0.523887  0.384830  0.250000  1
  Si  Si26  1  0.476092  0.615023  0.750000  1
  Si  Si27  1  0.976104  0.884962  0.750000  1
  Si  Si28  1  0.857234  0.530956  0.960042  1
  Si  Si29  1  0.357178  0.969050  0.539923  1
  Si  Si30  1  0.642850  0.030874  0.040193  1
  Si  Si31  1  0.142782  0.469073  0.460028  1
  Si  Si32  1  0.142782  0.469073  0.039972  1
  Si  Si33  1  0.642850  0.030874  0.459807  1
  Si  Si34  1  0.357178  0.969050  0.960077  1
  Si  Si35  1  0.857234  0.530956  0.539958  1
