# generated using pymatgen
data_Mn3FeBr7O
_symmetry_space_group_name_H-M   'P 1'
_cell_length_a   8.37801450
_cell_length_b   8.37801350
_cell_length_c   8.27374100
_cell_angle_alpha   54.72052700
_cell_angle_beta   54.72053185
_cell_angle_gamma   54.20433034
_symmetry_Int_Tables_number   1
_chemical_formula_structural   Mn3FeBr7O
_chemical_formula_sum   'Mn3 Fe1 Br7 O1'
_cell_volume   358.44341381
_cell_formula_units_Z   1
loop_
 _symmetry_equiv_pos_site_id
 _symmetry_equiv_pos_as_xyz
  1  'x, y, z'
loop_
 _atom_site_type_symbol
 _atom_site_label
 _atom_site_symmetry_multiplicity
 _atom_site_fract_x
 _atom_site_fract_y
 _atom_site_fract_z
 _atom_site_occupancy
  Mn  Mn0  1  0.527761  0.979847  0.471937  1
  Mn  Mn1  1  0.979847  0.527761  0.471937  1
  Mn  Mn2  1  0.498127  0.498127  0.999747  1
  Fe  Fe3  1  0.974540  0.974540  0.036623  1
  Br  Br4  1  0.734067  0.734067  0.745769  1
  Br  Br5  1  0.244468  0.746847  0.233751  1
  Br  Br6  1  0.746847  0.244468  0.233751  1
  Br  Br7  1  0.259622  0.259622  0.252635  1
  Br  Br8  1  0.218352  0.218352  0.741635  1
  Br  Br9  1  0.758471  0.243688  0.771707  1
  Br  Br10  1  0.243688  0.758471  0.771707  1
  O  O11  1  0.814210  0.814210  0.268803  1
