# generated using pymatgen
data_Dy6Sc4Sn5Te
_symmetry_space_group_name_H-M   'P 1'
_cell_length_a   8.80046300
_cell_length_b   8.79272982
_cell_length_c   6.25286600
_cell_angle_alpha   90.00000000
_cell_angle_beta   90.00000000
_cell_angle_gamma   120.02909402
_symmetry_Int_Tables_number   1
_chemical_formula_structural   Dy6Sc4Sn5Te
_chemical_formula_sum   'Dy6 Sc4 Sn5 Te1'
_cell_volume   418.90120194
_cell_formula_units_Z   1
loop_
 _symmetry_equiv_pos_site_id
 _symmetry_equiv_pos_as_xyz
  1  'x, y, z'
loop_
 _atom_site_type_symbol
 _atom_site_label
 _atom_site_symmetry_multiplicity
 _atom_site_fract_x
 _atom_site_fract_y
 _atom_site_fract_z
 _atom_site_occupancy
  Dy  Dy0  1  0.996134  0.757439  0.750000  1
  Dy  Dy1  1  0.001720  0.240836  0.250000  1
  Dy  Dy2  1  0.760884  0.759164  0.250000  1
  Dy  Dy3  1  0.760155  0.000000  0.750000  1
  Dy  Dy4  1  0.238695  0.242561  0.750000  1
  Dy  Dy5  1  0.241890  0.000000  0.250000  1
  Sc  Sc6  1  0.332344  0.664214  0.498762  1
  Sc  Sc7  1  0.668131  0.335786  0.001238  1
  Sc  Sc8  1  0.668131  0.335786  0.498762  1
  Sc  Sc9  1  0.332344  0.664214  0.001238  1
  Sn  Sn10  1  0.401202  0.400007  0.250000  1
  Sn  Sn11  1  0.001194  0.599993  0.250000  1
  Sn  Sn12  1  0.999748  0.401060  0.750000  1
  Sn  Sn13  1  0.598687  0.598940  0.750000  1
  Sn  Sn14  1  0.602108  0.000000  0.250000  1
  Te  Te15  1  0.396632  0.000000  0.750000  1
