# generated using pymatgen
data_Ho3Lu7In8CuPt3
_symmetry_space_group_name_H-M   'P 1'
_cell_length_a   3.60663500
_cell_length_b   8.01941851
_cell_length_c   17.95998254
_cell_angle_alpha   89.81667549
_cell_angle_beta   90.00000000
_cell_angle_gamma   90.00000000
_symmetry_Int_Tables_number   1
_chemical_formula_structural   Ho3Lu7In8CuPt3
_chemical_formula_sum   'Ho3 Lu7 In8 Cu1 Pt3'
_cell_volume   519.45599026
_cell_formula_units_Z   1
loop_
 _symmetry_equiv_pos_site_id
 _symmetry_equiv_pos_as_xyz
  1  'x, y, z'
loop_
 _atom_site_type_symbol
 _atom_site_label
 _atom_site_symmetry_multiplicity
 _atom_site_fract_x
 _atom_site_fract_y
 _atom_site_fract_z
 _atom_site_occupancy
  Ho  Ho0  1  0.000000  0.735795  0.280309  1
  Ho  Ho1  1  0.000000  0.999500  0.000511  1
  Ho  Ho2  1  0.000000  0.499815  0.499497  1
  Lu  Lu3  1  0.000000  0.117671  0.414679  1
  Lu  Lu4  1  0.000000  0.884494  0.584679  1
  Lu  Lu5  1  0.000000  0.383912  0.915004  1
  Lu  Lu6  1  0.000000  0.616920  0.085377  1
  Lu  Lu7  1  0.000000  0.247845  0.220106  1
  Lu  Lu8  1  0.000000  0.756996  0.778944  1
  Lu  Lu9  1  0.000000  0.256611  0.720954  1
  In  In10  1  0.500000  0.417502  0.351844  1
  In  In11  1  0.500000  0.578310  0.648176  1
  In  In12  1  0.500000  0.077602  0.851469  1
  In  In13  1  0.500000  0.924897  0.151459  1
  In  In14  1  0.500000  0.293230  0.066720  1
  In  In15  1  0.500000  0.707303  0.933586  1
  In  In16  1  0.500000  0.207371  0.566174  1
  In  In17  1  0.500000  0.795972  0.432323  1
  Cu  Cu18  1  0.500000  0.025600  0.302468  1
  Pt  Pt19  1  0.500000  0.974708  0.695624  1
  Pt  Pt20  1  0.500000  0.474615  0.803909  1
  Pt  Pt21  1  0.500000  0.523331  0.196188  1
