# generated using pymatgen
data_YTmSi5Rh3
_symmetry_space_group_name_H-M   'P 1'
_cell_length_a   8.10314057
_cell_length_b   8.11670085
_cell_length_c   5.69405790
_cell_angle_alpha   71.06113112
_cell_angle_beta   71.09000475
_cell_angle_gamma   93.35341607
_symmetry_Int_Tables_number   1
_chemical_formula_structural   YTmSi5Rh3
_chemical_formula_sum   'Y2 Tm2 Si10 Rh6'
_cell_volume   329.45687880
_cell_formula_units_Z   2
loop_
 _symmetry_equiv_pos_site_id
 _symmetry_equiv_pos_as_xyz
  1  'x, y, z'
loop_
 _atom_site_type_symbol
 _atom_site_label
 _atom_site_symmetry_multiplicity
 _atom_site_fract_x
 _atom_site_fract_y
 _atom_site_fract_z
 _atom_site_occupancy
  Y  Y0  1  0.400777  0.132981  0.739691  1
  Y  Y1  1  0.599223  0.867019  0.260309  1
  Tm  Tm2  1  0.867245  0.598423  0.760817  1
  Tm  Tm3  1  0.132755  0.401577  0.239183  1
  Si  Si4  1  0.777191  0.224771  0.749099  1
  Si  Si5  1  0.222809  0.775229  0.250901  1
  Si  Si6  1  0.512728  0.488401  0.749434  1
  Si  Si7  1  0.487272  0.511599  0.250566  1
  Si  Si8  1  0.209502  0.789075  0.749897  1
  Si  Si9  1  0.790498  0.210925  0.250103  1
  Si  Si10  1  0.266143  0.059545  0.338355  1
  Si  Si11  1  0.733857  0.940455  0.661645  1
  Si  Si12  1  0.942369  0.733127  0.161309  1
  Si  Si13  1  0.057631  0.266873  0.838691  1
  Rh  Rh14  1  0.539800  0.260575  0.124950  1
  Rh  Rh15  1  0.742138  0.461388  0.373262  1
  Rh  Rh16  1  0.460200  0.739425  0.875050  1
  Rh  Rh17  1  0.257862  0.538612  0.626738  1
  Rh  Rh18  1  0.998705  0.001651  0.249930  1
  Rh  Rh19  1  0.001295  0.998349  0.750070  1
