# generated using pymatgen
data_Yb2Sc2TcB8Ru9
_symmetry_space_group_name_H-M   'P 1'
_cell_length_a   3.00274100
_cell_length_b   8.58788117
_cell_length_c   10.14707345
_cell_angle_alpha   90.40263917
_cell_angle_beta   90.00000000
_cell_angle_gamma   90.00000000
_symmetry_Int_Tables_number   1
_chemical_formula_structural   Yb2Sc2TcB8Ru9
_chemical_formula_sum   'Yb2 Sc2 Tc1 B8 Ru9'
_cell_volume   261.65797786
_cell_formula_units_Z   1
loop_
 _symmetry_equiv_pos_site_id
 _symmetry_equiv_pos_as_xyz
  1  'x, y, z'
loop_
 _atom_site_type_symbol
 _atom_site_label
 _atom_site_symmetry_multiplicity
 _atom_site_fract_x
 _atom_site_fract_y
 _atom_site_fract_z
 _atom_site_occupancy
  Yb  Yb0  1  0.500000  0.842435  0.181854  1
  Yb  Yb1  1  0.500000  0.158307  0.818431  1
  Sc  Sc2  1  0.500000  0.656899  0.684379  1
  Sc  Sc3  1  0.500000  0.343879  0.316442  1
  Tc  Tc4  1  0.000000  0.656818  0.953238  1
  B  B5  1  0.500000  0.963659  0.589397  1
  B  B6  1  0.500000  0.035706  0.409934  1
  B  B7  1  0.500000  0.849782  0.900532  1
  B  B8  1  0.500000  0.149006  0.099216  1
  B  B9  1  0.500000  0.646170  0.399262  1
  B  B10  1  0.500000  0.352002  0.600647  1
  B  B11  1  0.500000  0.465680  0.912308  1
  B  B12  1  0.500000  0.536181  0.087546  1
  Ru  Ru13  1  0.000000  0.340919  0.047927  1
  Ru  Ru14  1  0.000000  0.841661  0.454099  1
  Ru  Ru15  1  0.000000  0.158710  0.545079  1
  Ru  Ru16  1  0.000000  0.000231  0.999808  1
  Ru  Ru17  1  0.000000  0.409802  0.759436  1
  Ru  Ru18  1  0.000000  0.590949  0.240798  1
  Ru  Ru19  1  0.000000  0.500170  0.500488  1
  Ru  Ru20  1  0.000000  0.899753  0.737390  1
  Ru  Ru21  1  0.000000  0.101283  0.261791  1
