# generated using pymatgen
data_La13PrRh6
_symmetry_space_group_name_H-M   'P 1'
_cell_length_a   6.60342168
_cell_length_b   10.21285492
_cell_length_c   10.17829314
_cell_angle_alpha   120.11280727
_cell_angle_beta   89.92482051
_cell_angle_gamma   90.00113142
_symmetry_Int_Tables_number   1
_chemical_formula_structural   La13PrRh6
_chemical_formula_sum   'La13 Pr1 Rh6'
_cell_volume   593.78126781
_cell_formula_units_Z   1
loop_
 _symmetry_equiv_pos_site_id
 _symmetry_equiv_pos_as_xyz
  1  'x, y, z'
loop_
 _atom_site_type_symbol
 _atom_site_label
 _atom_site_symmetry_multiplicity
 _atom_site_fract_x
 _atom_site_fract_y
 _atom_site_fract_z
 _atom_site_occupancy
  La  La0  1  0.472301  0.334491  0.668970  1
  La  La1  1  0.972263  0.665995  0.331985  1
  La  La2  1  0.237528  0.125283  0.875035  1
  La  La3  1  0.237503  0.749740  0.875024  1
  La  La4  1  0.239607  0.124546  0.249090  1
  La  La5  1  0.738329  0.874115  0.124805  1
  La  La6  1  0.738335  0.250690  0.124828  1
  La  La7  1  0.737897  0.875822  0.751637  1
  La  La8  1  0.435685  0.538461  0.461897  1
  La  La9  1  0.435687  0.923442  0.461878  1
  La  La10  1  0.437109  0.538446  0.076896  1
  La  La11  1  0.935283  0.462272  0.539827  1
  La  La12  1  0.935300  0.077549  0.539845  1
  Pr  Pr13  1  0.939936  0.461267  0.922503  1
  Rh  Rh14  1  0.201153  0.812963  0.187569  1
  Rh  Rh15  1  0.201149  0.374600  0.187597  1
  Rh  Rh16  1  0.196430  0.812536  0.625019  1
  Rh  Rh17  1  0.697247  0.182956  0.810349  1
  Rh  Rh18  1  0.697276  0.627376  0.810340  1
  Rh  Rh19  1  0.699984  0.187448  0.374904  1
