# generated using pymatgen
data_Y4Ga6CoAg
_symmetry_space_group_name_H-M   'P 1'
_cell_length_a   7.06296500
_cell_length_b   8.88269620
_cell_length_c   8.88269400
_cell_angle_alpha   120.00012335
_cell_angle_beta   90.00001456
_cell_angle_gamma   89.99998949
_symmetry_Int_Tables_number   1
_chemical_formula_structural   Y4Ga6CoAg
_chemical_formula_sum   'Y8 Ga12 Co2 Ag2'
_cell_volume   482.62149010
_cell_formula_units_Z   2
loop_
 _symmetry_equiv_pos_site_id
 _symmetry_equiv_pos_as_xyz
  1  'x, y, z'
loop_
 _atom_site_type_symbol
 _atom_site_label
 _atom_site_symmetry_multiplicity
 _atom_site_fract_x
 _atom_site_fract_y
 _atom_site_fract_z
 _atom_site_occupancy
  Y  Y0  1  0.743637  0.000000  0.000000  1
  Y  Y1  1  0.256388  0.999999  0.999999  1
  Y  Y2  1  0.739867  0.478205  0.521797  1
  Y  Y3  1  0.260127  0.521764  0.478233  1
  Y  Y4  1  0.739867  0.043591  0.521795  1
  Y  Y5  1  0.260127  0.956470  0.478234  1
  Y  Y6  1  0.739868  0.478205  0.956408  1
  Y  Y7  1  0.260126  0.521766  0.043528  1
  Ga  Ga8  1  0.954301  0.835363  0.164635  1
  Ga  Ga9  1  0.045716  0.164635  0.835363  1
  Ga  Ga10  1  0.954301  0.329274  0.164637  1
  Ga  Ga11  1  0.455466  0.173279  0.826723  1
  Ga  Ga12  1  0.045716  0.670730  0.835366  1
  Ga  Ga13  1  0.544529  0.826736  0.173263  1
  Ga  Ga14  1  0.954301  0.835363  0.670726  1
  Ga  Ga15  1  0.455464  0.653439  0.826719  1
  Ga  Ga16  1  0.045717  0.164634  0.329271  1
  Ga  Ga17  1  0.544529  0.346527  0.173263  1
  Ga  Ga18  1  0.455464  0.173282  0.346562  1
  Ga  Ga19  1  0.544531  0.826738  0.653477  1
  Co  Co20  1  0.485341  0.333334  0.666668  1
  Co  Co21  1  0.514580  0.666667  0.333333  1
  Ag  Ag22  1  0.942140  0.666666  0.333333  1
  Ag  Ag23  1  0.057899  0.333333  0.666666  1
