# generated using pymatgen
data_La12InGe11Pd12
_symmetry_space_group_name_H-M   'P 1'
_cell_length_a   4.57067400
_cell_length_b   7.75400905
_cell_length_c   22.51505900
_cell_angle_alpha   89.86969167
_cell_angle_beta   90.00000000
_cell_angle_gamma   90.00000000
_symmetry_Int_Tables_number   1
_chemical_formula_structural   La12InGe11Pd12
_chemical_formula_sum   'La12 In1 Ge11 Pd12'
_cell_volume   797.95521352
_cell_formula_units_Z   1
loop_
 _symmetry_equiv_pos_site_id
 _symmetry_equiv_pos_as_xyz
  1  'x, y, z'
loop_
 _atom_site_type_symbol
 _atom_site_label
 _atom_site_symmetry_multiplicity
 _atom_site_fract_x
 _atom_site_fract_y
 _atom_site_fract_z
 _atom_site_occupancy
  La  La0  1  0.250000  0.711692  0.333204  1
  La  La1  1  0.750000  0.289577  0.665545  1
  La  La2  1  0.750000  0.211986  0.167366  1
  La  La3  1  0.250000  0.794782  0.831365  1
  La  La4  1  0.250000  0.791832  0.167349  1
  La  La5  1  0.750000  0.199723  0.828456  1
  La  La6  1  0.750000  0.292513  0.333555  1
  La  La7  1  0.250000  0.704146  0.665630  1
  La  La8  1  0.250000  0.721830  0.005717  1
  La  La9  1  0.750000  0.282505  0.000519  1
  La  La10  1  0.750000  0.215312  0.496909  1
  La  La11  1  0.250000  0.782388  0.502023  1
  In  In12  1  0.250000  0.412059  0.896755  1
  Ge  Ge13  1  0.250000  0.090981  0.071238  1
  Ge  Ge14  1  0.750000  0.918921  0.929443  1
  Ge  Ge15  1  0.750000  0.589268  0.428745  1
  Ge  Ge16  1  0.250000  0.409656  0.568759  1
  Ge  Ge17  1  0.250000  0.085576  0.270553  1
  Ge  Ge18  1  0.750000  0.911008  0.727060  1
  Ge  Ge19  1  0.750000  0.585345  0.229975  1
  Ge  Ge20  1  0.250000  0.412607  0.767230  1
  Ge  Ge21  1  0.250000  0.084850  0.395666  1
  Ge  Ge22  1  0.750000  0.914705  0.603569  1
  Ge  Ge23  1  0.750000  0.585156  0.105942  1
  Pd  Pd24  1  0.250000  0.419782  0.239119  1
  Pd  Pd25  1  0.750000  0.580241  0.761751  1
  Pd  Pd26  1  0.750000  0.920098  0.261682  1
  Pd  Pd27  1  0.250000  0.076420  0.736152  1
  Pd  Pd28  1  0.250000  0.416900  0.434117  1
  Pd  Pd29  1  0.750000  0.581873  0.565809  1
  Pd  Pd30  1  0.750000  0.917065  0.069468  1
  Pd  Pd31  1  0.250000  0.070412  0.936291  1
  Pd  Pd32  1  0.250000  0.421595  0.094198  1
  Pd  Pd33  1  0.750000  0.598181  0.909437  1
  Pd  Pd34  1  0.750000  0.920567  0.406912  1
  Pd  Pd35  1  0.250000  0.078446  0.592487  1
