# generated using pymatgen
data_Ho5Er3Ti11Si16Hg
_symmetry_space_group_name_H-M   'P 1'
_cell_length_a   7.07186865
_cell_length_b   7.07181133
_cell_length_c   12.90176308
_cell_angle_alpha   90.11396028
_cell_angle_beta   89.87782592
_cell_angle_gamma   89.62722629
_symmetry_Int_Tables_number   1
_chemical_formula_structural   Ho5Er3Ti11Si16Hg
_chemical_formula_sum   'Ho5 Er3 Ti11 Si16 Hg1'
_cell_volume   645.21263520
_cell_formula_units_Z   1
loop_
 _symmetry_equiv_pos_site_id
 _symmetry_equiv_pos_as_xyz
  1  'x, y, z'
loop_
 _atom_site_type_symbol
 _atom_site_label
 _atom_site_symmetry_multiplicity
 _atom_site_fract_x
 _atom_site_fract_y
 _atom_site_fract_z
 _atom_site_occupancy
  Ho  Ho0  1  0.340782  0.001569  0.466930  1
  Ho  Ho1  1  0.497736  0.840460  0.716060  1
  Ho  Ho2  1  0.501725  0.156694  0.214982  1
  Ho  Ho3  1  0.840531  0.497683  0.283976  1
  Ho  Ho4  1  0.156658  0.501731  0.784995  1
  Er  Er5  1  0.657109  0.001055  0.968591  1
  Er  Er6  1  0.001418  0.340910  0.533081  1
  Er  Er7  1  0.000997  0.657085  0.031423  1
  Ti  Ti8  1  0.173869  0.826279  0.250601  1
  Ti  Ti9  1  0.826283  0.173934  0.749365  1
  Ti  Ti10  1  0.672460  0.672330  0.500002  1
  Ti  Ti11  1  0.146510  0.008922  0.876875  1
  Ti  Ti12  1  0.496786  0.649911  0.122838  1
  Ti  Ti13  1  0.506135  0.351601  0.623759  1
  Ti  Ti14  1  0.649929  0.496767  0.877158  1
  Ti  Ti15  1  0.351566  0.506083  0.376242  1
  Ti  Ti16  1  0.850141  0.991248  0.374323  1
  Ti  Ti17  1  0.008901  0.146560  0.123132  1
  Ti  Ti18  1  0.991217  0.850149  0.625687  1
  Si  Si19  1  0.201501  0.132798  0.683545  1
  Si  Si20  1  0.373742  0.725732  0.926423  1
  Si  Si21  1  0.632126  0.293230  0.432077  1
  Si  Si22  1  0.725801  0.373690  0.073543  1
  Si  Si23  1  0.293040  0.631832  0.567938  1
  Si  Si24  1  0.798574  0.866257  0.182518  1
  Si  Si25  1  0.132642  0.201738  0.316384  1
  Si  Si26  1  0.866218  0.798498  0.817476  1
  Si  Si27  1  0.286757  0.932924  0.067357  1
  Si  Si28  1  0.546485  0.790644  0.314591  1
  Si  Si29  1  0.458655  0.206292  0.805519  1
  Si  Si30  1  0.790800  0.546383  0.685345  1
  Si  Si31  1  0.206222  0.458583  0.194516  1
  Si  Si32  1  0.708781  0.047582  0.563813  1
  Si  Si33  1  0.932849  0.286825  0.932675  1
  Si  Si34  1  0.047446  0.708413  0.436258  1
  Hg  Hg35  1  0.327612  0.327609  0.000002  1
