# generated using pymatgen
data_Pr6Y2Sc12Si15Sn
_symmetry_space_group_name_H-M   'P 1'
_cell_length_a   7.25739194
_cell_length_b   7.53449644
_cell_length_c   14.28769011
_cell_angle_alpha   89.96303448
_cell_angle_beta   89.75927052
_cell_angle_gamma   90.07281971
_symmetry_Int_Tables_number   1
_chemical_formula_structural   Pr6Y2Sc12Si15Sn
_chemical_formula_sum   'Pr6 Y2 Sc12 Si15 Sn1'
_cell_volume   781.25454330
_cell_formula_units_Z   1
loop_
 _symmetry_equiv_pos_site_id
 _symmetry_equiv_pos_as_xyz
  1  'x, y, z'
loop_
 _atom_site_type_symbol
 _atom_site_label
 _atom_site_symmetry_multiplicity
 _atom_site_fract_x
 _atom_site_fract_y
 _atom_site_fract_z
 _atom_site_occupancy
  Pr  Pr0  1  0.489853  0.671845  0.903332  1
  Pr  Pr1  1  0.498461  0.680273  0.598178  1
  Pr  Pr2  1  0.987530  0.833471  0.596250  1
  Pr  Pr3  1  0.988384  0.828198  0.903334  1
  Pr  Pr4  1  0.511184  0.327988  0.098754  1
  Pr  Pr5  1  0.012118  0.172779  0.098770  1
  Y  Y6  1  0.005810  0.169631  0.396027  1
  Y  Y7  1  0.511656  0.322115  0.397430  1
  Sc  Sc8  1  0.343747  0.164184  0.629569  1
  Sc  Sc9  1  0.664476  0.825071  0.373266  1
  Sc  Sc10  1  0.662625  0.001655  0.752176  1
  Sc  Sc11  1  0.165413  0.682721  0.370251  1
  Sc  Sc12  1  0.831772  0.324519  0.876206  1
  Sc  Sc13  1  0.821029  0.322871  0.624992  1
  Sc  Sc14  1  0.838489  0.500233  0.250739  1
  Sc  Sc15  1  0.339075  0.000100  0.251081  1
  Sc  Sc16  1  0.329949  0.174784  0.875630  1
  Sc  Sc17  1  0.169518  0.675740  0.127142  1
  Sc  Sc18  1  0.669006  0.823961  0.126556  1
  Sc  Sc19  1  0.162110  0.498585  0.754266  1
  Si  Si20  1  0.288489  0.879872  0.751519  1
  Si  Si21  1  0.464743  0.621541  0.250898  1
  Si  Si22  1  0.036112  0.128151  0.750173  1
  Si  Si23  1  0.535706  0.375164  0.751447  1
  Si  Si24  1  0.962877  0.878850  0.249510  1
  Si  Si25  1  0.710677  0.120527  0.251498  1
  Si  Si26  1  0.848560  0.537344  0.040941  1
  Si  Si27  1  0.348295  0.962367  0.040681  1
  Si  Si28  1  0.152411  0.463171  0.961949  1
  Si  Si29  1  0.654971  0.043849  0.534276  1
  Si  Si30  1  0.342141  0.968945  0.457195  1
  Si  Si31  1  0.833041  0.534217  0.454940  1
  Si  Si32  1  0.792239  0.616969  0.750603  1
  Si  Si33  1  0.210805  0.379286  0.252817  1
  Si  Si34  1  0.651241  0.037460  0.961659  1
  Sn  Sn35  1  0.165485  0.451561  0.535943  1
