# generated using pymatgen
data_La8Bi15SbRh12
_symmetry_space_group_name_H-M   'P 1'
_cell_length_a   4.72976500
_cell_length_b   11.42717040
_cell_length_c   16.85731057
_cell_angle_alpha   89.92554048
_cell_angle_beta   90.00000000
_cell_angle_gamma   90.00000000
_symmetry_Int_Tables_number   1
_chemical_formula_structural   La8Bi15SbRh12
_chemical_formula_sum   'La8 Bi15 Sb1 Rh12'
_cell_volume   911.10029719
_cell_formula_units_Z   1
loop_
 _symmetry_equiv_pos_site_id
 _symmetry_equiv_pos_as_xyz
  1  'x, y, z'
loop_
 _atom_site_type_symbol
 _atom_site_label
 _atom_site_symmetry_multiplicity
 _atom_site_fract_x
 _atom_site_fract_y
 _atom_site_fract_z
 _atom_site_occupancy
  La  La0  1  0.250000  0.587617  0.753701  1
  La  La1  1  0.250000  0.910380  0.253002  1
  La  La2  1  0.750000  0.410575  0.247000  1
  La  La3  1  0.750000  0.087663  0.747650  1
  La  La4  1  0.250000  0.737834  0.503822  1
  La  La5  1  0.250000  0.759630  0.005107  1
  La  La6  1  0.750000  0.261614  0.497301  1
  La  La7  1  0.750000  0.244936  0.991267  1
  Bi  Bi8  1  0.250000  0.061424  0.432903  1
  Bi  Bi9  1  0.750000  0.559318  0.067180  1
  Bi  Bi10  1  0.750000  0.939432  0.567191  1
  Bi  Bi11  1  0.250000  0.271066  0.650900  1
  Bi  Bi12  1  0.250000  0.228559  0.145763  1
  Bi  Bi13  1  0.750000  0.728514  0.351475  1
  Bi  Bi14  1  0.750000  0.769835  0.853349  1
  Bi  Bi15  1  0.250000  0.880821  0.713731  1
  Bi  Bi16  1  0.250000  0.616383  0.211395  1
  Bi  Bi17  1  0.750000  0.118734  0.285858  1
  Bi  Bi18  1  0.750000  0.380460  0.786914  1
  Bi  Bi19  1  0.250000  0.059726  0.894046  1
  Bi  Bi20  1  0.250000  0.438900  0.395291  1
  Bi  Bi21  1  0.750000  0.940917  0.105855  1
  Bi  Bi22  1  0.750000  0.561137  0.606001  1
  Sb  Sb23  1  0.250000  0.445492  0.931003  1
  Rh  Rh24  1  0.250000  0.275789  0.821739  1
  Rh  Rh25  1  0.250000  0.230484  0.313358  1
  Rh  Rh26  1  0.750000  0.729063  0.183799  1
  Rh  Rh27  1  0.750000  0.770214  0.686326  1
  Rh  Rh28  1  0.250000  0.050802  0.595312  1
  Rh  Rh29  1  0.250000  0.448061  0.087600  1
  Rh  Rh30  1  0.750000  0.949687  0.405631  1
  Rh  Rh31  1  0.750000  0.546580  0.906908  1
  Rh  Rh32  1  0.250000  0.464982  0.555739  1
  Rh  Rh33  1  0.250000  0.033583  0.054028  1
  Rh  Rh34  1  0.750000  0.534669  0.446281  1
  Rh  Rh35  1  0.750000  0.965121  0.945574  1
