# generated using pymatgen
data_TbSm3Pd3RuO14
_symmetry_space_group_name_H-M   'P 1'
_cell_length_a   7.35902152
_cell_length_b   7.31091065
_cell_length_c   7.31091000
_cell_angle_alpha   59.99999387
_cell_angle_beta   60.21602379
_cell_angle_gamma   60.21602041
_symmetry_Int_Tables_number   1
_chemical_formula_structural   TbSm3Pd3RuO14
_chemical_formula_sum   'Tb1 Sm3 Pd3 Ru1 O14'
_cell_volume   279.03477106
_cell_formula_units_Z   1
loop_
 _symmetry_equiv_pos_site_id
 _symmetry_equiv_pos_as_xyz
  1  'x, y, z'
loop_
 _atom_site_type_symbol
 _atom_site_label
 _atom_site_symmetry_multiplicity
 _atom_site_fract_x
 _atom_site_fract_y
 _atom_site_fract_z
 _atom_site_occupancy
  Tb  Tb0  1  0.125000  0.625000  0.625000  1
  Sm  Sm1  1  0.625000  0.625000  0.125000  1
  Sm  Sm2  1  0.625000  0.125000  0.625000  1
  Sm  Sm3  1  0.625000  0.625000  0.625000  1
  Pd  Pd4  1  0.125000  0.125000  0.625000  1
  Pd  Pd5  1  0.125000  0.625000  0.125000  1
  Pd  Pd6  1  0.125000  0.125000  0.125000  1
  Ru  Ru7  1  0.625000  0.125000  0.125000  1
  O  O8  1  0.755734  0.748089  0.748089  1
  O  O9  1  0.494266  0.501911  0.501911  1
  O  O10  1  0.035266  0.464449  0.035834  1
  O  O11  1  0.788081  0.208531  0.794857  1
  O  O12  1  0.035266  0.035834  0.464449  1
  O  O13  1  0.461919  0.041469  0.041469  1
  O  O14  1  0.035266  0.464449  0.464449  1
  O  O15  1  0.461919  0.455143  0.041469  1
  O  O16  1  0.461919  0.041469  0.455143  1
  O  O17  1  0.214734  0.785551  0.785551  1
  O  O18  1  0.788081  0.208531  0.208531  1
  O  O19  1  0.214734  0.785551  0.214166  1
  O  O20  1  0.788081  0.794857  0.208531  1
  O  O21  1  0.214734  0.214166  0.785551  1
