# generated using pymatgen
data_TbHo2Tm3FeSb2
_symmetry_space_group_name_H-M   'P 1'
_cell_length_a   8.12911300
_cell_length_b   8.12762688
_cell_length_c   4.13856800
_cell_angle_alpha   90.00000000
_cell_angle_beta   90.00000000
_cell_angle_gamma   120.00605283
_symmetry_Int_Tables_number   1
_chemical_formula_structural   TbHo2Tm3FeSb2
_chemical_formula_sum   'Tb1 Ho2 Tm3 Fe1 Sb2'
_cell_volume   236.78879837
_cell_formula_units_Z   1
loop_
 _symmetry_equiv_pos_site_id
 _symmetry_equiv_pos_as_xyz
  1  'x, y, z'
loop_
 _atom_site_type_symbol
 _atom_site_label
 _atom_site_symmetry_multiplicity
 _atom_site_fract_x
 _atom_site_fract_y
 _atom_site_fract_z
 _atom_site_occupancy
  Tb  Tb0  1  0.604315  0.000000  0.500000  1
  Ho  Ho1  1  0.999942  0.604584  0.500000  1
  Ho  Ho2  1  0.395358  0.395416  0.500000  1
  Tm  Tm3  1  0.233189  0.000000  0.000000  1
  Tm  Tm4  1  0.766968  0.766607  0.000000  1
  Tm  Tm5  1  0.000361  0.233393  0.000000  1
  Fe  Fe6  1  0.000387  0.000000  0.500000  1
  Sb  Sb7  1  0.332780  0.666081  0.000000  1
  Sb  Sb8  1  0.666700  0.333919  0.000000  1
