# generated using pymatgen
data_Ho2Lu2Tc3Ru5
_symmetry_space_group_name_H-M   'P 1'
_cell_length_a   5.24742582
_cell_length_b   5.26749252
_cell_length_c   8.98054804
_cell_angle_alpha   90.00000088
_cell_angle_beta   90.00985271
_cell_angle_gamma   120.12657032
_symmetry_Int_Tables_number   1
_chemical_formula_structural   Ho2Lu2Tc3Ru5
_chemical_formula_sum   'Ho2 Lu2 Tc3 Ru5'
_cell_volume   214.69819019
_cell_formula_units_Z   1
loop_
 _symmetry_equiv_pos_site_id
 _symmetry_equiv_pos_as_xyz
  1  'x, y, z'
loop_
 _atom_site_type_symbol
 _atom_site_label
 _atom_site_symmetry_multiplicity
 _atom_site_fract_x
 _atom_site_fract_y
 _atom_site_fract_z
 _atom_site_occupancy
  Ho  Ho0  1  0.336931  0.668466  0.433189  1
  Ho  Ho1  1  0.669249  0.334625  0.564797  1
  Lu  Lu2  1  0.669078  0.334539  0.935513  1
  Lu  Lu3  1  0.337065  0.668533  0.066374  1
  Tc  Tc4  1  0.163181  0.336096  0.752064  1
  Tc  Tc5  1  0.163181  0.827086  0.752064  1
  Tc  Tc6  1  0.330529  0.165264  0.247972  1
  Ru  Ru7  1  0.817850  0.650579  0.247906  1
  Ru  Ru8  1  0.647217  0.823609  0.752038  1
  Ru  Ru9  1  0.024311  0.012156  0.001716  1
  Ru  Ru10  1  0.817850  0.167270  0.247906  1
  Ru  Ru11  1  0.023559  0.011780  0.498460  1
