# generated using pymatgen
data_Yb3Sm(Os2O7)2
_symmetry_space_group_name_H-M   'P 1'
_cell_length_a   7.27551648
_cell_length_b   7.27551545
_cell_length_c   7.26991720
_cell_angle_alpha   59.97451932
_cell_angle_beta   59.97451991
_cell_angle_gamma   59.99998981
_symmetry_Int_Tables_number   1
_chemical_formula_structural   Yb3Sm(Os2O7)2
_chemical_formula_sum   'Yb3 Sm1 Os4 O14'
_cell_volume   272.00360507
_cell_formula_units_Z   1
loop_
 _symmetry_equiv_pos_site_id
 _symmetry_equiv_pos_as_xyz
  1  'x, y, z'
loop_
 _atom_site_type_symbol
 _atom_site_label
 _atom_site_symmetry_multiplicity
 _atom_site_fract_x
 _atom_site_fract_y
 _atom_site_fract_z
 _atom_site_occupancy
  Yb  Yb0  1  0.125000  0.125000  0.125000  1
  Yb  Yb1  1  0.625000  0.125000  0.125000  1
  Yb  Yb2  1  0.125000  0.625000  0.125000  1
  Sm  Sm3  1  0.125000  0.125000  0.625000  1
  Os  Os4  1  0.625000  0.625000  0.125000  1
  Os  Os5  1  0.625000  0.625000  0.625000  1
  Os  Os6  1  0.625000  0.125000  0.625000  1
  Os  Os7  1  0.125000  0.625000  0.625000  1
  O  O8  1  0.695548  0.304242  0.304660  1
  O  O9  1  0.698748  0.301264  0.698723  1
  O  O10  1  0.999890  0.999890  0.000329  1
  O  O11  1  0.304242  0.695548  0.304660  1
  O  O12  1  0.695548  0.695548  0.304660  1
  O  O13  1  0.948736  0.551252  0.551277  1
  O  O14  1  0.301264  0.698748  0.698723  1
  O  O15  1  0.250110  0.250110  0.249671  1
  O  O16  1  0.945758  0.554452  0.945340  1
  O  O17  1  0.551252  0.948736  0.551277  1
  O  O18  1  0.554452  0.554452  0.945340  1
  O  O19  1  0.948736  0.948736  0.551277  1
  O  O20  1  0.554452  0.945758  0.945340  1
  O  O21  1  0.301264  0.301264  0.698723  1
