# generated using pymatgen
data_Sc2Co5Si14Ir
_symmetry_space_group_name_H-M   'P 1'
_cell_length_a   7.65233551
_cell_length_b   7.63896600
_cell_length_c   7.63896625
_cell_angle_alpha   57.39682039
_cell_angle_beta   57.19563202
_cell_angle_gamma   57.19563698
_symmetry_Int_Tables_number   1
_chemical_formula_structural   Sc2Co5Si14Ir
_chemical_formula_sum   'Sc2 Co5 Si14 Ir1'
_cell_volume   295.84795936
_cell_formula_units_Z   1
loop_
 _symmetry_equiv_pos_site_id
 _symmetry_equiv_pos_as_xyz
  1  'x, y, z'
loop_
 _atom_site_type_symbol
 _atom_site_label
 _atom_site_symmetry_multiplicity
 _atom_site_fract_x
 _atom_site_fract_y
 _atom_site_fract_z
 _atom_site_occupancy
  Sc  Sc0  1  0.000915  0.998439  0.001577  1
  Sc  Sc1  1  0.499085  0.498423  0.501561  1
  Co  Co2  1  0.071783  0.427086  0.751534  1
  Co  Co3  1  0.250000  0.927679  0.572321  1
  Co  Co4  1  0.571215  0.251274  0.926229  1
  Co  Co5  1  0.928785  0.573771  0.248726  1
  Co  Co6  1  0.428217  0.748466  0.072914  1
  Si  Si7  1  0.750000  0.738671  0.761329  1
  Si  Si8  1  0.250000  0.250561  0.249439  1
  Si  Si9  1  0.856132  0.075329  0.672183  1
  Si  Si10  1  0.667655  0.849769  0.071736  1
  Si  Si11  1  0.075721  0.667475  0.848537  1
  Si  Si12  1  0.643868  0.827817  0.424671  1
  Si  Si13  1  0.424279  0.651463  0.832525  1
  Si  Si14  1  0.832345  0.428264  0.650231  1
  Si  Si15  1  0.165488  0.573489  0.350647  1
  Si  Si16  1  0.566973  0.358758  0.157308  1
  Si  Si17  1  0.338490  0.167117  0.579318  1
  Si  Si18  1  0.933027  0.342692  0.141242  1
  Si  Si19  1  0.334512  0.149353  0.926511  1
  Si  Si20  1  0.161510  0.920682  0.332883  1
  Ir  Ir21  1  0.750000  0.073422  0.426578  1
