# generated using pymatgen
data_MnNb16V(Si6Mo)2
_symmetry_space_group_name_H-M   'P 1'
_cell_length_a   7.49473612
_cell_length_b   7.49473492
_cell_length_c   14.13677000
_cell_angle_alpha   90.00000000
_cell_angle_beta   90.00000000
_cell_angle_gamma   141.05965180
_symmetry_Int_Tables_number   1
_chemical_formula_structural   MnNb16V(Si6Mo)2
_chemical_formula_sum   'Mn1 Nb16 V1 Si12 Mo2'
_cell_volume   499.08631600
_cell_formula_units_Z   1
loop_
 _symmetry_equiv_pos_site_id
 _symmetry_equiv_pos_as_xyz
  1  'x, y, z'
loop_
 _atom_site_type_symbol
 _atom_site_label
 _atom_site_symmetry_multiplicity
 _atom_site_fract_x
 _atom_site_fract_y
 _atom_site_fract_z
 _atom_site_occupancy
  Mn  Mn0  1  0.002490  0.002490  0.000000  1
  Nb  Nb1  1  0.070693  0.430045  0.399251  1
  Nb  Nb2  1  0.569296  0.929004  0.900590  1
  Nb  Nb3  1  0.430045  0.070693  0.600749  1
  Nb  Nb4  1  0.929004  0.569296  0.099410  1
  Nb  Nb5  1  0.849225  0.648853  0.680254  1
  Nb  Nb6  1  0.350436  0.150612  0.179570  1
  Nb  Nb7  1  0.648853  0.849225  0.319746  1
  Nb  Nb8  1  0.150612  0.350436  0.820430  1
  Nb  Nb9  1  0.648853  0.849225  0.680254  1
  Nb  Nb10  1  0.150612  0.350436  0.179570  1
  Nb  Nb11  1  0.849225  0.648853  0.319746  1
  Nb  Nb12  1  0.350436  0.150612  0.820430  1
  Nb  Nb13  1  0.430045  0.070693  0.399251  1
  Nb  Nb14  1  0.929004  0.569296  0.900590  1
  Nb  Nb15  1  0.070693  0.430045  0.600749  1
  Nb  Nb16  1  0.569296  0.929004  0.099410  1
  V  V17  1  0.000983  0.000983  0.500000  1
  Si  Si18  1  0.249702  0.749874  0.750658  1
  Si  Si19  1  0.749874  0.249702  0.249342  1
  Si  Si20  1  0.749874  0.249702  0.750658  1
  Si  Si21  1  0.249702  0.749874  0.249342  1
  Si  Si22  1  0.245164  0.245164  0.659161  1
  Si  Si23  1  0.757220  0.757220  0.156789  1
  Si  Si24  1  0.245164  0.245164  0.340839  1
  Si  Si25  1  0.757220  0.757220  0.843211  1
  Si  Si26  1  0.597345  0.915170  0.500000  1
  Si  Si27  1  0.084697  0.400091  0.000000  1
  Si  Si28  1  0.915170  0.597345  0.500000  1
  Si  Si29  1  0.400091  0.084697  0.000000  1
  Mo  Mo30  1  0.499381  0.499381  0.000000  1
  Mo  Mo31  1  0.499593  0.499593  0.500000  1
