# generated using pymatgen
data_Ho16Mg2TlCdOsPd3
_symmetry_space_group_name_H-M   'P 1'
_cell_length_a   9.72559206
_cell_length_b   9.72559270
_cell_length_c   9.74963200
_cell_angle_alpha   59.19307497
_cell_angle_beta   59.19307960
_cell_angle_gamma   59.07427644
_symmetry_Int_Tables_number   1
_chemical_formula_structural   Ho16Mg2TlCdOsPd3
_chemical_formula_sum   'Ho16 Mg2 Tl1 Cd1 Os1 Pd3'
_cell_volume   639.50465547
_cell_formula_units_Z   1
loop_
 _symmetry_equiv_pos_site_id
 _symmetry_equiv_pos_as_xyz
  1  'x, y, z'
loop_
 _atom_site_type_symbol
 _atom_site_label
 _atom_site_symmetry_multiplicity
 _atom_site_fract_x
 _atom_site_fract_y
 _atom_site_fract_z
 _atom_site_occupancy
  Ho  Ho0  1  0.351819  0.352986  0.352438  1
  Ho  Ho1  1  0.349727  0.350077  0.946040  1
  Ho  Ho2  1  0.347791  0.950915  0.348460  1
  Ho  Ho3  1  0.950535  0.348267  0.348645  1
  Ho  Ho4  1  0.816579  0.188524  0.187571  1
  Ho  Ho5  1  0.186865  0.811253  0.811503  1
  Ho  Ho6  1  0.187727  0.816802  0.187397  1
  Ho  Ho7  1  0.810828  0.187689  0.811234  1
  Ho  Ho8  1  0.189131  0.189856  0.815605  1
  Ho  Ho9  1  0.812233  0.812495  0.185523  1
  Ho  Ho10  1  0.934768  0.566849  0.567106  1
  Ho  Ho11  1  0.558482  0.937048  0.937776  1
  Ho  Ho12  1  0.566729  0.933481  0.566258  1
  Ho  Ho13  1  0.938782  0.557884  0.936659  1
  Ho  Ho14  1  0.568310  0.567532  0.932318  1
  Ho  Ho15  1  0.939828  0.935479  0.558090  1
  Mg  Mg16  1  0.576494  0.577197  0.579509  1
  Mg  Mg17  1  0.575512  0.576953  0.264602  1
  Tl  Tl18  1  0.582977  0.250767  0.581474  1
  Cd  Cd19  1  0.251227  0.583861  0.580429  1
  Os  Os20  1  0.144424  0.145144  0.141612  1
  Pd  Pd21  1  0.144330  0.144222  0.571531  1
  Pd  Pd22  1  0.144925  0.569847  0.144089  1
  Pd  Pd23  1  0.569976  0.144873  0.144133  1
