# generated using pymatgen
data_TbY3Ga4PtRh3
_symmetry_space_group_name_H-M   'P 1'
_cell_length_a   4.37225600
_cell_length_b   6.86249282
_cell_length_c   7.75330167
_cell_angle_alpha   90.17768977
_cell_angle_beta   90.00000000
_cell_angle_gamma   90.00000000
_symmetry_Int_Tables_number   1
_chemical_formula_structural   TbY3Ga4PtRh3
_chemical_formula_sum   'Tb1 Y3 Ga4 Pt1 Rh3'
_cell_volume   232.63340575
_cell_formula_units_Z   1
loop_
 _symmetry_equiv_pos_site_id
 _symmetry_equiv_pos_as_xyz
  1  'x, y, z'
loop_
 _atom_site_type_symbol
 _atom_site_label
 _atom_site_symmetry_multiplicity
 _atom_site_fract_x
 _atom_site_fract_y
 _atom_site_fract_z
 _atom_site_occupancy
  Tb  Tb0  1  0.250000  0.476129  0.187767  1
  Y  Y1  1  0.750000  0.523770  0.808510  1
  Y  Y2  1  0.250000  0.974357  0.309658  1
  Y  Y3  1  0.750000  0.022189  0.693758  1
  Ga  Ga4  1  0.750000  0.661718  0.428558  1
  Ga  Ga5  1  0.250000  0.344792  0.574460  1
  Ga  Ga6  1  0.750000  0.154524  0.068532  1
  Ga  Ga7  1  0.250000  0.842976  0.928571  1
  Pt  Pt8  1  0.750000  0.271137  0.393016  1
  Rh  Rh9  1  0.250000  0.729683  0.606153  1
  Rh  Rh10  1  0.250000  0.229209  0.894888  1
  Rh  Rh11  1  0.750000  0.769516  0.106130  1
