# generated using pymatgen
data_Na3(CoP)4
_symmetry_space_group_name_H-M   'P 1'
_cell_length_a   5.96324904
_cell_length_b   5.96324899
_cell_length_c   5.96325000
_cell_angle_alpha   109.47122408
_cell_angle_beta   109.47122389
_cell_angle_gamma   109.47122237
_symmetry_Int_Tables_number   1
_chemical_formula_structural   Na3(CoP)4
_chemical_formula_sum   'Na3 Co4 P4'
_cell_volume   163.24014466
_cell_formula_units_Z   1
loop_
 _symmetry_equiv_pos_site_id
 _symmetry_equiv_pos_as_xyz
  1  'x, y, z'
loop_
 _atom_site_type_symbol
 _atom_site_label
 _atom_site_symmetry_multiplicity
 _atom_site_fract_x
 _atom_site_fract_y
 _atom_site_fract_z
 _atom_site_occupancy
  Na  Na0  1  0.500000  0.500000  0.000000  1
  Na  Na1  1  0.500000  0.000000  0.500000  1
  Na  Na2  1  0.000000  0.500000  0.500000  1
  Co  Co3  1  0.268639  0.000000  0.000000  1
  Co  Co4  1  0.000000  0.268639  0.000000  1
  Co  Co5  1  0.000000  0.000000  0.268639  1
  Co  Co6  1  0.731361  0.731361  0.731361  1
  P  P7  1  0.630550  0.000000  0.000000  1
  P  P8  1  0.000000  0.630550  0.000000  1
  P  P9  1  0.369451  0.369451  0.369451  1
  P  P10  1  0.000000  0.000000  0.630550  1
