# generated using pymatgen
data_Nd2Dy(LuPt2)2
_symmetry_space_group_name_H-M   'P 1'
_cell_length_a   7.62665800
_cell_length_b   7.70362800
_cell_length_c   14.96232400
_cell_angle_alpha   90.00000000
_cell_angle_beta   90.00000000
_cell_angle_gamma   90.00000000
_symmetry_Int_Tables_number   1
_chemical_formula_structural   Nd2Dy(LuPt2)2
_chemical_formula_sum   'Nd8 Dy4 Lu8 Pt16'
_cell_volume   879.08046611
_cell_formula_units_Z   4
loop_
 _symmetry_equiv_pos_site_id
 _symmetry_equiv_pos_as_xyz
  1  'x, y, z'
loop_
 _atom_site_type_symbol
 _atom_site_label
 _atom_site_symmetry_multiplicity
 _atom_site_fract_x
 _atom_site_fract_y
 _atom_site_fract_z
 _atom_site_occupancy
  Nd  Nd0  1  0.996386  0.820574  0.404602  1
  Nd  Nd1  1  0.496386  0.679426  0.095398  1
  Nd  Nd2  1  0.503614  0.320574  0.595398  1
  Nd  Nd3  1  0.003614  0.179426  0.904602  1
  Nd  Nd4  1  0.002288  0.177545  0.594446  1
  Nd  Nd5  1  0.502288  0.322455  0.905554  1
  Nd  Nd6  1  0.497712  0.677545  0.405554  1
  Nd  Nd7  1  0.997712  0.822455  0.094446  1
  Dy  Dy8  1  0.343850  0.167879  0.376702  1
  Dy  Dy9  1  0.843850  0.332121  0.123298  1
  Dy  Dy10  1  0.156150  0.667879  0.623298  1
  Dy  Dy11  1  0.656150  0.832121  0.876702  1
  Lu  Lu12  1  0.680500  0.991694  0.250074  1
  Lu  Lu13  1  0.180500  0.508306  0.249926  1
  Lu  Lu14  1  0.819500  0.491694  0.749926  1
  Lu  Lu15  1  0.319500  0.008306  0.750074  1
  Lu  Lu16  1  0.656509  0.831762  0.624563  1
  Lu  Lu17  1  0.156509  0.668238  0.875437  1
  Lu  Lu18  1  0.843491  0.331762  0.375437  1
  Lu  Lu19  1  0.343491  0.168238  0.124563  1
  Pt  Pt20  1  0.816352  0.638250  0.250655  1
  Pt  Pt21  1  0.316352  0.861750  0.249345  1
  Pt  Pt22  1  0.683648  0.138250  0.749345  1
  Pt  Pt23  1  0.183648  0.361750  0.750655  1
  Pt  Pt24  1  0.545747  0.379089  0.250162  1
  Pt  Pt25  1  0.045747  0.120911  0.249838  1
  Pt  Pt26  1  0.954253  0.879089  0.749838  1
  Pt  Pt27  1  0.454253  0.620911  0.750162  1
  Pt  Pt28  1  0.816845  0.535973  0.542226  1
  Pt  Pt29  1  0.316845  0.964027  0.957774  1
  Pt  Pt30  1  0.683155  0.035973  0.457774  1
  Pt  Pt31  1  0.183155  0.464027  0.042226  1
  Pt  Pt32  1  0.174701  0.464979  0.454716  1
  Pt  Pt33  1  0.674701  0.035021  0.045284  1
  Pt  Pt34  1  0.325299  0.964979  0.545284  1
  Pt  Pt35  1  0.825299  0.535021  0.954716  1
