# generated using pymatgen
data_Er3Sc2(GaO4)3
_symmetry_space_group_name_H-M   'P 1'
_cell_length_a   10.79837972
_cell_length_b   10.79837964
_cell_length_c   10.79838000
_cell_angle_alpha   109.47122130
_cell_angle_beta   109.47122116
_cell_angle_gamma   109.47122025
_symmetry_Int_Tables_number   1
_chemical_formula_structural   Er3Sc2(GaO4)3
_chemical_formula_sum   'Er12 Sc8 Ga12 O48'
_cell_volume   969.29037131
_cell_formula_units_Z   4
loop_
 _symmetry_equiv_pos_site_id
 _symmetry_equiv_pos_as_xyz
  1  'x, y, z'
loop_
 _atom_site_type_symbol
 _atom_site_label
 _atom_site_symmetry_multiplicity
 _atom_site_fract_x
 _atom_site_fract_y
 _atom_site_fract_z
 _atom_site_occupancy
  Er  Er0  1  0.249994  0.374990  0.124994  1
  Er  Er1  1  0.374995  0.750000  0.124996  1
  Er  Er2  1  0.874991  0.624998  0.249994  1
  Er  Er3  1  0.374995  0.125000  0.249995  1
  Er  Er4  1  0.125000  0.249997  0.375001  1
  Er  Er5  1  0.750007  0.124998  0.374998  1
  Er  Er6  1  0.875007  0.750009  0.625007  1
  Er  Er7  1  0.250003  0.875007  0.625011  1
  Er  Er8  1  0.125005  0.374992  0.750007  1
  Er  Er9  1  0.625006  0.875009  0.750003  1
  Er  Er10  1  0.624997  0.249992  0.874991  1
  Er  Er11  1  0.750000  0.625000  0.875003  1
  Sc  Sc12  1  0.000000  0.000001  0.999993  1
  Sc  Sc13  1  0.499996  0.000002  0.999999  1
  Sc  Sc14  1  0.000000  0.499995  0.999997  1
  Sc  Sc15  1  0.499996  0.499992  0.999993  1
  Sc  Sc16  1  0.000004  0.000009  0.500010  1
  Sc  Sc17  1  0.499997  0.499993  0.499996  1
  Sc  Sc18  1  0.500003  0.000004  0.500008  1
  Sc  Sc19  1  0.999999  0.500001  0.500000  1
  Ga  Ga20  1  0.750013  0.875019  0.125028  1
  Ga  Ga21  1  0.874976  0.249983  0.124981  1
  Ga  Ga22  1  0.625015  0.375009  0.250016  1
  Ga  Ga23  1  0.124991  0.874981  0.249980  1
  Ga  Ga24  1  0.624991  0.749988  0.374979  1
  Ga  Ga25  1  0.250019  0.625023  0.375022  1
  Ga  Ga26  1  0.749977  0.374971  0.624975  1
  Ga  Ga27  1  0.375013  0.250011  0.625023  1
  Ga  Ga28  1  0.875008  0.125018  0.750021  1
  Ga  Ga29  1  0.374978  0.624985  0.749978  1
  Ga  Ga30  1  0.125029  0.750022  0.875021  1
  Ga  Ga31  1  0.249989  0.124988  0.874980  1
  O  O32  1  0.317852  0.905417  0.032854  1
  O  O33  1  0.214989  0.127432  0.032850  1
  O  O34  1  0.714997  0.682150  0.087555  1
  O  O35  1  0.872558  0.405406  0.087547  1
  O  O36  1  0.967118  0.682109  0.094553  1
  O  O37  1  0.627442  0.412452  0.094579  1
  O  O38  1  0.594600  0.912451  0.127445  1
  O  O39  1  0.032850  0.214996  0.127437  1
  O  O40  1  0.214996  0.587550  0.182132  1
  O  O41  1  0.467127  0.594562  0.182124  1
  O  O42  1  0.587550  0.182133  0.214996  1
  O  O43  1  0.127436  0.032868  0.214989  1
  O  O44  1  0.317874  0.912448  0.285002  1
  O  O45  1  0.467137  0.372564  0.285008  1
  O  O46  1  0.905418  0.032855  0.317857  1
  O  O47  1  0.912447  0.285000  0.317847  1
  O  O48  1  0.587542  0.905412  0.372550  1
  O  O49  1  0.285004  0.467137  0.372563  1
  O  O50  1  0.817880  0.532874  0.405440  1
  O  O51  1  0.087548  0.872559  0.405424  1
  O  O52  1  0.094574  0.627443  0.412452  1
  O  O53  1  0.817869  0.785005  0.412448  1
  O  O54  1  0.594557  0.182115  0.467120  1
  O  O55  1  0.372561  0.285004  0.467150  1
  O  O56  1  0.627443  0.714995  0.532863  1
  O  O57  1  0.405445  0.817890  0.532883  1
  O  O58  1  0.182148  0.214996  0.587556  1
  O  O59  1  0.905425  0.372557  0.587546  1
  O  O60  1  0.912449  0.127438  0.594587  1
  O  O61  1  0.182114  0.467124  0.594558  1
  O  O62  1  0.412456  0.094597  0.627443  1
  O  O63  1  0.714995  0.532862  0.627437  1
  O  O64  1  0.087555  0.715001  0.682159  1
  O  O65  1  0.094575  0.967141  0.682134  1
  O  O66  1  0.682146  0.087557  0.714999  1
  O  O67  1  0.532868  0.627437  0.714991  1
  O  O68  1  0.412450  0.817875  0.785004  1
  O  O69  1  0.872569  0.967153  0.785009  1
  O  O70  1  0.532857  0.405426  0.817861  1
  O  O71  1  0.785003  0.412450  0.817867  1
  O  O72  1  0.967159  0.785006  0.872566  1
  O  O73  1  0.405409  0.087547  0.872558  1
  O  O74  1  0.032859  0.317868  0.905430  1
  O  O75  1  0.372558  0.587546  0.905426  1
  O  O76  1  0.285006  0.317857  0.912443  1
  O  O77  1  0.127445  0.594599  0.912453  1
  O  O78  1  0.682133  0.094572  0.967136  1
  O  O79  1  0.785004  0.872563  0.967156  1
