# generated using pymatgen
data_Y7LuZr8(Si4Mo)4
_symmetry_space_group_name_H-M   'P 1'
_cell_length_a   6.94530926
_cell_length_b   7.17010392
_cell_length_c   13.77594431
_cell_angle_alpha   89.96316376
_cell_angle_beta   89.98050475
_cell_angle_gamma   89.98020865
_symmetry_Int_Tables_number   1
_chemical_formula_structural   Y7LuZr8(Si4Mo)4
_chemical_formula_sum   'Y7 Lu1 Zr8 Si16 Mo4'
_cell_volume   686.02236805
_cell_formula_units_Z   1
loop_
 _symmetry_equiv_pos_site_id
 _symmetry_equiv_pos_as_xyz
  1  'x, y, z'
loop_
 _atom_site_type_symbol
 _atom_site_label
 _atom_site_symmetry_multiplicity
 _atom_site_fract_x
 _atom_site_fract_y
 _atom_site_fract_z
 _atom_site_occupancy
  Y  Y0  1  0.510397  0.323144  0.098156  1
  Y  Y1  1  0.010630  0.176751  0.401790  1
  Y  Y2  1  0.489488  0.676531  0.598472  1
  Y  Y3  1  0.989434  0.823166  0.902308  1
  Y  Y4  1  0.488949  0.676535  0.901907  1
  Y  Y5  1  0.989401  0.823433  0.598480  1
  Y  Y6  1  0.510593  0.323303  0.401054  1
  Lu  Lu7  1  0.010416  0.177510  0.098845  1
  Zr  Zr8  1  0.827269  0.325820  0.626726  1
  Zr  Zr9  1  0.326683  0.174054  0.873615  1
  Zr  Zr10  1  0.172751  0.674716  0.126585  1
  Zr  Zr11  1  0.673319  0.826178  0.372945  1
  Zr  Zr12  1  0.172704  0.674308  0.372978  1
  Zr  Zr13  1  0.673812  0.826459  0.126020  1
  Zr  Zr14  1  0.827539  0.325295  0.873960  1
  Zr  Zr15  1  0.327006  0.174237  0.626640  1
  Si  Si16  1  0.657035  0.033537  0.542210  1
  Si  Si17  1  0.157238  0.465034  0.958810  1
  Si  Si18  1  0.340263  0.968241  0.042888  1
  Si  Si19  1  0.842735  0.533504  0.457645  1
  Si  Si20  1  0.343128  0.966486  0.457658  1
  Si  Si21  1  0.843966  0.530867  0.043356  1
  Si  Si22  1  0.656634  0.033245  0.957778  1
  Si  Si23  1  0.157158  0.466845  0.542252  1
  Si  Si24  1  0.525988  0.387054  0.750222  1
  Si  Si25  1  0.025719  0.112502  0.750155  1
  Si  Si26  1  0.474269  0.612839  0.249576  1
  Si  Si27  1  0.974785  0.889451  0.249280  1
  Si  Si28  1  0.788352  0.633387  0.750335  1
  Si  Si29  1  0.288111  0.866392  0.750166  1
  Si  Si30  1  0.210619  0.365000  0.249057  1
  Si  Si31  1  0.713553  0.134322  0.249084  1
  Mo  Mo32  1  0.653650  0.008490  0.750336  1
  Mo  Mo33  1  0.153584  0.491399  0.750189  1
  Mo  Mo34  1  0.345965  0.992163  0.249228  1
  Mo  Mo35  1  0.846857  0.507802  0.249296  1
