# generated using pymatgen
data_Ac6Cd23Se
_symmetry_space_group_name_H-M   'P 1'
_cell_length_a   10.36670466
_cell_length_b   10.36848345
_cell_length_c   10.29054900
_cell_angle_alpha   60.24641398
_cell_angle_beta   60.24171751
_cell_angle_gamma   60.51253433
_symmetry_Int_Tables_number   1
_chemical_formula_structural   Ac6Cd23Se
_chemical_formula_sum   'Ac6 Cd23 Se1'
_cell_volume   788.02190347
_cell_formula_units_Z   1
loop_
 _symmetry_equiv_pos_site_id
 _symmetry_equiv_pos_as_xyz
  1  'x, y, z'
loop_
 _atom_site_type_symbol
 _atom_site_label
 _atom_site_symmetry_multiplicity
 _atom_site_fract_x
 _atom_site_fract_y
 _atom_site_fract_z
 _atom_site_occupancy
  Ac  Ac0  1  0.785162  0.785163  0.214841  1
  Ac  Ac1  1  0.215077  0.784922  0.214679  1
  Ac  Ac2  1  0.784924  0.215073  0.214675  1
  Ac  Ac3  1  0.214840  0.214836  0.785161  1
  Ac  Ac4  1  0.784925  0.215076  0.785323  1
  Ac  Ac5  1  0.215076  0.784928  0.785323  1
  Cd  Cd6  1  0.829638  0.829637  0.510082  1
  Cd  Cd7  1  0.828978  0.510602  0.830210  1
  Cd  Cd8  1  0.510610  0.828972  0.830210  1
  Cd  Cd9  1  0.829637  0.829639  0.830646  1
  Cd  Cd10  1  0.170362  0.170363  0.489919  1
  Cd  Cd11  1  0.171021  0.489398  0.169791  1
  Cd  Cd12  1  0.489389  0.171027  0.169791  1
  Cd  Cd13  1  0.170362  0.170362  0.169354  1
  Cd  Cd14  1  0.623324  0.623362  0.130305  1
  Cd  Cd15  1  0.622907  0.131581  0.622753  1
  Cd  Cd16  1  0.131576  0.622935  0.622746  1
  Cd  Cd17  1  0.623318  0.623365  0.623014  1
  Cd  Cd18  1  0.376679  0.376638  0.869695  1
  Cd  Cd19  1  0.377094  0.868422  0.377243  1
  Cd  Cd20  1  0.868423  0.377065  0.377254  1
  Cd  Cd21  1  0.376682  0.376634  0.376988  1
  Cd  Cd22  1  0.000000  0.000000  0.500001  1
  Cd  Cd23  1  0.500000  0.000000  0.500000  1
  Cd  Cd24  1  0.000000  0.499999  0.500001  1
  Cd  Cd25  1  0.500000  0.499999  0.000001  1
  Cd  Cd26  1  0.000000  0.500001  0.999999  1
  Cd  Cd27  1  0.500000  0.000001  0.999999  1
  Cd  Cd28  1  0.500000  0.500001  0.500000  1
  Se  Se29  1  0.000001  0.999998  0.000000  1
