# generated using pymatgen
data_Th3AlZn2Pt2Rh
_symmetry_space_group_name_H-M   'P 1'
_cell_length_a   7.31528202
_cell_length_b   7.42099764
_cell_length_c   4.04742800
_cell_angle_alpha   90.00000000
_cell_angle_beta   90.00000000
_cell_angle_gamma   119.63407821
_symmetry_Int_Tables_number   1
_chemical_formula_structural   Th3AlZn2Pt2Rh
_chemical_formula_sum   'Th3 Al1 Zn2 Pt2 Rh1'
_cell_volume   190.98212069
_cell_formula_units_Z   1
loop_
 _symmetry_equiv_pos_site_id
 _symmetry_equiv_pos_as_xyz
  1  'x, y, z'
loop_
 _atom_site_type_symbol
 _atom_site_label
 _atom_site_symmetry_multiplicity
 _atom_site_fract_x
 _atom_site_fract_y
 _atom_site_fract_z
 _atom_site_occupancy
  Th  Th0  1  0.998264  0.414598  0.500000  1
  Th  Th1  1  0.589174  0.580322  0.500000  1
  Th  Th2  1  0.411225  0.005735  0.500000  1
  Al  Al3  1  0.767377  0.001897  0.000000  1
  Zn  Zn4  1  0.997062  0.758497  0.000000  1
  Zn  Zn5  1  0.239988  0.240490  0.000000  1
  Pt  Pt6  1  0.344444  0.676381  0.000000  1
  Pt  Pt7  1  0.983474  0.999469  0.500000  1
  Rh  Rh8  1  0.668991  0.322611  0.000000  1
