# generated using pymatgen
data_Ho16MgCd2InRu3Rh
_symmetry_space_group_name_H-M   'P 1'
_cell_length_a   9.67358670
_cell_length_b   9.67358666
_cell_length_c   9.66311900
_cell_angle_alpha   59.27668832
_cell_angle_beta   59.27669536
_cell_angle_gamma   59.46733251
_symmetry_Int_Tables_number   1
_chemical_formula_structural   Ho16MgCd2InRu3Rh
_chemical_formula_sum   'Ho16 Mg1 Cd2 In1 Ru3 Rh1'
_cell_volume   629.79886540
_cell_formula_units_Z   1
loop_
 _symmetry_equiv_pos_site_id
 _symmetry_equiv_pos_as_xyz
  1  'x, y, z'
loop_
 _atom_site_type_symbol
 _atom_site_label
 _atom_site_symmetry_multiplicity
 _atom_site_fract_x
 _atom_site_fract_y
 _atom_site_fract_z
 _atom_site_occupancy
  Ho  Ho0  1  0.190005  0.187711  0.808679  1
  Ho  Ho1  1  0.595729  0.594426  0.212704  1
  Ho  Ho2  1  0.439930  0.061006  0.438847  1
  Ho  Ho3  1  0.440203  0.439696  0.062394  1
  Ho  Ho4  1  0.813729  0.187938  0.808537  1
  Ho  Ho5  1  0.188376  0.810969  0.187628  1
  Ho  Ho6  1  0.436374  0.060147  0.063180  1
  Ho  Ho7  1  0.188224  0.813277  0.808500  1
  Ho  Ho8  1  0.058849  0.437554  0.062351  1
  Ho  Ho9  1  0.807788  0.807348  0.191163  1
  Ho  Ho10  1  0.210057  0.598401  0.596104  1
  Ho  Ho11  1  0.059940  0.440418  0.439974  1
  Ho  Ho12  1  0.062625  0.063051  0.433664  1
  Ho  Ho13  1  0.811854  0.186737  0.188479  1
  Ho  Ho14  1  0.599101  0.211108  0.595522  1
  Ho  Ho15  1  0.599849  0.599492  0.600559  1
  Mg  Mg16  1  0.825334  0.825993  0.824726  1
  Cd  Cd17  1  0.831030  0.832247  0.504786  1
  Cd  Cd18  1  0.505585  0.831230  0.830707  1
  In  In19  1  0.830255  0.505384  0.831067  1
  Ru  Ru20  1  0.394466  0.829098  0.394284  1
  Ru  Ru21  1  0.388863  0.389671  0.393932  1
  Ru  Ru22  1  0.829198  0.394546  0.393899  1
  Rh  Rh23  1  0.392634  0.392552  0.828311  1
