# generated using pymatgen
data_Yb2NpRu3
_symmetry_space_group_name_H-M   'P 1'
_cell_length_a   5.14987964
_cell_length_b   5.14987933
_cell_length_c   5.14988064
_cell_angle_alpha   68.19604167
_cell_angle_beta   68.19605449
_cell_angle_gamma   68.19603736
_symmetry_Int_Tables_number   1
_chemical_formula_structural   Yb2NpRu3
_chemical_formula_sum   'Yb2 Np1 Ru3'
_cell_volume   113.33794716
_cell_formula_units_Z   1
loop_
 _symmetry_equiv_pos_site_id
 _symmetry_equiv_pos_as_xyz
  1  'x, y, z'
loop_
 _atom_site_type_symbol
 _atom_site_label
 _atom_site_symmetry_multiplicity
 _atom_site_fract_x
 _atom_site_fract_y
 _atom_site_fract_z
 _atom_site_occupancy
  Yb  Yb0  1  0.002210  0.002210  0.002210  1
  Yb  Yb1  1  0.247790  0.247790  0.247790  1
  Np  Np2  1  0.625000  0.625000  0.625000  1
  Ru  Ru3  1  0.625000  0.625000  0.125001  1
  Ru  Ru4  1  0.625000  0.125001  0.625000  1
  Ru  Ru5  1  0.125001  0.625000  0.625000  1
