# generated using pymatgen
data_SrNd(Al5Ru)4
_symmetry_space_group_name_H-M   'P 1'
_cell_length_a   6.90204143
_cell_length_b   6.90204070
_cell_length_c   9.22567700
_cell_angle_alpha   90.00000000
_cell_angle_beta   90.00000000
_cell_angle_gamma   96.76541516
_symmetry_Int_Tables_number   1
_chemical_formula_structural   SrNd(Al5Ru)4
_chemical_formula_sum   'Sr1 Nd1 Al20 Ru4'
_cell_volume   436.43408877
_cell_formula_units_Z   1
loop_
 _symmetry_equiv_pos_site_id
 _symmetry_equiv_pos_as_xyz
  1  'x, y, z'
loop_
 _atom_site_type_symbol
 _atom_site_label
 _atom_site_symmetry_multiplicity
 _atom_site_fract_x
 _atom_site_fract_y
 _atom_site_fract_z
 _atom_site_occupancy
  Sr  Sr0  1  0.878801  0.121199  0.750000  1
  Nd  Nd1  1  0.121559  0.878441  0.250000  1
  Al  Al2  1  0.622733  0.377267  0.545591  1
  Al  Al3  1  0.377609  0.622391  0.448466  1
  Al  Al4  1  0.377609  0.622391  0.051534  1
  Al  Al5  1  0.622733  0.377267  0.954409  1
  Al  Al6  1  0.227269  0.229091  0.498882  1
  Al  Al7  1  0.770909  0.772731  0.498882  1
  Al  Al8  1  0.770909  0.772731  0.001118  1
  Al  Al9  1  0.227269  0.229091  0.001118  1
  Al  Al10  1  0.841486  0.158514  0.100941  1
  Al  Al11  1  0.163542  0.836458  0.898995  1
  Al  Al12  1  0.163542  0.836458  0.601005  1
  Al  Al13  1  0.841486  0.158514  0.399059  1
  Al  Al14  1  0.860275  0.590324  0.750000  1
  Al  Al15  1  0.138902  0.412913  0.250000  1
  Al  Al16  1  0.409676  0.139725  0.750000  1
  Al  Al17  1  0.587087  0.861098  0.250000  1
  Al  Al18  1  0.221980  0.480652  0.750000  1
  Al  Al19  1  0.779844  0.518748  0.250000  1
  Al  Al20  1  0.519348  0.778020  0.750000  1
  Al  Al21  1  0.481252  0.220156  0.250000  1
  Ru  Ru22  1  0.999540  0.502451  0.498427  1
  Ru  Ru23  1  0.999540  0.502451  0.001573  1
  Ru  Ru24  1  0.497549  0.000460  0.001573  1
  Ru  Ru25  1  0.497549  0.000460  0.498427  1
