# generated using pymatgen
data_YEr11(Si3Rh)4
_symmetry_space_group_name_H-M   'P 1'
_cell_length_a   4.20128300
_cell_length_b   10.62446818
_cell_length_c   12.26425110
_cell_angle_alpha   90.06292120
_cell_angle_beta   90.00000000
_cell_angle_gamma   90.00000000
_symmetry_Int_Tables_number   1
_chemical_formula_structural   YEr11(Si3Rh)4
_chemical_formula_sum   'Y1 Er11 Si12 Rh4'
_cell_volume   547.43165772
_cell_formula_units_Z   1
loop_
 _symmetry_equiv_pos_site_id
 _symmetry_equiv_pos_as_xyz
  1  'x, y, z'
loop_
 _atom_site_type_symbol
 _atom_site_label
 _atom_site_symmetry_multiplicity
 _atom_site_fract_x
 _atom_site_fract_y
 _atom_site_fract_z
 _atom_site_occupancy
  Y  Y0  1  0.750000  0.160044  0.698867  1
  Er  Er1  1  0.250000  0.879270  0.020420  1
  Er  Er2  1  0.250000  0.620635  0.520163  1
  Er  Er3  1  0.750000  0.120623  0.979839  1
  Er  Er4  1  0.750000  0.379631  0.479480  1
  Er  Er5  1  0.250000  0.919939  0.603381  1
  Er  Er6  1  0.250000  0.579524  0.103870  1
  Er  Er7  1  0.750000  0.079380  0.396305  1
  Er  Er8  1  0.750000  0.420999  0.896477  1
  Er  Er9  1  0.250000  0.660808  0.800571  1
  Er  Er10  1  0.250000  0.839657  0.300710  1
  Er  Er11  1  0.750000  0.338816  0.199417  1
  Si  Si12  1  0.250000  0.013694  0.822943  1
  Si  Si13  1  0.250000  0.485344  0.322277  1
  Si  Si14  1  0.750000  0.985832  0.177484  1
  Si  Si15  1  0.750000  0.514563  0.677584  1
  Si  Si16  1  0.250000  0.248235  0.842122  1
  Si  Si17  1  0.250000  0.252265  0.341775  1
  Si  Si18  1  0.750000  0.752532  0.158392  1
  Si  Si19  1  0.750000  0.747623  0.658171  1
  Si  Si20  1  0.250000  0.199112  0.540934  1
  Si  Si21  1  0.250000  0.301486  0.041829  1
  Si  Si22  1  0.750000  0.801185  0.458009  1
  Si  Si23  1  0.750000  0.698825  0.958195  1
  Rh  Rh24  1  0.250000  0.392037  0.682105  1
  Rh  Rh25  1  0.250000  0.109243  0.182060  1
  Rh  Rh26  1  0.750000  0.608835  0.317789  1
  Rh  Rh27  1  0.750000  0.889858  0.818832  1
