# generated using pymatgen
data_YbPr4HoSi4
_symmetry_space_group_name_H-M   'P 1'
_cell_length_a   7.68212100
_cell_length_b   7.68212100
_cell_length_c   4.43606200
_cell_angle_alpha   90.00000000
_cell_angle_beta   90.00000000
_cell_angle_gamma   90.00000000
_symmetry_Int_Tables_number   1
_chemical_formula_structural   YbPr4HoSi4
_chemical_formula_sum   'Yb1 Pr4 Ho1 Si4'
_cell_volume   261.79412378
_cell_formula_units_Z   1
loop_
 _symmetry_equiv_pos_site_id
 _symmetry_equiv_pos_as_xyz
  1  'x, y, z'
loop_
 _atom_site_type_symbol
 _atom_site_label
 _atom_site_symmetry_multiplicity
 _atom_site_fract_x
 _atom_site_fract_y
 _atom_site_fract_z
 _atom_site_occupancy
  Yb  Yb0  1  0.000000  0.000000  0.000000  1
  Pr  Pr1  1  0.680033  0.175668  0.500000  1
  Pr  Pr2  1  0.319967  0.824332  0.500000  1
  Pr  Pr3  1  0.175668  0.319967  0.500000  1
  Pr  Pr4  1  0.824332  0.680033  0.500000  1
  Ho  Ho5  1  0.500000  0.500000  0.000000  1
  Si  Si6  1  0.119070  0.604523  0.000000  1
  Si  Si7  1  0.880930  0.395477  0.000000  1
  Si  Si8  1  0.604523  0.880930  0.000000  1
  Si  Si9  1  0.395477  0.119070  0.000000  1
