# generated using pymatgen
data_Li8Tb8Sn5Sb3
_symmetry_space_group_name_H-M   'P 1'
_cell_length_a   9.40491057
_cell_length_b   9.40380354
_cell_length_c   7.27767819
_cell_angle_alpha   90.07390625
_cell_angle_beta   89.92722701
_cell_angle_gamma   120.02239108
_symmetry_Int_Tables_number   1
_chemical_formula_structural   Li8Tb8Sn5Sb3
_chemical_formula_sum   'Li8 Tb8 Sn5 Sb3'
_cell_volume   557.29248868
_cell_formula_units_Z   1
loop_
 _symmetry_equiv_pos_site_id
 _symmetry_equiv_pos_as_xyz
  1  'x, y, z'
loop_
 _atom_site_type_symbol
 _atom_site_label
 _atom_site_symmetry_multiplicity
 _atom_site_fract_x
 _atom_site_fract_y
 _atom_site_fract_z
 _atom_site_occupancy
  Li  Li0  1  0.166168  0.333191  0.215316  1
  Li  Li1  1  0.166725  0.833287  0.214661  1
  Li  Li2  1  0.666836  0.833876  0.215373  1
  Li  Li3  1  0.666978  0.333081  0.323862  1
  Li  Li4  1  0.832961  0.666274  0.716584  1
  Li  Li5  1  0.333678  0.166963  0.716545  1
  Li  Li6  1  0.833145  0.166827  0.715985  1
  Li  Li7  1  0.333425  0.666504  0.822804  1
  Tb  Tb8  1  0.998979  0.001145  0.996972  1
  Tb  Tb9  1  0.512047  0.022424  0.004234  1
  Tb  Tb10  1  0.510598  0.489365  0.003614  1
  Tb  Tb11  1  0.977665  0.488048  0.004183  1
  Tb  Tb12  1  0.999411  0.000612  0.501844  1
  Tb  Tb13  1  0.491778  0.979666  0.509180  1
  Tb  Tb14  1  0.020378  0.508291  0.509197  1
  Tb  Tb15  1  0.489322  0.510770  0.510390  1
  Sn  Sn16  1  0.833134  0.166864  0.267310  1
  Sn  Sn17  1  0.666400  0.333598  0.740087  1
  Sn  Sn18  1  0.167157  0.333962  0.765803  1
  Sn  Sn19  1  0.167054  0.832880  0.766320  1
  Sn  Sn20  1  0.665961  0.832702  0.765927  1
  Sb  Sb21  1  0.333583  0.666388  0.241055  1
  Sb  Sb22  1  0.832716  0.666065  0.265364  1
  Sb  Sb23  1  0.333899  0.167217  0.265377  1
