# generated using pymatgen
data_TbDy2Co8ReP6
_symmetry_space_group_name_H-M   'P 1'
_cell_length_a   3.71979000
_cell_length_b   10.49656900
_cell_length_c   12.20282100
_cell_angle_alpha   90.00000000
_cell_angle_beta   90.00000000
_cell_angle_gamma   90.00000000
_symmetry_Int_Tables_number   1
_chemical_formula_structural   TbDy2Co8ReP6
_chemical_formula_sum   'Tb2 Dy4 Co16 Re2 P12'
_cell_volume   476.45954132
_cell_formula_units_Z   2
loop_
 _symmetry_equiv_pos_site_id
 _symmetry_equiv_pos_as_xyz
  1  'x, y, z'
loop_
 _atom_site_type_symbol
 _atom_site_label
 _atom_site_symmetry_multiplicity
 _atom_site_fract_x
 _atom_site_fract_y
 _atom_site_fract_z
 _atom_site_occupancy
  Tb  Tb0  1  0.000000  0.500000  0.524455  1
  Tb  Tb1  1  0.500000  0.000000  0.475545  1
  Dy  Dy2  1  0.500000  0.818079  0.205702  1
  Dy  Dy3  1  0.500000  0.181921  0.205702  1
  Dy  Dy4  1  0.000000  0.681921  0.794298  1
  Dy  Dy5  1  0.000000  0.318079  0.794298  1
  Co  Co6  1  0.500000  0.500000  0.702261  1
  Co  Co7  1  0.000000  0.000000  0.297739  1
  Co  Co8  1  0.000000  0.500000  0.987989  1
  Co  Co9  1  0.500000  0.000000  0.012011  1
  Co  Co10  1  0.500000  0.332430  0.989815  1
  Co  Co11  1  0.500000  0.667570  0.989815  1
  Co  Co12  1  0.000000  0.167570  0.010185  1
  Co  Co13  1  0.000000  0.832430  0.010185  1
  Co  Co14  1  0.500000  0.296529  0.430966  1
  Co  Co15  1  0.500000  0.703471  0.430966  1
  Co  Co16  1  0.000000  0.203471  0.569034  1
  Co  Co17  1  0.000000  0.796529  0.569034  1
  Co  Co18  1  0.500000  0.879187  0.708583  1
  Co  Co19  1  0.500000  0.120813  0.708583  1
  Co  Co20  1  0.000000  0.620813  0.291417  1
  Co  Co21  1  0.000000  0.379187  0.291417  1
  Re  Re22  1  0.500000  0.500000  0.156115  1
  Re  Re23  1  0.000000  0.000000  0.843885  1
  P  P24  1  0.500000  0.500000  0.880234  1
  P  P25  1  0.000000  0.000000  0.119766  1
  P  P26  1  0.500000  0.500000  0.348969  1
  P  P27  1  0.000000  0.000000  0.651031  1
  P  P28  1  0.500000  0.311436  0.616069  1
  P  P29  1  0.500000  0.688564  0.616069  1
  P  P30  1  0.000000  0.188564  0.383931  1
  P  P31  1  0.000000  0.811436  0.383931  1
  P  P32  1  0.500000  0.845754  0.892336  1
  P  P33  1  0.500000  0.154246  0.892336  1
  P  P34  1  0.000000  0.654246  0.107664  1
  P  P35  1  0.000000  0.345754  0.107664  1
