# generated using pymatgen
data_TbCe2HfSn2Ir3
_symmetry_space_group_name_H-M   'P 1'
_cell_length_a   7.59616330
_cell_length_b   7.36960982
_cell_length_c   4.12830000
_cell_angle_alpha   90.00000000
_cell_angle_beta   90.00000000
_cell_angle_gamma   119.77735972
_symmetry_Int_Tables_number   1
_chemical_formula_structural   TbCe2HfSn2Ir3
_chemical_formula_sum   'Tb1 Ce2 Hf1 Sn2 Ir3'
_cell_volume   200.59062444
_cell_formula_units_Z   1
loop_
 _symmetry_equiv_pos_site_id
 _symmetry_equiv_pos_as_xyz
  1  'x, y, z'
loop_
 _atom_site_type_symbol
 _atom_site_label
 _atom_site_symmetry_multiplicity
 _atom_site_fract_x
 _atom_site_fract_y
 _atom_site_fract_z
 _atom_site_occupancy
  Tb  Tb0  1  0.413207  0.413612  0.000000  1
  Ce  Ce1  1  0.581428  0.998761  0.000000  1
  Ce  Ce2  1  0.998347  0.593615  0.000000  1
  Hf  Hf3  1  0.004286  0.248462  0.500000  1
  Sn  Sn4  1  0.742768  0.746916  0.500000  1
  Sn  Sn5  1  0.254565  0.007940  0.500000  1
  Ir  Ir6  1  0.999482  0.019524  0.000000  1
  Ir  Ir7  1  0.688659  0.321516  0.500000  1
  Ir  Ir8  1  0.317259  0.649656  0.500000  1
