# generated using pymatgen
data_Tb8Si12Ir3Au
_symmetry_space_group_name_H-M   'P 1'
_cell_length_a   8.21113400
_cell_length_b   8.21113308
_cell_length_c   7.99936400
_cell_angle_alpha   90.00000000
_cell_angle_beta   90.00000000
_cell_angle_gamma   120.00001176
_symmetry_Int_Tables_number   1
_chemical_formula_structural   Tb8Si12Ir3Au
_chemical_formula_sum   'Tb8 Si12 Ir3 Au1'
_cell_volume   467.08107386
_cell_formula_units_Z   1
loop_
 _symmetry_equiv_pos_site_id
 _symmetry_equiv_pos_as_xyz
  1  'x, y, z'
loop_
 _atom_site_type_symbol
 _atom_site_label
 _atom_site_symmetry_multiplicity
 _atom_site_fract_x
 _atom_site_fract_y
 _atom_site_fract_z
 _atom_site_occupancy
  Tb  Tb0  1  0.512084  0.024166  0.245472  1
  Tb  Tb1  1  0.492523  0.985048  0.753745  1
  Tb  Tb2  1  0.975834  0.487916  0.245472  1
  Tb  Tb3  1  0.014952  0.507477  0.753745  1
  Tb  Tb4  1  0.512084  0.487916  0.245472  1
  Tb  Tb5  1  0.492523  0.507477  0.753745  1
  Tb  Tb6  1  0.000000  0.000000  0.251299  1
  Tb  Tb7  1  0.000000  0.000000  0.752216  1
  Si  Si8  1  0.166822  0.333644  0.003261  1
  Si  Si9  1  0.833776  0.667552  0.997416  1
  Si  Si10  1  0.666356  0.833178  0.003261  1
  Si  Si11  1  0.831733  0.663466  0.499681  1
  Si  Si12  1  0.332448  0.166224  0.997416  1
  Si  Si13  1  0.161046  0.322091  0.502812  1
  Si  Si14  1  0.166822  0.833178  0.003261  1
  Si  Si15  1  0.336534  0.168267  0.499681  1
  Si  Si16  1  0.833776  0.166224  0.997416  1
  Si  Si17  1  0.677909  0.838954  0.502812  1
  Si  Si18  1  0.831733  0.168267  0.499681  1
  Si  Si19  1  0.161046  0.838954  0.502812  1
  Ir  Ir20  1  0.333333  0.666667  0.026090  1
  Ir  Ir21  1  0.666667  0.333333  0.967218  1
  Ir  Ir22  1  0.666667  0.333333  0.536964  1
  Au  Au23  1  0.333333  0.666667  0.459052  1
