# generated using pymatgen
data_Tb4TmIrRu
_symmetry_space_group_name_H-M   'P 1'
_cell_length_a   6.40579160
_cell_length_b   7.27299357
_cell_length_c   8.53012254
_cell_angle_alpha   96.71810897
_cell_angle_beta   112.05403208
_cell_angle_gamma   89.99999701
_symmetry_Int_Tables_number   1
_chemical_formula_structural   Tb4TmIrRu
_chemical_formula_sum   'Tb8 Tm2 Ir2 Ru2'
_cell_volume   365.38785229
_cell_formula_units_Z   2
loop_
 _symmetry_equiv_pos_site_id
 _symmetry_equiv_pos_as_xyz
  1  'x, y, z'
loop_
 _atom_site_type_symbol
 _atom_site_label
 _atom_site_symmetry_multiplicity
 _atom_site_fract_x
 _atom_site_fract_y
 _atom_site_fract_z
 _atom_site_occupancy
  Tb  Tb0  1  0.792877  0.081623  0.814870  1
  Tb  Tb1  1  0.978007  0.418377  0.185130  1
  Tb  Tb2  1  0.209617  0.915468  0.184056  1
  Tb  Tb3  1  0.025561  0.584532  0.815944  1
  Tb  Tb4  1  0.207640  0.184303  0.566881  1
  Tb  Tb5  1  0.640759  0.315697  0.433119  1
  Tb  Tb6  1  0.792349  0.812990  0.435283  1
  Tb  Tb7  1  0.357066  0.687010  0.564717  1
  Tm  Tm8  1  0.425963  0.250000  0.000000  1
  Tm  Tm9  1  0.573508  0.750000  0.000000  1
  Ir  Ir10  1  0.601131  0.424473  0.782665  1
  Ir  Ir11  1  0.818465  0.075527  0.217335  1
  Ru  Ru12  1  0.397453  0.573918  0.217852  1
  Ru  Ru13  1  0.179602  0.926082  0.782148  1
