# generated using pymatgen
data_Pr2Si4(IrRh)3
_symmetry_space_group_name_H-M   'P 1'
_cell_length_a   6.72459514
_cell_length_b   6.72278277
_cell_length_c   6.72459435
_cell_angle_alpha   130.27554605
_cell_angle_beta   114.80478218
_cell_angle_gamma   86.22516655
_symmetry_Int_Tables_number   1
_chemical_formula_structural   Pr2Si4(IrRh)3
_chemical_formula_sum   'Pr2 Si4 Ir3 Rh3'
_cell_volume   201.07070429
_cell_formula_units_Z   1
loop_
 _symmetry_equiv_pos_site_id
 _symmetry_equiv_pos_as_xyz
  1  'x, y, z'
loop_
 _atom_site_type_symbol
 _atom_site_label
 _atom_site_symmetry_multiplicity
 _atom_site_fract_x
 _atom_site_fract_y
 _atom_site_fract_z
 _atom_site_occupancy
  Pr  Pr0  1  0.249603  0.970768  0.720217  1
  Pr  Pr1  1  0.749449  0.029232  0.278835  1
  Si  Si2  1  0.080074  0.279829  0.201456  1
  Si  Si3  1  0.921627  0.720171  0.800245  1
  Si  Si4  1  0.421424  0.622195  0.200446  1
  Si  Si5  1  0.578251  0.377805  0.799229  1
  Ir  Ir6  1  0.718658  0.000000  0.718658  1
  Ir  Ir7  1  0.219015  0.500000  0.719015  1
  Ir  Ir8  1  0.781818  0.500000  0.281818  1
  Rh  Rh9  1  0.499149  0.499785  0.499438  1
  Rh  Rh10  1  0.999653  0.500215  0.999364  1
  Rh  Rh11  1  0.281278  0.000000  0.281278  1
