# generated using pymatgen
data_Sc2H2S
_symmetry_space_group_name_H-M   'P 1'
_cell_length_a   3.53390549
_cell_length_b   6.81425987
_cell_length_c   6.81865456
_cell_angle_alpha   29.95190076
_cell_angle_beta   104.85608489
_cell_angle_gamma   121.04437797
_symmetry_Int_Tables_number   1
_chemical_formula_structural   Sc2H2S
_chemical_formula_sum   'Sc2 H2 S1'
_cell_volume   62.89382419
_cell_formula_units_Z   1
loop_
 _symmetry_equiv_pos_site_id
 _symmetry_equiv_pos_as_xyz
  1  'x, y, z'
loop_
 _atom_site_type_symbol
 _atom_site_label
 _atom_site_symmetry_multiplicity
 _atom_site_fract_x
 _atom_site_fract_y
 _atom_site_fract_z
 _atom_site_occupancy
  Sc  Sc0  1  0.771500  0.749897  0.536131  1
  Sc  Sc1  1  0.994722  0.641254  0.198844  1
  H  H2  1  0.338868  0.983036  0.202348  1
  H  H3  1  0.428470  0.408759  0.532027  1
  S  S4  1  0.384140  0.695990  0.867114  1
