# generated using pymatgen
data_Ba4Ga7SiRh8
_symmetry_space_group_name_H-M   'P 1'
_cell_length_a   6.24704327
_cell_length_b   8.53337384
_cell_length_c   8.53612577
_cell_angle_alpha   77.58812609
_cell_angle_beta   90.36372842
_cell_angle_gamma   90.47745391
_symmetry_Int_Tables_number   1
_chemical_formula_structural   Ba4Ga7SiRh8
_chemical_formula_sum   'Ba4 Ga7 Si1 Rh8'
_cell_volume   444.39109416
_cell_formula_units_Z   1
loop_
 _symmetry_equiv_pos_site_id
 _symmetry_equiv_pos_as_xyz
  1  'x, y, z'
loop_
 _atom_site_type_symbol
 _atom_site_label
 _atom_site_symmetry_multiplicity
 _atom_site_fract_x
 _atom_site_fract_y
 _atom_site_fract_z
 _atom_site_occupancy
  Ba  Ba0  1  0.375050  0.000636  0.248763  1
  Ba  Ba1  1  0.874980  0.500694  0.749846  1
  Ba  Ba2  1  0.620183  0.998859  0.749091  1
  Ba  Ba3  1  0.129575  0.501556  0.250076  1
  Ga  Ga4  1  0.376498  0.323567  0.926514  1
  Ga  Ga5  1  0.876202  0.177942  0.071915  1
  Ga  Ga6  1  0.626094  0.677925  0.075747  1
  Ga  Ga7  1  0.117234  0.822847  0.925335  1
  Ga  Ga8  1  0.632937  0.323893  0.428515  1
  Ga  Ga9  1  0.123889  0.175136  0.570808  1
  Ga  Ga10  1  0.373494  0.677517  0.572338  1
  Si  Si11  1  0.874097  0.826623  0.423547  1
  Rh  Rh12  1  0.109714  0.874571  0.621690  1
  Rh  Rh13  1  0.639025  0.627737  0.376287  1
  Rh  Rh14  1  0.870434  0.110286  0.370920  1
  Rh  Rh15  1  0.377114  0.379134  0.627957  1
  Rh  Rh16  1  0.879127  0.878660  0.139640  1
  Rh  Rh17  1  0.372348  0.622415  0.871157  1
  Rh  Rh18  1  0.123283  0.120279  0.869147  1
  Rh  Rh19  1  0.628722  0.379721  0.130707  1
