# generated using pymatgen
data_Li4Sm2TmPb4
_symmetry_space_group_name_H-M   'P 1'
_cell_length_a   4.76386053
_cell_length_b   7.07693230
_cell_length_c   8.81167154
_cell_angle_alpha   113.67610379
_cell_angle_beta   105.68303414
_cell_angle_gamma   89.99999775
_symmetry_Int_Tables_number   1
_chemical_formula_structural   Li4Sm2TmPb4
_chemical_formula_sum   'Li4 Sm2 Tm1 Pb4'
_cell_volume   259.94679392
_cell_formula_units_Z   1
loop_
 _symmetry_equiv_pos_site_id
 _symmetry_equiv_pos_as_xyz
  1  'x, y, z'
loop_
 _atom_site_type_symbol
 _atom_site_label
 _atom_site_symmetry_multiplicity
 _atom_site_fract_x
 _atom_site_fract_y
 _atom_site_fract_z
 _atom_site_occupancy
  Li  Li0  1  0.673271  0.982259  0.346542  1
  Li  Li1  1  0.326729  0.017741  0.653458  1
  Li  Li2  1  0.326729  0.635718  0.653458  1
  Li  Li3  1  0.673271  0.364282  0.346542  1
  Sm  Sm4  1  0.128276  0.628276  0.256550  1
  Sm  Sm5  1  0.871724  0.371724  0.743450  1
  Tm  Tm6  1  0.000000  0.000000  0.000000  1
  Pb  Pb7  1  0.500000  0.712009  0.000000  1
  Pb  Pb8  1  0.500000  0.287991  0.000000  1
  Pb  Pb9  1  0.789472  0.789472  0.578945  1
  Pb  Pb10  1  0.210528  0.210528  0.421055  1
