# generated using pymatgen
data_Tb10Nd6Cd3HgIr4
_symmetry_space_group_name_H-M   'P 1'
_cell_length_a   9.76411821
_cell_length_b   9.76411801
_cell_length_c   9.76411762
_cell_angle_alpha   60.05384655
_cell_angle_beta   60.05384674
_cell_angle_gamma   60.05384857
_symmetry_Int_Tables_number   1
_chemical_formula_structural   Tb10Nd6Cd3HgIr4
_chemical_formula_sum   'Tb10 Nd6 Cd3 Hg1 Ir4'
_cell_volume   659.04301127
_cell_formula_units_Z   1
loop_
 _symmetry_equiv_pos_site_id
 _symmetry_equiv_pos_as_xyz
  1  'x, y, z'
loop_
 _atom_site_type_symbol
 _atom_site_label
 _atom_site_symmetry_multiplicity
 _atom_site_fract_x
 _atom_site_fract_y
 _atom_site_fract_z
 _atom_site_occupancy
  Tb  Tb0  1  0.347326  0.347326  0.347326  1
  Tb  Tb1  1  0.349054  0.349054  0.954248  1
  Tb  Tb2  1  0.349054  0.954248  0.349054  1
  Tb  Tb3  1  0.954248  0.349054  0.349054  1
  Tb  Tb4  1  0.810838  0.188301  0.188301  1
  Tb  Tb5  1  0.187032  0.811266  0.811266  1
  Tb  Tb6  1  0.188301  0.810838  0.188301  1
  Tb  Tb7  1  0.811266  0.187032  0.811266  1
  Tb  Tb8  1  0.188301  0.188301  0.810838  1
  Tb  Tb9  1  0.811266  0.811266  0.187032  1
  Nd  Nd10  1  0.940401  0.559216  0.559216  1
  Nd  Nd11  1  0.558377  0.940923  0.940923  1
  Nd  Nd12  1  0.559216  0.940401  0.559216  1
  Nd  Nd13  1  0.940923  0.558377  0.940923  1
  Nd  Nd14  1  0.559216  0.559216  0.940401  1
  Nd  Nd15  1  0.940923  0.940923  0.558377  1
  Cd  Cd16  1  0.579509  0.579509  0.260798  1
  Cd  Cd17  1  0.579509  0.260798  0.579509  1
  Cd  Cd18  1  0.260798  0.579509  0.579509  1
  Hg  Hg19  1  0.582362  0.582362  0.582362  1
  Ir  Ir20  1  0.141545  0.141545  0.141545  1
  Ir  Ir21  1  0.142293  0.142293  0.575946  1
  Ir  Ir22  1  0.142293  0.575946  0.142293  1
  Ir  Ir23  1  0.575946  0.142293  0.142293  1
