# generated using pymatgen
data_La3Tb3(SiPd5)2
_symmetry_space_group_name_H-M   'P 1'
_cell_length_a   8.42992174
_cell_length_b   8.38230103
_cell_length_c   8.38230153
_cell_angle_alpha   127.46186230
_cell_angle_beta   126.25177319
_cell_angle_gamma   78.35888086
_symmetry_Int_Tables_number   1
_chemical_formula_structural   La3Tb3(SiPd5)2
_chemical_formula_sum   'La3 Tb3 Si2 Pd10'
_cell_volume   367.42837469
_cell_formula_units_Z   1
loop_
 _symmetry_equiv_pos_site_id
 _symmetry_equiv_pos_as_xyz
  1  'x, y, z'
loop_
 _atom_site_type_symbol
 _atom_site_label
 _atom_site_symmetry_multiplicity
 _atom_site_fract_x
 _atom_site_fract_y
 _atom_site_fract_z
 _atom_site_occupancy
  La  La0  1  0.380083  0.248906  0.131178  1
  La  La1  1  0.774679  0.549432  0.225246  1
  La  La2  1  0.617890  0.750406  0.867484  1
  Tb  Tb3  1  0.820218  0.048226  0.771992  1
  Tb  Tb4  1  0.217695  0.449986  0.767710  1
  Tb  Tb5  1  0.179028  0.951042  0.227986  1
  Si  Si6  1  0.214709  0.750734  0.463976  1
  Si  Si7  1  0.787584  0.249394  0.538190  1
  Pd  Pd8  1  0.837844  0.598864  0.646952  1
  Pd  Pd9  1  0.542985  0.303559  0.636921  1
  Pd  Pd10  1  0.452737  0.094426  0.757233  1
  Pd  Pd11  1  0.837844  0.190892  0.238980  1
  Pd  Pd12  1  0.166498  0.402019  0.358643  1
  Pd  Pd13  1  0.452737  0.695504  0.358310  1
  Pd  Pd14  1  0.542985  0.906064  0.239426  1
  Pd  Pd15  1  0.166498  0.807855  0.764480  1
  Pd  Pd16  1  0.003993  0.004252  0.505554  1
  Pd  Pd17  1  0.003993  0.498439  0.999741  1
