# generated using pymatgen
data_Rb12NaLi7(TiBi3)4
_symmetry_space_group_name_H-M   'P 1'
_cell_length_a   11.21301158
_cell_length_b   11.21301197
_cell_length_c   16.89554000
_cell_angle_alpha   89.96116583
_cell_angle_beta   89.96116583
_cell_angle_gamma   142.82204106
_symmetry_Int_Tables_number   1
_chemical_formula_structural   Rb12NaLi7(TiBi3)4
_chemical_formula_sum   'Rb12 Na1 Li7 Ti4 Bi12'
_cell_volume   1283.69830009
_cell_formula_units_Z   1
loop_
 _symmetry_equiv_pos_site_id
 _symmetry_equiv_pos_as_xyz
  1  'x, y, z'
loop_
 _atom_site_type_symbol
 _atom_site_label
 _atom_site_symmetry_multiplicity
 _atom_site_fract_x
 _atom_site_fract_y
 _atom_site_fract_z
 _atom_site_occupancy
  Rb  Rb0  1  0.602192  0.942563  0.832279  1
  Rb  Rb1  1  0.283148  0.281442  0.321529  1
  Rb  Rb2  1  0.220864  0.221111  0.825520  1
  Rb  Rb3  1  0.718558  0.716852  0.678471  1
  Rb  Rb4  1  0.440765  0.101230  0.670388  1
  Rb  Rb5  1  0.898770  0.559235  0.329612  1
  Rb  Rb6  1  0.057437  0.397808  0.167721  1
  Rb  Rb7  1  0.398733  0.058672  0.168205  1
  Rb  Rb8  1  0.552580  0.894701  0.328048  1
  Rb  Rb9  1  0.105299  0.447420  0.671952  1
  Rb  Rb10  1  0.941328  0.601267  0.831795  1
  Rb  Rb11  1  0.778889  0.779136  0.174480  1
  Na  Na12  1  0.418278  0.581722  0.500000  1
  Li  Li13  1  0.081638  0.918362  0.000000  1
  Li  Li14  1  0.583515  0.416485  0.500000  1
  Li  Li15  1  0.918365  0.081635  0.000000  1
  Li  Li16  1  0.748711  0.251289  0.000000  1
  Li  Li17  1  0.749956  0.250044  0.500000  1
  Li  Li18  1  0.251146  0.748854  0.000000  1
  Li  Li19  1  0.247788  0.752212  0.500000  1
  Ti  Ti20  1  0.087586  0.912414  0.500000  1
  Ti  Ti21  1  0.413397  0.586603  0.000000  1
  Ti  Ti22  1  0.913563  0.086437  0.500000  1
  Ti  Ti23  1  0.586643  0.413357  0.000000  1
  Bi  Bi24  1  0.051905  0.378180  0.403742  1
  Bi  Bi25  1  0.891975  0.569554  0.090625  1
  Bi  Bi26  1  0.430446  0.108025  0.909375  1
  Bi  Bi27  1  0.621820  0.948095  0.596258  1
  Bi  Bi28  1  0.930577  0.607168  0.592037  1
  Bi  Bi29  1  0.108227  0.430839  0.909516  1
  Bi  Bi30  1  0.569161  0.891773  0.090484  1
  Bi  Bi31  1  0.392832  0.069423  0.407963  1
  Bi  Bi32  1  0.208723  0.204794  0.592801  1
  Bi  Bi33  1  0.720734  0.720755  0.912431  1
  Bi  Bi34  1  0.279245  0.279266  0.087569  1
  Bi  Bi35  1  0.795206  0.791277  0.407199  1
