# generated using pymatgen
data_Dy3HoC2Cl3
_symmetry_space_group_name_H-M   'P 1'
_cell_length_a   3.64933300
_cell_length_b   10.49392400
_cell_length_c   19.63303600
_cell_angle_alpha   90.00000000
_cell_angle_beta   90.00000000
_cell_angle_gamma   90.00000000
_symmetry_Int_Tables_number   1
_chemical_formula_structural   Dy3HoC2Cl3
_chemical_formula_sum   'Dy12 Ho4 C8 Cl12'
_cell_volume   751.86327461
_cell_formula_units_Z   4
loop_
 _symmetry_equiv_pos_site_id
 _symmetry_equiv_pos_as_xyz
  1  'x, y, z'
loop_
 _atom_site_type_symbol
 _atom_site_label
 _atom_site_symmetry_multiplicity
 _atom_site_fract_x
 _atom_site_fract_y
 _atom_site_fract_z
 _atom_site_occupancy
  Dy  Dy0  1  0.250000  0.138980  0.572950  1
  Dy  Dy1  1  0.250000  0.638980  0.927050  1
  Dy  Dy2  1  0.750000  0.861020  0.427050  1
  Dy  Dy3  1  0.750000  0.361020  0.072950  1
  Dy  Dy4  1  0.250000  0.638032  0.755985  1
  Dy  Dy5  1  0.250000  0.138032  0.744015  1
  Dy  Dy6  1  0.750000  0.361968  0.244015  1
  Dy  Dy7  1  0.750000  0.861968  0.255985  1
  Dy  Dy8  1  0.250000  0.100268  0.331782  1
  Dy  Dy9  1  0.250000  0.600268  0.168218  1
  Dy  Dy10  1  0.750000  0.899732  0.668218  1
  Dy  Dy11  1  0.750000  0.399732  0.831782  1
  Ho  Ho12  1  0.250000  0.124492  0.164188  1
  Ho  Ho13  1  0.250000  0.624492  0.335812  1
  Ho  Ho14  1  0.750000  0.875508  0.835812  1
  Ho  Ho15  1  0.750000  0.375508  0.664188  1
  C  C16  1  0.250000  0.863189  0.348060  1
  C  C17  1  0.250000  0.363189  0.151940  1
  C  C18  1  0.750000  0.136811  0.651940  1
  C  C19  1  0.750000  0.636811  0.848060  1
  C  C20  1  0.250000  0.388354  0.749313  1
  C  C21  1  0.250000  0.888354  0.750687  1
  C  C22  1  0.750000  0.611646  0.250687  1
  C  C23  1  0.750000  0.111646  0.249313  1
  Cl  Cl24  1  0.250000  0.378107  0.952155  1
  Cl  Cl25  1  0.250000  0.878107  0.547845  1
  Cl  Cl26  1  0.750000  0.621893  0.047845  1
  Cl  Cl27  1  0.750000  0.121893  0.452155  1
  Cl  Cl28  1  0.250000  0.887594  0.945426  1
  Cl  Cl29  1  0.250000  0.387594  0.554574  1
  Cl  Cl30  1  0.750000  0.112406  0.054574  1
  Cl  Cl31  1  0.750000  0.612406  0.445426  1
  Cl  Cl32  1  0.250000  0.360989  0.354633  1
  Cl  Cl33  1  0.250000  0.860989  0.145367  1
  Cl  Cl34  1  0.750000  0.639011  0.645367  1
  Cl  Cl35  1  0.750000  0.139011  0.854633  1
