# generated using pymatgen
data_Pr10AgBi6I
_symmetry_space_group_name_H-M   'P 1'
_cell_length_a   9.78447700
_cell_length_b   9.78447792
_cell_length_c   6.74522900
_cell_angle_alpha   90.00000000
_cell_angle_beta   90.00000000
_cell_angle_gamma   119.99999350
_symmetry_Int_Tables_number   1
_chemical_formula_structural   Pr10AgBi6I
_chemical_formula_sum   'Pr10 Ag1 Bi6 I1'
_cell_volume   559.24567367
_cell_formula_units_Z   1
loop_
 _symmetry_equiv_pos_site_id
 _symmetry_equiv_pos_as_xyz
  1  'x, y, z'
loop_
 _atom_site_type_symbol
 _atom_site_label
 _atom_site_symmetry_multiplicity
 _atom_site_fract_x
 _atom_site_fract_y
 _atom_site_fract_z
 _atom_site_occupancy
  Pr  Pr0  1  0.275412  0.000000  0.757391  1
  Pr  Pr1  1  0.724588  0.000000  0.242609  1
  Pr  Pr2  1  0.000000  0.275412  0.757391  1
  Pr  Pr3  1  0.000000  0.724588  0.242609  1
  Pr  Pr4  1  0.724588  0.724588  0.757391  1
  Pr  Pr5  1  0.275412  0.275412  0.242609  1
  Pr  Pr6  1  0.333333  0.666667  0.500000  1
  Pr  Pr7  1  0.666667  0.333333  0.500000  1
  Pr  Pr8  1  0.666667  0.333333  0.000000  1
  Pr  Pr9  1  0.333333  0.666667  0.000000  1
  Ag  Ag10  1  0.000000  0.000000  0.000000  1
  Bi  Bi11  1  0.618452  0.000000  0.750142  1
  Bi  Bi12  1  0.381548  0.000000  0.249858  1
  Bi  Bi13  1  0.000000  0.618452  0.750142  1
  Bi  Bi14  1  0.000000  0.381548  0.249858  1
  Bi  Bi15  1  0.381548  0.381548  0.750142  1
  Bi  Bi16  1  0.618452  0.618452  0.249858  1
  I  I17  1  0.000000  0.000000  0.500000  1
