# generated using pymatgen
data_Yb10CuHg2Pt3
_symmetry_space_group_name_H-M   'P 1'
_cell_length_a   8.92364864
_cell_length_b   8.92364925
_cell_length_c   8.97904080
_cell_angle_alpha   128.80875595
_cell_angle_beta   128.80875352
_cell_angle_gamma   74.85714513
_symmetry_Int_Tables_number   1
_chemical_formula_structural   Yb10CuHg2Pt3
_chemical_formula_sum   'Yb10 Cu1 Hg2 Pt3'
_cell_volume   423.85802368
_cell_formula_units_Z   1
loop_
 _symmetry_equiv_pos_site_id
 _symmetry_equiv_pos_as_xyz
  1  'x, y, z'
loop_
 _atom_site_type_symbol
 _atom_site_label
 _atom_site_symmetry_multiplicity
 _atom_site_fract_x
 _atom_site_fract_y
 _atom_site_fract_z
 _atom_site_occupancy
  Yb  Yb0  1  0.501597  0.503742  0.005337  1
  Yb  Yb1  1  0.996258  0.998403  0.994663  1
  Yb  Yb2  1  0.535968  0.032244  0.837576  1
  Yb  Yb3  1  0.198394  0.694670  0.162424  1
  Yb  Yb4  1  0.031381  0.203067  0.500000  1
  Yb  Yb5  1  0.699965  0.535774  0.500000  1
  Yb  Yb6  1  0.467756  0.964032  0.162424  1
  Yb  Yb7  1  0.805330  0.301606  0.837576  1
  Yb  Yb8  1  0.964226  0.800035  0.500000  1
  Yb  Yb9  1  0.296933  0.468619  0.500000  1
  Cu  Cu10  1  0.377803  0.122197  0.500000  1
  Hg  Hg11  1  0.250519  0.249481  0.000000  1
  Hg  Hg12  1  0.750519  0.749481  0.000000  1
  Pt  Pt13  1  0.133909  0.633300  0.767210  1
  Pt  Pt14  1  0.866700  0.366091  0.232790  1
  Pt  Pt15  1  0.622742  0.877258  0.500000  1
