# generated using pymatgen
data_PrPRu2C
_symmetry_space_group_name_H-M   'P 1'
_cell_length_a   5.84434906
_cell_length_b   5.84434913
_cell_length_c   7.19442800
_cell_angle_alpha   90.00000000
_cell_angle_beta   90.00000000
_cell_angle_gamma   140.60165429
_symmetry_Int_Tables_number   1
_chemical_formula_structural   PrPRu2C
_chemical_formula_sum   'Pr2 P2 Ru4 C2'
_cell_volume   155.97057714
_cell_formula_units_Z   2
loop_
 _symmetry_equiv_pos_site_id
 _symmetry_equiv_pos_as_xyz
  1  'x, y, z'
loop_
 _atom_site_type_symbol
 _atom_site_label
 _atom_site_symmetry_multiplicity
 _atom_site_fract_x
 _atom_site_fract_y
 _atom_site_fract_z
 _atom_site_occupancy
  Pr  Pr0  1  0.546504  0.453496  0.250000  1
  Pr  Pr1  1  0.453496  0.546504  0.750000  1
  P  P2  1  0.270047  0.729953  0.250000  1
  P  P3  1  0.729953  0.270047  0.750000  1
  Ru  Ru4  1  0.832856  0.167144  0.054975  1
  Ru  Ru5  1  0.167144  0.832856  0.945025  1
  Ru  Ru6  1  0.167144  0.832856  0.554975  1
  Ru  Ru7  1  0.832856  0.167144  0.445025  1
  C  C8  1  0.000000  0.000000  0.000000  1
  C  C9  1  0.000000  0.000000  0.500000  1
