# generated using pymatgen
data_TbZn3P7N12
_symmetry_space_group_name_H-M   'P 1'
_cell_length_a   7.26606071
_cell_length_b   7.27504011
_cell_length_c   7.26606169
_cell_angle_alpha   109.49625576
_cell_angle_beta   109.44618273
_cell_angle_gamma   109.49624938
_symmetry_Int_Tables_number   1
_chemical_formula_structural   TbZn3P7N12
_chemical_formula_sum   'Tb1 Zn3 P7 N12'
_cell_volume   295.58154548
_cell_formula_units_Z   1
loop_
 _symmetry_equiv_pos_site_id
 _symmetry_equiv_pos_as_xyz
  1  'x, y, z'
loop_
 _atom_site_type_symbol
 _atom_site_label
 _atom_site_symmetry_multiplicity
 _atom_site_fract_x
 _atom_site_fract_y
 _atom_site_fract_z
 _atom_site_occupancy
  Tb  Tb0  1  0.000000  0.325027  0.000000  1
  Zn  Zn1  1  0.669351  0.665984  0.669351  1
  Zn  Zn2  1  0.330649  0.996632  0.000000  1
  Zn  Zn3  1  0.000000  0.996632  0.330649  1
  P  P4  1  0.746062  0.252124  0.493709  1
  P  P5  1  0.252353  0.758415  0.506291  1
  P  P6  1  0.506291  0.758415  0.252353  1
  P  P7  1  0.493709  0.252124  0.746062  1
  P  P8  1  0.747647  0.506062  0.253938  1
  P  P9  1  0.253938  0.506062  0.747647  1
  P  P10  1  0.000000  0.955058  0.000000  1
  N  N11  1  0.570556  0.278051  0.000000  1
  N  N12  1  0.436912  0.440058  0.708039  1
  N  N13  1  0.000000  0.278051  0.570556  1
  N  N14  1  0.271127  0.003147  0.563088  1
  N  N15  1  0.708039  0.440058  0.436912  1
  N  N16  1  0.000000  0.567902  0.290283  1
  N  N17  1  0.563088  0.003147  0.271127  1
  N  N18  1  0.429444  0.707495  0.429444  1
  N  N19  1  0.290283  0.567902  0.000000  1
  N  N20  1  0.709717  0.277619  0.709717  1
  N  N21  1  0.728873  0.732019  0.291961  1
  N  N22  1  0.291961  0.732019  0.728873  1
