# generated using pymatgen
data_Tm20Ir3Pt4Rh5
_symmetry_space_group_name_H-M   'P 1'
_cell_length_a   10.83281614
_cell_length_b   10.83360734
_cell_length_c   6.29603516
_cell_angle_alpha   90.01167653
_cell_angle_beta   89.99421181
_cell_angle_gamma   89.55757579
_symmetry_Int_Tables_number   1
_chemical_formula_structural   Tm20Ir3Pt4Rh5
_chemical_formula_sum   'Tm20 Ir3 Pt4 Rh5'
_cell_volume   738.87104681
_cell_formula_units_Z   1
loop_
 _symmetry_equiv_pos_site_id
 _symmetry_equiv_pos_as_xyz
  1  'x, y, z'
loop_
 _atom_site_type_symbol
 _atom_site_label
 _atom_site_symmetry_multiplicity
 _atom_site_fract_x
 _atom_site_fract_y
 _atom_site_fract_z
 _atom_site_occupancy
  Tm  Tm0  1  0.293016  0.090911  0.377523  1
  Tm  Tm1  1  0.293731  0.911161  0.873011  1
  Tm  Tm2  1  0.704487  0.085825  0.874994  1
  Tm  Tm3  1  0.705479  0.909754  0.374800  1
  Tm  Tm4  1  0.585320  0.789746  0.878895  1
  Tm  Tm5  1  0.583056  0.207071  0.374690  1
  Tm  Tm6  1  0.414416  0.790935  0.377873  1
  Tm  Tm7  1  0.408942  0.207534  0.879855  1
  Tm  Tm8  1  0.210312  0.412619  0.621429  1
  Tm  Tm9  1  0.208929  0.585079  0.122173  1
  Tm  Tm10  1  0.792744  0.416344  0.125548  1
  Tm  Tm11  1  0.792383  0.588845  0.619815  1
  Tm  Tm12  1  0.910519  0.705883  0.124649  1
  Tm  Tm13  1  0.915656  0.293828  0.626966  1
  Tm  Tm14  1  0.090235  0.704670  0.625142  1
  Tm  Tm15  1  0.091594  0.293521  0.122857  1
  Tm  Tm16  1  0.001376  0.000914  0.500164  1
  Tm  Tm17  1  0.000947  0.001975  0.999833  1
  Tm  Tm18  1  0.498840  0.500720  0.000234  1
  Tm  Tm19  1  0.499184  0.501441  0.499620  1
  Ir  Ir20  1  0.654876  0.653649  0.249827  1
  Ir  Ir21  1  0.346857  0.345658  0.250072  1
  Ir  Ir22  1  0.344675  0.655523  0.750567  1
  Pt  Pt23  1  0.844336  0.155582  0.250227  1
  Pt  Pt24  1  0.846122  0.847370  0.750684  1
  Pt  Pt25  1  0.154635  0.845311  0.249812  1
  Pt  Pt26  1  0.655815  0.344484  0.749473  1
  Rh  Rh27  1  0.152223  0.153417  0.749327  1
  Rh  Rh28  1  0.500013  0.000336  0.123015  1
  Rh  Rh29  1  0.499648  0.000381  0.623586  1
  Rh  Rh30  1  0.999884  0.499739  0.876415  1
  Rh  Rh31  1  0.999750  0.499775  0.376926  1
