# generated using pymatgen
data_ZrSc5(Zn3N)2
_symmetry_space_group_name_H-M   'P 1'
_cell_length_a   8.54389601
_cell_length_b   8.54459505
_cell_length_c   8.55131308
_cell_angle_alpha   59.99675020
_cell_angle_beta   60.02868377
_cell_angle_gamma   60.00270775
_symmetry_Int_Tables_number   1
_chemical_formula_structural   ZrSc5(Zn3N)2
_chemical_formula_sum   'Zr2 Sc10 Zn12 N4'
_cell_volume   441.52726063
_cell_formula_units_Z   2
loop_
 _symmetry_equiv_pos_site_id
 _symmetry_equiv_pos_as_xyz
  1  'x, y, z'
loop_
 _atom_site_type_symbol
 _atom_site_label
 _atom_site_symmetry_multiplicity
 _atom_site_fract_x
 _atom_site_fract_y
 _atom_site_fract_z
 _atom_site_occupancy
  Zr  Zr0  1  0.436649  0.062997  0.436356  1
  Zr  Zr1  1  0.063999  0.062997  0.436356  1
  Sc  Sc2  1  0.814078  0.185968  0.185876  1
  Sc  Sc3  1  0.185972  0.813342  0.185697  1
  Sc  Sc4  1  0.814989  0.813342  0.185697  1
  Sc  Sc5  1  0.185793  0.812254  0.816160  1
  Sc  Sc6  1  0.812993  0.186473  0.814557  1
  Sc  Sc7  1  0.185977  0.186473  0.814557  1
  Sc  Sc8  1  0.436293  0.063726  0.063689  1
  Sc  Sc9  1  0.063473  0.436532  0.063824  1
  Sc  Sc10  1  0.436170  0.436532  0.063824  1
  Sc  Sc11  1  0.063823  0.436628  0.435726  1
  Zn  Zn12  1  0.418990  0.418501  0.743519  1
  Zn  Zn13  1  0.418761  0.418634  0.419075  1
  Zn  Zn14  1  0.743530  0.418634  0.419075  1
  Zn  Zn15  1  0.419088  0.743038  0.418785  1
  Zn  Zn16  1  0.831018  0.831865  0.506101  1
  Zn  Zn17  1  0.831496  0.831334  0.830788  1
  Zn  Zn18  1  0.506383  0.831334  0.830788  1
  Zn  Zn19  1  0.831109  0.506592  0.831190  1
  Zn  Zn20  1  0.625312  0.625422  0.123953  1
  Zn  Zn21  1  0.624806  0.626208  0.624612  1
  Zn  Zn22  1  0.124374  0.626208  0.624612  1
  Zn  Zn23  1  0.625528  0.124699  0.624245  1
  N  N24  1  0.123652  0.126192  0.626505  1
  N  N25  1  0.125976  0.124978  0.124220  1
  N  N26  1  0.624827  0.124978  0.124220  1
  N  N27  1  0.124943  0.624120  0.125995  1
