# generated using pymatgen
data_Ho6MnFe2(Co5P4)3
_symmetry_space_group_name_H-M   'P 1'
_cell_length_a   3.69674900
_cell_length_b   10.56123400
_cell_length_c   12.14341900
_cell_angle_alpha   90.00000000
_cell_angle_beta   90.00000000
_cell_angle_gamma   90.00000000
_symmetry_Int_Tables_number   1
_chemical_formula_structural   Ho6MnFe2(Co5P4)3
_chemical_formula_sum   'Ho6 Mn1 Fe2 Co15 P12'
_cell_volume   474.10617250
_cell_formula_units_Z   1
loop_
 _symmetry_equiv_pos_site_id
 _symmetry_equiv_pos_as_xyz
  1  'x, y, z'
loop_
 _atom_site_type_symbol
 _atom_site_label
 _atom_site_symmetry_multiplicity
 _atom_site_fract_x
 _atom_site_fract_y
 _atom_site_fract_z
 _atom_site_occupancy
  Ho  Ho0  1  0.000000  0.500000  0.521908  1
  Ho  Ho1  1  0.500000  0.000000  0.476563  1
  Ho  Ho2  1  0.500000  0.817873  0.204734  1
  Ho  Ho3  1  0.500000  0.182127  0.204734  1
  Ho  Ho4  1  0.000000  0.680374  0.795573  1
  Ho  Ho5  1  0.000000  0.319626  0.795573  1
  Mn  Mn6  1  0.000000  0.000000  0.841580  1
  Fe  Fe7  1  0.000000  0.500000  0.988571  1
  Fe  Fe8  1  0.500000  0.500000  0.155605  1
  Co  Co9  1  0.500000  0.000000  0.013768  1
  Co  Co10  1  0.500000  0.296644  0.431116  1
  Co  Co11  1  0.500000  0.703356  0.431116  1
  Co  Co12  1  0.000000  0.203490  0.570052  1
  Co  Co13  1  0.000000  0.796510  0.570052  1
  Co  Co14  1  0.500000  0.879133  0.709160  1
  Co  Co15  1  0.500000  0.120867  0.709160  1
  Co  Co16  1  0.000000  0.621427  0.290999  1
  Co  Co17  1  0.000000  0.378573  0.290999  1
  Co  Co18  1  0.500000  0.330791  0.994208  1
  Co  Co19  1  0.500000  0.669209  0.994208  1
  Co  Co20  1  0.000000  0.165936  0.005893  1
  Co  Co21  1  0.000000  0.834064  0.005893  1
  Co  Co22  1  0.500000  0.500000  0.701817  1
  Co  Co23  1  0.000000  0.000000  0.298419  1
  P  P24  1  0.500000  0.311286  0.616531  1
  P  P25  1  0.500000  0.688714  0.616531  1
  P  P26  1  0.000000  0.189716  0.383631  1
  P  P27  1  0.000000  0.810284  0.383631  1
  P  P28  1  0.500000  0.500000  0.884653  1
  P  P29  1  0.000000  0.000000  0.118001  1
  P  P30  1  0.500000  0.846983  0.892726  1
  P  P31  1  0.500000  0.153017  0.892726  1
  P  P32  1  0.000000  0.652684  0.106804  1
  P  P33  1  0.000000  0.347316  0.106804  1
  P  P34  1  0.500000  0.500000  0.341775  1
  P  P35  1  0.000000  0.000000  0.654488  1
