# generated using pymatgen
data_Na16HfSiP8
_symmetry_space_group_name_H-M   'P 1'
_cell_length_a   9.48608647
_cell_length_b   9.48608613
_cell_length_c   9.48608700
_cell_angle_alpha   60.00000046
_cell_angle_beta   60.00000164
_cell_angle_gamma   60.00000193
_symmetry_Int_Tables_number   1
_chemical_formula_structural   Na16HfSiP8
_chemical_formula_sum   'Na16 Hf1 Si1 P8'
_cell_volume   603.59587265
_cell_formula_units_Z   1
loop_
 _symmetry_equiv_pos_site_id
 _symmetry_equiv_pos_as_xyz
  1  'x, y, z'
loop_
 _atom_site_type_symbol
 _atom_site_label
 _atom_site_symmetry_multiplicity
 _atom_site_fract_x
 _atom_site_fract_y
 _atom_site_fract_z
 _atom_site_occupancy
  Na  Na0  1  0.628493  0.628493  0.114521  1
  Na  Na1  1  0.628493  0.114521  0.628493  1
  Na  Na2  1  0.114521  0.628493  0.628493  1
  Na  Na3  1  0.628493  0.628493  0.628493  1
  Na  Na4  1  0.029085  0.470915  0.470915  1
  Na  Na5  1  0.775366  0.224634  0.224634  1
  Na  Na6  1  0.470915  0.029085  0.470915  1
  Na  Na7  1  0.470915  0.470915  0.029085  1
  Na  Na8  1  0.029085  0.029085  0.470915  1
  Na  Na9  1  0.029085  0.470915  0.029085  1
  Na  Na10  1  0.470915  0.029085  0.029085  1
  Na  Na11  1  0.775366  0.224634  0.775366  1
  Na  Na12  1  0.224634  0.775366  0.224634  1
  Na  Na13  1  0.224634  0.224634  0.775366  1
  Na  Na14  1  0.775366  0.775366  0.224634  1
  Na  Na15  1  0.224634  0.775366  0.775366  1
  Hf  Hf16  1  0.500000  0.500000  0.500000  1
  Si  Si17  1  0.750000  0.750000  0.750000  1
  P  P18  1  0.850803  0.850803  0.447593  1
  P  P19  1  0.850803  0.447593  0.850803  1
  P  P20  1  0.392143  0.392143  0.823571  1
  P  P21  1  0.392143  0.823571  0.392143  1
  P  P22  1  0.823571  0.392143  0.392143  1
  P  P23  1  0.850803  0.850803  0.850803  1
  P  P24  1  0.447593  0.850803  0.850803  1
  P  P25  1  0.392143  0.392143  0.392143  1
