# generated using pymatgen
data_Pr5Th5(Pb3Br)2
_symmetry_space_group_name_H-M   'P 1'
_cell_length_a   9.67151017
_cell_length_b   9.67468613
_cell_length_c   6.76178600
_cell_angle_alpha   90.00000000
_cell_angle_beta   90.00000000
_cell_angle_gamma   120.01086450
_symmetry_Int_Tables_number   1
_chemical_formula_structural   Pr5Th5(Pb3Br)2
_chemical_formula_sum   'Pr5 Th5 Pb6 Br2'
_cell_volume   547.86767213
_cell_formula_units_Z   1
loop_
 _symmetry_equiv_pos_site_id
 _symmetry_equiv_pos_as_xyz
  1  'x, y, z'
loop_
 _atom_site_type_symbol
 _atom_site_label
 _atom_site_symmetry_multiplicity
 _atom_site_fract_x
 _atom_site_fract_y
 _atom_site_fract_z
 _atom_site_occupancy
  Pr  Pr0  1  0.727851  0.728371  0.250000  1
  Pr  Pr1  1  0.272149  0.000520  0.250000  1
  Pr  Pr2  1  0.000000  0.272143  0.250000  1
  Pr  Pr3  1  0.271651  0.271263  0.750000  1
  Pr  Pr4  1  0.728349  0.999611  0.750000  1
  Th  Th5  1  0.669086  0.336056  0.504649  1
  Th  Th6  1  0.330914  0.666972  0.504649  1
  Th  Th7  1  0.330914  0.666972  0.995351  1
  Th  Th8  1  0.669086  0.336056  0.995351  1
  Th  Th9  1  0.000000  0.724645  0.750000  1
  Pb  Pb10  1  0.384221  0.385140  0.250000  1
  Pb  Pb11  1  0.615779  0.000918  0.250000  1
  Pb  Pb12  1  0.000000  0.616822  0.250000  1
  Pb  Pb13  1  0.616788  0.617579  0.750000  1
  Pb  Pb14  1  0.383212  0.000792  0.750000  1
  Pb  Pb15  1  0.000000  0.381551  0.750000  1
  Br  Br16  1  0.000000  0.997294  0.501122  1
  Br  Br17  1  0.000000  0.997294  0.998878  1
