# generated using pymatgen
data_Ba9Ta2CSN10
_symmetry_space_group_name_H-M   'P 1'
_cell_length_a   8.30349117
_cell_length_b   10.20164295
_cell_length_c   12.70443626
_cell_angle_alpha   76.38054806
_cell_angle_beta   87.05343217
_cell_angle_gamma   87.21193877
_symmetry_Int_Tables_number   1
_chemical_formula_structural   Ba9Ta2CSN10
_chemical_formula_sum   'Ba18 Ta4 C2 S2 N20'
_cell_volume   1043.79905090
_cell_formula_units_Z   2
loop_
 _symmetry_equiv_pos_site_id
 _symmetry_equiv_pos_as_xyz
  1  'x, y, z'
loop_
 _atom_site_type_symbol
 _atom_site_label
 _atom_site_symmetry_multiplicity
 _atom_site_fract_x
 _atom_site_fract_y
 _atom_site_fract_z
 _atom_site_occupancy
  Ba  Ba0  1  0.486604  0.609795  0.123926  1
  Ba  Ba1  1  0.491649  0.667397  0.589985  1
  Ba  Ba2  1  0.047664  0.079720  0.699622  1
  Ba  Ba3  1  0.952336  0.920280  0.300378  1
  Ba  Ba4  1  0.463986  0.936714  0.278088  1
  Ba  Ba5  1  0.021905  0.414030  0.883836  1
  Ba  Ba6  1  0.513396  0.390205  0.876074  1
  Ba  Ba7  1  0.737779  0.282718  0.144350  1
  Ba  Ba8  1  0.234203  0.076229  0.999261  1
  Ba  Ba9  1  0.508351  0.332603  0.410015  1
  Ba  Ba10  1  0.262221  0.717282  0.855650  1
  Ba  Ba11  1  0.536014  0.063286  0.721912  1
  Ba  Ba12  1  0.183478  0.574703  0.391582  1
  Ba  Ba13  1  0.816522  0.425297  0.608418  1
  Ba  Ba14  1  0.973994  0.746278  0.626108  1
  Ba  Ba15  1  0.765797  0.923771  0.000739  1
  Ba  Ba16  1  0.978095  0.585970  0.116164  1
  Ba  Ba17  1  0.026006  0.253722  0.373892  1
  Ta  Ta18  1  0.724993  0.637166  0.338510  1
  Ta  Ta19  1  0.275007  0.362834  0.661490  1
  Ta  Ta20  1  0.733397  0.682393  0.869330  1
  Ta  Ta21  1  0.266603  0.317607  0.130670  1
  C  C22  1  0.258001  0.930855  0.537334  1
  C  C23  1  0.741999  0.069145  0.462666  1
  S  S24  1  0.797914  0.193715  0.843970  1
  S  S25  1  0.202086  0.806285  0.156030  1
  N  N26  1  0.132754  0.323772  0.552975  1
  N  N27  1  0.787312  0.461589  0.299165  1
  N  N28  1  0.212688  0.538411  0.700835  1
  N  N29  1  0.442835  0.188946  0.103650  1
  N  N30  1  0.557165  0.811054  0.896350  1
  N  N31  1  0.699310  0.090777  0.367039  1
  N  N32  1  0.790426  0.053427  0.555614  1
  N  N33  1  0.209574  0.946573  0.444386  1
  N  N34  1  0.725649  0.608093  0.738942  1
  N  N35  1  0.265342  0.475666  0.005495  1
  N  N36  1  0.936141  0.775912  0.865639  1
  N  N37  1  0.734658  0.524334  0.994505  1
  N  N38  1  0.274351  0.391907  0.261058  1
  N  N39  1  0.501966  0.362305  0.614399  1
  N  N40  1  0.740689  0.792035  0.212655  1
  N  N41  1  0.259311  0.207965  0.787345  1
  N  N42  1  0.063859  0.224088  0.134361  1
  N  N43  1  0.300690  0.909223  0.632961  1
  N  N44  1  0.498034  0.637695  0.385601  1
  N  N45  1  0.867246  0.676228  0.447025  1
