# generated using pymatgen
data_Nd8Co3Si12Pt
_symmetry_space_group_name_H-M   'P 1'
_cell_length_a   8.14644900
_cell_length_b   8.14644980
_cell_length_c   8.49543500
_cell_angle_alpha   90.00000000
_cell_angle_beta   90.00000000
_cell_angle_gamma   119.99999268
_symmetry_Int_Tables_number   1
_chemical_formula_structural   Nd8Co3Si12Pt
_chemical_formula_sum   'Nd8 Co3 Si12 Pt1'
_cell_volume   488.26209911
_cell_formula_units_Z   1
loop_
 _symmetry_equiv_pos_site_id
 _symmetry_equiv_pos_as_xyz
  1  'x, y, z'
loop_
 _atom_site_type_symbol
 _atom_site_label
 _atom_site_symmetry_multiplicity
 _atom_site_fract_x
 _atom_site_fract_y
 _atom_site_fract_z
 _atom_site_occupancy
  Nd  Nd0  1  0.498279  0.501721  0.753483  1
  Nd  Nd1  1  0.498691  0.501309  0.247250  1
  Nd  Nd2  1  0.003440  0.501721  0.753483  1
  Nd  Nd3  1  0.002619  0.501309  0.247250  1
  Nd  Nd4  1  0.498279  0.996560  0.753483  1
  Nd  Nd5  1  0.498691  0.997381  0.247250  1
  Nd  Nd6  1  0.000000  0.000000  0.751502  1
  Nd  Nd7  1  0.000000  0.000000  0.248166  1
  Co  Co8  1  0.666667  0.333333  0.995829  1
  Co  Co9  1  0.333333  0.666667  0.004637  1
  Co  Co10  1  0.333333  0.666667  0.493773  1
  Si  Si11  1  0.828169  0.171831  0.001377  1
  Si  Si12  1  0.171117  0.828883  0.998819  1
  Si  Si13  1  0.343662  0.171831  0.001377  1
  Si  Si14  1  0.172781  0.827219  0.502655  1
  Si  Si15  1  0.657767  0.828883  0.998819  1
  Si  Si16  1  0.835974  0.164026  0.497259  1
  Si  Si17  1  0.828169  0.656338  0.001377  1
  Si  Si18  1  0.654438  0.827219  0.502655  1
  Si  Si19  1  0.171117  0.342233  0.998819  1
  Si  Si20  1  0.328051  0.164026  0.497259  1
  Si  Si21  1  0.172781  0.345562  0.502655  1
  Si  Si22  1  0.835974  0.671949  0.497259  1
  Pt  Pt23  1  0.666667  0.333333  0.503558  1
