# generated using pymatgen
data_Pr2Ho3TmTa2O14
_symmetry_space_group_name_H-M   'P 1'
_cell_length_a   6.49435814
_cell_length_b   6.49366050
_cell_length_c   7.59452703
_cell_angle_alpha   90.00137002
_cell_angle_beta   89.99040100
_cell_angle_gamma   109.15569158
_symmetry_Int_Tables_number   1
_chemical_formula_structural   Pr2Ho3TmTa2O14
_chemical_formula_sum   'Pr2 Ho3 Tm1 Ta2 O14'
_cell_volume   302.54394237
_cell_formula_units_Z   1
loop_
 _symmetry_equiv_pos_site_id
 _symmetry_equiv_pos_as_xyz
  1  'x, y, z'
loop_
 _atom_site_type_symbol
 _atom_site_label
 _atom_site_symmetry_multiplicity
 _atom_site_fract_x
 _atom_site_fract_y
 _atom_site_fract_z
 _atom_site_occupancy
  Pr  Pr0  1  0.510871  0.510091  0.499616  1
  Pr  Pr1  1  0.491960  0.492171  0.000523  1
  Ho  Ho2  1  0.999000  0.467234  0.746842  1
  Ho  Ho3  1  0.533140  0.001333  0.753313  1
  Ho  Ho4  1  0.466353  0.999031  0.253274  1
  Tm  Tm5  1  0.001556  0.532393  0.246773  1
  Ta  Ta6  1  0.001109  0.001411  0.499578  1
  Ta  Ta7  1  0.998916  0.999043  0.000608  1
  O  O8  1  0.936280  0.065518  0.750079  1
  O  O9  1  0.064908  0.933793  0.250027  1
  O  O10  1  0.352866  0.644440  0.250251  1
  O  O11  1  0.644837  0.355927  0.750050  1
  O  O12  1  0.361499  0.638058  0.749890  1
  O  O13  1  0.641474  0.363085  0.249671  1
  O  O14  1  0.322645  0.072334  0.970561  1
  O  O15  1  0.676802  0.927694  0.470951  1
  O  O16  1  0.317140  0.065092  0.536629  1
  O  O17  1  0.682129  0.934623  0.036287  1
  O  O18  1  0.060997  0.315730  0.460217  1
  O  O19  1  0.936846  0.682439  0.964678  1
  O  O20  1  0.929255  0.676629  0.527942  1
  O  O21  1  0.069416  0.321931  0.032240  1
