# generated using pymatgen
data_Dy3Tm2Tl3Zn
_symmetry_space_group_name_H-M   'P 1'
_cell_length_a   9.12712900
_cell_length_b   9.12730402
_cell_length_c   6.65284700
_cell_angle_alpha   90.00000000
_cell_angle_beta   90.00000000
_cell_angle_gamma   120.00071752
_symmetry_Int_Tables_number   1
_chemical_formula_structural   Dy3Tm2Tl3Zn
_chemical_formula_sum   'Dy6 Tm4 Tl6 Zn2'
_cell_volume   479.96739157
_cell_formula_units_Z   2
loop_
 _symmetry_equiv_pos_site_id
 _symmetry_equiv_pos_as_xyz
  1  'x, y, z'
loop_
 _atom_site_type_symbol
 _atom_site_label
 _atom_site_symmetry_multiplicity
 _atom_site_fract_x
 _atom_site_fract_y
 _atom_site_fract_z
 _atom_site_occupancy
  Dy  Dy0  1  0.275176  0.000000  0.750000  1
  Dy  Dy1  1  0.724824  0.000000  0.250000  1
  Dy  Dy2  1  0.000001  0.275176  0.750000  1
  Dy  Dy3  1  0.999999  0.724824  0.250000  1
  Dy  Dy4  1  0.724825  0.724825  0.750000  1
  Dy  Dy5  1  0.275175  0.275175  0.250000  1
  Tm  Tm6  1  0.333331  0.666668  0.500001  1
  Tm  Tm7  1  0.666669  0.333332  0.499999  1
  Tm  Tm8  1  0.666669  0.333332  0.000001  1
  Tm  Tm9  1  0.333331  0.666668  0.999999  1
  Tl  Tl10  1  0.621280  0.000003  0.750000  1
  Tl  Tl11  1  0.378720  0.999997  0.250000  1
  Tl  Tl12  1  0.000001  0.621277  0.750000  1
  Tl  Tl13  1  0.999999  0.378723  0.250000  1
  Tl  Tl14  1  0.378719  0.378721  0.750000  1
  Tl  Tl15  1  0.621281  0.621279  0.250000  1
  Zn  Zn16  1  0.000000  0.000000  0.500000  1
  Zn  Zn17  1  0.000000  0.000000  0.000000  1
