# generated using pymatgen
data_Sm2TcB8Ru
_symmetry_space_group_name_H-M   'P 1'
_cell_length_a   3.62866600
_cell_length_b   6.02206661
_cell_length_c   11.65450214
_cell_angle_alpha   89.82635148
_cell_angle_beta   90.00000000
_cell_angle_gamma   90.00000000
_symmetry_Int_Tables_number   1
_chemical_formula_structural   Sm2TcB8Ru
_chemical_formula_sum   'Sm4 Tc2 B16 Ru2'
_cell_volume   254.67380793
_cell_formula_units_Z   2
loop_
 _symmetry_equiv_pos_site_id
 _symmetry_equiv_pos_as_xyz
  1  'x, y, z'
loop_
 _atom_site_type_symbol
 _atom_site_label
 _atom_site_symmetry_multiplicity
 _atom_site_fract_x
 _atom_site_fract_y
 _atom_site_fract_z
 _atom_site_occupancy
  Sm  Sm0  1  0.500000  0.127030  0.149032  1
  Sm  Sm1  1  0.500000  0.872970  0.850968  1
  Sm  Sm2  1  0.500000  0.626669  0.348517  1
  Sm  Sm3  1  0.500000  0.373331  0.651483  1
  Tc  Tc4  1  0.500000  0.131229  0.412952  1
  Tc  Tc5  1  0.500000  0.868771  0.587048  1
  B  B6  1  0.000000  0.475709  0.190261  1
  B  B7  1  0.000000  0.524291  0.809739  1
  B  B8  1  0.000000  0.977534  0.308916  1
  B  B9  1  0.000000  0.022466  0.691084  1
  B  B10  1  0.000000  0.285587  0.315606  1
  B  B11  1  0.000000  0.714413  0.684394  1
  B  B12  1  0.000000  0.786820  0.183858  1
  B  B13  1  0.000000  0.213180  0.816142  1
  B  B14  1  0.000000  0.362202  0.468525  1
  B  B15  1  0.000000  0.637798  0.531475  1
  B  B16  1  0.000000  0.861545  0.031382  1
  B  B17  1  0.000000  0.138455  0.968618  1
  B  B18  1  0.000000  0.388534  0.045774  1
  B  B19  1  0.000000  0.611466  0.954226  1
  B  B20  1  0.000000  0.888406  0.453708  1
  B  B21  1  0.000000  0.111594  0.546292  1
  Ru  Ru22  1  0.500000  0.638276  0.091627  1
  Ru  Ru23  1  0.500000  0.361724  0.908373  1
