# generated using pymatgen
data_Er3Tm9InCo4Ni
_symmetry_space_group_name_H-M   'P 1'
_cell_length_a   8.17687412
_cell_length_b   8.17243523
_cell_length_c   8.17243586
_cell_angle_alpha   110.70405693
_cell_angle_beta   110.90879985
_cell_angle_gamma   106.81165775
_symmetry_Int_Tables_number   1
_chemical_formula_structural   Er3Tm9InCo4Ni
_chemical_formula_sum   'Er3 Tm9 In1 Co4 Ni1'
_cell_volume   419.84292566
_cell_formula_units_Z   1
loop_
 _symmetry_equiv_pos_site_id
 _symmetry_equiv_pos_as_xyz
  1  'x, y, z'
loop_
 _atom_site_type_symbol
 _atom_site_label
 _atom_site_symmetry_multiplicity
 _atom_site_fract_x
 _atom_site_fract_y
 _atom_site_fract_z
 _atom_site_occupancy
  Er  Er0  1  0.590742  0.786593  0.804149  1
  Er  Er1  1  0.017824  0.213134  0.804690  1
  Er  Er2  1  0.982855  0.786916  0.195939  1
  Tm  Tm3  1  0.186689  0.291308  0.477783  1
  Tm  Tm4  1  0.813166  0.708089  0.521551  1
  Tm  Tm5  1  0.186689  0.708906  0.895381  1
  Tm  Tm6  1  0.813166  0.291615  0.105077  1
  Tm  Tm7  1  0.315208  0.619067  0.304435  1
  Tm  Tm8  1  0.684969  0.380664  0.695412  1
  Tm  Tm9  1  0.315208  0.010773  0.696141  1
  Tm  Tm10  1  0.684969  0.989557  0.304306  1
  Tm  Tm11  1  0.408688  0.213010  0.195677  1
  In  In12  1  0.499854  0.499711  0.000143  1
  Co  Co13  1  0.113467  0.613166  0.500301  1
  Co  Co14  1  0.886710  0.386986  0.499724  1
  Co  Co15  1  0.377124  0.000121  0.377003  1
  Co  Co16  1  0.623114  0.999969  0.623144  1
  Ni  Ni17  1  0.999557  0.000415  0.999143  1
