# generated using pymatgen
data_Ca3Tb(Si3Pd5)4
_symmetry_space_group_name_H-M   'P 1'
_cell_length_a   4.03574800
_cell_length_b   19.75225329
_cell_length_c   7.31375272
_cell_angle_alpha   89.92985324
_cell_angle_beta   90.00000000
_cell_angle_gamma   90.00000000
_symmetry_Int_Tables_number   1
_chemical_formula_structural   Ca3Tb(Si3Pd5)4
_chemical_formula_sum   'Ca3 Tb1 Si12 Pd20'
_cell_volume   583.01621503
_cell_formula_units_Z   1
loop_
 _symmetry_equiv_pos_site_id
 _symmetry_equiv_pos_as_xyz
  1  'x, y, z'
loop_
 _atom_site_type_symbol
 _atom_site_label
 _atom_site_symmetry_multiplicity
 _atom_site_fract_x
 _atom_site_fract_y
 _atom_site_fract_z
 _atom_site_occupancy
  Ca  Ca0  1  0.750000  0.643003  0.122329  1
  Ca  Ca1  1  0.250000  0.356497  0.877793  1
  Ca  Ca2  1  0.250000  0.857292  0.622236  1
  Tb  Tb3  1  0.750000  0.143732  0.377416  1
  Si  Si4  1  0.750000  0.739352  0.628158  1
  Si  Si5  1  0.250000  0.259769  0.371358  1
  Si  Si6  1  0.250000  0.760777  0.128227  1
  Si  Si7  1  0.750000  0.239300  0.872003  1
  Si  Si8  1  0.750000  0.923691  0.348253  1
  Si  Si9  1  0.250000  0.076678  0.649096  1
  Si  Si10  1  0.250000  0.576477  0.848479  1
  Si  Si11  1  0.750000  0.423461  0.151841  1
  Si  Si12  1  0.750000  0.916177  0.908464  1
  Si  Si13  1  0.250000  0.084237  0.096166  1
  Si  Si14  1  0.250000  0.583868  0.407639  1
  Si  Si15  1  0.750000  0.415801  0.591441  1
  Pd  Pd16  1  0.750000  0.799597  0.326881  1
  Pd  Pd17  1  0.250000  0.199472  0.671186  1
  Pd  Pd18  1  0.250000  0.700106  0.827136  1
  Pd  Pd19  1  0.750000  0.299678  0.172934  1
  Pd  Pd20  1  0.750000  0.992820  0.626013  1
  Pd  Pd21  1  0.250000  0.007831  0.374089  1
  Pd  Pd22  1  0.250000  0.506915  0.125868  1
  Pd  Pd23  1  0.750000  0.493171  0.873924  1
  Pd  Pd24  1  0.750000  0.512576  0.377226  1
  Pd  Pd25  1  0.250000  0.487317  0.622789  1
  Pd  Pd26  1  0.250000  0.987923  0.877025  1
  Pd  Pd27  1  0.750000  0.012729  0.122471  1
  Pd  Pd28  1  0.750000  0.796416  0.931937  1
  Pd  Pd29  1  0.250000  0.203577  0.069209  1
  Pd  Pd30  1  0.250000  0.703777  0.432665  1
  Pd  Pd31  1  0.750000  0.296233  0.569435  1
  Pd  Pd32  1  0.750000  0.616585  0.642652  1
  Pd  Pd33  1  0.250000  0.383250  0.356609  1
  Pd  Pd34  1  0.250000  0.883602  0.143500  1
  Pd  Pd35  1  0.750000  0.116308  0.855553  1
