# generated using pymatgen
data_NdSi4(PdRh)3
_symmetry_space_group_name_H-M   'P 1'
_cell_length_a   7.15045200
_cell_length_b   7.15045056
_cell_length_c   3.82635400
_cell_angle_alpha   90.00000000
_cell_angle_beta   90.00000000
_cell_angle_gamma   119.99999739
_symmetry_Int_Tables_number   1
_chemical_formula_structural   NdSi4(PdRh)3
_chemical_formula_sum   'Nd1 Si4 Pd3 Rh3'
_cell_volume   169.42702851
_cell_formula_units_Z   1
loop_
 _symmetry_equiv_pos_site_id
 _symmetry_equiv_pos_as_xyz
  1  'x, y, z'
loop_
 _atom_site_type_symbol
 _atom_site_label
 _atom_site_symmetry_multiplicity
 _atom_site_fract_x
 _atom_site_fract_y
 _atom_site_fract_z
 _atom_site_occupancy
  Nd  Nd0  1  0.000000  0.000000  0.000000  1
  Si  Si1  1  0.333334  0.666667  0.000000  1
  Si  Si2  1  0.406677  0.203338  0.500000  1
  Si  Si3  1  0.796663  0.203338  0.500000  1
  Si  Si4  1  0.796663  0.593324  0.500000  1
  Pd  Pd5  1  0.198180  0.396359  0.500000  1
  Pd  Pd6  1  0.198179  0.801820  0.500000  1
  Pd  Pd7  1  0.603641  0.801820  0.500000  1
  Rh  Rh8  1  0.533911  0.067821  0.000000  1
  Rh  Rh9  1  0.533910  0.466090  0.000000  1
  Rh  Rh10  1  0.932179  0.466090  0.000000  1
