# generated using pymatgen
data_Ti2PS10
_symmetry_space_group_name_H-M   'P 1'
_cell_length_a   7.20199600
_cell_length_b   12.80458900
_cell_length_c   13.78096100
_cell_angle_alpha   90.00000000
_cell_angle_beta   90.00000000
_cell_angle_gamma   90.00000000
_symmetry_Int_Tables_number   1
_chemical_formula_structural   Ti2PS10
_chemical_formula_sum   'Ti8 P4 S40'
_cell_volume   1270.86091298
_cell_formula_units_Z   4
loop_
 _symmetry_equiv_pos_site_id
 _symmetry_equiv_pos_as_xyz
  1  'x, y, z'
loop_
 _atom_site_type_symbol
 _atom_site_label
 _atom_site_symmetry_multiplicity
 _atom_site_fract_x
 _atom_site_fract_y
 _atom_site_fract_z
 _atom_site_occupancy
  Ti  Ti0  1  0.928071  0.925950  0.257986  1
  Ti  Ti1  1  0.922441  0.199769  0.252348  1
  Ti  Ti2  1  0.071929  0.574050  0.757986  1
  Ti  Ti3  1  0.071929  0.425950  0.242014  1
  Ti  Ti4  1  0.077559  0.300231  0.752348  1
  Ti  Ti5  1  0.922441  0.800231  0.747652  1
  Ti  Ti6  1  0.928071  0.074050  0.742014  1
  Ti  Ti7  1  0.077559  0.699769  0.247652  1
  P  P8  1  0.611511  0.059139  0.154442  1
  P  P9  1  0.388489  0.440861  0.654442  1
  P  P10  1  0.388489  0.559139  0.345558  1
  P  P11  1  0.611511  0.940861  0.845558  1
  S  S12  1  0.821845  0.355124  0.346701  1
  S  S13  1  0.862194  0.565133  0.179585  1
  S  S14  1  0.125781  0.565278  0.122311  1
  S  S15  1  0.874219  0.065278  0.377689  1
  S  S16  1  0.562577  0.426288  0.530441  1
  S  S17  1  0.830521  0.228507  0.645247  1
  S  S18  1  0.830521  0.771493  0.354753  1
  S  S19  1  0.137806  0.065133  0.320415  1
  S  S20  1  0.566738  0.806100  0.774201  1
  S  S21  1  0.574115  0.073624  0.770821  1
  S  S22  1  0.862194  0.434867  0.820415  1
  S  S23  1  0.893136  0.060598  0.122942  1
  S  S24  1  0.893136  0.939402  0.877058  1
  S  S25  1  0.106864  0.439402  0.622942  1
  S  S26  1  0.106864  0.560598  0.377058  1
  S  S27  1  0.437423  0.926288  0.969559  1
  S  S28  1  0.821845  0.644876  0.653299  1
  S  S29  1  0.169479  0.271493  0.145247  1
  S  S30  1  0.874219  0.934722  0.622311  1
  S  S31  1  0.433262  0.693900  0.274201  1
  S  S32  1  0.082708  0.300698  0.378782  1
  S  S33  1  0.917292  0.800698  0.121218  1
  S  S34  1  0.433262  0.306100  0.725799  1
  S  S35  1  0.907948  0.326753  0.115414  1
  S  S36  1  0.574115  0.926376  0.229179  1
  S  S37  1  0.425885  0.573624  0.729179  1
  S  S38  1  0.437423  0.073712  0.030441  1
  S  S39  1  0.125781  0.434722  0.877689  1
  S  S40  1  0.907948  0.673247  0.884586  1
  S  S41  1  0.169479  0.728507  0.854753  1
  S  S42  1  0.092052  0.173247  0.615414  1
  S  S43  1  0.425885  0.426376  0.270821  1
  S  S44  1  0.082708  0.699302  0.621218  1
  S  S45  1  0.562577  0.573712  0.469559  1
  S  S46  1  0.137806  0.934867  0.679585  1
  S  S47  1  0.178155  0.855124  0.153299  1
  S  S48  1  0.092052  0.826753  0.384586  1
  S  S49  1  0.566738  0.193900  0.225799  1
  S  S50  1  0.178155  0.144876  0.846701  1
  S  S51  1  0.917292  0.199302  0.878782  1
