# generated using pymatgen
data_Tm4Lu4Mn(B8Os)3
_symmetry_space_group_name_H-M   'P 1'
_cell_length_a   3.58260800
_cell_length_b   9.02948099
_cell_length_c   11.40541701
_cell_angle_alpha   90.03634675
_cell_angle_beta   90.00000000
_cell_angle_gamma   90.00000000
_symmetry_Int_Tables_number   1
_chemical_formula_structural   Tm4Lu4Mn(B8Os)3
_chemical_formula_sum   'Tm4 Lu4 Mn1 B24 Os3'
_cell_volume   368.95479651
_cell_formula_units_Z   1
loop_
 _symmetry_equiv_pos_site_id
 _symmetry_equiv_pos_as_xyz
  1  'x, y, z'
loop_
 _atom_site_type_symbol
 _atom_site_label
 _atom_site_symmetry_multiplicity
 _atom_site_fract_x
 _atom_site_fract_y
 _atom_site_fract_z
 _atom_site_occupancy
  Tm  Tm0  1  0.000000  0.324889  0.412264  1
  Tm  Tm1  1  0.000000  0.677629  0.581895  1
  Tm  Tm2  1  0.000000  0.818566  0.088986  1
  Tm  Tm3  1  0.000000  0.179576  0.915158  1
  Lu  Lu4  1  0.000000  0.939706  0.371737  1
  Lu  Lu5  1  0.000000  0.056323  0.626830  1
  Lu  Lu6  1  0.000000  0.446638  0.130134  1
  Lu  Lu7  1  0.000000  0.556447  0.873041  1
  Mn  Mn8  1  0.000000  0.637604  0.320700  1
  B  B9  1  0.500000  0.553842  0.431836  1
  B  B10  1  0.500000  0.447167  0.565703  1
  B  B11  1  0.500000  0.053350  0.066760  1
  B  B12  1  0.500000  0.947060  0.933798  1
  B  B13  1  0.500000  0.746627  0.418000  1
  B  B14  1  0.500000  0.251182  0.579226  1
  B  B15  1  0.500000  0.250034  0.080502  1
  B  B16  1  0.500000  0.751096  0.920611  1
  B  B17  1  0.500000  0.789599  0.266446  1
  B  B18  1  0.500000  0.208377  0.733985  1
  B  B19  1  0.500000  0.292399  0.234780  1
  B  B20  1  0.500000  0.708475  0.765603  1
  B  B21  1  0.500000  0.630563  0.186546  1
  B  B22  1  0.500000  0.369702  0.815720  1
  B  B23  1  0.500000  0.130033  0.315281  1
  B  B24  1  0.500000  0.869233  0.684059  1
  B  B25  1  0.500000  0.980397  0.213068  1
  B  B26  1  0.500000  0.018897  0.787035  1
  B  B27  1  0.500000  0.483945  0.288061  1
  B  B28  1  0.500000  0.518823  0.712616  1
  B  B29  1  0.500000  0.605591  0.029758  1
  B  B30  1  0.500000  0.395266  0.971487  1
  B  B31  1  0.500000  0.104294  0.470472  1
  B  B32  1  0.500000  0.894412  0.528530  1
  Os  Os33  1  0.000000  0.361977  0.679611  1
  Os  Os34  1  0.000000  0.137679  0.179164  1
  Os  Os35  1  0.000000  0.862603  0.820597  1
