# generated using pymatgen
data_MgNp2Co6(B2Ir)3
_symmetry_space_group_name_H-M   'P 1'
_cell_length_a   5.92078484
_cell_length_b   5.92078466
_cell_length_c   5.92078427
_cell_angle_alpha   96.13255404
_cell_angle_beta   96.13255539
_cell_angle_gamma   96.13256335
_symmetry_Int_Tables_number   1
_chemical_formula_structural   MgNp2Co6(B2Ir)3
_chemical_formula_sum   'Mg1 Np2 Co6 B6 Ir3'
_cell_volume   203.71548256
_cell_formula_units_Z   1
loop_
 _symmetry_equiv_pos_site_id
 _symmetry_equiv_pos_as_xyz
  1  'x, y, z'
loop_
 _atom_site_type_symbol
 _atom_site_label
 _atom_site_symmetry_multiplicity
 _atom_site_fract_x
 _atom_site_fract_y
 _atom_site_fract_z
 _atom_site_occupancy
  Mg  Mg0  1  0.000000  0.000000  0.000000  1
  Np  Np1  1  0.657300  0.657300  0.657300  1
  Np  Np2  1  0.342700  0.342700  0.342700  1
  Co  Co3  1  0.691620  0.203952  0.691620  1
  Co  Co4  1  0.691620  0.691620  0.203952  1
  Co  Co5  1  0.203952  0.691620  0.691620  1
  Co  Co6  1  0.308380  0.796048  0.308380  1
  Co  Co7  1  0.308380  0.308380  0.796048  1
  Co  Co8  1  0.796048  0.308380  0.308380  1
  B  B9  1  0.620635  0.379365  0.000000  1
  B  B10  1  0.000000  0.620635  0.379365  1
  B  B11  1  0.379365  0.000000  0.620635  1
  B  B12  1  0.000000  0.379365  0.620635  1
  B  B13  1  0.620635  0.000000  0.379365  1
  B  B14  1  0.379365  0.620635  0.000000  1
  Ir  Ir15  1  0.000000  0.000000  0.500000  1
  Ir  Ir16  1  0.500000  0.000000  0.000000  1
  Ir  Ir17  1  0.000000  0.500000  0.000000  1
