# generated using pymatgen
data_TlAgBr4
_symmetry_space_group_name_H-M   'P 1'
_cell_length_a   8.41935939
_cell_length_b   7.53975618
_cell_length_c   16.16837238
_cell_angle_alpha   90.86474418
_cell_angle_beta   90.02561989
_cell_angle_gamma   89.98177180
_symmetry_Int_Tables_number   1
_chemical_formula_structural   TlAgBr4
_chemical_formula_sum   'Tl4 Ag4 Br16'
_cell_volume   1026.24989026
_cell_formula_units_Z   4
loop_
 _symmetry_equiv_pos_site_id
 _symmetry_equiv_pos_as_xyz
  1  'x, y, z'
loop_
 _atom_site_type_symbol
 _atom_site_label
 _atom_site_symmetry_multiplicity
 _atom_site_fract_x
 _atom_site_fract_y
 _atom_site_fract_z
 _atom_site_occupancy
  Tl  Tl0  1  0.183345  0.690515  0.602098  1
  Tl  Tl1  1  0.816655  0.309485  0.397902  1
  Tl  Tl2  1  0.683799  0.309579  0.897965  1
  Tl  Tl3  1  0.316201  0.690421  0.102035  1
  Ag  Ag4  1  0.407196  0.817698  0.853941  1
  Ag  Ag5  1  0.592804  0.182302  0.146059  1
  Ag  Ag6  1  0.907135  0.182268  0.646106  1
  Ag  Ag7  1  0.092865  0.817732  0.353894  1
  Br  Br8  1  0.178467  0.374780  0.669626  1
  Br  Br9  1  0.821533  0.625220  0.330374  1
  Br  Br10  1  0.678538  0.625408  0.830330  1
  Br  Br11  1  0.321462  0.374592  0.169670  1
  Br  Br12  1  0.363746  0.905544  0.691592  1
  Br  Br13  1  0.636254  0.094456  0.308408  1
  Br  Br14  1  0.864347  0.094461  0.808444  1
  Br  Br15  1  0.135653  0.905539  0.191556  1
  Br  Br16  1  0.190950  0.663442  0.951092  1
  Br  Br17  1  0.809050  0.336558  0.048908  1
  Br  Br18  1  0.691265  0.336931  0.548678  1
  Br  Br19  1  0.308735  0.663069  0.451322  1
  Br  Br20  1  0.899156  0.835190  0.589688  1
  Br  Br21  1  0.100844  0.164810  0.410312  1
  Br  Br22  1  0.399669  0.164816  0.910280  1
  Br  Br23  1  0.600331  0.835184  0.089720  1
