# generated using pymatgen
data_Sc8CoBi4Ir
_symmetry_space_group_name_H-M   'P 1'
_cell_length_a   8.31506733
_cell_length_b   8.31509266
_cell_length_c   8.31506731
_cell_angle_alpha   96.23281531
_cell_angle_beta   96.23340713
_cell_angle_gamma   141.52220694
_symmetry_Int_Tables_number   1
_chemical_formula_structural   Sc8CoBi4Ir
_chemical_formula_sum   'Sc8 Co1 Bi4 Ir1'
_cell_volume   337.73769770
_cell_formula_units_Z   1
loop_
 _symmetry_equiv_pos_site_id
 _symmetry_equiv_pos_as_xyz
  1  'x, y, z'
loop_
 _atom_site_type_symbol
 _atom_site_label
 _atom_site_symmetry_multiplicity
 _atom_site_fract_x
 _atom_site_fract_y
 _atom_site_fract_z
 _atom_site_occupancy
  Sc  Sc0  1  0.698700  0.584561  0.275751  1
  Sc  Sc1  1  0.584563  0.308813  0.885862  1
  Sc  Sc2  1  0.077050  0.191187  0.275750  1
  Sc  Sc3  1  0.915440  0.801303  0.724251  1
  Sc  Sc4  1  0.191190  0.915439  0.114139  1
  Sc  Sc5  1  0.801301  0.077051  0.885861  1
  Sc  Sc6  1  0.308809  0.422949  0.724250  1
  Sc  Sc7  1  0.422948  0.698697  0.114137  1
  Co  Co8  1  0.750000  0.750000  0.000000  1
  Bi  Bi9  1  0.139511  0.639511  0.779024  1
  Bi  Bi10  1  0.360488  0.139511  0.500000  1
  Bi  Bi11  1  0.639511  0.860489  0.500000  1
  Bi  Bi12  1  0.860489  0.360489  0.220975  1
  Ir  Ir13  1  0.250000  0.250000  0.000000  1
