# generated using pymatgen
data_SmEr2(Co3P2)3
_symmetry_space_group_name_H-M   'P 1'
_cell_length_a   3.68824100
_cell_length_b   10.48846800
_cell_length_c   12.16067900
_cell_angle_alpha   90.00000000
_cell_angle_beta   90.00000000
_cell_angle_gamma   90.00000000
_symmetry_Int_Tables_number   1
_chemical_formula_structural   SmEr2(Co3P2)3
_chemical_formula_sum   'Sm2 Er4 Co18 P12'
_cell_volume   470.42367852
_cell_formula_units_Z   2
loop_
 _symmetry_equiv_pos_site_id
 _symmetry_equiv_pos_as_xyz
  1  'x, y, z'
loop_
 _atom_site_type_symbol
 _atom_site_label
 _atom_site_symmetry_multiplicity
 _atom_site_fract_x
 _atom_site_fract_y
 _atom_site_fract_z
 _atom_site_occupancy
  Sm  Sm0  1  0.000000  0.500000  0.522149  1
  Sm  Sm1  1  0.500000  0.000000  0.477851  1
  Er  Er2  1  0.500000  0.817566  0.205186  1
  Er  Er3  1  0.500000  0.182434  0.205186  1
  Er  Er4  1  0.000000  0.682434  0.794814  1
  Er  Er5  1  0.000000  0.317566  0.794814  1
  Co  Co6  1  0.500000  0.500000  0.157314  1
  Co  Co7  1  0.000000  0.000000  0.842686  1
  Co  Co8  1  0.500000  0.500000  0.705613  1
  Co  Co9  1  0.000000  0.000000  0.294387  1
  Co  Co10  1  0.000000  0.500000  0.986184  1
  Co  Co11  1  0.500000  0.000000  0.013816  1
  Co  Co12  1  0.500000  0.333211  0.994752  1
  Co  Co13  1  0.500000  0.666789  0.994752  1
  Co  Co14  1  0.000000  0.166789  0.005248  1
  Co  Co15  1  0.000000  0.833211  0.005248  1
  Co  Co16  1  0.500000  0.297010  0.429387  1
  Co  Co17  1  0.500000  0.702990  0.429387  1
  Co  Co18  1  0.000000  0.202990  0.570613  1
  Co  Co19  1  0.000000  0.797010  0.570613  1
  Co  Co20  1  0.500000  0.879096  0.711804  1
  Co  Co21  1  0.500000  0.120904  0.711804  1
  Co  Co22  1  0.000000  0.620904  0.288196  1
  Co  Co23  1  0.000000  0.379096  0.288196  1
  P  P24  1  0.500000  0.500000  0.883040  1
  P  P25  1  0.000000  0.000000  0.116960  1
  P  P26  1  0.500000  0.500000  0.341338  1
  P  P27  1  0.000000  0.000000  0.658662  1
  P  P28  1  0.500000  0.308951  0.617390  1
  P  P29  1  0.500000  0.691049  0.617390  1
  P  P30  1  0.000000  0.191049  0.382610  1
  P  P31  1  0.000000  0.808951  0.382610  1
  P  P32  1  0.500000  0.846668  0.893461  1
  P  P33  1  0.500000  0.153332  0.893461  1
  P  P34  1  0.000000  0.653332  0.106539  1
  P  P35  1  0.000000  0.346668  0.106539  1
