# generated using pymatgen
data_Y3Er5(FeB6)4
_symmetry_space_group_name_H-M   'P 1'
_cell_length_a   3.53218700
_cell_length_b   9.06511703
_cell_length_c   11.42916400
_cell_angle_alpha   89.99479689
_cell_angle_beta   90.00000000
_cell_angle_gamma   90.00000000
_symmetry_Int_Tables_number   1
_chemical_formula_structural   Y3Er5(FeB6)4
_chemical_formula_sum   'Y3 Er5 Fe4 B24'
_cell_volume   365.95826977
_cell_formula_units_Z   1
loop_
 _symmetry_equiv_pos_site_id
 _symmetry_equiv_pos_as_xyz
  1  'x, y, z'
loop_
 _atom_site_type_symbol
 _atom_site_label
 _atom_site_symmetry_multiplicity
 _atom_site_fract_x
 _atom_site_fract_y
 _atom_site_fract_z
 _atom_site_occupancy
  Y  Y0  1  0.000000  0.323479  0.414535  1
  Y  Y1  1  0.000000  0.676456  0.585630  1
  Y  Y2  1  0.000000  0.823656  0.085396  1
  Er  Er3  1  0.000000  0.176395  0.914520  1
  Er  Er4  1  0.000000  0.942897  0.370256  1
  Er  Er5  1  0.000000  0.057294  0.629900  1
  Er  Er6  1  0.000000  0.442634  0.129275  1
  Er  Er7  1  0.000000  0.557060  0.870447  1
  Fe  Fe8  1  0.000000  0.638279  0.320416  1
  Fe  Fe9  1  0.000000  0.361172  0.680063  1
  Fe  Fe10  1  0.000000  0.138274  0.178931  1
  Fe  Fe11  1  0.000000  0.862303  0.820670  1
  B  B12  1  0.500000  0.554362  0.431777  1
  B  B13  1  0.500000  0.445366  0.568482  1
  B  B14  1  0.500000  0.054693  0.067586  1
  B  B15  1  0.500000  0.946278  0.931831  1
  B  B16  1  0.500000  0.746838  0.418094  1
  B  B17  1  0.500000  0.253143  0.582273  1
  B  B18  1  0.500000  0.246631  0.081094  1
  B  B19  1  0.500000  0.753549  0.918081  1
  B  B20  1  0.500000  0.788931  0.266322  1
  B  B21  1  0.500000  0.210748  0.734249  1
  B  B22  1  0.500000  0.288770  0.233166  1
  B  B23  1  0.500000  0.711335  0.766585  1
  B  B24  1  0.500000  0.631392  0.185697  1
  B  B25  1  0.500000  0.367974  0.814715  1
  B  B26  1  0.500000  0.131494  0.314014  1
  B  B27  1  0.500000  0.868863  0.686012  1
  B  B28  1  0.500000  0.986022  0.211544  1
  B  B29  1  0.500000  0.014924  0.788531  1
  B  B30  1  0.500000  0.485709  0.288007  1
  B  B31  1  0.500000  0.513744  0.712096  1
  B  B32  1  0.500000  0.607834  0.029492  1
  B  B33  1  0.500000  0.391312  0.970127  1
  B  B34  1  0.500000  0.107434  0.470604  1
  B  B35  1  0.500000  0.892748  0.529582  1
