# generated using pymatgen
data_Tb2Y2Al17Co6Si
_symmetry_space_group_name_H-M   'P 1'
_cell_length_a   7.37980302
_cell_length_b   7.37980353
_cell_length_c   9.27213400
_cell_angle_alpha   90.00000000
_cell_angle_beta   90.00000000
_cell_angle_gamma   119.25656401
_symmetry_Int_Tables_number   1
_chemical_formula_structural   Tb2Y2Al17Co6Si
_chemical_formula_sum   'Tb2 Y2 Al17 Co6 Si1'
_cell_volume   440.55978290
_cell_formula_units_Z   1
loop_
 _symmetry_equiv_pos_site_id
 _symmetry_equiv_pos_as_xyz
  1  'x, y, z'
loop_
 _atom_site_type_symbol
 _atom_site_label
 _atom_site_symmetry_multiplicity
 _atom_site_fract_x
 _atom_site_fract_y
 _atom_site_fract_z
 _atom_site_occupancy
  Tb  Tb0  1  0.992592  0.677463  0.250000  1
  Tb  Tb1  1  0.677463  0.992592  0.250000  1
  Y  Y2  1  0.005803  0.328593  0.750000  1
  Y  Y3  1  0.328593  0.005803  0.750000  1
  Al  Al4  1  0.876449  0.876449  0.750000  1
  Al  Al5  1  0.331389  0.331389  0.545724  1
  Al  Al6  1  0.664869  0.664869  0.040553  1
  Al  Al7  1  0.331389  0.331389  0.954276  1
  Al  Al8  1  0.664869  0.664869  0.459447  1
  Al  Al9  1  0.336212  0.553877  0.250000  1
  Al  Al10  1  0.661296  0.446177  0.750000  1
  Al  Al11  1  0.553877  0.336212  0.250000  1
  Al  Al12  1  0.446177  0.661296  0.750000  1
  Al  Al13  1  0.999234  0.337273  0.073324  1
  Al  Al14  1  0.001867  0.665222  0.571118  1
  Al  Al15  1  0.337273  0.999234  0.426676  1
  Al  Al16  1  0.665222  0.001867  0.928882  1
  Al  Al17  1  0.001867  0.665222  0.928882  1
  Al  Al18  1  0.999234  0.337273  0.426676  1
  Al  Al19  1  0.665222  0.001867  0.571118  1
  Al  Al20  1  0.337273  0.999234  0.073324  1
  Co  Co21  1  0.000866  0.000866  0.008506  1
  Co  Co22  1  0.000866  0.000866  0.491494  1
  Co  Co23  1  0.669325  0.327750  0.000555  1
  Co  Co24  1  0.327750  0.669325  0.499445  1
  Co  Co25  1  0.327750  0.669325  0.000555  1
  Co  Co26  1  0.669325  0.327750  0.499445  1
  Si  Si27  1  0.125949  0.125949  0.250000  1
