# generated using pymatgen
data_Li2Gd3AlPt3
_symmetry_space_group_name_H-M   'P 1'
_cell_length_a   7.41547400
_cell_length_b   7.26733925
_cell_length_c   4.00636500
_cell_angle_alpha   90.00000000
_cell_angle_beta   90.00000000
_cell_angle_gamma   119.34134824
_symmetry_Int_Tables_number   1
_chemical_formula_structural   Li2Gd3AlPt3
_chemical_formula_sum   'Li2 Gd3 Al1 Pt3'
_cell_volume   188.20875394
_cell_formula_units_Z   1
loop_
 _symmetry_equiv_pos_site_id
 _symmetry_equiv_pos_as_xyz
  1  'x, y, z'
loop_
 _atom_site_type_symbol
 _atom_site_label
 _atom_site_symmetry_multiplicity
 _atom_site_fract_x
 _atom_site_fract_y
 _atom_site_fract_z
 _atom_site_occupancy
  Li  Li0  1  0.766103  0.765121  0.500000  1
  Li  Li1  1  0.233897  0.999017  0.500000  1
  Gd  Gd2  1  0.408457  0.407950  0.000000  1
  Gd  Gd3  1  0.591543  0.999492  0.000000  1
  Gd  Gd4  1  0.000000  0.587819  0.000000  1
  Al  Al5  1  0.000000  0.239344  0.500000  1
  Pt  Pt6  1  0.319654  0.648879  0.500000  1
  Pt  Pt7  1  0.000000  0.023158  0.000000  1
  Pt  Pt8  1  0.680346  0.329221  0.500000  1
