# generated using pymatgen
data_Nd8Y12Si15As
_symmetry_space_group_name_H-M   'P 1'
_cell_length_a   7.77653183
_cell_length_b   7.80726022
_cell_length_c   14.39608279
_cell_angle_alpha   89.38450247
_cell_angle_beta   90.21524102
_cell_angle_gamma   90.17962014
_symmetry_Int_Tables_number   1
_chemical_formula_structural   Nd8Y12Si15As
_chemical_formula_sum   'Nd8 Y12 Si15 As1'
_cell_volume   873.97445844
_cell_formula_units_Z   1
loop_
 _symmetry_equiv_pos_site_id
 _symmetry_equiv_pos_as_xyz
  1  'x, y, z'
loop_
 _atom_site_type_symbol
 _atom_site_label
 _atom_site_symmetry_multiplicity
 _atom_site_fract_x
 _atom_site_fract_y
 _atom_site_fract_z
 _atom_site_occupancy
  Nd  Nd0  1  0.635976  0.989216  0.457786  1
  Nd  Nd1  1  0.363293  0.006294  0.956139  1
  Nd  Nd2  1  0.995596  0.639499  0.542200  1
  Nd  Nd3  1  0.490846  0.856698  0.209147  1
  Nd  Nd4  1  0.512389  0.148892  0.711370  1
  Nd  Nd5  1  0.861426  0.494249  0.793013  1
  Nd  Nd6  1  0.135044  0.501629  0.289769  1
  Nd  Nd7  1  0.007407  0.359742  0.042848  1
  Y  Y8  1  0.489394  0.360389  0.123796  1
  Y  Y9  1  0.988673  0.143017  0.628804  1
  Y  Y10  1  0.861307  0.010930  0.874427  1
  Y  Y11  1  0.140940  0.983158  0.377861  1
  Y  Y12  1  0.505285  0.643702  0.619516  1
  Y  Y13  1  0.360700  0.491832  0.876410  1
  Y  Y14  1  0.643989  0.504485  0.374408  1
  Y  Y15  1  0.009860  0.862967  0.125742  1
  Y  Y16  1  0.314753  0.322312  0.498232  1
  Y  Y17  1  0.184323  0.819415  0.752219  1
  Y  Y18  1  0.815512  0.179137  0.250861  1
  Y  Y19  1  0.684214  0.683228  0.999225  1
  Si  Si20  1  0.710513  0.065032  0.061154  1
  Si  Si21  1  0.934815  0.284556  0.440149  1
  Si  Si22  1  0.436075  0.202550  0.311280  1
  Si  Si23  1  0.565017  0.790060  0.809379  1
  Si  Si24  1  0.209811  0.441658  0.688171  1
  Si  Si25  1  0.787015  0.565027  0.187543  1
  Si  Si26  1  0.064151  0.710183  0.939560  1
  Si  Si27  1  0.796561  0.845320  0.688454  1
  Si  Si28  1  0.203798  0.152320  0.192348  1
  Si  Si29  1  0.845218  0.797837  0.310062  1
  Si  Si30  1  0.348834  0.685857  0.425325  1
  Si  Si31  1  0.654441  0.297501  0.940012  1
  Si  Si32  1  0.700874  0.345464  0.560126  1
  Si  Si33  1  0.295602  0.654940  0.059584  1
  Si  Si34  1  0.154572  0.204890  0.812410  1
  As  As35  1  0.291777  0.956016  0.570670  1
