# generated using pymatgen
data_Ce2Pr2Al4Ir3Rh
_symmetry_space_group_name_H-M   'P 1'
_cell_length_a   4.23636500
_cell_length_b   7.09155306
_cell_length_c   16.26861115
_cell_angle_alpha   90.01482195
_cell_angle_beta   90.00000000
_cell_angle_gamma   90.00000000
_symmetry_Int_Tables_number   1
_chemical_formula_structural   Ce2Pr2Al4Ir3Rh
_chemical_formula_sum   'Ce4 Pr4 Al8 Ir6 Rh2'
_cell_volume   488.74822360
_cell_formula_units_Z   2
loop_
 _symmetry_equiv_pos_site_id
 _symmetry_equiv_pos_as_xyz
  1  'x, y, z'
loop_
 _atom_site_type_symbol
 _atom_site_label
 _atom_site_symmetry_multiplicity
 _atom_site_fract_x
 _atom_site_fract_y
 _atom_site_fract_z
 _atom_site_occupancy
  Ce  Ce0  1  0.250000  0.028184  0.779285  1
  Ce  Ce1  1  0.750000  0.971816  0.220715  1
  Ce  Ce2  1  0.250000  0.528529  0.721022  1
  Ce  Ce3  1  0.750000  0.471471  0.278978  1
  Pr  Pr4  1  0.250000  0.154514  0.561283  1
  Pr  Pr5  1  0.750000  0.845486  0.438717  1
  Pr  Pr6  1  0.250000  0.655851  0.939113  1
  Pr  Pr7  1  0.750000  0.344149  0.060887  1
  Al  Al8  1  0.250000  0.150717  0.350043  1
  Al  Al9  1  0.750000  0.849283  0.649957  1
  Al  Al10  1  0.250000  0.647132  0.149117  1
  Al  Al11  1  0.750000  0.352868  0.850883  1
  Al  Al12  1  0.250000  0.006310  0.062766  1
  Al  Al13  1  0.750000  0.993690  0.937234  1
  Al  Al14  1  0.250000  0.505584  0.438175  1
  Al  Al15  1  0.750000  0.494416  0.561825  1
  Ir  Ir16  1  0.750000  0.283487  0.426059  1
  Ir  Ir17  1  0.250000  0.716513  0.573941  1
  Ir  Ir18  1  0.750000  0.784702  0.074338  1
  Ir  Ir19  1  0.250000  0.215298  0.925662  1
  Ir  Ir20  1  0.750000  0.744339  0.809254  1
  Ir  Ir21  1  0.250000  0.255661  0.190746  1
  Rh  Rh22  1  0.750000  0.245976  0.689957  1
  Rh  Rh23  1  0.250000  0.754024  0.310043  1
