# generated using pymatgen
data_La4Nd12CdHg3Pd4
_symmetry_space_group_name_H-M   'P 1'
_cell_length_a   10.04595128
_cell_length_b   10.06516868
_cell_length_c   10.06517000
_cell_angle_alpha   60.00000225
_cell_angle_beta   59.93670216
_cell_angle_gamma   59.93670259
_symmetry_Int_Tables_number   1
_chemical_formula_structural   La4Nd12CdHg3Pd4
_chemical_formula_sum   'La4 Nd12 Cd1 Hg3 Pd4'
_cell_volume   718.95561142
_cell_formula_units_Z   1
loop_
 _symmetry_equiv_pos_site_id
 _symmetry_equiv_pos_as_xyz
  1  'x, y, z'
loop_
 _atom_site_type_symbol
 _atom_site_label
 _atom_site_symmetry_multiplicity
 _atom_site_fract_x
 _atom_site_fract_y
 _atom_site_fract_z
 _atom_site_occupancy
  La  La0  1  0.355038  0.352554  0.352554  1
  La  La1  1  0.355038  0.352554  0.939856  1
  La  La2  1  0.355038  0.939856  0.352554  1
  La  La3  1  0.937518  0.354161  0.354161  1
  Nd  Nd4  1  0.808403  0.191880  0.191880  1
  Nd  Nd5  1  0.189591  0.809060  0.809060  1
  Nd  Nd6  1  0.189591  0.809060  0.192289  1
  Nd  Nd7  1  0.808403  0.191880  0.807837  1
  Nd  Nd8  1  0.189591  0.192289  0.809060  1
  Nd  Nd9  1  0.808403  0.807837  0.191880  1
  Nd  Nd10  1  0.933335  0.565847  0.565847  1
  Nd  Nd11  1  0.564686  0.934681  0.934681  1
  Nd  Nd12  1  0.564686  0.934681  0.565952  1
  Nd  Nd13  1  0.933335  0.565847  0.934970  1
  Nd  Nd14  1  0.564686  0.565952  0.934681  1
  Nd  Nd15  1  0.933335  0.934970  0.565847  1
  Cd  Cd16  1  0.258080  0.580640  0.580640  1
  Hg  Hg17  1  0.582808  0.585993  0.585993  1
  Hg  Hg18  1  0.582808  0.585993  0.245207  1
  Hg  Hg19  1  0.582808  0.245207  0.585993  1
  Pd  Pd20  1  0.143939  0.143514  0.143514  1
  Pd  Pd21  1  0.143939  0.143514  0.569033  1
  Pd  Pd22  1  0.143939  0.569033  0.143514  1
  Pd  Pd23  1  0.571004  0.142998  0.142998  1
