# generated using pymatgen
data_TbDy5Mn3(Co5P4)3
_symmetry_space_group_name_H-M   'P 1'
_cell_length_a   3.70674200
_cell_length_b   10.57035900
_cell_length_c   12.17209900
_cell_angle_alpha   90.00000000
_cell_angle_beta   90.00000000
_cell_angle_gamma   90.00000000
_symmetry_Int_Tables_number   1
_chemical_formula_structural   TbDy5Mn3(Co5P4)3
_chemical_formula_sum   'Tb1 Dy5 Mn3 Co15 P12'
_cell_volume   476.92223701
_cell_formula_units_Z   1
loop_
 _symmetry_equiv_pos_site_id
 _symmetry_equiv_pos_as_xyz
  1  'x, y, z'
loop_
 _atom_site_type_symbol
 _atom_site_label
 _atom_site_symmetry_multiplicity
 _atom_site_fract_x
 _atom_site_fract_y
 _atom_site_fract_z
 _atom_site_occupancy
  Tb  Tb0  1  0.500000  0.000000  0.477034  1
  Dy  Dy1  1  0.000000  0.500000  0.523257  1
  Dy  Dy2  1  0.500000  0.818384  0.204924  1
  Dy  Dy3  1  0.500000  0.181616  0.204924  1
  Dy  Dy4  1  0.000000  0.680419  0.795615  1
  Dy  Dy5  1  0.000000  0.319581  0.795615  1
  Mn  Mn6  1  0.500000  0.500000  0.155032  1
  Mn  Mn7  1  0.000000  0.000000  0.841420  1
  Mn  Mn8  1  0.000000  0.500000  0.988730  1
  Co  Co9  1  0.500000  0.500000  0.699750  1
  Co  Co10  1  0.000000  0.000000  0.297669  1
  Co  Co11  1  0.500000  0.000000  0.013476  1
  Co  Co12  1  0.500000  0.330554  0.994364  1
  Co  Co13  1  0.500000  0.669446  0.994364  1
  Co  Co14  1  0.000000  0.165115  0.005048  1
  Co  Co15  1  0.000000  0.834885  0.005048  1
  Co  Co16  1  0.500000  0.296031  0.430590  1
  Co  Co17  1  0.500000  0.703969  0.430590  1
  Co  Co18  1  0.000000  0.203636  0.570041  1
  Co  Co19  1  0.000000  0.796364  0.570041  1
  Co  Co20  1  0.500000  0.879861  0.709671  1
  Co  Co21  1  0.500000  0.120139  0.709671  1
  Co  Co22  1  0.000000  0.621043  0.291519  1
  Co  Co23  1  0.000000  0.378957  0.291519  1
  P  P24  1  0.500000  0.500000  0.882559  1
  P  P25  1  0.000000  0.000000  0.117419  1
  P  P26  1  0.500000  0.500000  0.346017  1
  P  P27  1  0.000000  0.000000  0.655042  1
  P  P28  1  0.500000  0.310324  0.616298  1
  P  P29  1  0.500000  0.689676  0.616298  1
  P  P30  1  0.000000  0.189149  0.384125  1
  P  P31  1  0.000000  0.810851  0.384125  1
  P  P32  1  0.500000  0.847226  0.893079  1
  P  P33  1  0.500000  0.152774  0.893079  1
  P  P34  1  0.000000  0.654743  0.106023  1
  P  P35  1  0.000000  0.345257  0.106023  1
