# generated using pymatgen
data_Ho20Ru5Pt7
_symmetry_space_group_name_H-M   'P 1'
_cell_length_a   10.89443871
_cell_length_b   10.89443803
_cell_length_c   6.41707319
_cell_angle_alpha   89.97906173
_cell_angle_beta   89.97905979
_cell_angle_gamma   90.43451507
_symmetry_Int_Tables_number   1
_chemical_formula_structural   Ho20Ru5Pt7
_chemical_formula_sum   'Ho20 Ru5 Pt7'
_cell_volume   761.61263175
_cell_formula_units_Z   1
loop_
 _symmetry_equiv_pos_site_id
 _symmetry_equiv_pos_as_xyz
  1  'x, y, z'
loop_
 _atom_site_type_symbol
 _atom_site_label
 _atom_site_symmetry_multiplicity
 _atom_site_fract_x
 _atom_site_fract_y
 _atom_site_fract_z
 _atom_site_occupancy
  Ho  Ho0  1  0.296976  0.084899  0.373496  1
  Ho  Ho1  1  0.296356  0.909004  0.873249  1
  Ho  Ho2  1  0.702612  0.085579  0.872575  1
  Ho  Ho3  1  0.702722  0.913741  0.372036  1
  Ho  Ho4  1  0.582229  0.794508  0.871324  1
  Ho  Ho5  1  0.586122  0.203560  0.374095  1
  Ho  Ho6  1  0.411393  0.793566  0.377533  1
  Ho  Ho7  1  0.413265  0.201727  0.873089  1
  Ho  Ho8  1  0.205492  0.417771  0.628676  1
  Ho  Ho9  1  0.206434  0.588607  0.122467  1
  Ho  Ho10  1  0.796440  0.413878  0.125905  1
  Ho  Ho11  1  0.798273  0.586735  0.626911  1
  Ho  Ho12  1  0.915101  0.703024  0.126504  1
  Ho  Ho13  1  0.914421  0.297388  0.627425  1
  Ho  Ho14  1  0.090996  0.703644  0.626751  1
  Ho  Ho15  1  0.086259  0.297278  0.127964  1
  Ho  Ho16  1  0.999428  0.999710  0.500651  1
  Ho  Ho17  1  0.000290  0.000572  0.999349  1
  Ho  Ho18  1  0.496929  0.501482  0.998337  1
  Ho  Ho19  1  0.498518  0.503071  0.501663  1
  Ru  Ru20  1  0.348177  0.651823  0.750000  1
  Ru  Ru21  1  0.500320  0.000372  0.123643  1
  Ru  Ru22  1  0.499790  0.000095  0.622257  1
  Ru  Ru23  1  0.999905  0.500210  0.877743  1
  Ru  Ru24  1  0.999628  0.499680  0.376357  1
  Pt  Pt25  1  0.846649  0.153351  0.250000  1
  Pt  Pt26  1  0.845231  0.846796  0.750840  1
  Pt  Pt27  1  0.153204  0.154769  0.749160  1
  Pt  Pt28  1  0.151933  0.848067  0.250000  1
  Pt  Pt29  1  0.653303  0.346697  0.750000  1
  Pt  Pt30  1  0.655287  0.653688  0.249660  1
  Pt  Pt31  1  0.346312  0.344713  0.250340  1
