# generated using pymatgen
data_CePr4P12Ru16Pt3
_symmetry_space_group_name_H-M   'P 1'
_cell_length_a   12.70360000
_cell_length_b   12.70359972
_cell_length_c   4.03210100
_cell_angle_alpha   90.00000000
_cell_angle_beta   90.00000000
_cell_angle_gamma   120.00000072
_symmetry_Int_Tables_number   1
_chemical_formula_structural   CePr4P12Ru16Pt3
_chemical_formula_sum   'Ce1 Pr4 P12 Ru16 Pt3'
_cell_volume   563.52818530
_cell_formula_units_Z   1
loop_
 _symmetry_equiv_pos_site_id
 _symmetry_equiv_pos_as_xyz
  1  'x, y, z'
loop_
 _atom_site_type_symbol
 _atom_site_label
 _atom_site_symmetry_multiplicity
 _atom_site_fract_x
 _atom_site_fract_y
 _atom_site_fract_z
 _atom_site_occupancy
  Ce  Ce0  1  0.666667  0.333333  0.000000  1
  Pr  Pr1  1  0.183651  0.183255  0.500000  1
  Pr  Pr2  1  0.816745  0.000396  0.500000  1
  Pr  Pr3  1  0.999604  0.816349  0.500000  1
  Pr  Pr4  1  0.333333  0.666667  0.000000  1
  P  P5  1  0.812045  0.812070  0.000000  1
  P  P6  1  0.187930  0.999975  0.000000  1
  P  P7  1  0.000025  0.187955  0.000000  1
  P  P8  1  0.180044  0.478354  0.500000  1
  P  P9  1  0.521646  0.701689  0.500000  1
  P  P10  1  0.298311  0.819956  0.500000  1
  P  P11  1  0.701740  0.521183  0.500000  1
  P  P12  1  0.819443  0.298260  0.500000  1
  P  P13  1  0.478817  0.180557  0.500000  1
  P  P14  1  0.367600  0.368470  0.000000  1
  P  P15  1  0.631530  0.999130  0.000000  1
  P  P16  1  0.000870  0.632400  0.000000  1
  Ru  Ru17  1  0.708877  0.708385  0.500000  1
  Ru  Ru18  1  0.291615  0.000492  0.500000  1
  Ru  Ru19  1  0.999508  0.291123  0.500000  1
  Ru  Ru20  1  0.184164  0.380018  0.000000  1
  Ru  Ru21  1  0.619982  0.804146  0.000000  1
  Ru  Ru22  1  0.195854  0.815836  0.000000  1
  Ru  Ru23  1  0.803556  0.617709  0.000000  1
  Ru  Ru24  1  0.814153  0.196444  0.000000  1
  Ru  Ru25  1  0.382291  0.185847  0.000000  1
  Ru  Ru26  1  0.370400  0.491909  0.500000  1
  Ru  Ru27  1  0.508091  0.878493  0.500000  1
  Ru  Ru28  1  0.121507  0.629600  0.500000  1
  Ru  Ru29  1  0.874767  0.504026  0.500000  1
  Ru  Ru30  1  0.629259  0.125233  0.500000  1
  Ru  Ru31  1  0.495974  0.370741  0.500000  1
  Ru  Ru32  1  0.000000  0.000000  0.000000  1
  Pt  Pt33  1  0.552274  0.551208  0.000000  1
  Pt  Pt34  1  0.448792  0.001066  0.000000  1
  Pt  Pt35  1  0.998934  0.447726  0.000000  1
