# generated using pymatgen
data_Sm2Sb4Pd3
_symmetry_space_group_name_H-M   'P 1'
_cell_length_a   21.09149402
_cell_length_b   21.09149413
_cell_length_c   21.09149383
_cell_angle_alpha   167.78615279
_cell_angle_beta   167.78615351
_cell_angle_gamma   17.30601171
_symmetry_Int_Tables_number   1
_chemical_formula_structural   Sm2Sb4Pd3
_chemical_formula_sum   'Sm4 Sb8 Pd6'
_cell_volume   419.91831735
_cell_formula_units_Z   2
loop_
 _symmetry_equiv_pos_site_id
 _symmetry_equiv_pos_as_xyz
  1  'x, y, z'
loop_
 _atom_site_type_symbol
 _atom_site_label
 _atom_site_symmetry_multiplicity
 _atom_site_fract_x
 _atom_site_fract_y
 _atom_site_fract_z
 _atom_site_occupancy
  Sm  Sm0  1  0.812524  0.812524  0.000000  1
  Sm  Sm1  1  0.187476  0.187476  0.000000  1
  Sm  Sm2  1  0.942522  0.942522  0.000000  1
  Sm  Sm3  1  0.057478  0.057478  0.000000  1
  Sb  Sb4  1  0.617265  0.117265  0.500000  1
  Sb  Sb5  1  0.715482  0.715482  0.000000  1
  Sb  Sb6  1  0.882735  0.382735  0.500000  1
  Sb  Sb7  1  0.539291  0.539291  0.000000  1
  Sb  Sb8  1  0.382735  0.882735  0.500000  1
  Sb  Sb9  1  0.460709  0.460709  0.000000  1
  Sb  Sb10  1  0.117265  0.617265  0.500000  1
  Sb  Sb11  1  0.284518  0.284518  0.000000  1
  Pd  Pd12  1  0.653667  0.653667  0.000000  1
  Pd  Pd13  1  0.750000  0.250000  0.500000  1
  Pd  Pd14  1  0.250000  0.750000  0.500000  1
  Pd  Pd15  1  0.346333  0.346333  0.000000  1
  Pd  Pd16  1  0.500000  0.000000  0.500000  1
  Pd  Pd17  1  0.000000  0.500000  0.500000  1
