# generated using pymatgen
data_Re5TcCl18
_symmetry_space_group_name_H-M   'P 1'
_cell_length_a   9.38391749
_cell_length_b   9.38391675
_cell_length_c   9.38060481
_cell_angle_alpha   67.35227979
_cell_angle_beta   67.35228226
_cell_angle_gamma   67.33993419
_symmetry_Int_Tables_number   1
_chemical_formula_structural   Re5TcCl18
_chemical_formula_sum   'Re5 Tc1 Cl18'
_cell_volume   675.77296451
_cell_formula_units_Z   1
loop_
 _symmetry_equiv_pos_site_id
 _symmetry_equiv_pos_as_xyz
  1  'x, y, z'
loop_
 _atom_site_type_symbol
 _atom_site_label
 _atom_site_symmetry_multiplicity
 _atom_site_fract_x
 _atom_site_fract_y
 _atom_site_fract_z
 _atom_site_occupancy
  Re  Re0  1  0.379902  0.144617  0.144599  1
  Re  Re1  1  0.144617  0.379902  0.144599  1
  Re  Re2  1  0.144096  0.144096  0.380513  1
  Re  Re3  1  0.620791  0.855796  0.854521  1
  Re  Re4  1  0.855796  0.620791  0.854521  1
  Tc  Tc5  1  0.855823  0.855823  0.618561  1
  Cl  Cl6  1  0.376641  0.911884  0.376712  1
  Cl  Cl7  1  0.376632  0.376632  0.911441  1
  Cl  Cl8  1  0.911884  0.376641  0.376712  1
  Cl  Cl9  1  0.621614  0.087008  0.625702  1
  Cl  Cl10  1  0.623810  0.623810  0.087849  1
  Cl  Cl11  1  0.087008  0.621614  0.625702  1
  Cl  Cl12  1  0.328552  0.007294  0.008470  1
  Cl  Cl13  1  0.007294  0.328552  0.008470  1
  Cl  Cl14  1  0.009099  0.009099  0.326467  1
  Cl  Cl15  1  0.673303  0.989826  0.991897  1
  Cl  Cl16  1  0.989826  0.673303  0.991897  1
  Cl  Cl17  1  0.993387  0.993387  0.670198  1
  Cl  Cl18  1  0.533879  0.221234  0.221335  1
  Cl  Cl19  1  0.221234  0.533879  0.221335  1
  Cl  Cl20  1  0.221436  0.221436  0.533975  1
  Cl  Cl21  1  0.468310  0.777095  0.779203  1
  Cl  Cl22  1  0.777095  0.468310  0.779203  1
  Cl  Cl23  1  0.777968  0.777968  0.466121  1
