# generated using pymatgen
data_Mn2Ni(MoO4)3
_symmetry_space_group_name_H-M   'P 1'
_cell_length_a   7.14231229
_cell_length_b   8.62008129
_cell_length_c   9.89982907
_cell_angle_alpha   96.79374434
_cell_angle_beta   106.69129606
_cell_angle_gamma   101.91709410
_symmetry_Int_Tables_number   1
_chemical_formula_structural   Mn2Ni(MoO4)3
_chemical_formula_sum   'Mn4 Ni2 Mo6 O24'
_cell_volume   560.89150560
_cell_formula_units_Z   2
loop_
 _symmetry_equiv_pos_site_id
 _symmetry_equiv_pos_as_xyz
  1  'x, y, z'
loop_
 _atom_site_type_symbol
 _atom_site_label
 _atom_site_symmetry_multiplicity
 _atom_site_fract_x
 _atom_site_fract_y
 _atom_site_fract_z
 _atom_site_occupancy
  Mn  Mn0  1  0.532347  0.696564  0.486780  1
  Mn  Mn1  1  0.467653  0.303436  0.513220  1
  Mn  Mn2  1  0.972235  0.887958  0.718462  1
  Mn  Mn3  1  0.027765  0.112042  0.281538  1
  Ni  Ni4  1  0.255790  0.695811  0.909712  1
  Ni  Ni5  1  0.744210  0.304189  0.090288  1
  Mo  Mo6  1  0.507081  0.988707  0.762281  1
  Mo  Mo7  1  0.492919  0.011293  0.237719  1
  Mo  Mo8  1  0.702004  0.601313  0.846924  1
  Mo  Mo9  1  0.297996  0.398687  0.153076  1
  Mo  Mo10  1  0.973354  0.699341  0.370323  1
  Mo  Mo11  1  0.026646  0.300659  0.629677  1
  O  O12  1  0.270367  0.862310  0.769600  1
  O  O13  1  0.729633  0.137690  0.230400  1
  O  O14  1  0.557759  0.707479  0.925367  1
  O  O15  1  0.442241  0.292521  0.074633  1
  O  O16  1  0.563334  0.526567  0.656124  1
  O  O17  1  0.436666  0.473433  0.343876  1
  O  O18  1  0.555556  0.874227  0.351832  1
  O  O19  1  0.444444  0.125773  0.648168  1
  O  O20  1  0.658837  0.100871  0.932964  1
  O  O21  1  0.341163  0.899129  0.067036  1
  O  O22  1  0.653823  0.869219  0.688389  1
  O  O23  1  0.346177  0.130781  0.311611  1
  O  O24  1  0.030060  0.132874  0.721091  1
  O  O25  1  0.969940  0.867126  0.278909  1
  O  O26  1  0.046553  0.273225  0.134205  1
  O  O27  1  0.953447  0.726775  0.865795  1
  O  O28  1  0.151306  0.486070  0.753724  1
  O  O29  1  0.848694  0.513930  0.246276  1
  O  O30  1  0.143792  0.271437  0.488090  1
  O  O31  1  0.856208  0.728563  0.511910  1
  O  O32  1  0.260469  0.563259  0.067459  1
  O  O33  1  0.739531  0.436741  0.932541  1
  O  O34  1  0.229849  0.703242  0.457555  1
  O  O35  1  0.770151  0.296758  0.542445  1
