# generated using pymatgen
data_Ca4YbPt2
_symmetry_space_group_name_H-M   'P 1'
_cell_length_a   8.72701635
_cell_length_b   8.72701550
_cell_length_c   7.64756570
_cell_angle_alpha   83.01941112
_cell_angle_beta   83.01940968
_cell_angle_gamma   44.65501387
_symmetry_Int_Tables_number   1
_chemical_formula_structural   Ca4YbPt2
_chemical_formula_sum   'Ca8 Yb2 Pt4'
_cell_volume   405.81488398
_cell_formula_units_Z   2
loop_
 _symmetry_equiv_pos_site_id
 _symmetry_equiv_pos_as_xyz
  1  'x, y, z'
loop_
 _atom_site_type_symbol
 _atom_site_label
 _atom_site_symmetry_multiplicity
 _atom_site_fract_x
 _atom_site_fract_y
 _atom_site_fract_z
 _atom_site_occupancy
  Ca  Ca0  1  0.023669  0.797083  0.920384  1
  Ca  Ca1  1  0.202917  0.976331  0.579616  1
  Ca  Ca2  1  0.976331  0.202917  0.079616  1
  Ca  Ca3  1  0.797083  0.023669  0.420384  1
  Ca  Ca4  1  0.364280  0.200774  0.821197  1
  Ca  Ca5  1  0.799226  0.635720  0.678803  1
  Ca  Ca6  1  0.635720  0.799226  0.178803  1
  Ca  Ca7  1  0.200774  0.364280  0.321197  1
  Yb  Yb8  1  0.575540  0.424460  0.750000  1
  Yb  Yb9  1  0.424460  0.575540  0.250000  1
  Pt  Pt10  1  0.185094  0.597701  0.582417  1
  Pt  Pt11  1  0.402299  0.814906  0.917583  1
  Pt  Pt12  1  0.814906  0.402299  0.417583  1
  Pt  Pt13  1  0.597701  0.185094  0.082417  1
