# generated using pymatgen
data_TbDy4CdAu4
_symmetry_space_group_name_H-M   'P 1'
_cell_length_a   8.01189700
_cell_length_b   8.01189700
_cell_length_c   3.82657700
_cell_angle_alpha   90.00000000
_cell_angle_beta   90.00000000
_cell_angle_gamma   90.00000000
_symmetry_Int_Tables_number   1
_chemical_formula_structural   TbDy4CdAu4
_chemical_formula_sum   'Tb1 Dy4 Cd1 Au4'
_cell_volume   245.62986619
_cell_formula_units_Z   1
loop_
 _symmetry_equiv_pos_site_id
 _symmetry_equiv_pos_as_xyz
  1  'x, y, z'
loop_
 _atom_site_type_symbol
 _atom_site_label
 _atom_site_symmetry_multiplicity
 _atom_site_fract_x
 _atom_site_fract_y
 _atom_site_fract_z
 _atom_site_occupancy
  Tb  Tb0  1  0.500000  0.500000  0.000000  1
  Dy  Dy1  1  0.312895  0.860980  0.500000  1
  Dy  Dy2  1  0.860980  0.687105  0.500000  1
  Dy  Dy3  1  0.687105  0.139020  0.500000  1
  Dy  Dy4  1  0.139020  0.312895  0.500000  1
  Cd  Cd5  1  0.000000  0.000000  0.000000  1
  Au  Au6  1  0.145540  0.619595  0.000000  1
  Au  Au7  1  0.619595  0.854460  0.000000  1
  Au  Au8  1  0.380405  0.145540  0.000000  1
  Au  Au9  1  0.854460  0.380405  0.000000  1
