# generated using pymatgen
data_Sc2Al10Re2Os
_symmetry_space_group_name_H-M   'P 1'
_cell_length_a   9.09335500
_cell_length_b   9.09335500
_cell_length_c   5.99695100
_cell_angle_alpha   90.00000000
_cell_angle_beta   90.00000000
_cell_angle_gamma   90.00000000
_symmetry_Int_Tables_number   1
_chemical_formula_structural   Sc2Al10Re2Os
_chemical_formula_sum   'Sc4 Al20 Re4 Os2'
_cell_volume   495.88251185
_cell_formula_units_Z   2
loop_
 _symmetry_equiv_pos_site_id
 _symmetry_equiv_pos_as_xyz
  1  'x, y, z'
loop_
 _atom_site_type_symbol
 _atom_site_label
 _atom_site_symmetry_multiplicity
 _atom_site_fract_x
 _atom_site_fract_y
 _atom_site_fract_z
 _atom_site_occupancy
  Sc  Sc0  1  0.681383  0.181383  0.000000  1
  Sc  Sc1  1  0.318617  0.818617  0.000000  1
  Sc  Sc2  1  0.818617  0.681383  0.000000  1
  Sc  Sc3  1  0.181383  0.318617  0.000000  1
  Al  Al4  1  0.939404  0.204679  0.280611  1
  Al  Al5  1  0.704679  0.439404  0.280611  1
  Al  Al6  1  0.500000  0.000000  0.278308  1
  Al  Al7  1  0.560596  0.704679  0.719389  1
  Al  Al8  1  0.295321  0.560596  0.719389  1
  Al  Al9  1  0.795321  0.939404  0.280611  1
  Al  Al10  1  0.939404  0.204679  0.719389  1
  Al  Al11  1  0.295321  0.560596  0.280611  1
  Al  Al12  1  0.060596  0.795321  0.280611  1
  Al  Al13  1  0.704679  0.439404  0.719389  1
  Al  Al14  1  0.439404  0.295321  0.719389  1
  Al  Al15  1  0.060596  0.795321  0.719389  1
  Al  Al16  1  0.204679  0.060596  0.719389  1
  Al  Al17  1  0.795321  0.939404  0.719389  1
  Al  Al18  1  0.204679  0.060596  0.280611  1
  Al  Al19  1  0.000000  0.500000  0.721692  1
  Al  Al20  1  0.000000  0.500000  0.278308  1
  Al  Al21  1  0.560596  0.704679  0.280611  1
  Al  Al22  1  0.439404  0.295321  0.280611  1
  Al  Al23  1  0.500000  0.000000  0.721692  1
  Re  Re24  1  0.678310  0.178310  0.500000  1
  Re  Re25  1  0.821690  0.678310  0.500000  1
  Re  Re26  1  0.178310  0.321690  0.500000  1
  Re  Re27  1  0.321690  0.821690  0.500000  1
  Os  Os28  1  0.000000  0.000000  0.000000  1
  Os  Os29  1  0.500000  0.500000  0.000000  1
