# generated using pymatgen
data_Dy4YIr2Rh
_symmetry_space_group_name_H-M   'P 1'
_cell_length_a   10.88899900
_cell_length_b   10.89121400
_cell_length_c   6.39461100
_cell_angle_alpha   90.00000000
_cell_angle_beta   90.00000000
_cell_angle_gamma   90.00000000
_symmetry_Int_Tables_number   1
_chemical_formula_structural   Dy4YIr2Rh
_chemical_formula_sum   'Dy16 Y4 Ir8 Rh4'
_cell_volume   758.36517215
_cell_formula_units_Z   4
loop_
 _symmetry_equiv_pos_site_id
 _symmetry_equiv_pos_as_xyz
  1  'x, y, z'
loop_
 _atom_site_type_symbol
 _atom_site_label
 _atom_site_symmetry_multiplicity
 _atom_site_fract_x
 _atom_site_fract_y
 _atom_site_fract_z
 _atom_site_occupancy
  Dy  Dy0  1  0.589093  0.790569  0.879479  1
  Dy  Dy1  1  0.589093  0.209431  0.379479  1
  Dy  Dy2  1  0.410907  0.790569  0.379479  1
  Dy  Dy3  1  0.410907  0.209431  0.879479  1
  Dy  Dy4  1  0.209350  0.410901  0.620487  1
  Dy  Dy5  1  0.209350  0.589099  0.120487  1
  Dy  Dy6  1  0.790650  0.410901  0.120487  1
  Dy  Dy7  1  0.790650  0.589099  0.620487  1
  Dy  Dy8  1  0.910948  0.709278  0.120512  1
  Dy  Dy9  1  0.910948  0.290722  0.620512  1
  Dy  Dy10  1  0.089052  0.709278  0.620512  1
  Dy  Dy11  1  0.089052  0.290722  0.120512  1
  Dy  Dy12  1  0.000000  0.000000  0.500045  1
  Dy  Dy13  1  0.000000  0.000000  0.000045  1
  Dy  Dy14  1  0.500000  0.500000  0.999885  1
  Dy  Dy15  1  0.500000  0.500000  0.499885  1
  Y  Y16  1  0.290442  0.089088  0.379245  1
  Y  Y17  1  0.290442  0.910912  0.879245  1
  Y  Y18  1  0.709558  0.089088  0.879245  1
  Y  Y19  1  0.709558  0.910912  0.379245  1
  Ir  Ir20  1  0.846353  0.154149  0.250441  1
  Ir  Ir21  1  0.846353  0.845851  0.750441  1
  Ir  Ir22  1  0.153647  0.154149  0.750441  1
  Ir  Ir23  1  0.153647  0.845851  0.250441  1
  Ir  Ir24  1  0.653921  0.346392  0.749868  1
  Ir  Ir25  1  0.653921  0.653608  0.249868  1
  Ir  Ir26  1  0.346079  0.346392  0.249868  1
  Ir  Ir27  1  0.346079  0.653608  0.749868  1
  Rh  Rh28  1  0.500000  0.000000  0.124233  1
  Rh  Rh29  1  0.500000  0.000000  0.624233  1
  Rh  Rh30  1  0.000000  0.500000  0.875773  1
  Rh  Rh31  1  0.000000  0.500000  0.375773  1
