# generated using pymatgen
data_Ho18ErTmIr12
_symmetry_space_group_name_H-M   'P 1'
_cell_length_a   10.82857138
_cell_length_b   10.82725003
_cell_length_c   6.33191300
_cell_angle_alpha   90.00441337
_cell_angle_beta   89.98477731
_cell_angle_gamma   90.00010172
_symmetry_Int_Tables_number   1
_chemical_formula_structural   Ho18ErTmIr12
_chemical_formula_sum   'Ho18 Er1 Tm1 Ir12'
_cell_volume   742.37656222
_cell_formula_units_Z   1
loop_
 _symmetry_equiv_pos_site_id
 _symmetry_equiv_pos_as_xyz
  1  'x, y, z'
loop_
 _atom_site_type_symbol
 _atom_site_label
 _atom_site_symmetry_multiplicity
 _atom_site_fract_x
 _atom_site_fract_y
 _atom_site_fract_z
 _atom_site_occupancy
  Ho  Ho0  1  0.290979  0.088061  0.376662  1
  Ho  Ho1  1  0.291230  0.912309  0.876900  1
  Ho  Ho2  1  0.708814  0.087757  0.876997  1
  Ho  Ho3  1  0.708754  0.912226  0.377002  1
  Ho  Ho4  1  0.587696  0.790978  0.876934  1
  Ho  Ho5  1  0.587514  0.209299  0.377083  1
  Ho  Ho6  1  0.412414  0.790718  0.377064  1
  Ho  Ho7  1  0.412225  0.209029  0.877086  1
  Ho  Ho8  1  0.209161  0.412215  0.622863  1
  Ho  Ho9  1  0.208908  0.587289  0.122878  1
  Ho  Ho10  1  0.791260  0.412192  0.122968  1
  Ho  Ho11  1  0.790784  0.587480  0.622857  1
  Ho  Ho12  1  0.912357  0.708718  0.123021  1
  Ho  Ho13  1  0.912492  0.291121  0.622913  1
  Ho  Ho14  1  0.087697  0.708754  0.623037  1
  Ho  Ho15  1  0.000038  0.000049  0.500067  1
  Ho  Ho16  1  0.000196  0.000434  0.000270  1
  Ho  Ho17  1  0.499994  0.499883  0.000196  1
  Er  Er18  1  0.499935  0.499953  0.500045  1
  Tm  Tm19  1  0.087531  0.291895  0.122357  1
  Ir  Ir20  1  0.846933  0.154107  0.249433  1
  Ir  Ir21  1  0.846285  0.846359  0.750169  1
  Ir  Ir22  1  0.153526  0.154081  0.751421  1
  Ir  Ir23  1  0.153640  0.846228  0.249923  1
  Ir  Ir24  1  0.653409  0.346789  0.749388  1
  Ir  Ir25  1  0.653183  0.653447  0.250602  1
  Ir  Ir26  1  0.346061  0.346467  0.250243  1
  Ir  Ir27  1  0.346570  0.653164  0.749414  1
  Ir  Ir28  1  0.499910  0.000098  0.123015  1
  Ir  Ir29  1  0.499945  0.000110  0.623041  1
  Ir  Ir30  1  0.000241  0.499372  0.877414  1
  Ir  Ir31  1  0.000313  0.499418  0.376733  1
