# generated using pymatgen
data_Sr3PrSc2(PtO6)2
_symmetry_space_group_name_H-M   'P 1'
_cell_length_a   5.72485611
_cell_length_b   5.71096421
_cell_length_c   9.89476907
_cell_angle_alpha   54.55389339
_cell_angle_beta   89.99558528
_cell_angle_gamma   90.05547588
_symmetry_Int_Tables_number   1
_chemical_formula_structural   Sr3PrSc2(PtO6)2
_chemical_formula_sum   'Sr3 Pr1 Sc2 Pt2 O12'
_cell_volume   263.54602307
_cell_formula_units_Z   1
loop_
 _symmetry_equiv_pos_site_id
 _symmetry_equiv_pos_as_xyz
  1  'x, y, z'
loop_
 _atom_site_type_symbol
 _atom_site_label
 _atom_site_symmetry_multiplicity
 _atom_site_fract_x
 _atom_site_fract_y
 _atom_site_fract_z
 _atom_site_occupancy
  Sr  Sr0  1  0.524400  0.245140  0.748442  1
  Sr  Sr1  1  0.972080  0.245895  0.249301  1
  Sr  Sr2  1  0.027451  0.759173  0.751438  1
  Pr  Pr3  1  0.458342  0.757880  0.249956  1
  Sc  Sc4  1  0.996236  0.003718  0.995921  1
  Sc  Sc5  1  0.501853  0.996953  0.503772  1
  Pt  Pt6  1  0.999548  0.501511  0.497638  1
  Pt  Pt7  1  0.500523  0.497849  0.002750  1
  O  O8  1  0.709948  0.172716  0.046340  1
  O  O9  1  0.286928  0.808619  0.970248  1
  O  O10  1  0.225996  0.811391  0.455152  1
  O  O11  1  0.783954  0.191104  0.532633  1
  O  O12  1  0.024621  0.680186  0.252631  1
  O  O13  1  0.986342  0.324302  0.744017  1
  O  O14  1  0.509433  0.336884  0.246863  1
  O  O15  1  0.489034  0.677703  0.756317  1
  O  O16  1  0.231936  0.232160  0.043938  1
  O  O17  1  0.775809  0.746991  0.968291  1
  O  O18  1  0.716156  0.751651  0.454555  1
  O  O19  1  0.279410  0.258172  0.529797  1
