# generated using pymatgen
data_Tb5Dy3Tc2(RuC4)2
_symmetry_space_group_name_H-M   'P 1'
_cell_length_a   5.12673500
_cell_length_b   6.54547205
_cell_length_c   9.85789970
_cell_angle_alpha   90.04965643
_cell_angle_beta   90.00000000
_cell_angle_gamma   90.00000000
_symmetry_Int_Tables_number   1
_chemical_formula_structural   Tb5Dy3Tc2(RuC4)2
_chemical_formula_sum   'Tb5 Dy3 Tc2 Ru2 C8'
_cell_volume   330.80043672
_cell_formula_units_Z   1
loop_
 _symmetry_equiv_pos_site_id
 _symmetry_equiv_pos_as_xyz
  1  'x, y, z'
loop_
 _atom_site_type_symbol
 _atom_site_label
 _atom_site_symmetry_multiplicity
 _atom_site_fract_x
 _atom_site_fract_y
 _atom_site_fract_z
 _atom_site_occupancy
  Tb  Tb0  1  0.250000  0.180435  0.944153  1
  Tb  Tb1  1  0.750000  0.469521  0.784412  1
  Tb  Tb2  1  0.250000  0.030388  0.285307  1
  Tb  Tb3  1  0.750000  0.971045  0.714599  1
  Tb  Tb4  1  0.250000  0.528859  0.215251  1
  Dy  Dy5  1  0.750000  0.823467  0.055683  1
  Dy  Dy6  1  0.250000  0.676267  0.555337  1
  Dy  Dy7  1  0.750000  0.320712  0.443757  1
  Tc  Tc8  1  0.750000  0.777832  0.364474  1
  Tc  Tc9  1  0.250000  0.722128  0.864116  1
  Ru  Ru10  1  0.750000  0.277994  0.135603  1
  Ru  Ru11  1  0.250000  0.221848  0.634848  1
  C  C12  1  0.750000  0.175746  0.951147  1
  C  C13  1  0.250000  0.822790  0.049221  1
  C  C14  1  0.750000  0.676092  0.549290  1
  C  C15  1  0.250000  0.324676  0.450568  1
  C  C16  1  0.750000  0.043830  0.259298  1
  C  C17  1  0.250000  0.456486  0.758536  1
  C  C18  1  0.750000  0.544468  0.242446  1
  C  C19  1  0.250000  0.955416  0.741956  1
