# generated using pymatgen
data_K5Ag(IO)2
_symmetry_space_group_name_H-M   'P 1'
_cell_length_a   5.58071000
_cell_length_b   7.34763600
_cell_length_c   14.32902200
_cell_angle_alpha   90.00000000
_cell_angle_beta   90.00000000
_cell_angle_gamma   90.00000000
_symmetry_Int_Tables_number   1
_chemical_formula_structural   K5Ag(IO)2
_chemical_formula_sum   'K10 Ag2 I4 O4'
_cell_volume   587.56191539
_cell_formula_units_Z   2
loop_
 _symmetry_equiv_pos_site_id
 _symmetry_equiv_pos_as_xyz
  1  'x, y, z'
loop_
 _atom_site_type_symbol
 _atom_site_label
 _atom_site_symmetry_multiplicity
 _atom_site_fract_x
 _atom_site_fract_y
 _atom_site_fract_z
 _atom_site_occupancy
  K  K0  1  0.500000  0.328800  0.602075  1
  K  K1  1  0.500000  0.171200  0.102075  1
  K  K2  1  0.000000  0.599846  0.738498  1
  K  K3  1  0.000000  0.500000  0.000000  1
  K  K4  1  0.500000  0.671200  0.397925  1
  K  K5  1  0.500000  0.828800  0.897925  1
  K  K6  1  0.000000  0.900154  0.238498  1
  K  K7  1  0.000000  0.400154  0.261502  1
  K  K8  1  0.000000  0.099846  0.761502  1
  K  K9  1  0.000000  0.000000  0.500000  1
  Ag  Ag10  1  0.000000  0.500000  0.500000  1
  Ag  Ag11  1  0.000000  0.000000  0.000000  1
  I  I12  1  0.500000  0.651097  0.145207  1
  I  I13  1  0.500000  0.348903  0.854793  1
  I  I14  1  0.500000  0.151097  0.354793  1
  I  I15  1  0.500000  0.848903  0.645207  1
  O  O16  1  0.000000  0.681903  0.389229  1
  O  O17  1  0.000000  0.818097  0.889229  1
  O  O18  1  0.000000  0.181903  0.110771  1
  O  O19  1  0.000000  0.318097  0.610771  1
