# generated using pymatgen
data_Cs4Na2TmInSb4
_symmetry_space_group_name_H-M   'P 1'
_cell_length_a   10.35814139
_cell_length_b   10.35814090
_cell_length_c   10.35814130
_cell_angle_alpha   137.05508199
_cell_angle_beta   61.26860345
_cell_angle_gamma   138.47746577
_symmetry_Int_Tables_number   1
_chemical_formula_structural   Cs4Na2TmInSb4
_chemical_formula_sum   'Cs4 Na2 Tm1 In1 Sb4'
_cell_volume   496.31251395
_cell_formula_units_Z   1
loop_
 _symmetry_equiv_pos_site_id
 _symmetry_equiv_pos_as_xyz
  1  'x, y, z'
loop_
 _atom_site_type_symbol
 _atom_site_label
 _atom_site_symmetry_multiplicity
 _atom_site_fract_x
 _atom_site_fract_y
 _atom_site_fract_z
 _atom_site_occupancy
  Cs  Cs0  1  0.330639  0.774052  0.094802  1
  Cs  Cs1  1  0.169361  0.264163  0.443414  1
  Cs  Cs2  1  0.820751  0.725948  0.556587  1
  Cs  Cs3  1  0.679250  0.235837  0.905198  1
  Na  Na4  1  0.750000  0.250000  0.500000  1
  Na  Na5  1  0.250000  0.750000  0.500000  1
  Tm  Tm6  1  0.250000  0.250000  0.000000  1
  In  In7  1  0.750000  0.750000  0.000000  1
  Sb  Sb8  1  0.902443  0.218213  0.126937  1
  Sb  Sb9  1  0.597557  0.724494  0.315771  1
  Sb  Sb10  1  0.408723  0.281787  0.684230  1
  Sb  Sb11  1  0.091277  0.775506  0.873063  1
