# generated using pymatgen
data_Ta9VGaSi5
_symmetry_space_group_name_H-M   'P 1'
_cell_length_a   6.51024300
_cell_length_b   7.56272315
_cell_length_c   6.51024300
_cell_angle_alpha   115.49399660
_cell_angle_beta   90.00000000
_cell_angle_gamma   115.49399660
_symmetry_Int_Tables_number   1
_chemical_formula_structural   Ta9VGaSi5
_chemical_formula_sum   'Ta9 V1 Ga1 Si5'
_cell_volume   254.31073031
_cell_formula_units_Z   1
loop_
 _symmetry_equiv_pos_site_id
 _symmetry_equiv_pos_as_xyz
  1  'x, y, z'
loop_
 _atom_site_type_symbol
 _atom_site_label
 _atom_site_symmetry_multiplicity
 _atom_site_fract_x
 _atom_site_fract_y
 _atom_site_fract_z
 _atom_site_occupancy
  Ta  Ta0  1  0.500523  0.001045  0.500523  1
  Ta  Ta1  1  0.518531  0.700859  0.689289  1
  Ta  Ta2  1  0.182328  0.700859  0.011569  1
  Ta  Ta3  1  0.689289  0.700859  0.182328  1
  Ta  Ta4  1  0.011569  0.700859  0.518531  1
  Ta  Ta5  1  0.487856  0.299278  0.316714  1
  Ta  Ta6  1  0.811423  0.299278  0.982565  1
  Ta  Ta7  1  0.316714  0.299278  0.811423  1
  Ta  Ta8  1  0.982565  0.299278  0.487856  1
  V  V9  1  0.999053  0.998106  0.999053  1
  Ga  Ga10  1  0.249875  0.499750  0.249875  1
  Si  Si11  1  0.749671  0.499343  0.749671  1
  Si  Si12  1  0.873551  0.000301  0.637651  1
  Si  Si13  1  0.126751  0.000301  0.362650  1
  Si  Si14  1  0.637651  0.000301  0.126751  1
  Si  Si15  1  0.362650  0.000301  0.873551  1
