# generated using pymatgen
data_LaPuF7
_symmetry_space_group_name_H-M   'P 1'
_cell_length_a   6.09584100
_cell_length_b   6.52099619
_cell_length_c   8.81408309
_cell_angle_alpha   77.43823933
_cell_angle_beta   90.00000000
_cell_angle_gamma   90.00000000
_symmetry_Int_Tables_number   1
_chemical_formula_structural   LaPuF7
_chemical_formula_sum   'La2 Pu2 F14'
_cell_volume   341.98116058
_cell_formula_units_Z   2
loop_
 _symmetry_equiv_pos_site_id
 _symmetry_equiv_pos_as_xyz
  1  'x, y, z'
loop_
 _atom_site_type_symbol
 _atom_site_label
 _atom_site_symmetry_multiplicity
 _atom_site_fract_x
 _atom_site_fract_y
 _atom_site_fract_z
 _atom_site_occupancy
  La  La0  1  0.200364  0.654467  0.315015  1
  La  La1  1  0.700364  0.345533  0.684985  1
  Pu  Pu2  1  0.208655  0.811646  0.775466  1
  Pu  Pu3  1  0.708655  0.188354  0.224534  1
  F  F4  1  0.393295  0.456614  0.523785  1
  F  F5  1  0.893295  0.543386  0.476215  1
  F  F6  1  0.925960  0.924502  0.233226  1
  F  F7  1  0.425960  0.075498  0.766774  1
  F  F8  1  0.442272  0.962351  0.240109  1
  F  F9  1  0.942272  0.037649  0.759891  1
  F  F10  1  0.492498  0.453973  0.213840  1
  F  F11  1  0.992498  0.546027  0.786160  1
  F  F12  1  0.202973  0.757359  0.024688  1
  F  F13  1  0.702973  0.242641  0.975312  1
  F  F14  1  0.210848  0.860707  0.526027  1
  F  F15  1  0.710848  0.139293  0.473973  1
  F  F16  1  0.999496  0.383358  0.216896  1
  F  F17  1  0.499496  0.616642  0.783104  1
