# generated using pymatgen
data_Rb(HfS2)4
_symmetry_space_group_name_H-M   'P 1'
_cell_length_a   9.05123726
_cell_length_b   9.05123739
_cell_length_c   10.42535231
_cell_angle_alpha   42.98810757
_cell_angle_beta   42.98810673
_cell_angle_gamma   47.21999061
_symmetry_Int_Tables_number   1
_chemical_formula_structural   Rb(HfS2)4
_chemical_formula_sum   'Rb1 Hf4 S8'
_cell_volume   377.52670374
_cell_formula_units_Z   1
loop_
 _symmetry_equiv_pos_site_id
 _symmetry_equiv_pos_as_xyz
  1  'x, y, z'
loop_
 _atom_site_type_symbol
 _atom_site_label
 _atom_site_symmetry_multiplicity
 _atom_site_fract_x
 _atom_site_fract_y
 _atom_site_fract_z
 _atom_site_occupancy
  Rb  Rb0  1  0.000000  0.000000  0.000000  1
  Hf  Hf1  1  0.251723  0.251723  0.002081  1
  Hf  Hf2  1  0.748277  0.748277  0.997919  1
  Hf  Hf3  1  0.248639  0.751361  0.500000  1
  Hf  Hf4  1  0.751361  0.248639  0.500000  1
  S  S5  1  0.327564  0.327564  0.669399  1
  S  S6  1  0.827043  0.827043  0.665887  1
  S  S7  1  0.325369  0.828385  0.168028  1
  S  S8  1  0.828385  0.325369  0.168028  1
  S  S9  1  0.171615  0.674631  0.831972  1
  S  S10  1  0.674631  0.171615  0.831972  1
  S  S11  1  0.172957  0.172957  0.334113  1
  S  S12  1  0.672436  0.672436  0.330601  1
