# generated using pymatgen
data_Sr11Y9Sn16
_symmetry_space_group_name_H-M   'P 1'
_cell_length_a   8.13297490
_cell_length_b   8.69613706
_cell_length_c   16.42807300
_cell_angle_alpha   90.00000000
_cell_angle_beta   90.00000000
_cell_angle_gamma   89.93382448
_symmetry_Int_Tables_number   1
_chemical_formula_structural   Sr11Y9Sn16
_chemical_formula_sum   'Sr11 Y9 Sn16'
_cell_volume   1161.88231807
_cell_formula_units_Z   1
loop_
 _symmetry_equiv_pos_site_id
 _symmetry_equiv_pos_as_xyz
  1  'x, y, z'
loop_
 _atom_site_type_symbol
 _atom_site_label
 _atom_site_symmetry_multiplicity
 _atom_site_fract_x
 _atom_site_fract_y
 _atom_site_fract_z
 _atom_site_occupancy
  Sr  Sr0  1  0.505838  0.680097  0.594619  1
  Sr  Sr1  1  0.004972  0.820182  0.907917  1
  Sr  Sr2  1  0.493473  0.318751  0.091130  1
  Sr  Sr3  1  0.994119  0.181456  0.409395  1
  Sr  Sr4  1  0.493473  0.318751  0.408870  1
  Sr  Sr5  1  0.994119  0.181456  0.090605  1
  Sr  Sr6  1  0.505838  0.680097  0.905381  1
  Sr  Sr7  1  0.004972  0.820182  0.592083  1
  Sr  Sr8  1  0.332480  0.985853  0.750000  1
  Sr  Sr9  1  0.167748  0.483233  0.250000  1
  Sr  Sr10  1  0.667540  0.015402  0.250000  1
  Y  Y11  1  0.674965  0.166609  0.622938  1
  Y  Y12  1  0.175041  0.332157  0.876741  1
  Y  Y13  1  0.325724  0.829989  0.121593  1
  Y  Y14  1  0.826090  0.668260  0.378926  1
  Y  Y15  1  0.325724  0.829989  0.378407  1
  Y  Y16  1  0.826090  0.668260  0.121074  1
  Y  Y17  1  0.674965  0.166609  0.877062  1
  Y  Y18  1  0.175041  0.332157  0.623259  1
  Y  Y19  1  0.836378  0.509547  0.750000  1
  Sn  Sn20  1  0.662960  0.957441  0.461994  1
  Sn  Sn21  1  0.162527  0.541977  0.037538  1
  Sn  Sn22  1  0.337343  0.042828  0.960526  1
  Sn  Sn23  1  0.837003  0.461059  0.544597  1
  Sn  Sn24  1  0.337343  0.042828  0.539474  1
  Sn  Sn25  1  0.837003  0.461059  0.955403  1
  Sn  Sn26  1  0.662960  0.957441  0.038006  1
  Sn  Sn27  1  0.162527  0.541977  0.462462  1
  Sn  Sn28  1  0.476652  0.376763  0.750000  1
  Sn  Sn29  1  0.963744  0.145506  0.750000  1
  Sn  Sn30  1  0.533615  0.637821  0.250000  1
  Sn  Sn31  1  0.032859  0.860583  0.250000  1
  Sn  Sn32  1  0.729919  0.872367  0.750000  1
  Sn  Sn33  1  0.207532  0.612647  0.750000  1
  Sn  Sn34  1  0.275059  0.109846  0.250000  1
  Sn  Sn35  1  0.776360  0.388823  0.250000  1
