# generated using pymatgen
data_NaMg3In2(B2Rh5)2
_symmetry_space_group_name_H-M   'P 1'
_cell_length_a   9.76142407
_cell_length_b   9.76142407
_cell_length_c   2.95529700
_cell_angle_alpha   90.00000000
_cell_angle_beta   90.00000000
_cell_angle_gamma   88.01460980
_symmetry_Int_Tables_number   1
_chemical_formula_structural   NaMg3In2(B2Rh5)2
_chemical_formula_sum   'Na1 Mg3 In2 B4 Rh10'
_cell_volume   281.42761218
_cell_formula_units_Z   1
loop_
 _symmetry_equiv_pos_site_id
 _symmetry_equiv_pos_as_xyz
  1  'x, y, z'
loop_
 _atom_site_type_symbol
 _atom_site_label
 _atom_site_symmetry_multiplicity
 _atom_site_fract_x
 _atom_site_fract_y
 _atom_site_fract_z
 _atom_site_occupancy
  Na  Na0  1  0.677782  0.177782  0.000000  1
  Mg  Mg1  1  0.322094  0.822094  0.000000  1
  Mg  Mg2  1  0.176608  0.325569  0.000000  1
  Mg  Mg3  1  0.825569  0.676608  0.000000  1
  In  In4  1  0.985406  0.004682  0.000000  1
  In  In5  1  0.504682  0.485406  0.000000  1
  B  B6  1  0.128563  0.628563  0.000000  1
  B  B7  1  0.885155  0.385155  0.000000  1
  B  B8  1  0.615926  0.870826  0.000000  1
  B  B9  1  0.370826  0.115926  0.000000  1
  Rh  Rh10  1  0.489954  0.989954  0.500000  1
  Rh  Rh11  1  0.010446  0.510446  0.500000  1
  Rh  Rh12  1  0.215228  0.067584  0.500000  1
  Rh  Rh13  1  0.770766  0.908416  0.500000  1
  Rh  Rh14  1  0.074251  0.781613  0.500000  1
  Rh  Rh15  1  0.739738  0.449394  0.500000  1
  Rh  Rh16  1  0.949394  0.239738  0.500000  1
  Rh  Rh17  1  0.281613  0.574251  0.500000  1
  Rh  Rh18  1  0.567584  0.715228  0.500000  1
  Rh  Rh19  1  0.408416  0.270766  0.500000  1
