# generated using pymatgen
data_CaDy3(SiPd2)4
_symmetry_space_group_name_H-M   'P 1'
_cell_length_a   5.55486300
_cell_length_b   6.99320400
_cell_length_c   7.33696500
_cell_angle_alpha   90.00000000
_cell_angle_beta   89.99715252
_cell_angle_gamma   90.00000000
_symmetry_Int_Tables_number   1
_chemical_formula_structural   CaDy3(SiPd2)4
_chemical_formula_sum   'Ca1 Dy3 Si4 Pd8'
_cell_volume   285.01387104
_cell_formula_units_Z   1
loop_
 _symmetry_equiv_pos_site_id
 _symmetry_equiv_pos_as_xyz
  1  'x, y, z'
loop_
 _atom_site_type_symbol
 _atom_site_label
 _atom_site_symmetry_multiplicity
 _atom_site_fract_x
 _atom_site_fract_y
 _atom_site_fract_z
 _atom_site_occupancy
  Ca  Ca0  1  0.360879  0.750000  0.027803  1
  Dy  Dy1  1  0.143413  0.750000  0.528516  1
  Dy  Dy2  1  0.641696  0.250000  0.971350  1
  Dy  Dy3  1  0.857591  0.250000  0.472401  1
  Si  Si4  1  0.642984  0.750000  0.378358  1
  Si  Si5  1  0.860321  0.750000  0.877810  1
  Si  Si6  1  0.358405  0.250000  0.622681  1
  Si  Si7  1  0.140708  0.250000  0.122350  1
  Pd  Pd8  1  0.903274  0.551107  0.176889  1
  Pd  Pd9  1  0.599824  0.948388  0.676192  1
  Pd  Pd10  1  0.089531  0.053135  0.820206  1
  Pd  Pd11  1  0.404372  0.446432  0.326078  1
  Pd  Pd12  1  0.089531  0.446865  0.820206  1
  Pd  Pd13  1  0.404372  0.053568  0.326078  1
  Pd  Pd14  1  0.903274  0.948893  0.176889  1
  Pd  Pd15  1  0.599824  0.551612  0.676192  1
