# generated using pymatgen
data_Er2Fe10Ni2P7
_symmetry_space_group_name_H-M   'P 1'
_cell_length_a   9.01041462
_cell_length_b   9.00740973
_cell_length_c   3.62788500
_cell_angle_alpha   90.00000000
_cell_angle_beta   90.00000000
_cell_angle_gamma   120.23095893
_symmetry_Int_Tables_number   1
_chemical_formula_structural   Er2Fe10Ni2P7
_chemical_formula_sum   'Er2 Fe10 Ni2 P7'
_cell_volume   254.39782532
_cell_formula_units_Z   1
loop_
 _symmetry_equiv_pos_site_id
 _symmetry_equiv_pos_as_xyz
  1  'x, y, z'
loop_
 _atom_site_type_symbol
 _atom_site_label
 _atom_site_symmetry_multiplicity
 _atom_site_fract_x
 _atom_site_fract_y
 _atom_site_fract_z
 _atom_site_occupancy
  Er  Er0  1  0.000058  0.999750  0.000000  1
  Er  Er1  1  0.334939  0.668863  0.500000  1
  Fe  Fe2  1  0.606454  0.903978  0.000000  1
  Fe  Fe3  1  0.819859  0.212963  0.000000  1
  Fe  Fe4  1  0.784083  0.606156  0.000000  1
  Fe  Fe5  1  0.392840  0.178015  0.000000  1
  Fe  Fe6  1  0.053010  0.285246  0.500000  1
  Fe  Fe7  1  0.715308  0.768657  0.500000  1
  Fe  Fe8  1  0.231350  0.944991  0.500000  1
  Fe  Fe9  1  0.886424  0.456018  0.500000  1
  Fe  Fe10  1  0.542569  0.431040  0.500000  1
  Fe  Fe11  1  0.569881  0.114904  0.500000  1
  Ni  Ni12  1  0.098404  0.701920  0.000000  1
  Ni  Ni13  1  0.298118  0.395038  0.000000  1
  P  P14  1  0.073572  0.441191  0.000000  1
  P  P15  1  0.559751  0.635926  0.000000  1
  P  P16  1  0.373127  0.928314  0.000000  1
  P  P17  1  0.780248  0.045202  0.500000  1
  P  P18  1  0.950674  0.736506  0.500000  1
  P  P19  1  0.262843  0.212535  0.500000  1
  P  P20  1  0.666490  0.332787  0.000000  1
