# generated using pymatgen
data_Ho3Er7In8RuPt3
_symmetry_space_group_name_H-M   'P 1'
_cell_length_a   3.56866600
_cell_length_b   8.14585708
_cell_length_c   18.25292351
_cell_angle_alpha   90.00622048
_cell_angle_beta   90.00000000
_cell_angle_gamma   90.00000000
_symmetry_Int_Tables_number   1
_chemical_formula_structural   Ho3Er7In8RuPt3
_chemical_formula_sum   'Ho3 Er7 In8 Ru1 Pt3'
_cell_volume   530.60962165
_cell_formula_units_Z   1
loop_
 _symmetry_equiv_pos_site_id
 _symmetry_equiv_pos_as_xyz
  1  'x, y, z'
loop_
 _atom_site_type_symbol
 _atom_site_label
 _atom_site_symmetry_multiplicity
 _atom_site_fract_x
 _atom_site_fract_y
 _atom_site_fract_z
 _atom_site_occupancy
  Ho  Ho0  1  0.000000  0.748653  0.278152  1
  Ho  Ho1  1  0.000000  0.999483  0.000503  1
  Ho  Ho2  1  0.000000  0.501061  0.498966  1
  Er  Er3  1  0.000000  0.116719  0.412833  1
  Er  Er4  1  0.000000  0.883369  0.585323  1
  Er  Er5  1  0.000000  0.383886  0.915037  1
  Er  Er6  1  0.000000  0.618310  0.086604  1
  Er  Er7  1  0.000000  0.235128  0.222575  1
  Er  Er8  1  0.000000  0.757531  0.778663  1
  Er  Er9  1  0.000000  0.257689  0.721663  1
  In  In10  1  0.500000  0.423075  0.350953  1
  In  In11  1  0.500000  0.574296  0.647754  1
  In  In12  1  0.500000  0.074806  0.852242  1
  In  In13  1  0.500000  0.931917  0.149746  1
  In  In14  1  0.500000  0.292586  0.066638  1
  In  In15  1  0.500000  0.707759  0.933386  1
  In  In16  1  0.500000  0.208812  0.567291  1
  In  In17  1  0.500000  0.794879  0.431013  1
  Ru  Ru18  1  0.500000  0.019042  0.304135  1
  Pt  Pt19  1  0.500000  0.976698  0.696538  1
  Pt  Pt20  1  0.500000  0.477084  0.804003  1
  Pt  Pt21  1  0.500000  0.517215  0.195980  1
