# generated using pymatgen
data_Sr7TaSi2N9
_symmetry_space_group_name_H-M   'P 1'
_cell_length_a   10.39461500
_cell_length_b   6.42503724
_cell_length_c   9.51728207
_cell_angle_alpha   89.64599514
_cell_angle_beta   90.00000000
_cell_angle_gamma   90.00000000
_symmetry_Int_Tables_number   1
_chemical_formula_structural   Sr7TaSi2N9
_chemical_formula_sum   'Sr14 Ta2 Si4 N18'
_cell_volume   635.60705499
_cell_formula_units_Z   2
loop_
 _symmetry_equiv_pos_site_id
 _symmetry_equiv_pos_as_xyz
  1  'x, y, z'
loop_
 _atom_site_type_symbol
 _atom_site_label
 _atom_site_symmetry_multiplicity
 _atom_site_fract_x
 _atom_site_fract_y
 _atom_site_fract_z
 _atom_site_occupancy
  Sr  Sr0  1  0.945955  0.430454  0.168672  1
  Sr  Sr1  1  0.079009  0.248678  0.493306  1
  Sr  Sr2  1  0.250000  0.100087  0.794385  1
  Sr  Sr3  1  0.445955  0.569546  0.831328  1
  Sr  Sr4  1  0.579009  0.751322  0.506694  1
  Sr  Sr5  1  0.581935  0.071660  0.832482  1
  Sr  Sr6  1  0.918065  0.071660  0.832482  1
  Sr  Sr7  1  0.418065  0.928340  0.167518  1
  Sr  Sr8  1  0.420991  0.248678  0.493306  1
  Sr  Sr9  1  0.081935  0.928340  0.167518  1
  Sr  Sr10  1  0.920991  0.751322  0.506694  1
  Sr  Sr11  1  0.054045  0.569546  0.831328  1
  Sr  Sr12  1  0.750000  0.899913  0.205615  1
  Sr  Sr13  1  0.554045  0.430454  0.168672  1
  Ta  Ta14  1  0.750000  0.284701  0.439804  1
  Ta  Ta15  1  0.250000  0.715299  0.560196  1
  Si  Si16  1  0.250000  0.325624  0.066295  1
  Si  Si17  1  0.750000  0.459969  0.719722  1
  Si  Si18  1  0.750000  0.674376  0.933705  1
  Si  Si19  1  0.250000  0.540031  0.280278  1
  N  N20  1  0.393752  0.234930  0.986991  1
  N  N21  1  0.250000  0.260644  0.253960  1
  N  N22  1  0.894964  0.126778  0.348099  1
  N  N23  1  0.617079  0.366761  0.627590  1
  N  N24  1  0.750000  0.543694  0.337406  1
  N  N25  1  0.250000  0.606734  0.095020  1
  N  N26  1  0.882921  0.366761  0.627590  1
  N  N27  1  0.382921  0.633239  0.372410  1
  N  N28  1  0.750000  0.393266  0.904980  1
  N  N29  1  0.105036  0.873222  0.651901  1
  N  N30  1  0.750000  0.739356  0.746040  1
  N  N31  1  0.117079  0.633239  0.372410  1
  N  N32  1  0.606248  0.765070  0.013009  1
  N  N33  1  0.250000  0.456306  0.662594  1
  N  N34  1  0.394964  0.873222  0.651901  1
  N  N35  1  0.605036  0.126778  0.348099  1
  N  N36  1  0.106248  0.234930  0.986991  1
  N  N37  1  0.893752  0.765070  0.013009  1
