# generated using pymatgen
data_Ho3Tm2Co19SiP11
_symmetry_space_group_name_H-M   'P 1'
_cell_length_a   11.96211300
_cell_length_b   11.96211351
_cell_length_c   3.65896500
_cell_angle_alpha   90.00000000
_cell_angle_beta   90.00000000
_cell_angle_gamma   119.94458625
_symmetry_Int_Tables_number   1
_chemical_formula_structural   Ho3Tm2Co19SiP11
_chemical_formula_sum   'Ho3 Tm2 Co19 Si1 P11'
_cell_volume   453.67718519
_cell_formula_units_Z   1
loop_
 _symmetry_equiv_pos_site_id
 _symmetry_equiv_pos_as_xyz
  1  'x, y, z'
loop_
 _atom_site_type_symbol
 _atom_site_label
 _atom_site_symmetry_multiplicity
 _atom_site_fract_x
 _atom_site_fract_y
 _atom_site_fract_z
 _atom_site_occupancy
  Ho  Ho0  1  0.184746  0.184746  0.500000  1
  Ho  Ho1  1  0.812627  0.000577  0.500000  1
  Ho  Ho2  1  0.000577  0.812627  0.500000  1
  Tm  Tm3  1  0.665808  0.334124  0.000000  1
  Tm  Tm4  1  0.334124  0.665808  0.000000  1
  Co  Co5  1  0.820439  0.199564  0.000000  1
  Co  Co6  1  0.801624  0.623119  0.000000  1
  Co  Co7  1  0.378673  0.174524  0.000000  1
  Co  Co8  1  0.199564  0.820439  0.000000  1
  Co  Co9  1  0.623119  0.801624  0.000000  1
  Co  Co10  1  0.174524  0.378673  0.000000  1
  Co  Co11  1  0.557785  0.557785  0.000000  1
  Co  Co12  1  0.446258  0.996850  0.000000  1
  Co  Co13  1  0.996850  0.446258  0.000000  1
  Co  Co14  1  0.640939  0.125160  0.500000  1
  Co  Co15  1  0.873552  0.515915  0.500000  1
  Co  Co16  1  0.486280  0.358490  0.500000  1
  Co  Co17  1  0.125160  0.640939  0.500000  1
  Co  Co18  1  0.515915  0.873552  0.500000  1
  Co  Co19  1  0.358490  0.486280  0.500000  1
  Co  Co20  1  0.716692  0.716692  0.500000  1
  Co  Co21  1  0.285473  0.998330  0.500000  1
  Co  Co22  1  0.998330  0.285473  0.500000  1
  Co  Co23  1  0.000866  0.000866  0.000000  1
  Si  Si24  1  0.368723  0.368723  0.000000  1
  P  P25  1  0.631979  0.999869  0.000000  1
  P  P26  1  0.999869  0.631979  0.000000  1
  P  P27  1  0.831852  0.314231  0.500000  1
  P  P28  1  0.685752  0.520321  0.500000  1
  P  P29  1  0.480900  0.166904  0.500000  1
  P  P30  1  0.314231  0.831852  0.500000  1
  P  P31  1  0.520321  0.685752  0.500000  1
  P  P32  1  0.166904  0.480900  0.500000  1
  P  P33  1  0.820325  0.820325  0.000000  1
  P  P34  1  0.181421  0.999306  0.000000  1
  P  P35  1  0.999306  0.181421  0.000000  1
