# generated using pymatgen
data_P8Ir3Rh
_symmetry_space_group_name_H-M   'P 1'
_cell_length_a   5.79803798
_cell_length_b   5.84203205
_cell_length_c   5.90063075
_cell_angle_alpha   90.01484839
_cell_angle_beta   111.55214514
_cell_angle_gamma   89.99589411
_symmetry_Int_Tables_number   1
_chemical_formula_structural   P8Ir3Rh
_chemical_formula_sum   'P8 Ir3 Rh1'
_cell_volume   185.89401809
_cell_formula_units_Z   1
loop_
 _symmetry_equiv_pos_site_id
 _symmetry_equiv_pos_as_xyz
  1  'x, y, z'
loop_
 _atom_site_type_symbol
 _atom_site_label
 _atom_site_symmetry_multiplicity
 _atom_site_fract_x
 _atom_site_fract_y
 _atom_site_fract_z
 _atom_site_occupancy
  P  P0  1  0.160684  0.619486  0.370548  1
  P  P1  1  0.841726  0.119087  0.129412  1
  P  P2  1  0.841732  0.379910  0.630606  1
  P  P3  1  0.155963  0.881197  0.869269  1
  P  P4  1  0.336503  0.377154  0.189488  1
  P  P5  1  0.665860  0.876304  0.310678  1
  P  P6  1  0.666582  0.622661  0.812155  1
  P  P7  1  0.331466  0.123738  0.687804  1
  Ir  Ir8  1  0.271658  0.001458  0.290808  1
  Ir  Ir9  1  0.729867  0.500490  0.209350  1
  Ir  Ir10  1  0.726440  0.999205  0.708131  1
  Rh  Rh11  1  0.271522  0.499310  0.791754  1
