# generated using pymatgen
data_Tb4Nd4Re(B8Os)3
_symmetry_space_group_name_H-M   'P 1'
_cell_length_a   3.72464400
_cell_length_b   9.27783247
_cell_length_c   11.70341100
_cell_angle_alpha   90.09613263
_cell_angle_beta   90.00000000
_cell_angle_gamma   90.00000000
_symmetry_Int_Tables_number   1
_chemical_formula_structural   Tb4Nd4Re(B8Os)3
_chemical_formula_sum   'Tb4 Nd4 Re1 B24 Os3'
_cell_volume   404.42979314
_cell_formula_units_Z   1
loop_
 _symmetry_equiv_pos_site_id
 _symmetry_equiv_pos_as_xyz
  1  'x, y, z'
loop_
 _atom_site_type_symbol
 _atom_site_label
 _atom_site_symmetry_multiplicity
 _atom_site_fract_x
 _atom_site_fract_y
 _atom_site_fract_z
 _atom_site_occupancy
  Tb  Tb0  1  0.000000  0.943353  0.371098  1
  Tb  Tb1  1  0.000000  0.055781  0.628362  1
  Tb  Tb2  1  0.000000  0.442883  0.128424  1
  Tb  Tb3  1  0.000000  0.556644  0.872241  1
  Nd  Nd4  1  0.000000  0.323468  0.414728  1
  Nd  Nd5  1  0.000000  0.678818  0.587552  1
  Nd  Nd6  1  0.000000  0.823213  0.084065  1
  Nd  Nd7  1  0.000000  0.176279  0.913198  1
  Re  Re8  1  0.000000  0.861358  0.820162  1
  B  B9  1  0.500000  0.555778  0.430838  1
  B  B10  1  0.500000  0.444288  0.569652  1
  B  B11  1  0.500000  0.055537  0.069564  1
  B  B12  1  0.500000  0.945310  0.930687  1
  B  B13  1  0.500000  0.748427  0.417269  1
  B  B14  1  0.500000  0.251649  0.582515  1
  B  B15  1  0.500000  0.248339  0.083010  1
  B  B16  1  0.500000  0.751548  0.916998  1
  B  B17  1  0.500000  0.789109  0.267050  1
  B  B18  1  0.500000  0.210306  0.732157  1
  B  B19  1  0.500000  0.289640  0.232992  1
  B  B20  1  0.500000  0.709755  0.767112  1
  B  B21  1  0.500000  0.630593  0.186309  1
  B  B22  1  0.500000  0.368859  0.813392  1
  B  B23  1  0.500000  0.131335  0.313947  1
  B  B24  1  0.500000  0.868936  0.686502  1
  B  B25  1  0.500000  0.986374  0.213403  1
  B  B26  1  0.500000  0.014671  0.786447  1
  B  B27  1  0.500000  0.486021  0.287140  1
  B  B28  1  0.500000  0.514072  0.713679  1
  B  B29  1  0.500000  0.602850  0.029185  1
  B  B30  1  0.500000  0.395508  0.971664  1
  B  B31  1  0.500000  0.104352  0.470772  1
  B  B32  1  0.500000  0.896162  0.528052  1
  Os  Os33  1  0.000000  0.638642  0.320090  1
  Os  Os34  1  0.000000  0.361482  0.679500  1
  Os  Os35  1  0.000000  0.138661  0.180240  1
