# generated using pymatgen
data_Pr3Th2BiPb2Br
_symmetry_space_group_name_H-M   'P 1'
_cell_length_a   9.69758330
_cell_length_b   9.69758414
_cell_length_c   6.77960800
_cell_angle_alpha   90.00000000
_cell_angle_beta   90.00000000
_cell_angle_gamma   120.26687534
_symmetry_Int_Tables_number   1
_chemical_formula_structural   Pr3Th2BiPb2Br
_chemical_formula_sum   'Pr6 Th4 Bi2 Pb4 Br2'
_cell_volume   550.66577749
_cell_formula_units_Z   2
loop_
 _symmetry_equiv_pos_site_id
 _symmetry_equiv_pos_as_xyz
  1  'x, y, z'
loop_
 _atom_site_type_symbol
 _atom_site_label
 _atom_site_symmetry_multiplicity
 _atom_site_fract_x
 _atom_site_fract_y
 _atom_site_fract_z
 _atom_site_occupancy
  Pr  Pr0  1  0.271770  0.997383  0.750000  1
  Pr  Pr1  1  0.728230  0.002617  0.250000  1
  Pr  Pr2  1  0.997383  0.271770  0.750000  1
  Pr  Pr3  1  0.002617  0.728230  0.250000  1
  Pr  Pr4  1  0.727410  0.727410  0.750000  1
  Pr  Pr5  1  0.272590  0.272590  0.250000  1
  Th  Th6  1  0.332297  0.667703  0.500000  1
  Th  Th7  1  0.667703  0.332297  0.500000  1
  Th  Th8  1  0.667703  0.332297  0.000000  1
  Th  Th9  1  0.332297  0.667703  0.000000  1
  Bi  Bi10  1  0.383212  0.383212  0.750000  1
  Bi  Bi11  1  0.616788  0.616788  0.250000  1
  Pb  Pb12  1  0.615720  0.999254  0.750000  1
  Pb  Pb13  1  0.384280  0.000746  0.250000  1
  Pb  Pb14  1  0.999254  0.615720  0.750000  1
  Pb  Pb15  1  0.000746  0.384280  0.250000  1
  Br  Br16  1  0.000000  0.000000  0.500000  1
  Br  Br17  1  0.000000  0.000000  0.000000  1
