# generated using pymatgen
data_Er2Mn16SiC2
_symmetry_space_group_name_H-M   'P 1'
_cell_length_a   6.38789291
_cell_length_b   6.45219684
_cell_length_c   6.38789359
_cell_angle_alpha   83.53180121
_cell_angle_beta   83.34515978
_cell_angle_gamma   83.53179226
_symmetry_Int_Tables_number   1
_chemical_formula_structural   Er2Mn16SiC2
_chemical_formula_sum   'Er2 Mn16 Si1 C2'
_cell_volume   258.51801491
_cell_formula_units_Z   1
loop_
 _symmetry_equiv_pos_site_id
 _symmetry_equiv_pos_as_xyz
  1  'x, y, z'
loop_
 _atom_site_type_symbol
 _atom_site_label
 _atom_site_symmetry_multiplicity
 _atom_site_fract_x
 _atom_site_fract_y
 _atom_site_fract_z
 _atom_site_occupancy
  Er  Er0  1  0.648631  0.652563  0.648631  1
  Er  Er1  1  0.351369  0.347437  0.351369  1
  Mn  Mn2  1  0.902387  0.905365  0.902387  1
  Mn  Mn3  1  0.097613  0.094635  0.097613  1
  Mn  Mn4  1  0.723815  0.000000  0.276185  1
  Mn  Mn5  1  0.991627  0.278185  0.719824  1
  Mn  Mn6  1  0.280176  0.721815  0.008373  1
  Mn  Mn7  1  0.008373  0.721815  0.280176  1
  Mn  Mn8  1  0.719824  0.278185  0.991627  1
  Mn  Mn9  1  0.276185  0.000000  0.723815  1
  Mn  Mn10  1  0.340446  0.340047  0.860002  1
  Mn  Mn11  1  0.352927  0.868986  0.352927  1
  Mn  Mn12  1  0.860002  0.340047  0.340446  1
  Mn  Mn13  1  0.659554  0.659953  0.139998  1
  Mn  Mn14  1  0.647073  0.131014  0.647073  1
  Mn  Mn15  1  0.139998  0.659953  0.659554  1
  Mn  Mn16  1  0.500000  0.000000  0.000000  1
  Mn  Mn17  1  0.000000  0.000000  0.500000  1
  Si  Si18  1  0.000000  0.500000  0.000000  1
  C  C19  1  0.000000  0.500000  0.500000  1
  C  C20  1  0.500000  0.500000  0.000000  1
