# generated using pymatgen
data_Dy3Pu(Al3Ir)6
_symmetry_space_group_name_H-M   'P 1'
_cell_length_a   7.54427504
_cell_length_b   7.54235512
_cell_length_c   9.46840800
_cell_angle_alpha   90.00000000
_cell_angle_beta   90.00000000
_cell_angle_gamma   119.52451604
_symmetry_Int_Tables_number   1
_chemical_formula_structural   Dy3Pu(Al3Ir)6
_chemical_formula_sum   'Dy3 Pu1 Al18 Ir6'
_cell_volume   468.80586936
_cell_formula_units_Z   1
loop_
 _symmetry_equiv_pos_site_id
 _symmetry_equiv_pos_as_xyz
  1  'x, y, z'
loop_
 _atom_site_type_symbol
 _atom_site_label
 _atom_site_symmetry_multiplicity
 _atom_site_fract_x
 _atom_site_fract_y
 _atom_site_fract_z
 _atom_site_occupancy
  Dy  Dy0  1  0.005637  0.330365  0.250000  1
  Dy  Dy1  1  0.671034  0.995180  0.750000  1
  Dy  Dy2  1  0.328450  0.004226  0.250000  1
  Pu  Pu3  1  0.995339  0.671514  0.750000  1
  Al  Al4  1  0.130040  0.129622  0.750000  1
  Al  Al5  1  0.872057  0.872246  0.250000  1
  Al  Al6  1  0.000745  0.335282  0.574584  1
  Al  Al7  1  0.998407  0.664739  0.425971  1
  Al  Al8  1  0.998407  0.664739  0.074029  1
  Al  Al9  1  0.335109  0.000954  0.925541  1
  Al  Al10  1  0.000745  0.335282  0.925416  1
  Al  Al11  1  0.664956  0.998920  0.074854  1
  Al  Al12  1  0.664956  0.998920  0.425146  1
  Al  Al13  1  0.335109  0.000954  0.574459  1
  Al  Al14  1  0.333179  0.333235  0.053095  1
  Al  Al15  1  0.666528  0.666249  0.947892  1
  Al  Al16  1  0.666528  0.666249  0.552108  1
  Al  Al17  1  0.333179  0.333235  0.446905  1
  Al  Al18  1  0.338934  0.547324  0.750000  1
  Al  Al19  1  0.660798  0.451197  0.250000  1
  Al  Al20  1  0.549011  0.340198  0.750000  1
  Al  Al21  1  0.452529  0.661007  0.250000  1
  Ir  Ir22  1  0.670455  0.326507  0.499262  1
  Ir  Ir23  1  0.328628  0.671661  0.499656  1
  Ir  Ir24  1  0.328628  0.671661  0.000344  1
  Ir  Ir25  1  0.670455  0.326507  0.000738  1
  Ir  Ir26  1  0.000079  0.001013  0.499812  1
  Ir  Ir27  1  0.000079  0.001013  0.000188  1
