# generated using pymatgen
data_La15NdCd4(TcPt)2
_symmetry_space_group_name_H-M   'P 1'
_cell_length_a   10.13309483
_cell_length_b   10.13309514
_cell_length_c   10.25120800
_cell_angle_alpha   59.61366279
_cell_angle_beta   59.61366176
_cell_angle_gamma   59.37403789
_symmetry_Int_Tables_number   1
_chemical_formula_structural   La15NdCd4(TcPt)2
_chemical_formula_sum   'La15 Nd1 Cd4 Tc2 Pt2'
_cell_volume   736.39482005
_cell_formula_units_Z   1
loop_
 _symmetry_equiv_pos_site_id
 _symmetry_equiv_pos_as_xyz
  1  'x, y, z'
loop_
 _atom_site_type_symbol
 _atom_site_label
 _atom_site_symmetry_multiplicity
 _atom_site_fract_x
 _atom_site_fract_y
 _atom_site_fract_z
 _atom_site_occupancy
  La  La0  1  0.346376  0.346376  0.354031  1
  La  La1  1  0.346376  0.346376  0.953218  1
  La  La2  1  0.342993  0.960160  0.348423  1
  La  La3  1  0.960160  0.342993  0.348423  1
  La  La4  1  0.817512  0.189800  0.190172  1
  La  La5  1  0.189800  0.817512  0.802515  1
  La  La6  1  0.189800  0.817512  0.190172  1
  La  La7  1  0.817512  0.189800  0.802515  1
  La  La8  1  0.189406  0.189406  0.810594  1
  La  La9  1  0.805988  0.805988  0.194012  1
  La  La10  1  0.938811  0.556634  0.564503  1
  La  La11  1  0.556634  0.938811  0.940051  1
  La  La12  1  0.556634  0.938811  0.564503  1
  La  La13  1  0.938811  0.556634  0.940051  1
  La  La14  1  0.561787  0.561787  0.938213  1
  Nd  Nd15  1  0.940178  0.940178  0.559822  1
  Cd  Cd16  1  0.579343  0.579343  0.579469  1
  Cd  Cd17  1  0.579343  0.579343  0.261846  1
  Cd  Cd18  1  0.580394  0.259536  0.580035  1
  Cd  Cd19  1  0.259536  0.580394  0.580035  1
  Tc  Tc20  1  0.139632  0.139632  0.132552  1
  Tc  Tc21  1  0.139632  0.139632  0.588184  1
  Pt  Pt22  1  0.145990  0.577353  0.138328  1
  Pt  Pt23  1  0.577353  0.145990  0.138328  1
