# generated using pymatgen
data_Tm4V3FeB16
_symmetry_space_group_name_H-M   'P 1'
_cell_length_a   3.39810700
_cell_length_b   5.94278501
_cell_length_c   11.48515802
_cell_angle_alpha   89.99326751
_cell_angle_beta   90.00000000
_cell_angle_gamma   90.00000000
_symmetry_Int_Tables_number   1
_chemical_formula_structural   Tm4V3FeB16
_chemical_formula_sum   'Tm4 V3 Fe1 B16'
_cell_volume   231.93379864
_cell_formula_units_Z   1
loop_
 _symmetry_equiv_pos_site_id
 _symmetry_equiv_pos_as_xyz
  1  'x, y, z'
loop_
 _atom_site_type_symbol
 _atom_site_label
 _atom_site_symmetry_multiplicity
 _atom_site_fract_x
 _atom_site_fract_y
 _atom_site_fract_z
 _atom_site_occupancy
  Tm  Tm0  1  0.500000  0.375662  0.151219  1
  Tm  Tm1  1  0.500000  0.626335  0.848943  1
  Tm  Tm2  1  0.500000  0.124573  0.650197  1
  Tm  Tm3  1  0.500000  0.875325  0.349204  1
  V  V4  1  0.500000  0.372324  0.413797  1
  V  V5  1  0.500000  0.627590  0.583231  1
  V  V6  1  0.500000  0.127817  0.919671  1
  Fe  Fe7  1  0.500000  0.872731  0.082236  1
  B  B8  1  0.000000  0.109578  0.050139  1
  B  B9  1  0.000000  0.882897  0.955383  1
  B  B10  1  0.000000  0.384314  0.546883  1
  B  B11  1  0.000000  0.615281  0.451618  1
  B  B12  1  0.000000  0.133793  0.466912  1
  B  B13  1  0.000000  0.865949  0.532451  1
  B  B14  1  0.000000  0.366108  0.970158  1
  B  B15  1  0.000000  0.637650  0.033035  1
  B  B16  1  0.000000  0.020860  0.191555  1
  B  B17  1  0.000000  0.975448  0.808422  1
  B  B18  1  0.000000  0.474741  0.693360  1
  B  B19  1  0.000000  0.527426  0.304915  1
  B  B20  1  0.000000  0.211739  0.311844  1
  B  B21  1  0.000000  0.786981  0.686893  1
  B  B22  1  0.000000  0.285302  0.815133  1
  B  B23  1  0.000000  0.719576  0.182801  1
