# generated using pymatgen
data_Nd2Al9PdRh2
_symmetry_space_group_name_H-M   'P 1'
_cell_length_a   7.65642006
_cell_length_b   7.65642122
_cell_length_c   9.59881600
_cell_angle_alpha   90.00000000
_cell_angle_beta   90.00000000
_cell_angle_gamma   119.42137524
_symmetry_Int_Tables_number   1
_chemical_formula_structural   Nd2Al9PdRh2
_chemical_formula_sum   'Nd4 Al18 Pd2 Rh4'
_cell_volume   490.12025938
_cell_formula_units_Z   2
loop_
 _symmetry_equiv_pos_site_id
 _symmetry_equiv_pos_as_xyz
  1  'x, y, z'
loop_
 _atom_site_type_symbol
 _atom_site_label
 _atom_site_symmetry_multiplicity
 _atom_site_fract_x
 _atom_site_fract_y
 _atom_site_fract_z
 _atom_site_occupancy
  Nd  Nd0  1  0.995914  0.672841  0.250000  1
  Nd  Nd1  1  0.004086  0.327159  0.750000  1
  Nd  Nd2  1  0.672841  0.995914  0.250000  1
  Nd  Nd3  1  0.327159  0.004086  0.750000  1
  Al  Al4  1  0.135453  0.135453  0.250000  1
  Al  Al5  1  0.864547  0.864547  0.750000  1
  Al  Al6  1  0.002752  0.339660  0.074765  1
  Al  Al7  1  0.997248  0.660340  0.925235  1
  Al  Al8  1  0.997248  0.660340  0.574765  1
  Al  Al9  1  0.339660  0.002752  0.425235  1
  Al  Al10  1  0.002752  0.339660  0.425235  1
  Al  Al11  1  0.660340  0.997248  0.574765  1
  Al  Al12  1  0.660340  0.997248  0.925235  1
  Al  Al13  1  0.339660  0.002752  0.074765  1
  Al  Al14  1  0.338411  0.338411  0.549039  1
  Al  Al15  1  0.661589  0.661589  0.450961  1
  Al  Al16  1  0.661589  0.661589  0.049039  1
  Al  Al17  1  0.338411  0.338411  0.950961  1
  Al  Al18  1  0.339310  0.548578  0.250000  1
  Al  Al19  1  0.660690  0.451422  0.750000  1
  Al  Al20  1  0.548578  0.339310  0.250000  1
  Al  Al21  1  0.451422  0.660690  0.750000  1
  Pd  Pd22  1  0.000000  0.000000  0.000000  1
  Pd  Pd23  1  0.000000  0.000000  0.500000  1
  Rh  Rh24  1  0.671146  0.328854  0.000000  1
  Rh  Rh25  1  0.328854  0.671146  0.000000  1
  Rh  Rh26  1  0.328854  0.671146  0.500000  1
  Rh  Rh27  1  0.671146  0.328854  0.500000  1
