# generated using pymatgen
data_BaTc11MoCl25
_symmetry_space_group_name_H-M   'P 1'
_cell_length_a   9.48102032
_cell_length_b   10.51951652
_cell_length_c   11.18483000
_cell_angle_alpha   85.31033147
_cell_angle_beta   75.73184512
_cell_angle_gamma   86.60031915
_symmetry_Int_Tables_number   1
_chemical_formula_structural   BaTc11MoCl25
_chemical_formula_sum   'Ba1 Tc11 Mo1 Cl25'
_cell_volume   1076.61170345
_cell_formula_units_Z   1
loop_
 _symmetry_equiv_pos_site_id
 _symmetry_equiv_pos_as_xyz
  1  'x, y, z'
loop_
 _atom_site_type_symbol
 _atom_site_label
 _atom_site_symmetry_multiplicity
 _atom_site_fract_x
 _atom_site_fract_y
 _atom_site_fract_z
 _atom_site_occupancy
  Ba  Ba0  1  0.496683  0.000618  0.002815  1
  Tc  Tc1  1  0.176414  0.748095  0.882870  1
  Tc  Tc2  1  0.742923  0.108349  0.287262  1
  Tc  Tc3  1  0.250539  0.882056  0.720589  1
  Tc  Tc4  1  0.074156  0.267272  0.189226  1
  Tc  Tc5  1  0.930116  0.732159  0.813504  1
  Tc  Tc6  1  0.848233  0.434861  0.262113  1
  Tc  Tc7  1  0.153179  0.568206  0.737707  1
  Tc  Tc8  1  0.767853  0.300583  0.422354  1
  Tc  Tc9  1  0.230539  0.699634  0.572835  1
  Tc  Tc10  1  0.992372  0.136189  0.350444  1
  Tc  Tc11  1  0.005760  0.862356  0.648402  1
  Mo  Mo12  1  0.821336  0.243667  0.125561  1
  Cl  Cl13  1  0.939769  0.954229  0.261537  1
  Cl  Cl14  1  0.061906  0.041205  0.739998  1
  Cl  Cl15  1  0.970911  0.275224  0.510208  1
  Cl  Cl16  1  0.024578  0.722339  0.489799  1
  Cl  Cl17  1  0.655870  0.426033  0.161245  1
  Cl  Cl18  1  0.352701  0.578558  0.830996  1
  Cl  Cl19  1  0.090415  0.459855  0.277286  1
  Cl  Cl20  1  0.910575  0.542219  0.720718  1
  Cl  Cl21  1  0.012542  0.531376  0.988199  1
  Cl  Cl22  1  0.586773  0.953510  0.246757  1
  Cl  Cl23  1  0.407536  0.038925  0.751193  1
  Cl  Cl24  1  0.188332  0.019203  0.414751  1
  Cl  Cl25  1  0.804853  0.974716  0.592879  1
  Cl  Cl26  1  0.543861  0.231699  0.398334  1
  Cl  Cl27  1  0.451574  0.771539  0.600091  1
  Cl  Cl28  1  0.054125  0.151914  0.022714  1
  Cl  Cl29  1  0.952041  0.853910  0.975447  1
  Cl  Cl30  1  0.779428  0.646060  0.304590  1
  Cl  Cl31  1  0.216125  0.357402  0.695796  1
  Cl  Cl32  1  0.732404  0.203037  0.946072  1
  Cl  Cl33  1  0.270354  0.786551  0.057295  1
  Cl  Cl34  1  0.334083  0.248078  0.112285  1
  Cl  Cl35  1  0.671427  0.751969  0.886426  1
  Cl  Cl36  1  0.641067  0.404192  0.594541  1
  Cl  Cl37  1  0.356648  0.592212  0.405157  1
