# generated using pymatgen
data_Li3Ho2Ni9P7
_symmetry_space_group_name_H-M   'P 1'
_cell_length_a   9.10332400
_cell_length_b   9.10332327
_cell_length_c   3.70142100
_cell_angle_alpha   90.00000000
_cell_angle_beta   90.00000000
_cell_angle_gamma   120.00000265
_symmetry_Int_Tables_number   1
_chemical_formula_structural   Li3Ho2Ni9P7
_chemical_formula_sum   'Li3 Ho2 Ni9 P7'
_cell_volume   265.64342446
_cell_formula_units_Z   1
loop_
 _symmetry_equiv_pos_site_id
 _symmetry_equiv_pos_as_xyz
  1  'x, y, z'
loop_
 _atom_site_type_symbol
 _atom_site_label
 _atom_site_symmetry_multiplicity
 _atom_site_fract_x
 _atom_site_fract_y
 _atom_site_fract_z
 _atom_site_occupancy
  Li  Li0  1  0.212696  0.108147  0.500000  1
  Li  Li1  1  0.891853  0.104549  0.500000  1
  Li  Li2  1  0.895451  0.787304  0.500000  1
  Ho  Ho3  1  0.333333  0.666667  0.000000  1
  Ho  Ho4  1  0.666667  0.333333  0.500000  1
  Ni  Ni5  1  0.121409  0.281863  0.000000  1
  Ni  Ni6  1  0.718137  0.839547  0.000000  1
  Ni  Ni7  1  0.160453  0.878591  0.000000  1
  Ni  Ni8  1  0.429042  0.370466  0.000000  1
  Ni  Ni9  1  0.629534  0.058578  0.000000  1
  Ni  Ni10  1  0.941422  0.570958  0.000000  1
  Ni  Ni11  1  0.045467  0.437787  0.500000  1
  Ni  Ni12  1  0.562213  0.607681  0.500000  1
  Ni  Ni13  1  0.392319  0.954533  0.500000  1
  P  P14  1  0.286517  0.407777  0.500000  1
  P  P15  1  0.592223  0.878739  0.500000  1
  P  P16  1  0.121261  0.713483  0.500000  1
  P  P17  1  0.412929  0.112095  0.000000  1
  P  P18  1  0.887905  0.300834  0.000000  1
  P  P19  1  0.699166  0.587071  0.000000  1
  P  P20  1  0.000000  0.000000  0.000000  1
