# generated using pymatgen
data_La3Tb2Pr5Ir4
_symmetry_space_group_name_H-M   'P 1'
_cell_length_a   6.72319644
_cell_length_b   7.29190765
_cell_length_c   9.06102771
_cell_angle_alpha   95.82390965
_cell_angle_beta   111.72310601
_cell_angle_gamma   90.56346546
_symmetry_Int_Tables_number   1
_chemical_formula_structural   La3Tb2Pr5Ir4
_chemical_formula_sum   'La3 Tb2 Pr5 Ir4'
_cell_volume   409.99937337
_cell_formula_units_Z   1
loop_
 _symmetry_equiv_pos_site_id
 _symmetry_equiv_pos_as_xyz
  1  'x, y, z'
loop_
 _atom_site_type_symbol
 _atom_site_label
 _atom_site_symmetry_multiplicity
 _atom_site_fract_x
 _atom_site_fract_y
 _atom_site_fract_z
 _atom_site_occupancy
  La  La0  1  0.978649  0.919502  0.182710  1
  La  La1  1  0.794214  0.579601  0.816732  1
  La  La2  1  0.022181  0.081220  0.818371  1
  Tb  Tb3  1  0.436716  0.749945  0.000359  1
  Tb  Tb4  1  0.563280  0.249967  0.000660  1
  Pr  Pr5  1  0.207927  0.423436  0.183582  1
  Pr  Pr6  1  0.645442  0.813162  0.430191  1
  Pr  Pr7  1  0.214584  0.685407  0.567557  1
  Pr  Pr8  1  0.353441  0.186701  0.569070  1
  Pr  Pr9  1  0.783532  0.314659  0.430926  1
  Ir  Ir10  1  0.811306  0.573846  0.211785  1
  Ir  Ir11  1  0.602886  0.926767  0.789270  1
  Ir  Ir12  1  0.186513  0.426016  0.788046  1
  Ir  Ir13  1  0.399328  0.069771  0.210741  1
