# generated using pymatgen
data_K2Co(GeO3)2
_symmetry_space_group_name_H-M   'P 1'
_cell_length_a   5.97349810
_cell_length_b   5.97349849
_cell_length_c   10.97291700
_cell_angle_alpha   90.00000000
_cell_angle_beta   90.00000000
_cell_angle_gamma   113.66714694
_symmetry_Int_Tables_number   1
_chemical_formula_structural   K2Co(GeO3)2
_chemical_formula_sum   'K4 Co2 Ge4 O12'
_cell_volume   358.61155839
_cell_formula_units_Z   2
loop_
 _symmetry_equiv_pos_site_id
 _symmetry_equiv_pos_as_xyz
  1  'x, y, z'
loop_
 _atom_site_type_symbol
 _atom_site_label
 _atom_site_symmetry_multiplicity
 _atom_site_fract_x
 _atom_site_fract_y
 _atom_site_fract_z
 _atom_site_occupancy
  K  K0  1  0.776452  0.426399  0.922099  1
  K  K1  1  0.573601  0.223548  0.577901  1
  K  K2  1  0.223548  0.573601  0.422099  1
  K  K3  1  0.426399  0.776452  0.077901  1
  Co  Co4  1  0.702362  0.297638  0.250000  1
  Co  Co5  1  0.297638  0.702362  0.750000  1
  Ge  Ge6  1  0.833068  0.849480  0.359892  1
  Ge  Ge7  1  0.150520  0.166932  0.140108  1
  Ge  Ge8  1  0.166932  0.150520  0.859892  1
  Ge  Ge9  1  0.849480  0.833068  0.640108  1
  O  O10  1  0.615696  0.964184  0.320201  1
  O  O11  1  0.530424  0.716710  0.619154  1
  O  O12  1  0.716710  0.530424  0.380846  1
  O  O13  1  0.384304  0.035816  0.820201  1
  O  O14  1  0.992535  0.992535  0.500000  1
  O  O15  1  0.469576  0.283290  0.119154  1
  O  O16  1  0.075473  0.924527  0.250000  1
  O  O17  1  0.283290  0.469576  0.880846  1
  O  O18  1  0.007465  0.007465  0.000000  1
  O  O19  1  0.924527  0.075473  0.750000  1
  O  O20  1  0.035816  0.384304  0.179799  1
  O  O21  1  0.964184  0.615696  0.679799  1
