# generated using pymatgen
data_Ho4Lu(In2Au)2
_symmetry_space_group_name_H-M   'P 1'
_cell_length_a   3.64761300
_cell_length_b   8.18604643
_cell_length_c   18.33017650
_cell_angle_alpha   89.92179328
_cell_angle_beta   90.00000000
_cell_angle_gamma   90.00000000
_symmetry_Int_Tables_number   1
_chemical_formula_structural   Ho4Lu(In2Au)2
_chemical_formula_sum   'Ho8 Lu2 In8 Au4'
_cell_volume   547.32993355
_cell_formula_units_Z   2
loop_
 _symmetry_equiv_pos_site_id
 _symmetry_equiv_pos_as_xyz
  1  'x, y, z'
loop_
 _atom_site_type_symbol
 _atom_site_label
 _atom_site_symmetry_multiplicity
 _atom_site_fract_x
 _atom_site_fract_y
 _atom_site_fract_z
 _atom_site_occupancy
  Ho  Ho0  1  0.000000  0.379406  0.919872  1
  Ho  Ho1  1  0.000000  0.620594  0.080128  1
  Ho  Ho2  1  0.000000  0.238534  0.218068  1
  Ho  Ho3  1  0.000000  0.761466  0.781932  1
  Ho  Ho4  1  0.000000  0.260359  0.717067  1
  Ho  Ho5  1  0.000000  0.739641  0.282933  1
  Ho  Ho6  1  0.000000  0.000000  0.000000  1
  Ho  Ho7  1  0.000000  0.500000  0.500000  1
  Lu  Lu8  1  0.000000  0.120407  0.419242  1
  Lu  Lu9  1  0.000000  0.879593  0.580758  1
  In  In10  1  0.500000  0.420510  0.354020  1
  In  In11  1  0.500000  0.579490  0.645980  1
  In  In12  1  0.500000  0.076612  0.852761  1
  In  In13  1  0.500000  0.923388  0.147239  1
  In  In14  1  0.500000  0.290574  0.066489  1
  In  In15  1  0.500000  0.709426  0.933511  1
  In  In16  1  0.500000  0.206051  0.564267  1
  In  In17  1  0.500000  0.793949  0.435733  1
  Au  Au18  1  0.500000  0.028723  0.305000  1
  Au  Au19  1  0.500000  0.971277  0.695000  1
  Au  Au20  1  0.500000  0.472336  0.802825  1
  Au  Au21  1  0.500000  0.527664  0.197175  1
