# generated using pymatgen
data_Cs3TmV2O8
_symmetry_space_group_name_H-M   'P 1'
_cell_length_a   6.12358600
_cell_length_b   6.12358547
_cell_length_c   8.40383900
_cell_angle_alpha   90.00000000
_cell_angle_beta   90.00000000
_cell_angle_gamma   119.99999208
_symmetry_Int_Tables_number   1
_chemical_formula_structural   Cs3TmV2O8
_chemical_formula_sum   'Cs3 Tm1 V2 O8'
_cell_volume   272.91034293
_cell_formula_units_Z   1
loop_
 _symmetry_equiv_pos_site_id
 _symmetry_equiv_pos_as_xyz
  1  'x, y, z'
loop_
 _atom_site_type_symbol
 _atom_site_label
 _atom_site_symmetry_multiplicity
 _atom_site_fract_x
 _atom_site_fract_y
 _atom_site_fract_z
 _atom_site_occupancy
  Cs  Cs0  1  0.333333  0.666667  0.727804  1
  Cs  Cs1  1  0.666667  0.333333  0.272196  1
  Cs  Cs2  1  0.000000  0.000000  0.000000  1
  Tm  Tm3  1  0.000000  0.000000  0.500000  1
  V  V4  1  0.333333  0.666667  0.282092  1
  V  V5  1  0.666667  0.333333  0.717908  1
  O  O6  1  0.333333  0.666667  0.080700  1
  O  O7  1  0.666667  0.333333  0.919300  1
  O  O8  1  0.174884  0.825116  0.348318  1
  O  O9  1  0.825116  0.174884  0.651682  1
  O  O10  1  0.174884  0.349768  0.348318  1
  O  O11  1  0.825116  0.650232  0.651682  1
  O  O12  1  0.650232  0.825116  0.348318  1
  O  O13  1  0.349768  0.174884  0.651682  1
