# generated using pymatgen
data_Sr5Sm3(In4Au3)4
_symmetry_space_group_name_H-M   'P 1'
_cell_length_a   15.40700100
_cell_length_b   15.40700102
_cell_length_c   4.44015200
_cell_angle_alpha   90.00000000
_cell_angle_beta   90.00000000
_cell_angle_gamma   120.00000210
_symmetry_Int_Tables_number   1
_chemical_formula_structural   Sr5Sm3(In4Au3)4
_chemical_formula_sum   'Sr5 Sm3 In16 Au12'
_cell_volume   912.77698740
_cell_formula_units_Z   1
loop_
 _symmetry_equiv_pos_site_id
 _symmetry_equiv_pos_as_xyz
  1  'x, y, z'
loop_
 _atom_site_type_symbol
 _atom_site_label
 _atom_site_symmetry_multiplicity
 _atom_site_fract_x
 _atom_site_fract_y
 _atom_site_fract_z
 _atom_site_occupancy
  Sr  Sr0  1  0.333333  0.666667  0.000000  1
  Sr  Sr1  1  0.666667  0.333333  0.000000  1
  Sr  Sr2  1  0.816271  0.000000  0.500000  1
  Sr  Sr3  1  0.000000  0.816271  0.500000  1
  Sr  Sr4  1  0.183729  0.183729  0.500000  1
  Sm  Sm5  1  0.450602  0.000000  0.000000  1
  Sm  Sm6  1  0.000000  0.450602  0.000000  1
  Sm  Sm7  1  0.549398  0.549398  0.000000  1
  In  In8  1  0.181627  0.376774  0.000000  1
  In  In9  1  0.623226  0.804854  0.000000  1
  In  In10  1  0.376774  0.181627  0.000000  1
  In  In11  1  0.195146  0.818373  0.000000  1
  In  In12  1  0.804854  0.623226  0.000000  1
  In  In13  1  0.818373  0.195146  0.000000  1
  In  In14  1  0.284282  0.000000  0.500000  1
  In  In15  1  0.000000  0.284282  0.500000  1
  In  In16  1  0.715718  0.715718  0.500000  1
  In  In17  1  0.351052  0.477114  0.500000  1
  In  In18  1  0.522886  0.873938  0.500000  1
  In  In19  1  0.477114  0.351052  0.500000  1
  In  In20  1  0.126062  0.648948  0.500000  1
  In  In21  1  0.873938  0.522886  0.500000  1
  In  In22  1  0.648948  0.126062  0.500000  1
  In  In23  1  0.000000  0.000000  0.000000  1
  Au  Au24  1  0.168319  0.490662  0.500000  1
  Au  Au25  1  0.509338  0.677658  0.500000  1
  Au  Au26  1  0.490662  0.168319  0.500000  1
  Au  Au27  1  0.322342  0.831681  0.500000  1
  Au  Au28  1  0.677658  0.509338  0.500000  1
  Au  Au29  1  0.831681  0.322342  0.500000  1
  Au  Au30  1  0.175067  0.000000  0.000000  1
  Au  Au31  1  0.000000  0.175067  0.000000  1
  Au  Au32  1  0.824933  0.824933  0.000000  1
  Au  Au33  1  0.652425  0.000000  0.000000  1
  Au  Au34  1  0.000000  0.652425  0.000000  1
  Au  Au35  1  0.347575  0.347575  0.000000  1
