# generated using pymatgen
data_Cs2Ta3Br7O5
_symmetry_space_group_name_H-M   'P 1'
_cell_length_a   10.48973282
_cell_length_b   10.48972996
_cell_length_c   11.48190123
_cell_angle_alpha   73.63150349
_cell_angle_beta   73.63157948
_cell_angle_gamma   50.35124799
_symmetry_Int_Tables_number   1
_chemical_formula_structural   Cs2Ta3Br7O5
_chemical_formula_sum   'Cs4 Ta6 Br14 O10'
_cell_volume   924.41887928
_cell_formula_units_Z   2
loop_
 _symmetry_equiv_pos_site_id
 _symmetry_equiv_pos_as_xyz
  1  'x, y, z'
loop_
 _atom_site_type_symbol
 _atom_site_label
 _atom_site_symmetry_multiplicity
 _atom_site_fract_x
 _atom_site_fract_y
 _atom_site_fract_z
 _atom_site_occupancy
  Cs  Cs0  1  0.754585  0.841719  0.854348  1
  Cs  Cs1  1  0.158281  0.245415  0.645653  1
  Cs  Cs2  1  0.245415  0.158281  0.145652  1
  Cs  Cs3  1  0.841719  0.754585  0.354347  1
  Ta  Ta4  1  0.216791  0.786576  0.525722  1
  Ta  Ta5  1  0.213423  0.783210  0.974277  1
  Ta  Ta6  1  0.783209  0.213424  0.474278  1
  Ta  Ta7  1  0.786577  0.216790  0.025723  1
  Ta  Ta8  1  0.462401  0.537599  0.249999  1
  Ta  Ta9  1  0.537599  0.462401  0.750001  1
  Br  Br10  1  0.070924  0.644906  0.608181  1
  Br  Br11  1  0.355092  0.929077  0.891821  1
  Br  Br12  1  0.929076  0.355094  0.391819  1
  Br  Br13  1  0.644908  0.070923  0.108179  1
  Br  Br14  1  0.363647  0.925424  0.459584  1
  Br  Br15  1  0.074576  0.636353  0.040416  1
  Br  Br16  1  0.636353  0.074576  0.540416  1
  Br  Br17  1  0.925424  0.363647  0.959584  1
  Br  Br18  1  0.302671  0.412939  0.322638  1
  Br  Br19  1  0.587061  0.697329  0.177362  1
  Br  Br20  1  0.697329  0.587061  0.677362  1
  Br  Br21  1  0.412939  0.302671  0.822638  1
  Br  Br22  1  0.076811  0.923189  0.750000  1
  Br  Br23  1  0.923189  0.076811  0.250000  1
  O  O24  1  0.298770  0.702196  0.379149  1
  O  O25  1  0.297803  0.701231  0.120851  1
  O  O26  1  0.701230  0.297804  0.620851  1
  O  O27  1  0.702197  0.298769  0.879149  1
  O  O28  1  0.391239  0.609593  0.628664  1
  O  O29  1  0.390407  0.608761  0.871337  1
  O  O30  1  0.608761  0.390407  0.371336  1
  O  O31  1  0.609593  0.391239  0.128663  1
  O  O32  1  0.000000  0.000000  0.500000  1
  O  O33  1  0.000000  0.000000  0.000000  1
