# generated using pymatgen
data_Lu4BeB14
_symmetry_space_group_name_H-M   'P 1'
_cell_length_a   7.12048100
_cell_length_b   7.12048100
_cell_length_c   7.26296600
_cell_angle_alpha   90.00000000
_cell_angle_beta   90.00000000
_cell_angle_gamma   90.00000000
_symmetry_Int_Tables_number   1
_chemical_formula_structural   Lu4BeB14
_chemical_formula_sum   'Lu8 Be2 B28'
_cell_volume   368.24145252
_cell_formula_units_Z   2
loop_
 _symmetry_equiv_pos_site_id
 _symmetry_equiv_pos_as_xyz
  1  'x, y, z'
loop_
 _atom_site_type_symbol
 _atom_site_label
 _atom_site_symmetry_multiplicity
 _atom_site_fract_x
 _atom_site_fract_y
 _atom_site_fract_z
 _atom_site_occupancy
  Lu  Lu0  1  0.195112  0.329750  0.000000  1
  Lu  Lu1  1  0.670250  0.195112  0.000000  1
  Lu  Lu2  1  0.329750  0.804888  0.000000  1
  Lu  Lu3  1  0.695112  0.170250  0.500000  1
  Lu  Lu4  1  0.304888  0.829750  0.500000  1
  Lu  Lu5  1  0.804888  0.670250  0.000000  1
  Lu  Lu6  1  0.829750  0.695112  0.500000  1
  Lu  Lu7  1  0.170250  0.304888  0.500000  1
  Be  Be8  1  0.000000  0.000000  0.000000  1
  Be  Be9  1  0.500000  0.500000  0.500000  1
  B  B10  1  0.174988  0.038766  0.226587  1
  B  B11  1  0.961234  0.174988  0.226587  1
  B  B12  1  0.038766  0.825012  0.226587  1
  B  B13  1  0.674988  0.461234  0.273413  1
  B  B14  1  0.325012  0.538766  0.273413  1
  B  B15  1  0.825012  0.961234  0.226587  1
  B  B16  1  0.538766  0.674988  0.273413  1
  B  B17  1  0.461234  0.325012  0.273413  1
  B  B18  1  0.825012  0.961234  0.773413  1
  B  B19  1  0.038766  0.825012  0.773413  1
  B  B20  1  0.961234  0.174988  0.773413  1
  B  B21  1  0.325012  0.538766  0.726587  1
  B  B22  1  0.674988  0.461234  0.726587  1
  B  B23  1  0.174988  0.038766  0.773413  1
  B  B24  1  0.461234  0.325012  0.726587  1
  B  B25  1  0.538766  0.674988  0.726587  1
  B  B26  1  0.087762  0.587762  0.250000  1
  B  B27  1  0.412238  0.087762  0.250000  1
  B  B28  1  0.587762  0.912238  0.250000  1
  B  B29  1  0.912238  0.412238  0.250000  1
  B  B30  1  0.912238  0.412238  0.750000  1
  B  B31  1  0.587762  0.912238  0.750000  1
  B  B32  1  0.412238  0.087762  0.750000  1
  B  B33  1  0.087762  0.587762  0.750000  1
  B  B34  1  0.000000  0.000000  0.387929  1
  B  B35  1  0.500000  0.500000  0.112071  1
  B  B36  1  0.000000  0.000000  0.612071  1
  B  B37  1  0.500000  0.500000  0.887929  1
