# generated using pymatgen
data_Er2SiIr3
_symmetry_space_group_name_H-M   'P 1'
_cell_length_a   5.06657073
_cell_length_b   5.06656989
_cell_length_c   5.06657016
_cell_angle_alpha   66.29854638
_cell_angle_beta   66.29855746
_cell_angle_gamma   66.29855666
_symmetry_Int_Tables_number   1
_chemical_formula_structural   Er2SiIr3
_chemical_formula_sum   'Er2 Si1 Ir3'
_cell_volume   104.46619821
_cell_formula_units_Z   1
loop_
 _symmetry_equiv_pos_site_id
 _symmetry_equiv_pos_as_xyz
  1  'x, y, z'
loop_
 _atom_site_type_symbol
 _atom_site_label
 _atom_site_symmetry_multiplicity
 _atom_site_fract_x
 _atom_site_fract_y
 _atom_site_fract_z
 _atom_site_occupancy
  Er  Er0  1  0.626268  0.626268  0.626268  1
  Er  Er1  1  0.373732  0.373732  0.373732  1
  Si  Si2  1  0.000000  0.000000  0.000000  1
  Ir  Ir3  1  0.000000  0.000000  0.500000  1
  Ir  Ir4  1  0.500000  0.000000  0.000000  1
  Ir  Ir5  1  0.000000  0.500000  0.000000  1
