# generated using pymatgen
data_TbGd9Si16Ge
_symmetry_space_group_name_H-M   'P 1'
_cell_length_a   11.04005308
_cell_length_b   11.02738497
_cell_length_c   11.03988100
_cell_angle_alpha   144.76044600
_cell_angle_beta   135.77677041
_cell_angle_gamma   57.79055437
_symmetry_Int_Tables_number   1
_chemical_formula_structural   TbGd9Si16Ge
_chemical_formula_sum   'Tb1 Gd9 Si16 Ge1'
_cell_volume   536.29110809
_cell_formula_units_Z   1
loop_
 _symmetry_equiv_pos_site_id
 _symmetry_equiv_pos_as_xyz
  1  'x, y, z'
loop_
 _atom_site_type_symbol
 _atom_site_label
 _atom_site_symmetry_multiplicity
 _atom_site_fract_x
 _atom_site_fract_y
 _atom_site_fract_z
 _atom_site_occupancy
  Tb  Tb0  1  0.755048  0.759199  0.514697  1
  Gd  Gd1  1  0.448961  0.963711  0.013709  1
  Gd  Gd2  1  0.848001  0.368385  0.016485  1
  Gd  Gd3  1  0.950033  0.963669  0.514545  1
  Gd  Gd4  1  0.151550  0.167242  0.519813  1
  Gd  Gd5  1  0.352021  0.368682  0.520585  1
  Gd  Gd6  1  0.244531  0.759154  0.004310  1
  Gd  Gd7  1  0.548363  0.561401  0.508356  1
  Gd  Gd8  1  0.053019  0.561570  0.013165  1
  Gd  Gd9  1  0.647284  0.167001  0.015405  1
  Si  Si10  1  0.199282  0.579582  0.380030  1
  Si  Si11  1  0.000125  0.082197  0.081808  1
  Si  Si12  1  0.698950  0.290292  0.591524  1
  Si  Si13  1  0.800358  0.182152  0.381584  1
  Si  Si14  1  0.895697  0.504041  0.608092  1
  Si  Si15  1  0.416918  0.870875  0.454066  1
  Si  Si16  1  0.104145  0.712652  0.608372  1
  Si  Si17  1  0.300791  0.895816  0.595285  1
  Si  Si18  1  0.582258  0.038009  0.455978  1
  Si  Si19  1  0.999731  0.430651  0.430594  1
  Si  Si20  1  0.881501  0.842624  0.960667  1
  Si  Si21  1  0.399984  0.500660  0.100797  1
  Si  Si22  1  0.119133  0.082990  0.963346  1
  Si  Si23  1  0.286777  0.240056  0.953818  1
  Si  Si24  1  0.500061  0.390390  0.891153  1
  Si  Si25  1  0.598806  0.702098  0.103472  1
  Ge  Ge26  1  0.716669  0.676400  0.959843  1
