# generated using pymatgen
data_Hf16NbNi4Ru3
_symmetry_space_group_name_H-M   'P 1'
_cell_length_a   8.64883851
_cell_length_b   8.64883865
_cell_length_c   8.69175377
_cell_angle_alpha   60.15701355
_cell_angle_beta   60.15701341
_cell_angle_gamma   60.00818089
_symmetry_Int_Tables_number   1
_chemical_formula_structural   Hf16NbNi4Ru3
_chemical_formula_sum   'Hf16 Nb1 Ni4 Ru3'
_cell_volume   460.85212758
_cell_formula_units_Z   1
loop_
 _symmetry_equiv_pos_site_id
 _symmetry_equiv_pos_as_xyz
  1  'x, y, z'
loop_
 _atom_site_type_symbol
 _atom_site_label
 _atom_site_symmetry_multiplicity
 _atom_site_fract_x
 _atom_site_fract_y
 _atom_site_fract_z
 _atom_site_occupancy
  Hf  Hf0  1  0.688618  0.103327  0.105141  1
  Hf  Hf1  1  0.103327  0.688618  0.105141  1
  Hf  Hf2  1  0.107755  0.107755  0.676628  1
  Hf  Hf3  1  0.102782  0.102782  0.104511  1
  Hf  Hf4  1  0.315726  0.315726  0.686471  1
  Hf  Hf5  1  0.684143  0.684143  0.316875  1
  Hf  Hf6  1  0.315414  0.684194  0.316799  1
  Hf  Hf7  1  0.682535  0.315623  0.686682  1
  Hf  Hf8  1  0.684194  0.315414  0.316799  1
  Hf  Hf9  1  0.315623  0.682535  0.686682  1
  Hf  Hf10  1  0.951368  0.951368  0.548415  1
  Hf  Hf11  1  0.552188  0.552188  0.947449  1
  Hf  Hf12  1  0.948853  0.551762  0.947703  1
  Hf  Hf13  1  0.548648  0.951832  0.548332  1
  Hf  Hf14  1  0.551762  0.948853  0.947703  1
  Hf  Hf15  1  0.951832  0.548648  0.548332  1
  Nb  Nb16  1  0.329929  0.329929  0.010015  1
  Ni  Ni17  1  0.320491  0.894922  0.889354  1
  Ni  Ni18  1  0.894922  0.320491  0.889354  1
  Ni  Ni19  1  0.891910  0.891910  0.323915  1
  Ni  Ni20  1  0.894974  0.894974  0.889998  1
  Ru  Ru21  1  0.992661  0.335173  0.335898  1
  Ru  Ru22  1  0.335173  0.992661  0.335898  1
  Ru  Ru23  1  0.335167  0.335167  0.335903  1
