# generated using pymatgen
data_Nd3Sm3RuBr10
_symmetry_space_group_name_H-M   'P 1'
_cell_length_a   7.63088337
_cell_length_b   9.54553688
_cell_length_c   9.43038424
_cell_angle_alpha   108.09593936
_cell_angle_beta   95.98521748
_cell_angle_gamma   106.68800962
_symmetry_Int_Tables_number   1
_chemical_formula_structural   Nd3Sm3RuBr10
_chemical_formula_sum   'Nd3 Sm3 Ru1 Br10'
_cell_volume   611.15875060
_cell_formula_units_Z   1
loop_
 _symmetry_equiv_pos_site_id
 _symmetry_equiv_pos_as_xyz
  1  'x, y, z'
loop_
 _atom_site_type_symbol
 _atom_site_label
 _atom_site_symmetry_multiplicity
 _atom_site_fract_x
 _atom_site_fract_y
 _atom_site_fract_z
 _atom_site_occupancy
  Nd  Nd0  1  0.127776  0.051798  0.766631  1
  Nd  Nd1  1  0.630693  0.854281  0.808738  1
  Nd  Nd2  1  0.873557  0.949944  0.233937  1
  Sm  Sm3  1  0.028588  0.696646  0.902369  1
  Sm  Sm4  1  0.365891  0.142913  0.187583  1
  Sm  Sm5  1  0.972846  0.304198  0.099528  1
  Ru  Ru6  1  0.999880  0.000256  0.999785  1
  Br  Br7  1  0.202613  0.744673  0.650558  1
  Br  Br8  1  0.648989  0.538958  0.727315  1
  Br  Br9  1  0.247248  0.082496  0.450982  1
  Br  Br10  1  0.791134  0.254548  0.347518  1
  Br  Br11  1  0.549775  0.174056  0.922403  1
  Br  Br12  1  0.756278  0.919423  0.545972  1
  Br  Br13  1  0.909833  0.627989  0.166459  1
  Br  Br14  1  0.354008  0.456376  0.273871  1
  Br  Br15  1  0.091740  0.373784  0.835838  1
  Br  Br16  1  0.449147  0.827659  0.080513  1
