# generated using pymatgen
data_Tm9Lu2ThCo4
_symmetry_space_group_name_H-M   'P 1'
_cell_length_a   6.14509140
_cell_length_b   6.85224659
_cell_length_c   9.30549373
_cell_angle_alpha   90.00169868
_cell_angle_beta   90.06993238
_cell_angle_gamma   91.04414235
_symmetry_Int_Tables_number   1
_chemical_formula_structural   Tm9Lu2ThCo4
_chemical_formula_sum   'Tm9 Lu2 Th1 Co4'
_cell_volume   391.76741229
_cell_formula_units_Z   1
loop_
 _symmetry_equiv_pos_site_id
 _symmetry_equiv_pos_as_xyz
  1  'x, y, z'
loop_
 _atom_site_type_symbol
 _atom_site_label
 _atom_site_symmetry_multiplicity
 _atom_site_fract_x
 _atom_site_fract_y
 _atom_site_fract_z
 _atom_site_occupancy
  Tm  Tm0  1  0.327391  0.675807  0.066062  1
  Tm  Tm1  1  0.174396  0.175432  0.432367  1
  Tm  Tm2  1  0.675496  0.322967  0.568475  1
  Tm  Tm3  1  0.823154  0.827613  0.930661  1
  Tm  Tm4  1  0.675990  0.322521  0.931556  1
  Tm  Tm5  1  0.823031  0.827400  0.569139  1
  Tm  Tm6  1  0.637366  0.040622  0.249662  1
  Tm  Tm7  1  0.141276  0.457865  0.749922  1
  Tm  Tm8  1  0.359146  0.957708  0.750089  1
  Lu  Lu9  1  0.328262  0.675962  0.434068  1
  Lu  Lu10  1  0.173925  0.174903  0.067287  1
  Th  Th11  1  0.850011  0.553086  0.250132  1
  Co  Co12  1  0.044628  0.873405  0.250313  1
  Co  Co13  1  0.464324  0.387756  0.250139  1
  Co  Co14  1  0.955880  0.114297  0.750821  1
  Co  Co15  1  0.545727  0.612652  0.749307  1
