# generated using pymatgen
data_Zr6V2Co16(As3P)3
_symmetry_space_group_name_H-M   'P 1'
_cell_length_a   12.31404731
_cell_length_b   12.31715034
_cell_length_c   3.71572200
_cell_angle_alpha   90.00000000
_cell_angle_beta   90.00000000
_cell_angle_gamma   120.00833381
_symmetry_Int_Tables_number   1
_chemical_formula_structural   Zr6V2Co16(As3P)3
_chemical_formula_sum   'Zr6 V2 Co16 As9 P3'
_cell_volume   488.03214535
_cell_formula_units_Z   1
loop_
 _symmetry_equiv_pos_site_id
 _symmetry_equiv_pos_as_xyz
  1  'x, y, z'
loop_
 _atom_site_type_symbol
 _atom_site_label
 _atom_site_symmetry_multiplicity
 _atom_site_fract_x
 _atom_site_fract_y
 _atom_site_fract_z
 _atom_site_occupancy
  Zr  Zr0  1  0.000000  0.556554  0.000000  1
  Zr  Zr1  1  0.664592  0.331422  0.000000  1
  Zr  Zr2  1  0.335408  0.666831  0.000000  1
  Zr  Zr3  1  0.826654  0.826057  0.500000  1
  Zr  Zr4  1  0.173346  0.999403  0.500000  1
  Zr  Zr5  1  0.000000  0.167532  0.500000  1
  V  V6  1  0.440955  0.442023  0.000000  1
  V  V7  1  0.559045  0.001067  0.000000  1
  Co  Co8  1  0.196286  0.363766  0.000000  1
  Co  Co9  1  0.175588  0.811580  0.000000  1
  Co  Co10  1  0.824412  0.635992  0.000000  1
  Co  Co11  1  0.803714  0.167480  0.000000  1
  Co  Co12  1  0.366171  0.196170  0.000000  1
  Co  Co13  1  0.126993  0.477213  0.500000  1
  Co  Co14  1  0.358011  0.880174  0.500000  1
  Co  Co15  1  0.518948  0.648271  0.500000  1
  Co  Co16  1  0.641989  0.522164  0.500000  1
  Co  Co17  1  0.873007  0.350220  0.500000  1
  Co  Co18  1  0.481052  0.129323  0.500000  1
  Co  Co19  1  0.000000  0.999811  0.000000  1
  Co  Co20  1  0.726703  0.999496  0.500000  1
  Co  Co21  1  0.000000  0.727640  0.500000  1
  Co  Co22  1  0.633829  0.830000  0.000000  1
  Co  Co23  1  0.273297  0.272793  0.500000  1
  As  As24  1  0.641816  0.646129  0.000000  1
  As  As25  1  0.358184  0.004313  0.000000  1
  As  As26  1  0.000000  0.342188  0.000000  1
  As  As27  1  0.481216  0.317929  0.500000  1
  As  As28  1  0.682832  0.164116  0.500000  1
  As  As29  1  0.823817  0.516173  0.500000  1
  As  As30  1  0.518784  0.836713  0.500000  1
  As  As31  1  0.176183  0.692356  0.500000  1
  As  As32  1  0.317168  0.481284  0.500000  1
  P  P33  1  0.825677  0.997618  0.000000  1
  P  P34  1  0.000000  0.826252  0.000000  1
  P  P35  1  0.174323  0.171941  0.000000  1
