# generated using pymatgen
data_Tb2CeMg3Ir2Pt
_symmetry_space_group_name_H-M   'P 1'
_cell_length_a   7.32061670
_cell_length_b   7.55640998
_cell_length_c   4.03503200
_cell_angle_alpha   90.00000000
_cell_angle_beta   90.00000000
_cell_angle_gamma   121.07133289
_symmetry_Int_Tables_number   1
_chemical_formula_structural   Tb2CeMg3Ir2Pt
_chemical_formula_sum   'Tb2 Ce1 Mg3 Ir2 Pt1'
_cell_volume   191.18350519
_cell_formula_units_Z   1
loop_
 _symmetry_equiv_pos_site_id
 _symmetry_equiv_pos_as_xyz
  1  'x, y, z'
loop_
 _atom_site_type_symbol
 _atom_site_label
 _atom_site_symmetry_multiplicity
 _atom_site_fract_x
 _atom_site_fract_y
 _atom_site_fract_z
 _atom_site_occupancy
  Tb  Tb0  1  0.587868  0.587112  0.000000  1
  Tb  Tb1  1  0.412132  0.999244  0.000000  1
  Ce  Ce2  1  0.000000  0.426882  0.000000  1
  Mg  Mg3  1  0.000000  0.759584  0.500000  1
  Mg  Mg4  1  0.248819  0.246301  0.500000  1
  Mg  Mg5  1  0.751181  0.997481  0.500000  1
  Ir  Ir6  1  0.320611  0.653794  0.500000  1
  Ir  Ir7  1  0.679389  0.333182  0.500000  1
  Pt  Pt8  1  0.000000  0.996419  0.000000  1
