# generated using pymatgen
data_CsCaZr6CBr18
_symmetry_space_group_name_H-M   'P 1'
_cell_length_a   10.18954300
_cell_length_b   10.18954317
_cell_length_c   19.01286100
_cell_angle_alpha   90.00000000
_cell_angle_beta   90.00000000
_cell_angle_gamma   120.00000269
_symmetry_Int_Tables_number   1
_chemical_formula_structural   CsCaZr6CBr18
_chemical_formula_sum   'Cs2 Ca2 Zr12 C2 Br36'
_cell_volume   1709.57246037
_cell_formula_units_Z   2
loop_
 _symmetry_equiv_pos_site_id
 _symmetry_equiv_pos_as_xyz
  1  'x, y, z'
loop_
 _atom_site_type_symbol
 _atom_site_label
 _atom_site_symmetry_multiplicity
 _atom_site_fract_x
 _atom_site_fract_y
 _atom_site_fract_z
 _atom_site_occupancy
  Cs  Cs0  1  0.333333  0.666667  0.750000  1
  Cs  Cs1  1  0.666667  0.333333  0.250000  1
  Ca  Ca2  1  0.666667  0.333333  0.750000  1
  Ca  Ca3  1  0.333333  0.666667  0.250000  1
  Zr  Zr4  1  0.831499  0.037297  0.570991  1
  Zr  Zr5  1  0.168501  0.962703  0.429009  1
  Zr  Zr6  1  0.962703  0.794203  0.570991  1
  Zr  Zr7  1  0.831499  0.794203  0.929009  1
  Zr  Zr8  1  0.037297  0.205797  0.429009  1
  Zr  Zr9  1  0.168501  0.205797  0.070991  1
  Zr  Zr10  1  0.205797  0.168501  0.570991  1
  Zr  Zr11  1  0.962703  0.168501  0.929009  1
  Zr  Zr12  1  0.794203  0.831499  0.429009  1
  Zr  Zr13  1  0.037297  0.831499  0.070991  1
  Zr  Zr14  1  0.205797  0.037297  0.929009  1
  Zr  Zr15  1  0.794203  0.962703  0.070991  1
  C  C16  1  0.000000  0.000000  0.500000  1
  C  C17  1  0.000000  0.000000  0.000000  1
  Br  Br18  1  0.273537  0.422161  0.500374  1
  Br  Br19  1  0.726463  0.577839  0.499626  1
  Br  Br20  1  0.577839  0.851376  0.500374  1
  Br  Br21  1  0.273537  0.851376  0.999626  1
  Br  Br22  1  0.422161  0.148624  0.499626  1
  Br  Br23  1  0.726463  0.148624  0.000374  1
  Br  Br24  1  0.148624  0.726463  0.500374  1
  Br  Br25  1  0.577839  0.726463  0.999626  1
  Br  Br26  1  0.851376  0.273537  0.499626  1
  Br  Br27  1  0.422161  0.273537  0.000374  1
  Br  Br28  1  0.148624  0.422161  0.999626  1
  Br  Br29  1  0.851376  0.577839  0.000374  1
  Br  Br30  1  0.040920  0.231161  0.660932  1
  Br  Br31  1  0.959080  0.768839  0.339068  1
  Br  Br32  1  0.768839  0.809758  0.660932  1
  Br  Br33  1  0.040920  0.809758  0.839068  1
  Br  Br34  1  0.231161  0.190242  0.339068  1
  Br  Br35  1  0.959080  0.190242  0.160932  1
  Br  Br36  1  0.190242  0.959080  0.660932  1
  Br  Br37  1  0.768839  0.959080  0.839068  1
  Br  Br38  1  0.809758  0.040920  0.339068  1
  Br  Br39  1  0.231161  0.040920  0.160932  1
  Br  Br40  1  0.190242  0.231161  0.839068  1
  Br  Br41  1  0.809758  0.768839  0.160932  1
  Br  Br42  1  0.630303  0.076062  0.660562  1
  Br  Br43  1  0.369697  0.923938  0.339438  1
  Br  Br44  1  0.923938  0.554241  0.660562  1
  Br  Br45  1  0.630303  0.554241  0.839438  1
  Br  Br46  1  0.076062  0.445759  0.339438  1
  Br  Br47  1  0.369697  0.445759  0.160562  1
  Br  Br48  1  0.445759  0.369697  0.660562  1
  Br  Br49  1  0.923938  0.369697  0.839438  1
  Br  Br50  1  0.554241  0.630303  0.339438  1
  Br  Br51  1  0.076062  0.630303  0.160562  1
  Br  Br52  1  0.445759  0.076062  0.839438  1
  Br  Br53  1  0.554241  0.923938  0.160562  1
