# generated using pymatgen
data_Tm4As6Ir3Ru4
_symmetry_space_group_name_H-M   'P 1'
_cell_length_a   7.21496487
_cell_length_b   7.21458495
_cell_length_c   7.21458485
_cell_angle_alpha   109.47015073
_cell_angle_beta   109.47228436
_cell_angle_gamma   109.47229438
_symmetry_Int_Tables_number   1
_chemical_formula_structural   Tm4As6Ir3Ru4
_chemical_formula_sum   'Tm4 As6 Ir3 Ru4'
_cell_volume   289.08749431
_cell_formula_units_Z   1
loop_
 _symmetry_equiv_pos_site_id
 _symmetry_equiv_pos_as_xyz
  1  'x, y, z'
loop_
 _atom_site_type_symbol
 _atom_site_label
 _atom_site_symmetry_multiplicity
 _atom_site_fract_x
 _atom_site_fract_y
 _atom_site_fract_z
 _atom_site_occupancy
  Tm  Tm0  1  0.999925  0.999849  0.499925  1
  Tm  Tm1  1  0.500000  0.000000  0.000000  1
  Tm  Tm2  1  0.000075  0.500075  0.000151  1
  Tm  Tm3  1  0.500000  0.500075  0.499925  1
  As  As4  1  0.679570  0.679603  0.993546  1
  As  As5  1  0.313976  0.313942  0.993546  1
  As  As6  1  0.000033  0.679603  0.686058  1
  As  As7  1  0.999967  0.313942  0.320397  1
  As  As8  1  0.686024  0.006454  0.686058  1
  As  As9  1  0.320430  0.006454  0.320397  1
  Ir  Ir10  1  0.500000  0.750902  0.249098  1
  Ir  Ir11  1  0.749098  0.498195  0.249098  1
  Ir  Ir12  1  0.250902  0.750902  0.501805  1
  Ru  Ru13  1  0.000000  0.000000  0.000000  1
  Ru  Ru14  1  0.249682  0.499363  0.749682  1
  Ru  Ru15  1  0.750318  0.250318  0.500637  1
  Ru  Ru16  1  0.500000  0.250318  0.749682  1
