# generated using pymatgen
data_Ho7CoTc2Ni3Sn23
_symmetry_space_group_name_H-M   'P 1'
_cell_length_a   9.77741931
_cell_length_b   9.78293794
_cell_length_c   10.03344720
_cell_angle_alpha   90.09446312
_cell_angle_beta   89.52515345
_cell_angle_gamma   119.84701444
_symmetry_Int_Tables_number   1
_chemical_formula_structural   Ho7CoTc2Ni3Sn23
_chemical_formula_sum   'Ho7 Co1 Tc2 Ni3 Sn23'
_cell_volume   832.38662852
_cell_formula_units_Z   1
loop_
 _symmetry_equiv_pos_site_id
 _symmetry_equiv_pos_as_xyz
  1  'x, y, z'
loop_
 _atom_site_type_symbol
 _atom_site_label
 _atom_site_symmetry_multiplicity
 _atom_site_fract_x
 _atom_site_fract_y
 _atom_site_fract_z
 _atom_site_occupancy
  Ho  Ho0  1  0.013681  0.008094  0.982512  1
  Ho  Ho1  1  0.517676  0.480408  0.693481  1
  Ho  Ho2  1  0.518674  0.038780  0.693733  1
  Ho  Ho3  1  0.959637  0.479448  0.695204  1
  Ho  Ho4  1  0.044209  0.521515  0.307163  1
  Ho  Ho5  1  0.480311  0.958310  0.306553  1
  Ho  Ho6  1  0.479352  0.521741  0.306770  1
  Co  Co7  1  0.828659  0.166981  0.199676  1
  Tc  Tc8  1  0.167011  0.834017  0.802655  1
  Tc  Tc9  1  0.166890  0.334040  0.802806  1
  Ni  Ni10  1  0.660124  0.830798  0.802524  1
  Ni  Ni11  1  0.337950  0.169114  0.201842  1
  Ni  Ni12  1  0.827434  0.660068  0.200229  1
  Sn  Sn13  1  0.669572  0.331083  0.183621  1
  Sn  Sn14  1  0.665218  0.333822  0.881122  1
  Sn  Sn15  1  0.334897  0.668396  0.122308  1
  Sn  Sn16  1  0.350898  0.348821  0.004702  1
  Sn  Sn17  1  0.996895  0.650358  0.004708  1
  Sn  Sn18  1  0.656495  0.003771  0.002131  1
  Sn  Sn19  1  0.654407  0.653655  0.000811  1
  Sn  Sn20  1  0.330596  0.665831  0.819667  1
  Sn  Sn21  1  0.442359  0.221237  0.453410  1
  Sn  Sn22  1  0.220944  0.778594  0.543378  1
  Sn  Sn23  1  0.219853  0.440258  0.542490  1
  Sn  Sn24  1  0.558777  0.779654  0.545926  1
  Sn  Sn25  1  0.117498  0.879378  0.275463  1
  Sn  Sn26  1  0.778769  0.558190  0.453134  1
  Sn  Sn27  1  0.780787  0.219269  0.451248  1
  Sn  Sn28  1  0.350977  0.002313  0.004530  1
  Sn  Sn29  1  0.114988  0.236655  0.274758  1
  Sn  Sn30  1  0.764148  0.883983  0.273834  1
  Sn  Sn31  1  0.240773  0.120601  0.721020  1
  Sn  Sn32  1  0.876858  0.763062  0.723425  1
  Sn  Sn33  1  0.876758  0.114227  0.723346  1
  Sn  Sn34  1  0.001569  0.000401  0.493812  1
  Sn  Sn35  1  0.994359  0.343133  0.006004  1
