# generated using pymatgen
data_TbY4Er7Os4
_symmetry_space_group_name_H-M   'P 1'
_cell_length_a   6.29824603
_cell_length_b   7.40405195
_cell_length_c   9.02148432
_cell_angle_alpha   89.97487439
_cell_angle_beta   90.17586221
_cell_angle_gamma   90.02842255
_symmetry_Int_Tables_number   1
_chemical_formula_structural   TbY4Er7Os4
_chemical_formula_sum   'Tb1 Y4 Er7 Os4'
_cell_volume   420.69266212
_cell_formula_units_Z   1
loop_
 _symmetry_equiv_pos_site_id
 _symmetry_equiv_pos_as_xyz
  1  'x, y, z'
loop_
 _atom_site_type_symbol
 _atom_site_label
 _atom_site_symmetry_multiplicity
 _atom_site_fract_x
 _atom_site_fract_y
 _atom_site_fract_z
 _atom_site_occupancy
  Tb  Tb0  1  0.332541  0.675772  0.062626  1
  Y  Y1  1  0.870158  0.537556  0.250677  1
  Y  Y2  1  0.629714  0.037988  0.250285  1
  Y  Y3  1  0.129142  0.461936  0.749328  1
  Y  Y4  1  0.370884  0.962325  0.749394  1
  Er  Er5  1  0.167015  0.175459  0.437190  1
  Er  Er6  1  0.667465  0.324621  0.562926  1
  Er  Er7  1  0.832646  0.825231  0.936687  1
  Er  Er8  1  0.667922  0.324180  0.936631  1
  Er  Er9  1  0.832894  0.824883  0.562744  1
  Er  Er10  1  0.332533  0.674921  0.437805  1
  Er  Er11  1  0.166843  0.175171  0.062873  1
  Os  Os12  1  0.043305  0.883991  0.250839  1
  Os  Os13  1  0.456151  0.382805  0.250820  1
  Os  Os14  1  0.955860  0.116778  0.750314  1
  Os  Os15  1  0.544924  0.616387  0.748860  1
