# generated using pymatgen
data_Ba4Sr4Ta3NbO18
_symmetry_space_group_name_H-M   'P 1'
_cell_length_a   6.07094700
_cell_length_b   6.07094733
_cell_length_c   15.69725200
_cell_angle_alpha   90.00000000
_cell_angle_beta   90.00000000
_cell_angle_gamma   119.99999274
_symmetry_Int_Tables_number   1
_chemical_formula_structural   Ba4Sr4Ta3NbO18
_chemical_formula_sum   'Ba4 Sr4 Ta3 Nb1 O18'
_cell_volume   501.03400304
_cell_formula_units_Z   1
loop_
 _symmetry_equiv_pos_site_id
 _symmetry_equiv_pos_as_xyz
  1  'x, y, z'
loop_
 _atom_site_type_symbol
 _atom_site_label
 _atom_site_symmetry_multiplicity
 _atom_site_fract_x
 _atom_site_fract_y
 _atom_site_fract_z
 _atom_site_occupancy
  Ba  Ba0  1  0.000000  0.000000  0.756132  1
  Ba  Ba1  1  0.000000  0.000000  0.254262  1
  Ba  Ba2  1  0.333333  0.666667  0.387996  1
  Ba  Ba3  1  0.666667  0.333333  0.890987  1
  Sr  Sr4  1  0.666667  0.333333  0.642483  1
  Sr  Sr5  1  0.333333  0.666667  0.141313  1
  Sr  Sr6  1  0.000000  0.000000  0.504672  1
  Sr  Sr7  1  0.000000  0.000000  0.003885  1
  Ta  Ta8  1  0.333333  0.666667  0.842238  1
  Ta  Ta9  1  0.333333  0.666667  0.650623  1
  Ta  Ta10  1  0.666667  0.333333  0.151483  1
  Nb  Nb11  1  0.666667  0.333333  0.344077  1
  O  O12  1  0.529101  0.956467  0.746838  1
  O  O13  1  0.043533  0.572633  0.746838  1
  O  O14  1  0.427367  0.470899  0.746838  1
  O  O15  1  0.469140  0.041364  0.246539  1
  O  O16  1  0.958636  0.427776  0.246539  1
  O  O17  1  0.572224  0.530860  0.246539  1
  O  O18  1  0.080363  0.365847  0.594399  1
  O  O19  1  0.634153  0.714516  0.594399  1
  O  O20  1  0.285484  0.919637  0.594399  1
  O  O21  1  0.918367  0.634014  0.094425  1
  O  O22  1  0.365986  0.284353  0.094425  1
  O  O23  1  0.715647  0.081633  0.094425  1
  O  O24  1  0.885415  0.653517  0.397460  1
  O  O25  1  0.346483  0.231896  0.397460  1
  O  O26  1  0.768104  0.114585  0.397460  1
  O  O27  1  0.116323  0.348648  0.896954  1
  O  O28  1  0.651352  0.767676  0.896954  1
  O  O29  1  0.232324  0.883677  0.896954  1
