# generated using pymatgen
data_HoEr2Ag(Pt2O7)2
_symmetry_space_group_name_H-M   'P 1'
_cell_length_a   7.30206206
_cell_length_b   7.29820786
_cell_length_c   7.17598676
_cell_angle_alpha   59.37724481
_cell_angle_beta   59.41708964
_cell_angle_gamma   59.98252849
_symmetry_Int_Tables_number   1
_chemical_formula_structural   HoEr2Ag(Pt2O7)2
_chemical_formula_sum   'Ho1 Er2 Ag1 Pt4 O14'
_cell_volume   267.88849823
_cell_formula_units_Z   1
loop_
 _symmetry_equiv_pos_site_id
 _symmetry_equiv_pos_as_xyz
  1  'x, y, z'
loop_
 _atom_site_type_symbol
 _atom_site_label
 _atom_site_symmetry_multiplicity
 _atom_site_fract_x
 _atom_site_fract_y
 _atom_site_fract_z
 _atom_site_occupancy
  Ho  Ho0  1  0.625000  0.125000  0.625000  1
  Er  Er1  1  0.625000  0.625000  0.625000  1
  Er  Er2  1  0.125000  0.625000  0.625000  1
  Ag  Ag3  1  0.625000  0.625000  0.125000  1
  Pt  Pt4  1  0.625000  0.125000  0.125000  1
  Pt  Pt5  1  0.125000  0.125000  0.125000  1
  Pt  Pt6  1  0.125000  0.625000  0.125000  1
  Pt  Pt7  1  0.125000  0.125000  0.625000  1
  O  O8  1  0.031001  0.466141  0.471857  1
  O  O9  1  0.791960  0.791940  0.220689  1
  O  O10  1  0.792180  0.195851  0.219791  1
  O  O11  1  0.746597  0.744576  0.762229  1
  O  O12  1  0.054588  0.458060  0.029311  1
  O  O13  1  0.466001  0.030495  0.471791  1
  O  O14  1  0.031713  0.030495  0.471791  1
  O  O15  1  0.503403  0.505424  0.487771  1
  O  O16  1  0.218287  0.219505  0.778209  1
  O  O17  1  0.195412  0.791940  0.220689  1
  O  O18  1  0.783999  0.219505  0.778209  1
  O  O19  1  0.457820  0.054149  0.030209  1
  O  O20  1  0.458040  0.458060  0.029311  1
  O  O21  1  0.218999  0.783859  0.778143  1
