# generated using pymatgen
data_HoTm2In4CoPt
_symmetry_space_group_name_H-M   'P 1'
_cell_length_a   7.89287215
_cell_length_b   7.87713986
_cell_length_c   3.67657500
_cell_angle_alpha   90.00000000
_cell_angle_beta   90.00000000
_cell_angle_gamma   119.84892913
_symmetry_Int_Tables_number   1
_chemical_formula_structural   HoTm2In4CoPt
_chemical_formula_sum   'Ho1 Tm2 In4 Co1 Pt1'
_cell_volume   198.26077412
_cell_formula_units_Z   1
loop_
 _symmetry_equiv_pos_site_id
 _symmetry_equiv_pos_as_xyz
  1  'x, y, z'
loop_
 _atom_site_type_symbol
 _atom_site_label
 _atom_site_symmetry_multiplicity
 _atom_site_fract_x
 _atom_site_fract_y
 _atom_site_fract_z
 _atom_site_occupancy
  Ho  Ho0  1  0.301262  0.258042  0.500000  1
  Tm  Tm1  1  0.741638  0.041609  0.500000  1
  Tm  Tm2  1  0.958445  0.700524  0.500000  1
  In  In3  1  0.080790  0.421588  0.000000  1
  In  In4  1  0.579568  0.661463  0.000000  1
  In  In5  1  0.339681  0.918380  0.000000  1
  In  In6  1  0.667526  0.333659  0.000000  1
  Co  Co7  1  0.333426  0.666680  0.500000  1
  Pt  Pt8  1  0.997666  0.998054  0.000000  1
