# generated using pymatgen
data_Th2CoBr2
_symmetry_space_group_name_H-M   'P 1'
_cell_length_a   10.98917869
_cell_length_b   10.98917875
_cell_length_c   10.98918021
_cell_angle_alpha   21.19607383
_cell_angle_beta   21.19607052
_cell_angle_gamma   21.19607325
_symmetry_Int_Tables_number   1
_chemical_formula_structural   Th2CoBr2
_chemical_formula_sum   'Th2 Co1 Br2'
_cell_volume   151.95395128
_cell_formula_units_Z   1
loop_
 _symmetry_equiv_pos_site_id
 _symmetry_equiv_pos_as_xyz
  1  'x, y, z'
loop_
 _atom_site_type_symbol
 _atom_site_label
 _atom_site_symmetry_multiplicity
 _atom_site_fract_x
 _atom_site_fract_y
 _atom_site_fract_z
 _atom_site_occupancy
  Th  Th0  1  0.620171  0.620171  0.620171  1
  Th  Th1  1  0.379829  0.379830  0.379829  1
  Co  Co2  1  0.000000  0.000000  0.000000  1
  Br  Br3  1  0.221339  0.221339  0.221339  1
  Br  Br4  1  0.778661  0.778661  0.778661  1
