# generated using pymatgen
data_SmTm3(NiB4)4
_symmetry_space_group_name_H-M   'P 1'
_cell_length_a   6.80186521
_cell_length_b   6.80186486
_cell_length_c   6.80186527
_cell_angle_alpha   112.98782812
_cell_angle_beta   112.98782886
_cell_angle_gamma   102.64613380
_symmetry_Int_Tables_number   1
_chemical_formula_structural   SmTm3(NiB4)4
_chemical_formula_sum   'Sm1 Tm3 Ni4 B16'
_cell_volume   239.71359814
_cell_formula_units_Z   1
loop_
 _symmetry_equiv_pos_site_id
 _symmetry_equiv_pos_as_xyz
  1  'x, y, z'
loop_
 _atom_site_type_symbol
 _atom_site_label
 _atom_site_symmetry_multiplicity
 _atom_site_fract_x
 _atom_site_fract_y
 _atom_site_fract_z
 _atom_site_occupancy
  Sm  Sm0  1  0.797091  0.797091  0.000000  1
  Tm  Tm1  1  0.749641  0.249641  0.500000  1
  Tm  Tm2  1  0.249641  0.749641  0.500000  1
  Tm  Tm3  1  0.205228  0.205228  0.000000  1
  Ni  Ni4  1  0.499001  0.269933  0.770932  1
  Ni  Ni5  1  0.499001  0.728069  0.229068  1
  Ni  Ni6  1  0.728069  0.499001  0.229068  1
  Ni  Ni7  1  0.269933  0.499001  0.770932  1
  B  B8  1  0.418485  0.418485  0.530985  1
  B  B9  1  0.887500  0.887500  0.469015  1
  B  B10  1  0.579614  0.114518  0.000000  1
  B  B11  1  0.114518  0.579614  0.000000  1
  B  B12  1  0.579614  0.579614  0.465096  1
  B  B13  1  0.114518  0.114518  0.534904  1
  B  B14  1  0.887500  0.418485  0.000000  1
  B  B15  1  0.418485  0.887500  0.000000  1
  B  B16  1  0.111823  0.276355  0.387638  1
  B  B17  1  0.888718  0.724186  0.612362  1
  B  B18  1  0.888718  0.276355  0.164533  1
  B  B19  1  0.111823  0.724186  0.835467  1
  B  B20  1  0.724186  0.888718  0.612362  1
  B  B21  1  0.276355  0.111823  0.387638  1
  B  B22  1  0.724186  0.111823  0.835467  1
  B  B23  1  0.276355  0.888718  0.164533  1
