# generated using pymatgen
data_Nb3SbTe3
_symmetry_space_group_name_H-M   'P 1'
_cell_length_a   10.64872400
_cell_length_b   10.64872357
_cell_length_c   3.73339200
_cell_angle_alpha   90.00000000
_cell_angle_beta   90.00000000
_cell_angle_gamma   120.00000673
_symmetry_Int_Tables_number   1
_chemical_formula_structural   Nb3SbTe3
_chemical_formula_sum   'Nb6 Sb2 Te6'
_cell_volume   366.63111432
_cell_formula_units_Z   2
loop_
 _symmetry_equiv_pos_site_id
 _symmetry_equiv_pos_as_xyz
  1  'x, y, z'
loop_
 _atom_site_type_symbol
 _atom_site_label
 _atom_site_symmetry_multiplicity
 _atom_site_fract_x
 _atom_site_fract_y
 _atom_site_fract_z
 _atom_site_occupancy
  Nb  Nb0  1  0.619040  0.111828  0.750000  1
  Nb  Nb1  1  0.492787  0.380960  0.750000  1
  Nb  Nb2  1  0.380960  0.888172  0.250000  1
  Nb  Nb3  1  0.888172  0.507213  0.750000  1
  Nb  Nb4  1  0.507213  0.619040  0.250000  1
  Nb  Nb5  1  0.111828  0.492787  0.250000  1
  Sb  Sb6  1  0.333333  0.666667  0.750000  1
  Sb  Sb7  1  0.666667  0.333333  0.250000  1
  Te  Te8  1  0.724857  0.665048  0.750000  1
  Te  Te9  1  0.275143  0.334952  0.250000  1
  Te  Te10  1  0.665048  0.940191  0.250000  1
  Te  Te11  1  0.940191  0.275143  0.750000  1
  Te  Te12  1  0.059809  0.724857  0.250000  1
  Te  Te13  1  0.334952  0.059809  0.750000  1
