# generated using pymatgen
data_PmNd(AlSi)2
_symmetry_space_group_name_H-M   'P 1'
_cell_length_a   5.95411213
_cell_length_b   5.95411141
_cell_length_c   5.95411225
_cell_angle_alpha   138.44242282
_cell_angle_beta   104.65132832
_cell_angle_gamma   89.92977368
_symmetry_Int_Tables_number   1
_chemical_formula_structural   PmNd(AlSi)2
_chemical_formula_sum   'Pm1 Nd1 Al2 Si2'
_cell_volume   129.52736133
_cell_formula_units_Z   1
loop_
 _symmetry_equiv_pos_site_id
 _symmetry_equiv_pos_as_xyz
  1  'x, y, z'
loop_
 _atom_site_type_symbol
 _atom_site_label
 _atom_site_symmetry_multiplicity
 _atom_site_fract_x
 _atom_site_fract_y
 _atom_site_fract_z
 _atom_site_occupancy
  Pm  Pm0  1  0.000148  0.000000  0.000148  1
  Nd  Nd1  1  0.500097  0.500000  0.000097  1
  Al  Al2  1  0.583470  0.250497  0.332974  1
  Al  Al3  1  0.082477  0.749502  0.332974  1
  Si  Si4  1  0.917360  0.250456  0.666904  1
  Si  Si5  1  0.416446  0.749543  0.666903  1
