# generated using pymatgen
data_Ac7La(Yb3Si4)4
_symmetry_space_group_name_H-M   'P 1'
_cell_length_a   8.07644975
_cell_length_b   8.06852300
_cell_length_c   14.95917416
_cell_angle_alpha   89.94197625
_cell_angle_beta   90.11171992
_cell_angle_gamma   90.09838017
_symmetry_Int_Tables_number   1
_chemical_formula_structural   Ac7La(Yb3Si4)4
_chemical_formula_sum   'Ac7 La1 Yb12 Si16'
_cell_volume   974.81110401
_cell_formula_units_Z   1
loop_
 _symmetry_equiv_pos_site_id
 _symmetry_equiv_pos_as_xyz
  1  'x, y, z'
loop_
 _atom_site_type_symbol
 _atom_site_label
 _atom_site_symmetry_multiplicity
 _atom_site_fract_x
 _atom_site_fract_y
 _atom_site_fract_z
 _atom_site_occupancy
  Ac  Ac0  1  0.987540  0.629220  0.045902  1
  Ac  Ac1  1  0.013366  0.370156  0.543895  1
  Ac  Ac2  1  0.629009  0.987165  0.954944  1
  Ac  Ac3  1  0.128724  0.512858  0.795314  1
  Ac  Ac4  1  0.871324  0.487479  0.295817  1
  Ac  Ac5  1  0.512845  0.130059  0.205776  1
  Ac  Ac6  1  0.486681  0.872109  0.703835  1
  La  La7  1  0.378081  0.008094  0.451480  1
  Yb  Yb8  1  0.368858  0.493246  0.375432  1
  Yb  Yb9  1  0.869882  0.006181  0.375459  1
  Yb  Yb10  1  0.994043  0.130745  0.125769  1
  Yb  Yb11  1  0.006935  0.869874  0.624147  1
  Yb  Yb12  1  0.630859  0.506698  0.874894  1
  Yb  Yb13  1  0.491924  0.368569  0.623870  1
  Yb  Yb14  1  0.506164  0.630648  0.125489  1
  Yb  Yb15  1  0.130704  0.993499  0.875095  1
  Yb  Yb16  1  0.685474  0.688458  0.500098  1
  Yb  Yb17  1  0.812325  0.186977  0.749474  1
  Yb  Yb18  1  0.188267  0.813776  0.251098  1
  Yb  Yb19  1  0.312624  0.312497  0.000236  1
  Si  Si20  1  0.083586  0.717851  0.440999  1
  Si  Si21  1  0.918760  0.285754  0.941439  1
  Si  Si22  1  0.708645  0.078495  0.557570  1
  Si  Si23  1  0.214730  0.417125  0.192743  1
  Si  Si24  1  0.785827  0.581003  0.690785  1
  Si  Si25  1  0.418698  0.214715  0.808460  1
  Si  Si26  1  0.580006  0.787333  0.309595  1
  Si  Si27  1  0.285411  0.919082  0.058975  1
  Si  Si28  1  0.839830  0.793699  0.805286  1
  Si  Si29  1  0.163086  0.204123  0.308630  1
  Si  Si30  1  0.792840  0.839643  0.195353  1
  Si  Si31  1  0.295887  0.665920  0.553685  1
  Si  Si32  1  0.706717  0.339834  0.055710  1
  Si  Si33  1  0.655648  0.289480  0.443341  1
  Si  Si34  1  0.339405  0.706140  0.944980  1
  Si  Si35  1  0.205296  0.161496  0.694424  1
