# generated using pymatgen
data_Th3InGa2NiOs2
_symmetry_space_group_name_H-M   'P 1'
_cell_length_a   7.39773946
_cell_length_b   7.43848081
_cell_length_c   3.99286800
_cell_angle_alpha   90.00000000
_cell_angle_beta   90.00000000
_cell_angle_gamma   120.18234706
_symmetry_Int_Tables_number   1
_chemical_formula_structural   Th3InGa2NiOs2
_chemical_formula_sum   'Th3 In1 Ga2 Ni1 Os2'
_cell_volume   189.93190889
_cell_formula_units_Z   1
loop_
 _symmetry_equiv_pos_site_id
 _symmetry_equiv_pos_as_xyz
  1  'x, y, z'
loop_
 _atom_site_type_symbol
 _atom_site_label
 _atom_site_symmetry_multiplicity
 _atom_site_fract_x
 _atom_site_fract_y
 _atom_site_fract_z
 _atom_site_occupancy
  Th  Th0  1  0.000000  0.407108  0.500000  1
  Th  Th1  1  0.575449  0.578403  0.500000  1
  Th  Th2  1  0.424551  0.002955  0.500000  1
  In  In3  1  0.000000  0.765684  0.000000  1
  Ga  Ga4  1  0.237111  0.237544  0.000000  1
  Ga  Ga5  1  0.762889  0.000433  0.000000  1
  Ni  Ni6  1  0.000000  0.016337  0.500000  1
  Os  Os7  1  0.340203  0.665870  0.000000  1
  Os  Os8  1  0.659797  0.325666  0.000000  1
