# generated using pymatgen
data_Er3Tm4Lu(OsBr4)2
_symmetry_space_group_name_H-M   'P 1'
_cell_length_a   8.86590997
_cell_length_b   8.88953364
_cell_length_c   6.48731834
_cell_angle_alpha   89.48747462
_cell_angle_beta   89.58863139
_cell_angle_gamma   89.19659832
_symmetry_Int_Tables_number   1
_chemical_formula_structural   Er3Tm4Lu(OsBr4)2
_chemical_formula_sum   'Er3 Tm4 Lu1 Os2 Br8'
_cell_volume   511.20680159
_cell_formula_units_Z   1
loop_
 _symmetry_equiv_pos_site_id
 _symmetry_equiv_pos_as_xyz
  1  'x, y, z'
loop_
 _atom_site_type_symbol
 _atom_site_label
 _atom_site_symmetry_multiplicity
 _atom_site_fract_x
 _atom_site_fract_y
 _atom_site_fract_z
 _atom_site_occupancy
  Er  Er0  1  0.248527  0.096319  0.492367  1
  Er  Er1  1  0.097315  0.247532  0.992326  1
  Er  Er2  1  0.902377  0.752113  0.008701  1
  Tm  Tm3  1  0.752034  0.098121  0.989219  1
  Tm  Tm4  1  0.098778  0.752267  0.490127  1
  Tm  Tm5  1  0.902031  0.247232  0.510575  1
  Tm  Tm6  1  0.753183  0.903203  0.508772  1
  Lu  Lu7  1  0.244697  0.902540  0.011723  1
  Os  Os8  1  0.994372  0.004781  0.250735  1
  Os  Os9  1  0.005003  0.994665  0.750258  1
  Br  Br10  1  0.419953  0.816727  0.405156  1
  Br  Br11  1  0.581237  0.183706  0.591309  1
  Br  Br12  1  0.184571  0.582014  0.091348  1
  Br  Br13  1  0.816490  0.418877  0.908624  1
  Br  Br14  1  0.414938  0.188789  0.093763  1
  Br  Br15  1  0.583558  0.811473  0.904491  1
  Br  Br16  1  0.810086  0.585349  0.406706  1
  Br  Br17  1  0.190850  0.414290  0.593800  1
