# generated using pymatgen
data_Sr4ScPb3
_symmetry_space_group_name_H-M   'P 1'
_cell_length_a   9.75750675
_cell_length_b   9.75750696
_cell_length_c   9.75750724
_cell_angle_alpha   96.77586857
_cell_angle_beta   96.77623222
_cell_angle_gamma   139.82007160
_symmetry_Int_Tables_number   1
_chemical_formula_structural   Sr4ScPb3
_chemical_formula_sum   'Sr8 Sc2 Pb6'
_cell_volume   562.91306831
_cell_formula_units_Z   2
loop_
 _symmetry_equiv_pos_site_id
 _symmetry_equiv_pos_as_xyz
  1  'x, y, z'
loop_
 _atom_site_type_symbol
 _atom_site_label
 _atom_site_symmetry_multiplicity
 _atom_site_fract_x
 _atom_site_fract_y
 _atom_site_fract_z
 _atom_site_occupancy
  Sr  Sr0  1  0.085595  0.214460  0.300059  1
  Sr  Sr1  1  0.914405  0.785540  0.699941  1
  Sr  Sr2  1  0.785537  0.085595  0.871135  1
  Sr  Sr3  1  0.414401  0.714460  0.128865  1
  Sr  Sr4  1  0.214463  0.914405  0.128865  1
  Sr  Sr5  1  0.585599  0.285540  0.871135  1
  Sr  Sr6  1  0.714460  0.585595  0.300059  1
  Sr  Sr7  1  0.285540  0.414405  0.699941  1
  Sc  Sc8  1  0.250000  0.750000  0.500000  1
  Sc  Sc9  1  0.750000  0.250000  0.500000  1
  Pb  Pb10  1  0.140481  0.640481  0.780960  1
  Pb  Pb11  1  0.859519  0.359519  0.219040  1
  Pb  Pb12  1  0.359519  0.140481  0.500000  1
  Pb  Pb13  1  0.640481  0.859519  0.500000  1
  Pb  Pb14  1  0.250000  0.250000  0.000000  1
  Pb  Pb15  1  0.750000  0.750000  0.000000  1
