# generated using pymatgen
data_Tb7Dy3(TmRu2)2
_symmetry_space_group_name_H-M   'P 1'
_cell_length_a   6.31487942
_cell_length_b   7.31232051
_cell_length_c   9.19765123
_cell_angle_alpha   89.90256287
_cell_angle_beta   89.97498720
_cell_angle_gamma   89.90524657
_symmetry_Int_Tables_number   1
_chemical_formula_structural   Tb7Dy3(TmRu2)2
_chemical_formula_sum   'Tb7 Dy3 Tm2 Ru4'
_cell_volume   424.71339266
_cell_formula_units_Z   1
loop_
 _symmetry_equiv_pos_site_id
 _symmetry_equiv_pos_as_xyz
  1  'x, y, z'
loop_
 _atom_site_type_symbol
 _atom_site_label
 _atom_site_symmetry_multiplicity
 _atom_site_fract_x
 _atom_site_fract_y
 _atom_site_fract_z
 _atom_site_occupancy
  Tb  Tb0  1  0.633261  0.040024  0.252444  1
  Tb  Tb1  1  0.365919  0.959388  0.747766  1
  Tb  Tb2  1  0.133918  0.459694  0.747664  1
  Tb  Tb3  1  0.866833  0.540830  0.252157  1
  Tb  Tb4  1  0.170578  0.177350  0.065814  1
  Tb  Tb5  1  0.829867  0.822683  0.934490  1
  Tb  Tb6  1  0.669217  0.323152  0.934435  1
  Dy  Dy7  1  0.830096  0.823150  0.563622  1
  Dy  Dy8  1  0.330769  0.676875  0.066336  1
  Dy  Dy9  1  0.169509  0.176260  0.436482  1
  Tm  Tm10  1  0.331398  0.676066  0.435402  1
  Tm  Tm11  1  0.668466  0.324519  0.564099  1
  Ru  Ru12  1  0.459747  0.386352  0.252762  1
  Ru  Ru13  1  0.539553  0.614118  0.747916  1
  Ru  Ru14  1  0.958768  0.114374  0.746112  1
  Ru  Ru15  1  0.042101  0.885165  0.252500  1
