# generated using pymatgen
data_Tb2Fe2CuSi2Ni
_symmetry_space_group_name_H-M   'P 1'
_cell_length_a   8.42961790
_cell_length_b   8.42961787
_cell_length_c   3.97374300
_cell_angle_alpha   90.00000000
_cell_angle_beta   90.00000000
_cell_angle_gamma   152.64087529
_symmetry_Int_Tables_number   1
_chemical_formula_structural   Tb2Fe2CuSi2Ni
_chemical_formula_sum   'Tb2 Fe2 Cu1 Si2 Ni1'
_cell_volume   129.76683739
_cell_formula_units_Z   1
loop_
 _symmetry_equiv_pos_site_id
 _symmetry_equiv_pos_as_xyz
  1  'x, y, z'
loop_
 _atom_site_type_symbol
 _atom_site_label
 _atom_site_symmetry_multiplicity
 _atom_site_fract_x
 _atom_site_fract_y
 _atom_site_fract_z
 _atom_site_occupancy
  Tb  Tb0  1  0.610046  0.389954  0.250000  1
  Tb  Tb1  1  0.392941  0.607059  0.750000  1
  Fe  Fe2  1  0.251466  0.748534  0.250000  1
  Fe  Fe3  1  0.748148  0.251852  0.750000  1
  Cu  Cu4  1  0.038080  0.961920  0.750000  1
  Si  Si5  1  0.817320  0.182680  0.250000  1
  Si  Si6  1  0.184112  0.815888  0.750000  1
  Ni  Ni7  1  0.957887  0.042113  0.250000  1
