# generated using pymatgen
data_LiMnCo4P3
_symmetry_space_group_name_H-M   'P 1'
_cell_length_a   3.54188000
_cell_length_b   10.10693700
_cell_length_c   11.72751600
_cell_angle_alpha   90.00000000
_cell_angle_beta   90.00000000
_cell_angle_gamma   90.00000000
_symmetry_Int_Tables_number   1
_chemical_formula_structural   LiMnCo4P3
_chemical_formula_sum   'Li4 Mn4 Co16 P12'
_cell_volume   419.81643446
_cell_formula_units_Z   4
loop_
 _symmetry_equiv_pos_site_id
 _symmetry_equiv_pos_as_xyz
  1  'x, y, z'
loop_
 _atom_site_type_symbol
 _atom_site_label
 _atom_site_symmetry_multiplicity
 _atom_site_fract_x
 _atom_site_fract_y
 _atom_site_fract_z
 _atom_site_occupancy
  Li  Li0  1  0.250000  0.580210  0.705490  1
  Li  Li1  1  0.250000  0.919790  0.205490  1
  Li  Li2  1  0.750000  0.419790  0.294510  1
  Li  Li3  1  0.750000  0.080210  0.794510  1
  Mn  Mn4  1  0.250000  0.711556  0.989422  1
  Mn  Mn5  1  0.250000  0.788444  0.489422  1
  Mn  Mn6  1  0.750000  0.288444  0.010578  1
  Mn  Mn7  1  0.750000  0.211556  0.510578  1
  Co  Co8  1  0.250000  0.406912  0.485801  1
  Co  Co9  1  0.250000  0.093088  0.985801  1
  Co  Co10  1  0.750000  0.593088  0.514199  1
  Co  Co11  1  0.750000  0.906912  0.014199  1
  Co  Co12  1  0.250000  0.218775  0.174635  1
  Co  Co13  1  0.250000  0.281226  0.674635  1
  Co  Co14  1  0.750000  0.781226  0.825365  1
  Co  Co15  1  0.750000  0.718774  0.325365  1
  Co  Co16  1  0.250000  0.880401  0.700205  1
  Co  Co17  1  0.250000  0.619599  0.200205  1
  Co  Co18  1  0.750000  0.119599  0.299795  1
  Co  Co19  1  0.750000  0.380401  0.799795  1
  Co  Co20  1  0.250000  0.463680  0.931561  1
  Co  Co21  1  0.250000  0.036320  0.431561  1
  Co  Co22  1  0.750000  0.536320  0.068439  1
  Co  Co23  1  0.750000  0.963680  0.568439  1
  P  P24  1  0.250000  0.420359  0.117023  1
  P  P25  1  0.250000  0.079641  0.617023  1
  P  P26  1  0.750000  0.579641  0.882977  1
  P  P27  1  0.750000  0.920359  0.382977  1
  P  P28  1  0.250000  0.260441  0.863040  1
  P  P29  1  0.250000  0.239559  0.363040  1
  P  P30  1  0.750000  0.739559  0.136960  1
  P  P31  1  0.750000  0.760441  0.636960  1
  P  P32  1  0.250000  0.591949  0.387016  1
  P  P33  1  0.250000  0.908051  0.887016  1
  P  P34  1  0.750000  0.408051  0.612984  1
  P  P35  1  0.750000  0.091949  0.112984  1
