# generated using pymatgen
data_Er2TmZnCd3Au2
_symmetry_space_group_name_H-M   'P 1'
_cell_length_a   3.76581300
_cell_length_b   7.82946772
_cell_length_c   7.82256305
_cell_angle_alpha   120.02920221
_cell_angle_beta   90.00000000
_cell_angle_gamma   90.00000000
_symmetry_Int_Tables_number   1
_chemical_formula_structural   Er2TmZnCd3Au2
_chemical_formula_sum   'Er2 Tm1 Zn1 Cd3 Au2'
_cell_volume   199.68379451
_cell_formula_units_Z   1
loop_
 _symmetry_equiv_pos_site_id
 _symmetry_equiv_pos_as_xyz
  1  'x, y, z'
loop_
 _atom_site_type_symbol
 _atom_site_label
 _atom_site_symmetry_multiplicity
 _atom_site_fract_x
 _atom_site_fract_y
 _atom_site_fract_z
 _atom_site_occupancy
  Er  Er0  1  0.000000  0.408396  0.408372  1
  Er  Er1  1  0.000000  0.000024  0.591628  1
  Tm  Tm2  1  0.000000  0.591369  0.000000  1
  Zn  Zn3  1  0.000000  0.000044  0.000000  1
  Cd  Cd4  1  0.500000  0.743380  0.743877  1
  Cd  Cd5  1  0.500000  0.999503  0.256123  1
  Cd  Cd6  1  0.500000  0.256769  0.000000  1
  Au  Au7  1  0.500000  0.666492  0.332469  1
  Au  Au8  1  0.500000  0.334022  0.667531  1
