# generated using pymatgen
data_Cs2Sm2MnSe5
_symmetry_space_group_name_H-M   'P 1'
_cell_length_a   4.29518900
_cell_length_b   16.44205900
_cell_length_c   18.93389500
_cell_angle_alpha   90.00000000
_cell_angle_beta   90.00000000
_cell_angle_gamma   90.00000000
_symmetry_Int_Tables_number   1
_chemical_formula_structural   Cs2Sm2MnSe5
_chemical_formula_sum   'Cs8 Sm8 Mn4 Se20'
_cell_volume   1337.14481728
_cell_formula_units_Z   4
loop_
 _symmetry_equiv_pos_site_id
 _symmetry_equiv_pos_as_xyz
  1  'x, y, z'
loop_
 _atom_site_type_symbol
 _atom_site_label
 _atom_site_symmetry_multiplicity
 _atom_site_fract_x
 _atom_site_fract_y
 _atom_site_fract_z
 _atom_site_occupancy
  Cs  Cs0  1  0.250000  0.507947  0.123646  1
  Cs  Cs1  1  0.750000  0.533284  0.383230  1
  Cs  Cs2  1  0.250000  0.966716  0.883230  1
  Cs  Cs3  1  0.750000  0.992053  0.623646  1
  Cs  Cs4  1  0.750000  0.492053  0.876354  1
  Cs  Cs5  1  0.750000  0.033284  0.116770  1
  Cs  Cs6  1  0.250000  0.466716  0.616770  1
  Cs  Cs7  1  0.250000  0.007947  0.376354  1
  Sm  Sm8  1  0.250000  0.251249  0.988596  1
  Sm  Sm9  1  0.750000  0.248751  0.488596  1
  Sm  Sm10  1  0.750000  0.712916  0.699579  1
  Sm  Sm11  1  0.750000  0.748751  0.011404  1
  Sm  Sm12  1  0.250000  0.787084  0.199579  1
  Sm  Sm13  1  0.750000  0.212916  0.800421  1
  Sm  Sm14  1  0.250000  0.751249  0.511404  1
  Sm  Sm15  1  0.250000  0.287084  0.300421  1
  Mn  Mn16  1  0.750000  0.793125  0.355327  1
  Mn  Mn17  1  0.750000  0.293125  0.144673  1
  Mn  Mn18  1  0.250000  0.206875  0.644673  1
  Mn  Mn19  1  0.250000  0.706875  0.855327  1
  Se  Se20  1  0.250000  0.107613  0.744460  1
  Se  Se21  1  0.250000  0.361815  0.443079  1
  Se  Se22  1  0.250000  0.861815  0.056921  1
  Se  Se23  1  0.750000  0.892387  0.255540  1
  Se  Se24  1  0.750000  0.392387  0.244460  1
  Se  Se25  1  0.750000  0.792575  0.849836  1
  Se  Se26  1  0.250000  0.318060  0.847273  1
  Se  Se27  1  0.250000  0.707425  0.349836  1
  Se  Se28  1  0.750000  0.681940  0.152727  1
  Se  Se29  1  0.250000  0.818060  0.652727  1
  Se  Se30  1  0.250000  0.137179  0.528628  1
  Se  Se31  1  0.250000  0.207425  0.150164  1
  Se  Se32  1  0.750000  0.292575  0.650164  1
  Se  Se33  1  0.750000  0.862821  0.471372  1
  Se  Se34  1  0.750000  0.638185  0.556921  1
  Se  Se35  1  0.250000  0.637179  0.971372  1
  Se  Se36  1  0.250000  0.607613  0.755540  1
  Se  Se37  1  0.750000  0.138185  0.943079  1
  Se  Se38  1  0.750000  0.181940  0.347273  1
  Se  Se39  1  0.750000  0.362821  0.028628  1
