# generated using pymatgen
data_TbTm3(MnAl3)2
_symmetry_space_group_name_H-M   'P 1'
_cell_length_a   9.34264183
_cell_length_b   9.34264181
_cell_length_c   9.34264202
_cell_angle_alpha   34.39697781
_cell_angle_beta   34.39697589
_cell_angle_gamma   34.39697850
_symmetry_Int_Tables_number   1
_chemical_formula_structural   TbTm3(MnAl3)2
_chemical_formula_sum   'Tb1 Tm3 Mn2 Al6'
_cell_volume   232.13349031
_cell_formula_units_Z   1
loop_
 _symmetry_equiv_pos_site_id
 _symmetry_equiv_pos_as_xyz
  1  'x, y, z'
loop_
 _atom_site_type_symbol
 _atom_site_label
 _atom_site_symmetry_multiplicity
 _atom_site_fract_x
 _atom_site_fract_y
 _atom_site_fract_z
 _atom_site_occupancy
  Tb  Tb0  1  0.813196  0.813196  0.813196  1
  Tm  Tm1  1  0.313362  0.313362  0.313362  1
  Tm  Tm2  1  0.686506  0.686506  0.686506  1
  Tm  Tm3  1  0.186698  0.186698  0.186698  1
  Mn  Mn4  1  0.500080  0.500080  0.500080  1
  Mn  Mn5  1  0.000020  0.000020  0.000020  1
  Al  Al6  1  0.249894  0.249894  0.749607  1
  Al  Al7  1  0.750081  0.750081  0.250579  1
  Al  Al8  1  0.249894  0.749607  0.249894  1
  Al  Al9  1  0.750081  0.250579  0.750081  1
  Al  Al10  1  0.749607  0.249894  0.249894  1
  Al  Al11  1  0.250579  0.750081  0.750081  1
