# generated using pymatgen
data_NaTbHoGa8Ag3
_symmetry_space_group_name_H-M   'P 1'
_cell_length_a   4.36068169
_cell_length_b   8.37828569
_cell_length_c   8.37828537
_cell_angle_alpha   70.81752087
_cell_angle_beta   74.91586647
_cell_angle_gamma   74.91586700
_symmetry_Int_Tables_number   1
_chemical_formula_structural   NaTbHoGa8Ag3
_chemical_formula_sum   'Na1 Tb1 Ho1 Ga8 Ag3'
_cell_volume   273.97227733
_cell_formula_units_Z   1
loop_
 _symmetry_equiv_pos_site_id
 _symmetry_equiv_pos_as_xyz
  1  'x, y, z'
loop_
 _atom_site_type_symbol
 _atom_site_label
 _atom_site_symmetry_multiplicity
 _atom_site_fract_x
 _atom_site_fract_y
 _atom_site_fract_z
 _atom_site_occupancy
  Na  Na0  1  0.500029  0.499971  0.499971  1
  Tb  Tb1  1  0.204942  0.795058  0.795058  1
  Ho  Ho2  1  0.795243  0.204757  0.204757  1
  Ga  Ga3  1  0.357151  0.361868  0.923830  1
  Ga  Ga4  1  0.642790  0.637828  0.076592  1
  Ga  Ga5  1  0.357151  0.923830  0.361868  1
  Ga  Ga6  1  0.642790  0.076592  0.637828  1
  Ga  Ga7  1  0.159865  0.473396  0.206873  1
  Ga  Ga8  1  0.840347  0.526186  0.793120  1
  Ga  Ga9  1  0.159865  0.206873  0.473396  1
  Ga  Ga10  1  0.840347  0.793120  0.526186  1
  Ag  Ag11  1  0.499810  0.000190  0.000190  1
  Ag  Ag12  1  0.999834  0.810868  0.189463  1
  Ag  Ag13  1  0.999834  0.189463  0.810868  1
