# generated using pymatgen
data_Nb10AlIr3Os
_symmetry_space_group_name_H-M   'P 1'
_cell_length_a   9.92108902
_cell_length_b   9.94652298
_cell_length_c   5.17258800
_cell_angle_alpha   90.00000000
_cell_angle_beta   90.00000000
_cell_angle_gamma   90.17051258
_symmetry_Int_Tables_number   1
_chemical_formula_structural   Nb10AlIr3Os
_chemical_formula_sum   'Nb20 Al2 Ir6 Os2'
_cell_volume   510.43048152
_cell_formula_units_Z   2
loop_
 _symmetry_equiv_pos_site_id
 _symmetry_equiv_pos_as_xyz
  1  'x, y, z'
loop_
 _atom_site_type_symbol
 _atom_site_label
 _atom_site_symmetry_multiplicity
 _atom_site_fract_x
 _atom_site_fract_y
 _atom_site_fract_z
 _atom_site_occupancy
  Nb  Nb0  1  0.396863  0.395220  0.000000  1
  Nb  Nb1  1  0.896134  0.103720  0.500000  1
  Nb  Nb2  1  0.103866  0.896280  0.500000  1
  Nb  Nb3  1  0.603137  0.604780  0.000000  1
  Nb  Nb4  1  0.126651  0.464320  0.000000  1
  Nb  Nb5  1  0.965192  0.371805  0.500000  1
  Nb  Nb6  1  0.034808  0.628195  0.500000  1
  Nb  Nb7  1  0.873349  0.535680  0.000000  1
  Nb  Nb8  1  0.372050  0.964423  0.500000  1
  Nb  Nb9  1  0.627950  0.035577  0.500000  1
  Nb  Nb10  1  0.465027  0.126787  0.000000  1
  Nb  Nb11  1  0.534973  0.873213  0.000000  1
  Nb  Nb12  1  0.181913  0.183788  0.252583  1
  Nb  Nb13  1  0.684557  0.317441  0.752717  1
  Nb  Nb14  1  0.315443  0.682559  0.752717  1
  Nb  Nb15  1  0.818087  0.816212  0.252583  1
  Nb  Nb16  1  0.315443  0.682559  0.247283  1
  Nb  Nb17  1  0.684557  0.317441  0.247283  1
  Nb  Nb18  1  0.181913  0.183788  0.747417  1
  Nb  Nb19  1  0.818087  0.816212  0.747417  1
  Al  Al20  1  0.000000  0.000000  0.000000  1
  Al  Al21  1  0.500000  0.500000  0.500000  1
  Ir  Ir22  1  0.257571  0.937734  0.000000  1
  Ir  Ir23  1  0.438192  0.241273  0.500000  1
  Ir  Ir24  1  0.561808  0.758727  0.500000  1
  Ir  Ir25  1  0.742429  0.062266  0.000000  1
  Ir  Ir26  1  0.242631  0.437340  0.500000  1
  Ir  Ir27  1  0.757369  0.562660  0.500000  1
  Os  Os28  1  0.937349  0.257150  0.000000  1
  Os  Os29  1  0.062651  0.742850  0.000000  1
