# generated using pymatgen
data_YTaCo4P3
_symmetry_space_group_name_H-M   'P 1'
_cell_length_a   3.68326800
_cell_length_b   10.53328200
_cell_length_c   11.96633100
_cell_angle_alpha   90.00000000
_cell_angle_beta   90.00000000
_cell_angle_gamma   90.00000000
_symmetry_Int_Tables_number   1
_chemical_formula_structural   YTaCo4P3
_chemical_formula_sum   'Y4 Ta4 Co16 P12'
_cell_volume   464.25655346
_cell_formula_units_Z   4
loop_
 _symmetry_equiv_pos_site_id
 _symmetry_equiv_pos_as_xyz
  1  'x, y, z'
loop_
 _atom_site_type_symbol
 _atom_site_label
 _atom_site_symmetry_multiplicity
 _atom_site_fract_x
 _atom_site_fract_y
 _atom_site_fract_z
 _atom_site_occupancy
  Y  Y0  1  0.250000  0.917391  0.205395  1
  Y  Y1  1  0.750000  0.082609  0.794605  1
  Y  Y2  1  0.750000  0.417391  0.294605  1
  Y  Y3  1  0.250000  0.582609  0.705395  1
  Ta  Ta4  1  0.250000  0.793612  0.488965  1
  Ta  Ta5  1  0.750000  0.206388  0.511035  1
  Ta  Ta6  1  0.750000  0.293612  0.011035  1
  Ta  Ta7  1  0.250000  0.706388  0.988965  1
  Co  Co8  1  0.250000  0.093687  0.989931  1
  Co  Co9  1  0.750000  0.906313  0.010069  1
  Co  Co10  1  0.750000  0.593687  0.510069  1
  Co  Co11  1  0.250000  0.406313  0.489931  1
  Co  Co12  1  0.250000  0.277369  0.676848  1
  Co  Co13  1  0.750000  0.722631  0.323152  1
  Co  Co14  1  0.750000  0.777369  0.823152  1
  Co  Co15  1  0.250000  0.222631  0.176848  1
  Co  Co16  1  0.250000  0.612003  0.200879  1
  Co  Co17  1  0.750000  0.387997  0.799121  1
  Co  Co18  1  0.750000  0.112003  0.299121  1
  Co  Co19  1  0.250000  0.887997  0.700879  1
  Co  Co20  1  0.250000  0.034838  0.433151  1
  Co  Co21  1  0.750000  0.965162  0.566849  1
  Co  Co22  1  0.750000  0.534838  0.066849  1
  Co  Co23  1  0.250000  0.465162  0.933151  1
  P  P24  1  0.250000  0.077708  0.616341  1
  P  P25  1  0.750000  0.922292  0.383659  1
  P  P26  1  0.750000  0.577708  0.883659  1
  P  P27  1  0.250000  0.422292  0.116341  1
  P  P28  1  0.250000  0.230665  0.361570  1
  P  P29  1  0.750000  0.769335  0.638430  1
  P  P30  1  0.750000  0.730665  0.138430  1
  P  P31  1  0.250000  0.269335  0.861570  1
  P  P32  1  0.250000  0.908366  0.889922  1
  P  P33  1  0.750000  0.091634  0.110078  1
  P  P34  1  0.750000  0.408366  0.610078  1
  P  P35  1  0.250000  0.591634  0.389922  1
