# generated using pymatgen
data_Yb4Tm3Lu(B6Os)4
_symmetry_space_group_name_H-M   'P 1'
_cell_length_a   3.61855500
_cell_length_b   9.10689800
_cell_length_c   11.49333400
_cell_angle_alpha   90.00039444
_cell_angle_beta   90.00000000
_cell_angle_gamma   90.00000000
_symmetry_Int_Tables_number   1
_chemical_formula_structural   Yb4Tm3Lu(B6Os)4
_chemical_formula_sum   'Yb4 Tm3 Lu1 B24 Os4'
_cell_volume   378.74915975
_cell_formula_units_Z   1
loop_
 _symmetry_equiv_pos_site_id
 _symmetry_equiv_pos_as_xyz
  1  'x, y, z'
loop_
 _atom_site_type_symbol
 _atom_site_label
 _atom_site_symmetry_multiplicity
 _atom_site_fract_x
 _atom_site_fract_y
 _atom_site_fract_z
 _atom_site_occupancy
  Yb  Yb0  1  0.000000  0.324166  0.414700  1
  Yb  Yb1  1  0.000000  0.675876  0.585195  1
  Yb  Yb2  1  0.000000  0.824265  0.085380  1
  Yb  Yb3  1  0.000000  0.175747  0.914783  1
  Tm  Tm4  1  0.000000  0.057592  0.631821  1
  Tm  Tm5  1  0.000000  0.442274  0.132326  1
  Tm  Tm6  1  0.000000  0.557704  0.867841  1
  Lu  Lu7  1  0.000000  0.942145  0.367611  1
  B  B8  1  0.500000  0.553981  0.432902  1
  B  B9  1  0.500000  0.446355  0.566996  1
  B  B10  1  0.500000  0.053651  0.067248  1
  B  B11  1  0.500000  0.946294  0.932966  1
  B  B12  1  0.500000  0.749742  0.417505  1
  B  B13  1  0.500000  0.250926  0.582479  1
  B  B14  1  0.500000  0.248876  0.082680  1
  B  B15  1  0.500000  0.750989  0.917450  1
  B  B16  1  0.500000  0.792153  0.264413  1
  B  B17  1  0.500000  0.208345  0.735673  1
  B  B18  1  0.500000  0.291347  0.235825  1
  B  B19  1  0.500000  0.708419  0.764248  1
  B  B20  1  0.500000  0.630926  0.185521  1
  B  B21  1  0.500000  0.369252  0.814575  1
  B  B22  1  0.500000  0.130226  0.314949  1
  B  B23  1  0.500000  0.869299  0.685310  1
  B  B24  1  0.500000  0.982367  0.211606  1
  B  B25  1  0.500000  0.017319  0.788697  1
  B  B26  1  0.500000  0.482915  0.288854  1
  B  B27  1  0.500000  0.517264  0.711224  1
  B  B28  1  0.500000  0.596211  0.026508  1
  B  B29  1  0.500000  0.403764  0.973586  1
  B  B30  1  0.500000  0.095493  0.473043  1
  B  B31  1  0.500000  0.903906  0.525746  1
  Os  Os32  1  0.000000  0.639858  0.319836  1
  Os  Os33  1  0.000000  0.360714  0.680128  1
  Os  Os34  1  0.000000  0.138784  0.180683  1
  Os  Os35  1  0.000000  0.860852  0.819692  1
