# generated using pymatgen
data_Ta4Tc(NiP)4
_symmetry_space_group_name_H-M   'P 1'
_cell_length_a   7.16673334
_cell_length_b   7.16673264
_cell_length_c   7.16706980
_cell_angle_alpha   93.53491696
_cell_angle_beta   93.57037536
_cell_angle_gamma   151.17103065
_symmetry_Int_Tables_number   1
_chemical_formula_structural   Ta4Tc(NiP)4
_chemical_formula_sum   'Ta4 Tc1 Ni4 P4'
_cell_volume   171.91679713
_cell_formula_units_Z   1
loop_
 _symmetry_equiv_pos_site_id
 _symmetry_equiv_pos_as_xyz
  1  'x, y, z'
loop_
 _atom_site_type_symbol
 _atom_site_label
 _atom_site_symmetry_multiplicity
 _atom_site_fract_x
 _atom_site_fract_y
 _atom_site_fract_z
 _atom_site_occupancy
  Ta  Ta0  1  0.871114  0.196173  0.067286  1
  Ta  Ta1  1  0.128886  0.803827  0.932714  1
  Ta  Ta2  1  0.196082  0.129076  0.325159  1
  Ta  Ta3  1  0.803918  0.870924  0.674841  1
  Tc  Tc4  1  0.500000  0.500000  0.000000  1
  Ni  Ni5  1  0.609619  0.087775  0.697395  1
  Ni  Ni6  1  0.390381  0.912225  0.302605  1
  Ni  Ni7  1  0.087754  0.390461  0.478214  1
  Ni  Ni8  1  0.912246  0.609539  0.521786  1
  P  P9  1  0.754119  0.443667  0.197785  1
  P  P10  1  0.245881  0.556333  0.802215  1
  P  P11  1  0.443790  0.245953  0.689744  1
  P  P12  1  0.556210  0.754047  0.310256  1
