# generated using pymatgen
data_YEr3Al16(GaRh3)2
_symmetry_space_group_name_H-M   'P 1'
_cell_length_a   7.52050442
_cell_length_b   7.52237709
_cell_length_c   9.50869300
_cell_angle_alpha   90.00000000
_cell_angle_beta   90.00000000
_cell_angle_gamma   119.31287413
_symmetry_Int_Tables_number   1
_chemical_formula_structural   YEr3Al16(GaRh3)2
_chemical_formula_sum   'Y1 Er3 Al16 Ga2 Rh6'
_cell_volume   469.04996263
_cell_formula_units_Z   1
loop_
 _symmetry_equiv_pos_site_id
 _symmetry_equiv_pos_as_xyz
  1  'x, y, z'
loop_
 _atom_site_type_symbol
 _atom_site_label
 _atom_site_symmetry_multiplicity
 _atom_site_fract_x
 _atom_site_fract_y
 _atom_site_fract_z
 _atom_site_occupancy
  Y  Y0  1  0.994295  0.673439  0.750000  1
  Er  Er1  1  0.005679  0.326277  0.250000  1
  Er  Er2  1  0.673637  0.994406  0.750000  1
  Er  Er3  1  0.326325  0.005717  0.250000  1
  Al  Al4  1  0.001268  0.335167  0.573206  1
  Al  Al5  1  0.998759  0.664313  0.425782  1
  Al  Al6  1  0.998759  0.664313  0.074218  1
  Al  Al7  1  0.336216  0.001775  0.926781  1
  Al  Al8  1  0.001268  0.335167  0.926794  1
  Al  Al9  1  0.664327  0.998782  0.073666  1
  Al  Al10  1  0.664327  0.998782  0.426334  1
  Al  Al11  1  0.336216  0.001775  0.573219  1
  Al  Al12  1  0.334005  0.334020  0.053258  1
  Al  Al13  1  0.665493  0.665986  0.947339  1
  Al  Al14  1  0.665493  0.665986  0.552661  1
  Al  Al15  1  0.334005  0.334020  0.446742  1
  Al  Al16  1  0.338158  0.549841  0.750000  1
  Al  Al17  1  0.662276  0.449946  0.250000  1
  Al  Al18  1  0.549183  0.336950  0.750000  1
  Al  Al19  1  0.450020  0.662407  0.250000  1
  Ga  Ga20  1  0.131336  0.131831  0.750000  1
  Ga  Ga21  1  0.868900  0.868956  0.250000  1
  Rh  Rh22  1  0.671946  0.328096  0.499986  1
  Rh  Rh23  1  0.328052  0.671944  0.499990  1
  Rh  Rh24  1  0.328052  0.671944  0.000010  1
  Rh  Rh25  1  0.671946  0.328096  0.000014  1
  Rh  Rh26  1  0.000029  0.000032  0.499943  1
  Rh  Rh27  1  0.000029  0.000032  0.000057  1
