# generated using pymatgen
data_SmThCrN3
_symmetry_space_group_name_H-M   'P 1'
_cell_length_a   3.54063325
_cell_length_b   3.75833263
_cell_length_c   6.90334906
_cell_angle_alpha   105.79586774
_cell_angle_beta   104.85913571
_cell_angle_gamma   89.99998712
_symmetry_Int_Tables_number   1
_chemical_formula_structural   SmThCrN3
_chemical_formula_sum   'Sm1 Th1 Cr1 N3'
_cell_volume   85.19616855
_cell_formula_units_Z   1
loop_
 _symmetry_equiv_pos_site_id
 _symmetry_equiv_pos_as_xyz
  1  'x, y, z'
loop_
 _atom_site_type_symbol
 _atom_site_label
 _atom_site_symmetry_multiplicity
 _atom_site_fract_x
 _atom_site_fract_y
 _atom_site_fract_z
 _atom_site_occupancy
  Sm  Sm0  1  0.644136  0.644136  0.288270  1
  Th  Th1  1  0.350932  0.350932  0.701865  1
  Cr  Cr2  1  0.003964  0.003964  0.007928  1
  N  N3  1  0.999735  0.499736  0.999469  1
  N  N4  1  0.164727  0.164727  0.329454  1
  N  N5  1  0.836508  0.836508  0.673014  1
