# generated using pymatgen
data_Yb4AlGaPt4
_symmetry_space_group_name_H-M   'P 1'
_cell_length_a   5.66936961
_cell_length_b   5.66937008
_cell_length_c   7.80565485
_cell_angle_alpha   78.34872815
_cell_angle_beta   78.34872671
_cell_angle_gamma   59.38576691
_symmetry_Int_Tables_number   1
_chemical_formula_structural   Yb4AlGaPt4
_chemical_formula_sum   'Yb4 Al1 Ga1 Pt4'
_cell_volume   210.00170318
_cell_formula_units_Z   1
loop_
 _symmetry_equiv_pos_site_id
 _symmetry_equiv_pos_as_xyz
  1  'x, y, z'
loop_
 _atom_site_type_symbol
 _atom_site_label
 _atom_site_symmetry_multiplicity
 _atom_site_fract_x
 _atom_site_fract_y
 _atom_site_fract_z
 _atom_site_occupancy
  Yb  Yb0  1  0.784197  0.513761  0.849084  1
  Yb  Yb1  1  0.486239  0.215803  0.650916  1
  Yb  Yb2  1  0.213502  0.487800  0.146220  1
  Yb  Yb3  1  0.512200  0.786498  0.353780  1
  Al  Al4  1  0.877233  0.122767  0.250000  1
  Ga  Ga5  1  0.137609  0.862391  0.750000  1
  Pt  Pt6  1  0.997664  0.738451  0.501971  1
  Pt  Pt7  1  0.261549  0.002336  0.998029  1
  Pt  Pt8  1  0.994008  0.264202  0.492148  1
  Pt  Pt9  1  0.735798  0.005992  0.007852  1
