# generated using pymatgen
data_Tm7UTa4(NbSi2)8
_symmetry_space_group_name_H-M   'P 1'
_cell_length_a   7.00648309
_cell_length_b   7.01527635
_cell_length_c   12.94398188
_cell_angle_alpha   90.01941466
_cell_angle_beta   89.83714516
_cell_angle_gamma   90.11336443
_symmetry_Int_Tables_number   1
_chemical_formula_structural   Tm7UTa4(NbSi2)8
_chemical_formula_sum   'Tm7 U1 Ta4 Nb8 Si16'
_cell_volume   636.22411917
_cell_formula_units_Z   1
loop_
 _symmetry_equiv_pos_site_id
 _symmetry_equiv_pos_as_xyz
  1  'x, y, z'
loop_
 _atom_site_type_symbol
 _atom_site_label
 _atom_site_symmetry_multiplicity
 _atom_site_fract_x
 _atom_site_fract_y
 _atom_site_fract_z
 _atom_site_occupancy
  Tm  Tm0  1  0.997863  0.339502  0.217892  1
  Tm  Tm1  1  0.001047  0.659628  0.717409  1
  Tm  Tm2  1  0.159956  0.500074  0.467989  1
  Tm  Tm3  1  0.500651  0.840633  0.031751  1
  Tm  Tm4  1  0.841464  0.501418  0.967594  1
  Tm  Tm5  1  0.499606  0.159078  0.532221  1
  Tm  Tm6  1  0.340931  0.997880  0.782223  1
  U  U7  1  0.659598  0.999753  0.283573  1
  Ta  Ta8  1  0.170448  0.170978  0.999339  1
  Ta  Ta9  1  0.827677  0.832006  0.498100  1
  Ta  Ta10  1  0.333289  0.673710  0.250653  1
  Ta  Ta11  1  0.671307  0.329937  0.749889  1
  Nb  Nb12  1  0.152257  0.992784  0.375581  1
  Nb  Nb13  1  0.847069  0.006130  0.876098  1
  Nb  Nb14  1  0.506426  0.652831  0.625693  1
  Nb  Nb15  1  0.346793  0.493118  0.874340  1
  Nb  Nb16  1  0.495044  0.343565  0.126773  1
  Nb  Nb17  1  0.652499  0.504098  0.374004  1
  Nb  Nb18  1  0.992673  0.154493  0.624328  1
  Nb  Nb19  1  0.003073  0.849039  0.125586  1
  Si  Si20  1  0.294708  0.043368  0.184758  1
  Si  Si21  1  0.704772  0.955943  0.686476  1
  Si  Si22  1  0.455606  0.795412  0.437485  1
  Si  Si23  1  0.205107  0.544403  0.064129  1
  Si  Si24  1  0.543705  0.204734  0.935989  1
  Si  Si25  1  0.796482  0.458089  0.563187  1
  Si  Si26  1  0.043816  0.296388  0.813335  1
  Si  Si27  1  0.956850  0.702186  0.313773  1
  Si  Si28  1  0.366192  0.293485  0.318217  1
  Si  Si29  1  0.634979  0.703097  0.817932  1
  Si  Si30  1  0.203855  0.866468  0.568355  1
  Si  Si31  1  0.133518  0.795874  0.932117  1
  Si  Si32  1  0.794460  0.133802  0.068221  1
  Si  Si33  1  0.866882  0.206861  0.431995  1
  Si  Si34  1  0.295810  0.365840  0.681863  1
  Si  Si35  1  0.703587  0.633394  0.181133  1
