# generated using pymatgen
data_LuScFeB6
_symmetry_space_group_name_H-M   'P 1'
_cell_length_a   3.40267000
_cell_length_b   8.86796800
_cell_length_c   11.21426500
_cell_angle_alpha   90.00000000
_cell_angle_beta   90.00000000
_cell_angle_gamma   90.00000000
_symmetry_Int_Tables_number   1
_chemical_formula_structural   LuScFeB6
_chemical_formula_sum   'Lu4 Sc4 Fe4 B24'
_cell_volume   338.38785223
_cell_formula_units_Z   4
loop_
 _symmetry_equiv_pos_site_id
 _symmetry_equiv_pos_as_xyz
  1  'x, y, z'
loop_
 _atom_site_type_symbol
 _atom_site_label
 _atom_site_symmetry_multiplicity
 _atom_site_fract_x
 _atom_site_fract_y
 _atom_site_fract_z
 _atom_site_occupancy
  Lu  Lu0  1  0.500000  0.321591  0.414265  1
  Lu  Lu1  1  0.500000  0.678409  0.585735  1
  Lu  Lu2  1  0.500000  0.178409  0.914265  1
  Lu  Lu3  1  0.500000  0.821591  0.085735  1
  Sc  Sc4  1  0.500000  0.444218  0.128321  1
  Sc  Sc5  1  0.500000  0.555782  0.871679  1
  Sc  Sc6  1  0.500000  0.055782  0.628321  1
  Sc  Sc7  1  0.500000  0.944218  0.371679  1
  Fe  Fe8  1  0.500000  0.140309  0.181210  1
  Fe  Fe9  1  0.500000  0.859691  0.818790  1
  Fe  Fe10  1  0.500000  0.359691  0.681210  1
  Fe  Fe11  1  0.500000  0.640309  0.318790  1
  B  B12  1  0.000000  0.101651  0.472527  1
  B  B13  1  0.000000  0.898349  0.527473  1
  B  B14  1  0.000000  0.398349  0.972527  1
  B  B15  1  0.000000  0.601651  0.027473  1
  B  B16  1  0.000000  0.130349  0.316210  1
  B  B17  1  0.000000  0.869651  0.683790  1
  B  B18  1  0.000000  0.369651  0.816210  1
  B  B19  1  0.000000  0.630349  0.183790  1
  B  B20  1  0.000000  0.054854  0.067651  1
  B  B21  1  0.000000  0.945146  0.932349  1
  B  B22  1  0.000000  0.445146  0.567651  1
  B  B23  1  0.000000  0.554854  0.432349  1
  B  B24  1  0.000000  0.483798  0.286904  1
  B  B25  1  0.000000  0.516202  0.713096  1
  B  B26  1  0.000000  0.016202  0.786904  1
  B  B27  1  0.000000  0.983798  0.213096  1
  B  B28  1  0.000000  0.250746  0.081653  1
  B  B29  1  0.000000  0.749254  0.918347  1
  B  B30  1  0.000000  0.249254  0.581653  1
  B  B31  1  0.000000  0.750746  0.418347  1
  B  B32  1  0.000000  0.292496  0.234645  1
  B  B33  1  0.000000  0.707504  0.765355  1
  B  B34  1  0.000000  0.207504  0.734645  1
  B  B35  1  0.000000  0.792496  0.265355  1
