# generated using pymatgen
data_Tb2Y3Lu5Bi6
_symmetry_space_group_name_H-M   'P 1'
_cell_length_a   8.20584800
_cell_length_b   9.42309802
_cell_length_c   11.99724803
_cell_angle_alpha   89.99253767
_cell_angle_beta   90.00000000
_cell_angle_gamma   90.00000000
_symmetry_Int_Tables_number   1
_chemical_formula_structural   Tb2Y3Lu5Bi6
_chemical_formula_sum   'Tb4 Y6 Lu10 Bi12'
_cell_volume   927.68131754
_cell_formula_units_Z   2
loop_
 _symmetry_equiv_pos_site_id
 _symmetry_equiv_pos_as_xyz
  1  'x, y, z'
loop_
 _atom_site_type_symbol
 _atom_site_label
 _atom_site_symmetry_multiplicity
 _atom_site_fract_x
 _atom_site_fract_y
 _atom_site_fract_z
 _atom_site_occupancy
  Tb  Tb0  1  0.313774  0.249918  0.217983  1
  Tb  Tb1  1  0.813774  0.250082  0.282017  1
  Tb  Tb2  1  0.686509  0.750368  0.781732  1
  Tb  Tb3  1  0.186509  0.749632  0.718268  1
  Y  Y4  1  0.352725  0.749712  0.216799  1
  Y  Y5  1  0.852725  0.750288  0.283201  1
  Y  Y6  1  0.647960  0.250439  0.783087  1
  Y  Y7  1  0.147960  0.249561  0.716913  1
  Y  Y8  1  0.691813  0.563768  0.058834  1
  Y  Y9  1  0.191813  0.936232  0.441166  1
  Lu  Lu10  1  0.307459  0.066747  0.940946  1
  Lu  Lu11  1  0.807459  0.433253  0.559054  1
  Lu  Lu12  1  0.307815  0.432807  0.941147  1
  Lu  Lu13  1  0.807815  0.067193  0.558853  1
  Lu  Lu14  1  0.692276  0.933509  0.059051  1
  Lu  Lu15  1  0.192276  0.566491  0.440949  1
  Lu  Lu16  1  0.477558  0.250321  0.488901  1
  Lu  Lu17  1  0.977558  0.249679  0.011099  1
  Lu  Lu18  1  0.523819  0.749369  0.511501  1
  Lu  Lu19  1  0.023819  0.750631  0.988499  1
  Bi  Bi20  1  0.403087  0.750954  0.957289  1
  Bi  Bi21  1  0.903087  0.749046  0.542711  1
  Bi  Bi22  1  0.595306  0.246313  0.041596  1
  Bi  Bi23  1  0.095306  0.253687  0.458404  1
  Bi  Bi24  1  0.565599  0.995631  0.327776  1
  Bi  Bi25  1  0.065599  0.504369  0.172224  1
  Bi  Bi26  1  0.434706  0.495516  0.672010  1
  Bi  Bi27  1  0.934706  0.004484  0.827990  1
  Bi  Bi28  1  0.434625  0.004249  0.672437  1
  Bi  Bi29  1  0.934625  0.495751  0.827563  1
  Bi  Bi30  1  0.564969  0.504182  0.327839  1
  Bi  Bi31  1  0.064969  0.995818  0.172161  1
