# generated using pymatgen
data_LaEu(SeO)2
_symmetry_space_group_name_H-M   'P 1'
_cell_length_a   7.59565178
_cell_length_b   7.59565117
_cell_length_c   5.94023800
_cell_angle_alpha   90.00000000
_cell_angle_beta   90.00000000
_cell_angle_gamma   134.00292183
_symmetry_Int_Tables_number   1
_chemical_formula_structural   LaEu(SeO)2
_chemical_formula_sum   'La2 Eu2 Se4 O4'
_cell_volume   246.51684751
_cell_formula_units_Z   2
loop_
 _symmetry_equiv_pos_site_id
 _symmetry_equiv_pos_as_xyz
  1  'x, y, z'
loop_
 _atom_site_type_symbol
 _atom_site_label
 _atom_site_symmetry_multiplicity
 _atom_site_fract_x
 _atom_site_fract_y
 _atom_site_fract_z
 _atom_site_occupancy
  La  La0  1  0.828960  0.171040  0.500000  1
  La  La1  1  0.671040  0.328960  0.000000  1
  Eu  Eu2  1  0.328969  0.671031  0.000000  1
  Eu  Eu3  1  0.171031  0.828969  0.500000  1
  Se  Se4  1  0.855528  0.855387  0.857007  1
  Se  Se5  1  0.355387  0.355528  0.642993  1
  Se  Se6  1  0.144613  0.144472  0.142993  1
  Se  Se7  1  0.644472  0.644613  0.357007  1
  O  O8  1  0.496922  0.996922  0.750000  1
  O  O9  1  0.003078  0.503078  0.250000  1
  O  O10  1  0.505070  0.005070  0.250000  1
  O  O11  1  0.994930  0.494930  0.750000  1
