# generated using pymatgen
data_PrNd5RuBr10
_symmetry_space_group_name_H-M   'P 1'
_cell_length_a   7.69157192
_cell_length_b   9.40655001
_cell_length_c   9.73569001
_cell_angle_alpha   108.88450291
_cell_angle_beta   96.95535993
_cell_angle_gamma   106.12374948
_symmetry_Int_Tables_number   1
_chemical_formula_structural   PrNd5RuBr10
_chemical_formula_sum   'Pr1 Nd5 Ru1 Br10'
_cell_volume   622.77064537
_cell_formula_units_Z   1
loop_
 _symmetry_equiv_pos_site_id
 _symmetry_equiv_pos_as_xyz
  1  'x, y, z'
loop_
 _atom_site_type_symbol
 _atom_site_label
 _atom_site_symmetry_multiplicity
 _atom_site_fract_x
 _atom_site_fract_y
 _atom_site_fract_z
 _atom_site_occupancy
  Pr  Pr0  1  0.972237  0.288775  0.089385  1
  Nd  Nd1  1  0.131348  0.051612  0.751144  1
  Nd  Nd2  1  0.627180  0.852710  0.810512  1
  Nd  Nd3  1  0.867978  0.948620  0.248779  1
  Nd  Nd4  1  0.028582  0.713209  0.911061  1
  Nd  Nd5  1  0.372701  0.146449  0.189356  1
  Ru  Ru6  1  0.999533  0.000862  0.000224  1
  Br  Br7  1  0.200138  0.741947  0.653190  1
  Br  Br8  1  0.644902  0.536982  0.726408  1
  Br  Br9  1  0.248277  0.081776  0.450476  1
  Br  Br10  1  0.797934  0.256475  0.349190  1
  Br  Br11  1  0.549908  0.173380  0.920057  1
  Br  Br12  1  0.751492  0.917878  0.549596  1
  Br  Br13  1  0.909278  0.630075  0.166939  1
  Br  Br14  1  0.359336  0.463076  0.275133  1
  Br  Br15  1  0.091675  0.371064  0.830262  1
  Br  Br16  1  0.447500  0.825112  0.078286  1
