# generated using pymatgen
data_BaGaPt4
_symmetry_space_group_name_H-M   'P 1'
_cell_length_a   5.73045600
_cell_length_b   5.73045559
_cell_length_c   4.21148400
_cell_angle_alpha   90.00000000
_cell_angle_beta   90.00000000
_cell_angle_gamma   120.00000236
_symmetry_Int_Tables_number   1
_chemical_formula_structural   BaGaPt4
_chemical_formula_sum   'Ba1 Ga1 Pt4'
_cell_volume   119.76891356
_cell_formula_units_Z   1
loop_
 _symmetry_equiv_pos_site_id
 _symmetry_equiv_pos_as_xyz
  1  'x, y, z'
loop_
 _atom_site_type_symbol
 _atom_site_label
 _atom_site_symmetry_multiplicity
 _atom_site_fract_x
 _atom_site_fract_y
 _atom_site_fract_z
 _atom_site_occupancy
  Ba  Ba0  1  0.666667  0.333333  0.000000  1
  Ga  Ga1  1  0.000000  0.000000  0.000000  1
  Pt  Pt2  1  0.333333  0.666667  0.000000  1
  Pt  Pt3  1  0.671291  0.835645  0.500000  1
  Pt  Pt4  1  0.164355  0.835645  0.500000  1
  Pt  Pt5  1  0.164355  0.328709  0.500000  1
