# generated using pymatgen
data_NaDyGa(Ni2P)6
_symmetry_space_group_name_H-M   'P 1'
_cell_length_a   9.09287300
_cell_length_b   9.09287461
_cell_length_c   3.65189900
_cell_angle_alpha   90.00000000
_cell_angle_beta   90.00000000
_cell_angle_gamma   120.00000507
_symmetry_Int_Tables_number   1
_chemical_formula_structural   NaDyGa(Ni2P)6
_chemical_formula_sum   'Na1 Dy1 Ga1 Ni12 P6'
_cell_volume   261.48795867
_cell_formula_units_Z   1
loop_
 _symmetry_equiv_pos_site_id
 _symmetry_equiv_pos_as_xyz
  1  'x, y, z'
loop_
 _atom_site_type_symbol
 _atom_site_label
 _atom_site_symmetry_multiplicity
 _atom_site_fract_x
 _atom_site_fract_y
 _atom_site_fract_z
 _atom_site_occupancy
  Na  Na0  1  0.666667  0.333333  0.000000  1
  Dy  Dy1  1  0.000000  0.000000  0.500000  1
  Ga  Ga2  1  0.333333  0.666667  0.000000  1
  Ni  Ni3  1  0.717926  0.101029  0.500000  1
  Ni  Ni4  1  0.898971  0.616897  0.500000  1
  Ni  Ni5  1  0.383103  0.282074  0.500000  1
  Ni  Ni6  1  0.770237  0.728131  0.000000  1
  Ni  Ni7  1  0.271869  0.042106  0.000000  1
  Ni  Ni8  1  0.957894  0.229763  0.000000  1
  Ni  Ni9  1  0.569687  0.769510  0.500000  1
  Ni  Ni10  1  0.230490  0.800177  0.500000  1
  Ni  Ni11  1  0.199823  0.430313  0.500000  1
  Ni  Ni12  1  0.497461  0.961302  0.000000  1
  Ni  Ni13  1  0.038698  0.536157  0.000000  1
  Ni  Ni14  1  0.463843  0.502539  0.000000  1
  P  P15  1  0.445755  0.073497  0.500000  1
  P  P16  1  0.926503  0.372258  0.500000  1
  P  P17  1  0.627742  0.554245  0.500000  1
  P  P18  1  0.738228  0.957904  0.000000  1
  P  P19  1  0.042096  0.780323  0.000000  1
  P  P20  1  0.219677  0.261772  0.000000  1
