# generated using pymatgen
data_Dy8Er12CoBi8Ir3
_symmetry_space_group_name_H-M   'P 1'
_cell_length_a   7.95976568
_cell_length_b   8.96707300
_cell_length_c   12.44791121
_cell_angle_alpha   90.00000000
_cell_angle_beta   90.20675852
_cell_angle_gamma   90.00000000
_symmetry_Int_Tables_number   1
_chemical_formula_structural   Dy8Er12CoBi8Ir3
_chemical_formula_sum   'Dy8 Er12 Co1 Bi8 Ir3'
_cell_volume   888.47383489
_cell_formula_units_Z   1
loop_
 _symmetry_equiv_pos_site_id
 _symmetry_equiv_pos_as_xyz
  1  'x, y, z'
loop_
 _atom_site_type_symbol
 _atom_site_label
 _atom_site_symmetry_multiplicity
 _atom_site_fract_x
 _atom_site_fract_y
 _atom_site_fract_z
 _atom_site_occupancy
  Dy  Dy0  1  0.657701  0.750000  0.699953  1
  Dy  Dy1  1  0.338470  0.250000  0.292811  1
  Dy  Dy2  1  0.161204  0.250000  0.792990  1
  Dy  Dy3  1  0.838954  0.750000  0.206925  1
  Dy  Dy4  1  0.123491  0.750000  0.807978  1
  Dy  Dy5  1  0.874935  0.250000  0.191559  1
  Dy  Dy6  1  0.624682  0.250000  0.691609  1
  Dy  Dy7  1  0.380420  0.750000  0.314337  1
  Er  Er8  1  0.556510  0.750000  0.997372  1
  Er  Er9  1  0.446570  0.250000  0.001261  1
  Er  Er10  1  0.055431  0.250000  0.501541  1
  Er  Er11  1  0.946770  0.750000  0.498413  1
  Er  Er12  1  0.825563  0.457126  0.933151  1
  Er  Er13  1  0.175587  0.542031  0.066697  1
  Er  Er14  1  0.325247  0.543775  0.565607  1
  Er  Er15  1  0.175587  0.957969  0.066697  1
  Er  Er16  1  0.672945  0.464404  0.435814  1
  Er  Er17  1  0.825563  0.042874  0.933151  1
  Er  Er18  1  0.672945  0.035596  0.435814  1
  Er  Er19  1  0.325247  0.956225  0.565607  1
  Co  Co20  1  0.567709  0.750000  0.492215  1
  Bi  Bi21  1  0.932640  0.008706  0.671737  1
  Bi  Bi22  1  0.066163  0.990917  0.328029  1
  Bi  Bi23  1  0.434083  0.990598  0.826850  1
  Bi  Bi24  1  0.066163  0.509083  0.328029  1
  Bi  Bi25  1  0.565598  0.007935  0.173234  1
  Bi  Bi26  1  0.932640  0.491294  0.671737  1
  Bi  Bi27  1  0.565598  0.492065  0.173234  1
  Bi  Bi28  1  0.434083  0.509402  0.826850  1
  Ir  Ir29  1  0.929210  0.750000  0.991847  1
  Ir  Ir30  1  0.072501  0.250000  0.008951  1
  Ir  Ir31  1  0.429790  0.250000  0.507995  1
