# generated using pymatgen
data_Tm2Tl2C
_symmetry_space_group_name_H-M   'P 1'
_cell_length_a   3.57867300
_cell_length_b   3.57867348
_cell_length_c   10.35765300
_cell_angle_alpha   90.00000000
_cell_angle_beta   90.00000000
_cell_angle_gamma   120.00000477
_symmetry_Int_Tables_number   1
_chemical_formula_structural   Tm2Tl2C
_chemical_formula_sum   'Tm2 Tl2 C1'
_cell_volume   114.87778686
_cell_formula_units_Z   1
loop_
 _symmetry_equiv_pos_site_id
 _symmetry_equiv_pos_as_xyz
  1  'x, y, z'
loop_
 _atom_site_type_symbol
 _atom_site_label
 _atom_site_symmetry_multiplicity
 _atom_site_fract_x
 _atom_site_fract_y
 _atom_site_fract_z
 _atom_site_occupancy
  Tm  Tm0  1  0.333334  0.666668  0.375320  1
  Tm  Tm1  1  0.666667  0.333332  0.624680  1
  Tl  Tl2  1  0.666667  0.333332  0.121557  1
  Tl  Tl3  1  0.333334  0.666668  0.878443  1
  C  C4  1  0.000000  0.000000  0.500000  1
