# generated using pymatgen
data_Dy5Ti2Si9P3Ir17
_symmetry_space_group_name_H-M   'P 1'
_cell_length_a   12.85719100
_cell_length_b   12.87998567
_cell_length_c   3.96164600
_cell_angle_alpha   90.00000000
_cell_angle_beta   90.00000000
_cell_angle_gamma   119.94147614
_symmetry_Int_Tables_number   1
_chemical_formula_structural   Dy5Ti2Si9P3Ir17
_chemical_formula_sum   'Dy5 Ti2 Si9 P3 Ir17'
_cell_volume   568.49098931
_cell_formula_units_Z   1
loop_
 _symmetry_equiv_pos_site_id
 _symmetry_equiv_pos_as_xyz
  1  'x, y, z'
loop_
 _atom_site_type_symbol
 _atom_site_label
 _atom_site_symmetry_multiplicity
 _atom_site_fract_x
 _atom_site_fract_y
 _atom_site_fract_z
 _atom_site_occupancy
  Dy  Dy0  1  0.331088  0.664143  0.500000  1
  Dy  Dy1  1  0.666945  0.335857  0.500000  1
  Dy  Dy2  1  0.001853  0.813087  0.000000  1
  Dy  Dy3  1  0.188766  0.186913  0.000000  1
  Dy  Dy4  1  0.813552  0.000000  0.000000  1
  Ti  Ti5  1  0.999386  0.437726  0.500000  1
  Ti  Ti6  1  0.561660  0.562274  0.500000  1
  Si  Si7  1  0.002059  0.636622  0.500000  1
  Si  Si8  1  0.365437  0.363378  0.500000  1
  Si  Si9  1  0.628642  0.000000  0.500000  1
  Si  Si10  1  0.517191  0.687549  0.000000  1
  Si  Si11  1  0.311639  0.831129  0.000000  1
  Si  Si12  1  0.169267  0.477592  0.000000  1
  Si  Si13  1  0.480510  0.168871  0.000000  1
  Si  Si14  1  0.691674  0.522408  0.000000  1
  Si  Si15  1  0.829641  0.312451  0.000000  1
  P  P16  1  0.998171  0.177708  0.500000  1
  P  P17  1  0.820463  0.822292  0.500000  1
  P  P18  1  0.179255  0.000000  0.500000  1
  Ir  Ir19  1  0.512031  0.874356  0.000000  1
  Ir  Ir20  1  0.129098  0.637833  0.000000  1
  Ir  Ir21  1  0.361568  0.485290  0.000000  1
  Ir  Ir22  1  0.491266  0.362167  0.000000  1
  Ir  Ir23  1  0.876279  0.514710  0.000000  1
  Ir  Ir24  1  0.637676  0.125644  0.000000  1
  Ir  Ir25  1  0.444286  0.000000  0.500000  1
  Ir  Ir26  1  0.996107  0.273397  0.000000  1
  Ir  Ir27  1  0.722711  0.726603  0.000000  1
  Ir  Ir28  1  0.278879  0.000000  0.000000  1
  Ir  Ir29  1  0.625292  0.808531  0.500000  1
  Ir  Ir30  1  0.193377  0.822072  0.500000  1
  Ir  Ir31  1  0.177456  0.368959  0.500000  1
  Ir  Ir32  1  0.371306  0.177928  0.500000  1
  Ir  Ir33  1  0.808497  0.631041  0.500000  1
  Ir  Ir34  1  0.816761  0.191469  0.500000  1
  Ir  Ir35  1  0.000210  0.000000  0.500000  1
