# generated using pymatgen
data_Sr3TcI2O5
_symmetry_space_group_name_H-M   'P 1'
_cell_length_a   7.76814040
_cell_length_b   7.76814024
_cell_length_c   11.53775500
_cell_angle_alpha   90.00000000
_cell_angle_beta   90.00000000
_cell_angle_gamma   135.83879578
_symmetry_Int_Tables_number   1
_chemical_formula_structural   Sr3TcI2O5
_chemical_formula_sum   'Sr6 Tc2 I4 O10'
_cell_volume   485.05219666
_cell_formula_units_Z   2
loop_
 _symmetry_equiv_pos_site_id
 _symmetry_equiv_pos_as_xyz
  1  'x, y, z'
loop_
 _atom_site_type_symbol
 _atom_site_label
 _atom_site_symmetry_multiplicity
 _atom_site_fract_x
 _atom_site_fract_y
 _atom_site_fract_z
 _atom_site_occupancy
  Sr  Sr0  1  0.665439  0.334561  0.529001  1
  Sr  Sr1  1  0.334561  0.665439  0.029001  1
  Sr  Sr2  1  0.665439  0.334561  0.970999  1
  Sr  Sr3  1  0.870041  0.129959  0.750000  1
  Sr  Sr4  1  0.334561  0.665439  0.470999  1
  Sr  Sr5  1  0.129959  0.870041  0.250000  1
  Tc  Tc6  1  0.767416  0.232584  0.250000  1
  Tc  Tc7  1  0.232584  0.767416  0.750000  1
  I  I8  1  0.501710  0.498290  0.250000  1
  I  I9  1  0.000000  0.000000  0.500000  1
  I  I10  1  0.498290  0.501710  0.750000  1
  I  I11  1  0.000000  0.000000  0.000000  1
  O  O12  1  0.503606  0.045554  0.364525  1
  O  O13  1  0.045554  0.503606  0.635475  1
  O  O14  1  0.496394  0.954446  0.864525  1
  O  O15  1  0.496394  0.954446  0.635475  1
  O  O16  1  0.114688  0.885312  0.750000  1
  O  O17  1  0.045554  0.503606  0.864525  1
  O  O18  1  0.503606  0.045554  0.135475  1
  O  O19  1  0.954446  0.496394  0.364525  1
  O  O20  1  0.885312  0.114688  0.250000  1
  O  O21  1  0.954446  0.496394  0.135475  1
