# generated using pymatgen
data_U4Re6Si7
_symmetry_space_group_name_H-M   'P 1'
_cell_length_a   7.12876776
_cell_length_b   7.13052284
_cell_length_c   7.12876559
_cell_angle_alpha   108.95531142
_cell_angle_beta   108.94566812
_cell_angle_gamma   110.50761460
_symmetry_Int_Tables_number   1
_chemical_formula_structural   U4Re6Si7
_chemical_formula_sum   'U4 Re6 Si7'
_cell_volume   278.91694406
_cell_formula_units_Z   1
loop_
 _symmetry_equiv_pos_site_id
 _symmetry_equiv_pos_as_xyz
  1  'x, y, z'
loop_
 _atom_site_type_symbol
 _atom_site_label
 _atom_site_symmetry_multiplicity
 _atom_site_fract_x
 _atom_site_fract_y
 _atom_site_fract_z
 _atom_site_occupancy
  U  U0  1  0.497071  0.502949  0.500012  1
  U  U1  1  0.002956  0.997054  0.500010  1
  U  U2  1  0.497044  0.997054  0.994098  1
  U  U3  1  0.002937  0.502949  0.005878  1
  Re  Re4  1  0.504062  0.250292  0.746230  1
  Re  Re5  1  0.503859  0.757620  0.253761  1
  Re  Re6  1  0.242271  0.496046  0.746256  1
  Re  Re7  1  0.749791  0.496046  0.253775  1
  Re  Re8  1  0.250008  0.749909  0.499901  1
  Re  Re9  1  0.999992  0.000005  0.000013  1
  Si  Si10  1  0.314247  0.314301  0.000054  1
  Si  Si11  1  0.000440  0.305362  0.304922  1
  Si  Si12  1  0.000330  0.695428  0.695098  1
  Si  Si13  1  0.694698  0.999612  0.695068  1
  Si  Si14  1  0.304544  0.999612  0.304914  1
  Si  Si15  1  0.685747  0.685704  0.999958  1
  Si  Si16  1  0.750004  0.250057  0.500052  1
