# generated using pymatgen
data_Tb2TiCo8MoP6
_symmetry_space_group_name_H-M   'P 1'
_cell_length_a   3.69677400
_cell_length_b   10.47730100
_cell_length_c   11.95355000
_cell_angle_alpha   90.00000000
_cell_angle_beta   90.00000000
_cell_angle_gamma   90.00000000
_symmetry_Int_Tables_number   1
_chemical_formula_structural   Tb2TiCo8MoP6
_chemical_formula_sum   'Tb4 Ti2 Co16 Mo2 P12'
_cell_volume   462.98745579
_cell_formula_units_Z   2
loop_
 _symmetry_equiv_pos_site_id
 _symmetry_equiv_pos_as_xyz
  1  'x, y, z'
loop_
 _atom_site_type_symbol
 _atom_site_label
 _atom_site_symmetry_multiplicity
 _atom_site_fract_x
 _atom_site_fract_y
 _atom_site_fract_z
 _atom_site_occupancy
  Tb  Tb0  1  0.250000  0.582367  0.705315  1
  Tb  Tb1  1  0.250000  0.917633  0.205315  1
  Tb  Tb2  1  0.750000  0.418054  0.295440  1
  Tb  Tb3  1  0.750000  0.081946  0.795440  1
  Ti  Ti4  1  0.750000  0.296513  0.009717  1
  Ti  Ti5  1  0.750000  0.203487  0.509717  1
  Co  Co6  1  0.250000  0.406002  0.489113  1
  Co  Co7  1  0.250000  0.093998  0.989113  1
  Co  Co8  1  0.750000  0.594043  0.510250  1
  Co  Co9  1  0.750000  0.905957  0.010250  1
  Co  Co10  1  0.250000  0.220642  0.175382  1
  Co  Co11  1  0.250000  0.279358  0.675382  1
  Co  Co12  1  0.750000  0.777252  0.822524  1
  Co  Co13  1  0.750000  0.722748  0.322524  1
  Co  Co14  1  0.250000  0.886220  0.700794  1
  Co  Co15  1  0.250000  0.613780  0.200794  1
  Co  Co16  1  0.750000  0.114259  0.300298  1
  Co  Co17  1  0.750000  0.385741  0.800298  1
  Co  Co18  1  0.250000  0.464820  0.934562  1
  Co  Co19  1  0.250000  0.035180  0.434562  1
  Co  Co20  1  0.750000  0.534789  0.067697  1
  Co  Co21  1  0.750000  0.965211  0.567697  1
  Mo  Mo22  1  0.250000  0.707474  0.988325  1
  Mo  Mo23  1  0.250000  0.792526  0.488325  1
  P  P24  1  0.250000  0.420808  0.116086  1
  P  P25  1  0.250000  0.079192  0.616086  1
  P  P26  1  0.750000  0.578846  0.886092  1
  P  P27  1  0.750000  0.921154  0.386092  1
  P  P28  1  0.250000  0.270732  0.861935  1
  P  P29  1  0.250000  0.229268  0.361935  1
  P  P30  1  0.750000  0.730936  0.135336  1
  P  P31  1  0.750000  0.769064  0.635336  1
  P  P32  1  0.250000  0.597313  0.391833  1
  P  P33  1  0.250000  0.902687  0.891833  1
  P  P34  1  0.750000  0.406796  0.609301  1
  P  P35  1  0.750000  0.093204  0.109301  1
