# generated using pymatgen
data_Sr7Pr(Si3Pd)4
_symmetry_space_group_name_H-M   'P 1'
_cell_length_a   8.41179500
_cell_length_b   8.41179511
_cell_length_c   8.98629400
_cell_angle_alpha   90.00000000
_cell_angle_beta   90.00000000
_cell_angle_gamma   120.00000350
_symmetry_Int_Tables_number   1
_chemical_formula_structural   Sr7Pr(Si3Pd)4
_chemical_formula_sum   'Sr7 Pr1 Si12 Pd4'
_cell_volume   550.66643487
_cell_formula_units_Z   1
loop_
 _symmetry_equiv_pos_site_id
 _symmetry_equiv_pos_as_xyz
  1  'x, y, z'
loop_
 _atom_site_type_symbol
 _atom_site_label
 _atom_site_symmetry_multiplicity
 _atom_site_fract_x
 _atom_site_fract_y
 _atom_site_fract_z
 _atom_site_occupancy
  Sr  Sr0  1  0.499298  0.500702  0.750000  1
  Sr  Sr1  1  0.500577  0.499423  0.250000  1
  Sr  Sr2  1  0.001404  0.500702  0.750000  1
  Sr  Sr3  1  0.998847  0.499423  0.250000  1
  Sr  Sr4  1  0.499298  0.998596  0.750000  1
  Sr  Sr5  1  0.500577  0.001153  0.250000  1
  Sr  Sr6  1  0.000000  0.000000  0.750000  1
  Pr  Pr7  1  0.000000  0.000000  0.250000  1
  Si  Si8  1  0.836096  0.163904  0.004095  1
  Si  Si9  1  0.163820  0.836180  0.004469  1
  Si  Si10  1  0.327809  0.163904  0.004095  1
  Si  Si11  1  0.163820  0.836180  0.495531  1
  Si  Si12  1  0.672361  0.836180  0.004469  1
  Si  Si13  1  0.836096  0.163904  0.495905  1
  Si  Si14  1  0.836096  0.672191  0.004095  1
  Si  Si15  1  0.672361  0.836180  0.495531  1
  Si  Si16  1  0.163820  0.327639  0.004469  1
  Si  Si17  1  0.327809  0.163904  0.495905  1
  Si  Si18  1  0.163820  0.327639  0.495531  1
  Si  Si19  1  0.836096  0.672191  0.495905  1
  Pd  Pd20  1  0.666667  0.333333  0.998356  1
  Pd  Pd21  1  0.333333  0.666667  0.001274  1
  Pd  Pd22  1  0.333333  0.666667  0.498726  1
  Pd  Pd23  1  0.666667  0.333333  0.501644  1
