# generated using pymatgen
data_LiTh2(ScSi2)2
_symmetry_space_group_name_H-M   'P 1'
_cell_length_a   7.05170600
_cell_length_b   7.47890500
_cell_length_c   14.40567500
_cell_angle_alpha   90.00000000
_cell_angle_beta   90.00000000
_cell_angle_gamma   90.00000000
_symmetry_Int_Tables_number   1
_chemical_formula_structural   LiTh2(ScSi2)2
_chemical_formula_sum   'Li4 Th8 Sc8 Si16'
_cell_volume   759.74145942
_cell_formula_units_Z   4
loop_
 _symmetry_equiv_pos_site_id
 _symmetry_equiv_pos_as_xyz
  1  'x, y, z'
loop_
 _atom_site_type_symbol
 _atom_site_label
 _atom_site_symmetry_multiplicity
 _atom_site_fract_x
 _atom_site_fract_y
 _atom_site_fract_z
 _atom_site_occupancy
  Li  Li0  1  0.158854  0.494534  0.750000  1
  Li  Li1  1  0.841146  0.505466  0.250000  1
  Li  Li2  1  0.341146  0.994534  0.250000  1
  Li  Li3  1  0.658854  0.005466  0.750000  1
  Th  Th4  1  0.008517  0.176100  0.101619  1
  Th  Th5  1  0.991483  0.823900  0.898381  1
  Th  Th6  1  0.491483  0.676100  0.898381  1
  Th  Th7  1  0.991483  0.823900  0.601619  1
  Th  Th8  1  0.508517  0.323900  0.101619  1
  Th  Th9  1  0.008517  0.176100  0.398381  1
  Th  Th10  1  0.508517  0.323900  0.398381  1
  Th  Th11  1  0.491483  0.676100  0.601619  1
  Sc  Sc12  1  0.338010  0.183946  0.624794  1
  Sc  Sc13  1  0.661990  0.816054  0.375206  1
  Sc  Sc14  1  0.161990  0.683946  0.375206  1
  Sc  Sc15  1  0.661990  0.816054  0.124794  1
  Sc  Sc16  1  0.838010  0.316054  0.624794  1
  Sc  Sc17  1  0.338010  0.183946  0.875206  1
  Sc  Sc18  1  0.838010  0.316054  0.875206  1
  Sc  Sc19  1  0.161990  0.683946  0.124794  1
  Si  Si20  1  0.042496  0.115208  0.750000  1
  Si  Si21  1  0.957504  0.884792  0.250000  1
  Si  Si22  1  0.457504  0.615208  0.250000  1
  Si  Si23  1  0.542496  0.384792  0.750000  1
  Si  Si24  1  0.292509  0.894083  0.750000  1
  Si  Si25  1  0.707491  0.105917  0.250000  1
  Si  Si26  1  0.207491  0.394083  0.250000  1
  Si  Si27  1  0.792509  0.605917  0.750000  1
  Si  Si28  1  0.164051  0.462824  0.531031  1
  Si  Si29  1  0.835949  0.537176  0.468969  1
  Si  Si30  1  0.335949  0.962824  0.468969  1
  Si  Si31  1  0.835949  0.537176  0.031031  1
  Si  Si32  1  0.664051  0.037176  0.531031  1
  Si  Si33  1  0.164051  0.462824  0.968969  1
  Si  Si34  1  0.664051  0.037176  0.968969  1
  Si  Si35  1  0.335949  0.962824  0.031031  1
