# generated using pymatgen
data_Ho2Er3Co16(P4Ru)3
_symmetry_space_group_name_H-M   'P 1'
_cell_length_a   12.01762000
_cell_length_b   12.01762118
_cell_length_c   3.70384400
_cell_angle_alpha   90.00000000
_cell_angle_beta   90.00000000
_cell_angle_gamma   120.00000225
_symmetry_Int_Tables_number   1
_chemical_formula_structural   Ho2Er3Co16(P4Ru)3
_chemical_formula_sum   'Ho2 Er3 Co16 P12 Ru3'
_cell_volume   463.25518187
_cell_formula_units_Z   1
loop_
 _symmetry_equiv_pos_site_id
 _symmetry_equiv_pos_as_xyz
  1  'x, y, z'
loop_
 _atom_site_type_symbol
 _atom_site_label
 _atom_site_symmetry_multiplicity
 _atom_site_fract_x
 _atom_site_fract_y
 _atom_site_fract_z
 _atom_site_occupancy
  Ho  Ho0  1  0.666667  0.333333  0.000000  1
  Ho  Ho1  1  0.333333  0.666667  0.000000  1
  Er  Er2  1  0.815266  0.815266  0.500000  1
  Er  Er3  1  0.184734  0.000000  0.500000  1
  Er  Er4  1  0.000000  0.184734  0.500000  1
  Co  Co5  1  0.874028  0.357819  0.500000  1
  Co  Co6  1  0.642181  0.516209  0.500000  1
  Co  Co7  1  0.483791  0.125972  0.500000  1
  Co  Co8  1  0.357819  0.874028  0.500000  1
  Co  Co9  1  0.516209  0.642181  0.500000  1
  Co  Co10  1  0.125972  0.483791  0.500000  1
  Co  Co11  1  0.804116  0.179930  0.000000  1
  Co  Co12  1  0.820070  0.624184  0.000000  1
  Co  Co13  1  0.375816  0.195884  0.000000  1
  Co  Co14  1  0.179930  0.804116  0.000000  1
  Co  Co15  1  0.624184  0.820070  0.000000  1
  Co  Co16  1  0.195884  0.375816  0.000000  1
  Co  Co17  1  0.282621  0.282621  0.500000  1
  Co  Co18  1  0.717379  0.000000  0.500000  1
  Co  Co19  1  0.000000  0.717379  0.500000  1
  Co  Co20  1  0.000000  0.000000  0.000000  1
  P  P21  1  0.687174  0.166099  0.500000  1
  P  P22  1  0.833901  0.521075  0.500000  1
  P  P23  1  0.478925  0.312826  0.500000  1
  P  P24  1  0.166099  0.687174  0.500000  1
  P  P25  1  0.521075  0.833901  0.500000  1
  P  P26  1  0.312826  0.478925  0.500000  1
  P  P27  1  0.179686  0.179686  0.000000  1
  P  P28  1  0.820314  0.000000  0.000000  1
  P  P29  1  0.000000  0.820314  0.000000  1
  P  P30  1  0.636645  0.636645  0.000000  1
  P  P31  1  0.363355  0.000000  0.000000  1
  P  P32  1  0.000000  0.363355  0.000000  1
  Ru  Ru33  1  0.446010  0.446010  0.000000  1
  Ru  Ru34  1  0.553990  0.000000  0.000000  1
  Ru  Ru35  1  0.000000  0.553990  0.000000  1
