# generated using pymatgen
data_Ta4MnV2Ga4Cu
_symmetry_space_group_name_H-M   'P 1'
_cell_length_a   4.96670517
_cell_length_b   5.00224948
_cell_length_c   8.29656900
_cell_angle_alpha   90.00000000
_cell_angle_beta   90.00000000
_cell_angle_gamma   120.57887631
_symmetry_Int_Tables_number   1
_chemical_formula_structural   Ta4MnV2Ga4Cu
_chemical_formula_sum   'Ta4 Mn1 V2 Ga4 Cu1'
_cell_volume   177.45977171
_cell_formula_units_Z   1
loop_
 _symmetry_equiv_pos_site_id
 _symmetry_equiv_pos_as_xyz
  1  'x, y, z'
loop_
 _atom_site_type_symbol
 _atom_site_label
 _atom_site_symmetry_multiplicity
 _atom_site_fract_x
 _atom_site_fract_y
 _atom_site_fract_z
 _atom_site_occupancy
  Ta  Ta0  1  0.667719  0.332887  0.555466  1
  Ta  Ta1  1  0.330962  0.668697  0.432220  1
  Ta  Ta2  1  0.330962  0.668697  0.067780  1
  Ta  Ta3  1  0.667719  0.332887  0.944534  1
  Mn  Mn4  1  0.820987  0.648451  0.250000  1
  V  V5  1  0.818912  0.173116  0.250000  1
  V  V6  1  0.342914  0.170181  0.250000  1
  Ga  Ga7  1  0.984742  0.989054  0.496287  1
  Ga  Ga8  1  0.984742  0.989054  0.003713  1
  Ga  Ga9  1  0.188084  0.352748  0.750000  1
  Ga  Ga10  1  0.186661  0.835016  0.750000  1
  Cu  Cu11  1  0.675599  0.839212  0.750000  1
