# generated using pymatgen
data_DyLuSb5
_symmetry_space_group_name_H-M   'P 1'
_cell_length_a   4.23788600
_cell_length_b   13.11786938
_cell_length_c   14.47616015
_cell_angle_alpha   77.99100626
_cell_angle_beta   90.00000000
_cell_angle_gamma   90.00000000
_symmetry_Int_Tables_number   1
_chemical_formula_structural   DyLuSb5
_chemical_formula_sum   'Dy4 Lu4 Sb20'
_cell_volume   787.14700857
_cell_formula_units_Z   4
loop_
 _symmetry_equiv_pos_site_id
 _symmetry_equiv_pos_as_xyz
  1  'x, y, z'
loop_
 _atom_site_type_symbol
 _atom_site_label
 _atom_site_symmetry_multiplicity
 _atom_site_fract_x
 _atom_site_fract_y
 _atom_site_fract_z
 _atom_site_occupancy
  Dy  Dy0  1  0.250000  0.670952  0.576202  1
  Dy  Dy1  1  0.750000  0.329048  0.423798  1
  Dy  Dy2  1  0.250000  0.952945  0.356291  1
  Dy  Dy3  1  0.750000  0.047055  0.643709  1
  Lu  Lu4  1  0.250000  0.396895  0.772276  1
  Lu  Lu5  1  0.750000  0.603105  0.227724  1
  Lu  Lu6  1  0.250000  0.660640  0.857051  1
  Lu  Lu7  1  0.750000  0.339360  0.142949  1
  Sb  Sb8  1  0.250000  0.146533  0.781887  1
  Sb  Sb9  1  0.750000  0.853467  0.218113  1
  Sb  Sb10  1  0.250000  0.141280  0.483388  1
  Sb  Sb11  1  0.750000  0.858720  0.516612  1
  Sb  Sb12  1  0.250000  0.156665  0.165651  1
  Sb  Sb13  1  0.750000  0.843335  0.834349  1
  Sb  Sb14  1  0.250000  0.421112  0.976293  1
  Sb  Sb15  1  0.750000  0.578888  0.023707  1
  Sb  Sb16  1  0.750000  0.030500  0.911109  1
  Sb  Sb17  1  0.250000  0.969500  0.088891  1
  Sb  Sb18  1  0.750000  0.140236  0.317713  1
  Sb  Sb19  1  0.250000  0.859764  0.682287  1
  Sb  Sb20  1  0.750000  0.280590  0.937999  1
  Sb  Sb21  1  0.250000  0.719410  0.062001  1
  Sb  Sb22  1  0.750000  0.287588  0.656382  1
  Sb  Sb23  1  0.250000  0.712412  0.343618  1
  Sb  Sb24  1  0.750000  0.576115  0.737019  1
  Sb  Sb25  1  0.250000  0.423885  0.262981  1
  Sb  Sb26  1  0.750000  0.572835  0.445663  1
  Sb  Sb27  1  0.250000  0.427165  0.554337  1
