# generated using pymatgen
data_Zr4In2CuNi3
_symmetry_space_group_name_H-M   'P 1'
_cell_length_a   7.20637292
_cell_length_b   7.20637335
_cell_length_c   3.40293500
_cell_angle_alpha   90.00000000
_cell_angle_beta   90.00000000
_cell_angle_gamma   90.47453398
_symmetry_Int_Tables_number   1
_chemical_formula_structural   Zr4In2CuNi3
_chemical_formula_sum   'Zr4 In2 Cu1 Ni3'
_cell_volume   176.71452568
_cell_formula_units_Z   1
loop_
 _symmetry_equiv_pos_site_id
 _symmetry_equiv_pos_as_xyz
  1  'x, y, z'
loop_
 _atom_site_type_symbol
 _atom_site_label
 _atom_site_symmetry_multiplicity
 _atom_site_fract_x
 _atom_site_fract_y
 _atom_site_fract_z
 _atom_site_occupancy
  Zr  Zr0  1  0.678496  0.165642  0.500000  1
  Zr  Zr1  1  0.158822  0.341178  0.500000  1
  Zr  Zr2  1  0.829582  0.670418  0.500000  1
  Zr  Zr3  1  0.334358  0.821504  0.500000  1
  In  In4  1  0.003864  0.999314  0.000000  1
  In  In5  1  0.500686  0.496136  0.000000  1
  Cu  Cu6  1  0.374357  0.125643  0.000000  1
  Ni  Ni7  1  0.124004  0.626589  0.000000  1
  Ni  Ni8  1  0.622419  0.877581  0.000000  1
  Ni  Ni9  1  0.873411  0.375996  0.000000  1
