# generated using pymatgen
data_Er5CoSbO12
_symmetry_space_group_name_H-M   'P 1'
_cell_length_a   6.78862262
_cell_length_b   6.78862265
_cell_length_c   7.18813971
_cell_angle_alpha   74.47139622
_cell_angle_beta   74.47139573
_cell_angle_gamma   50.85679514
_symmetry_Int_Tables_number   1
_chemical_formula_structural   Er5CoSbO12
_chemical_formula_sum   'Er5 Co1 Sb1 O12'
_cell_volume   245.37387578
_cell_formula_units_Z   1
loop_
 _symmetry_equiv_pos_site_id
 _symmetry_equiv_pos_as_xyz
  1  'x, y, z'
loop_
 _atom_site_type_symbol
 _atom_site_label
 _atom_site_symmetry_multiplicity
 _atom_site_fract_x
 _atom_site_fract_y
 _atom_site_fract_z
 _atom_site_occupancy
  Er  Er0  1  0.288655  0.312794  0.360446  1
  Er  Er1  1  0.687206  0.711345  0.639554  1
  Er  Er2  1  0.300045  0.312772  0.831640  1
  Er  Er3  1  0.687228  0.699955  0.168360  1
  Er  Er4  1  0.005061  0.994939  0.500000  1
  Co  Co5  1  0.256631  0.743369  0.000000  1
  Sb  Sb6  1  0.767716  0.232284  0.000000  1
  O  O7  1  0.902182  0.432194  0.916952  1
  O  O8  1  0.420317  0.899411  0.918582  1
  O  O9  1  0.100589  0.579683  0.081418  1
  O  O10  1  0.567806  0.097818  0.083048  1
  O  O11  1  0.090779  0.601341  0.574443  1
  O  O12  1  0.594069  0.103596  0.574779  1
  O  O13  1  0.896404  0.405931  0.425221  1
  O  O14  1  0.398659  0.909221  0.425557  1
  O  O15  1  0.020016  0.980443  0.815624  1
  O  O16  1  0.019557  0.979984  0.184376  1
  O  O17  1  0.498823  0.501744  0.815711  1
  O  O18  1  0.498256  0.501177  0.184289  1
