# generated using pymatgen
data_Li8Ho8SnBi3Pb4
_symmetry_space_group_name_H-M   'P 1'
_cell_length_a   9.53464305
_cell_length_b   9.53456944
_cell_length_c   7.22260515
_cell_angle_alpha   89.99506550
_cell_angle_beta   90.00300985
_cell_angle_gamma   119.99266027
_symmetry_Int_Tables_number   1
_chemical_formula_structural   Li8Ho8SnBi3Pb4
_chemical_formula_sum   'Li8 Ho8 Sn1 Bi3 Pb4'
_cell_volume   568.67239108
_cell_formula_units_Z   1
loop_
 _symmetry_equiv_pos_site_id
 _symmetry_equiv_pos_as_xyz
  1  'x, y, z'
loop_
 _atom_site_type_symbol
 _atom_site_label
 _atom_site_symmetry_multiplicity
 _atom_site_fract_x
 _atom_site_fract_y
 _atom_site_fract_z
 _atom_site_occupancy
  Li  Li0  1  0.167124  0.334113  0.279361  1
  Li  Li1  1  0.167135  0.832901  0.279721  1
  Li  Li2  1  0.665833  0.832874  0.279475  1
  Li  Li3  1  0.831579  0.663146  0.786634  1
  Li  Li4  1  0.831573  0.168413  0.787255  1
  Li  Li5  1  0.336904  0.168516  0.786832  1
  Li  Li6  1  0.333338  0.666577  0.673484  1
  Li  Li7  1  0.666510  0.333413  0.179804  1
  Ho  Ho8  1  0.514308  0.028341  0.490935  1
  Ho  Ho9  1  0.514004  0.485930  0.490747  1
  Ho  Ho10  1  0.971726  0.485725  0.490869  1
  Ho  Ho11  1  0.491397  0.982793  0.997738  1
  Ho  Ho12  1  0.491308  0.508713  0.997654  1
  Ho  Ho13  1  0.017222  0.508625  0.997744  1
  Ho  Ho14  1  0.999948  0.000000  0.495313  1
  Ho  Ho15  1  0.000050  0.999958  0.006892  1
  Sn  Sn16  1  0.666712  0.333374  0.760262  1
  Bi  Bi17  1  0.166527  0.333256  0.734203  1
  Bi  Bi18  1  0.166806  0.833324  0.734217  1
  Bi  Bi19  1  0.666647  0.833435  0.734180  1
  Pb  Pb20  1  0.833454  0.666842  0.233371  1
  Pb  Pb21  1  0.833437  0.166520  0.233359  1
  Pb  Pb22  1  0.333146  0.166518  0.233383  1
  Pb  Pb23  1  0.333311  0.666692  0.258539  1
