# generated using pymatgen
data_La19YbGaSi11
_symmetry_space_group_name_H-M   'P 1'
_cell_length_a   7.89577800
_cell_length_b   7.89577800
_cell_length_c   14.56166100
_cell_angle_alpha   90.00000000
_cell_angle_beta   90.00000000
_cell_angle_gamma   90.00000000
_symmetry_Int_Tables_number   1
_chemical_formula_structural   La19YbGaSi11
_chemical_formula_sum   'La19 Yb1 Ga1 Si11'
_cell_volume   907.82214912
_cell_formula_units_Z   1
loop_
 _symmetry_equiv_pos_site_id
 _symmetry_equiv_pos_as_xyz
  1  'x, y, z'
loop_
 _atom_site_type_symbol
 _atom_site_label
 _atom_site_symmetry_multiplicity
 _atom_site_fract_x
 _atom_site_fract_y
 _atom_site_fract_z
 _atom_site_occupancy
  La  La0  1  0.500000  0.000000  0.779166  1
  La  La1  1  0.323729  0.315757  0.104329  1
  La  La2  1  0.828653  0.812284  0.894681  1
  La  La3  1  0.824903  0.181322  0.391888  1
  La  La4  1  0.171347  0.187716  0.894681  1
  La  La5  1  0.676271  0.684243  0.104329  1
  La  La6  1  0.000000  0.500000  0.722182  1
  La  La7  1  0.811827  0.833209  0.608065  1
  La  La8  1  0.318678  0.324903  0.391888  1
  La  La9  1  0.184243  0.823729  0.104329  1
  La  La10  1  0.188173  0.166791  0.608065  1
  La  La11  1  0.815757  0.176271  0.104329  1
  La  La12  1  0.333209  0.688173  0.608065  1
  La  La13  1  0.500000  0.000000  0.271297  1
  La  La14  1  0.687716  0.328653  0.894681  1
  La  La15  1  0.666791  0.311827  0.608065  1
  La  La16  1  0.312284  0.671347  0.894681  1
  La  La17  1  0.175097  0.818678  0.391888  1
  La  La18  1  0.681322  0.675097  0.391888  1
  Yb  Yb19  1  0.000000  0.500000  0.239020  1
  Ga  Ga20  1  0.000000  0.500000  0.500982  1
  Si  Si21  1  0.610697  0.387190  0.246623  1
  Si  Si22  1  0.886908  0.113006  0.751871  1
  Si  Si23  1  0.500000  0.000000  0.491790  1
  Si  Si24  1  0.887190  0.889303  0.246623  1
  Si  Si25  1  0.000000  0.500000  0.009879  1
  Si  Si26  1  0.113092  0.886994  0.751871  1
  Si  Si27  1  0.386994  0.386908  0.751871  1
  Si  Si28  1  0.112810  0.110697  0.246623  1
  Si  Si29  1  0.389303  0.612810  0.246623  1
  Si  Si30  1  0.613006  0.613092  0.751871  1
  Si  Si31  1  0.500000  0.000000  0.995848  1
