# generated using pymatgen
data_YEr3Nb2(B2Ru5)2
_symmetry_space_group_name_H-M   'P 1'
_cell_length_a   9.67296865
_cell_length_b   9.67296865
_cell_length_c   3.12898300
_cell_angle_alpha   90.00000000
_cell_angle_beta   90.00000000
_cell_angle_gamma   90.14408994
_symmetry_Int_Tables_number   1
_chemical_formula_structural   YEr3Nb2(B2Ru5)2
_chemical_formula_sum   'Y1 Er3 Nb2 B4 Ru10'
_cell_volume   292.76650651
_cell_formula_units_Z   1
loop_
 _symmetry_equiv_pos_site_id
 _symmetry_equiv_pos_as_xyz
  1  'x, y, z'
loop_
 _atom_site_type_symbol
 _atom_site_label
 _atom_site_symmetry_multiplicity
 _atom_site_fract_x
 _atom_site_fract_y
 _atom_site_fract_z
 _atom_site_occupancy
  Y  Y0  1  0.825430  0.674570  0.000000  1
  Er  Er1  1  0.174953  0.325047  0.000000  1
  Er  Er2  1  0.325363  0.825560  0.000000  1
  Er  Er3  1  0.674440  0.174637  0.000000  1
  Nb  Nb4  1  0.499630  0.499849  0.000000  1
  Nb  Nb5  1  0.000151  0.000370  0.000000  1
  B  B6  1  0.619725  0.880275  0.000000  1
  B  B7  1  0.379840  0.120160  0.000000  1
  B  B8  1  0.120528  0.619972  0.000000  1
  B  B9  1  0.880028  0.379472  0.000000  1
  Ru  Ru10  1  0.569409  0.718973  0.500000  1
  Ru  Ru11  1  0.428661  0.281591  0.500000  1
  Ru  Ru12  1  0.073022  0.781952  0.500000  1
  Ru  Ru13  1  0.928425  0.218115  0.500000  1
  Ru  Ru14  1  0.281885  0.571575  0.500000  1
  Ru  Ru15  1  0.718048  0.426978  0.500000  1
  Ru  Ru16  1  0.218409  0.071339  0.500000  1
  Ru  Ru17  1  0.781027  0.930591  0.500000  1
  Ru  Ru18  1  0.499631  0.000369  0.500000  1
  Ru  Ru19  1  0.001393  0.498607  0.500000  1
