# generated using pymatgen
data_Tb3Cd2HgAu3
_symmetry_space_group_name_H-M   'P 1'
_cell_length_a   7.93677600
_cell_length_b   7.86946769
_cell_length_c   3.88439600
_cell_angle_alpha   90.00000000
_cell_angle_beta   90.00000000
_cell_angle_gamma   120.28334821
_symmetry_Int_Tables_number   1
_chemical_formula_structural   Tb3Cd2HgAu3
_chemical_formula_sum   'Tb3 Cd2 Hg1 Au3'
_cell_volume   209.50602439
_cell_formula_units_Z   1
loop_
 _symmetry_equiv_pos_site_id
 _symmetry_equiv_pos_as_xyz
  1  'x, y, z'
loop_
 _atom_site_type_symbol
 _atom_site_label
 _atom_site_symmetry_multiplicity
 _atom_site_fract_x
 _atom_site_fract_y
 _atom_site_fract_z
 _atom_site_occupancy
  Tb  Tb0  1  0.592035  0.000000  0.000000  1
  Tb  Tb1  1  0.004225  0.603854  0.000000  1
  Tb  Tb2  1  0.400371  0.396146  0.000000  1
  Cd  Cd3  1  0.998495  0.263654  0.500000  1
  Cd  Cd4  1  0.734842  0.736346  0.500000  1
  Hg  Hg5  1  0.268479  0.000000  0.500000  1
  Au  Au6  1  0.334624  0.660337  0.500000  1
  Au  Au7  1  0.674288  0.339663  0.500000  1
  Au  Au8  1  0.992640  0.000000  0.000000  1
