# generated using pymatgen
data_Ce6Sc(MnC4)3
_symmetry_space_group_name_H-M   'P 1'
_cell_length_a   8.32627700
_cell_length_b   8.32627690
_cell_length_c   5.14699100
_cell_angle_alpha   90.00000000
_cell_angle_beta   90.00000000
_cell_angle_gamma   120.00000436
_symmetry_Int_Tables_number   1
_chemical_formula_structural   Ce6Sc(MnC4)3
_chemical_formula_sum   'Ce6 Sc1 Mn3 C12'
_cell_volume   309.01938676
_cell_formula_units_Z   1
loop_
 _symmetry_equiv_pos_site_id
 _symmetry_equiv_pos_as_xyz
  1  'x, y, z'
loop_
 _atom_site_type_symbol
 _atom_site_label
 _atom_site_symmetry_multiplicity
 _atom_site_fract_x
 _atom_site_fract_y
 _atom_site_fract_z
 _atom_site_occupancy
  Ce  Ce0  1  0.622623  0.683576  0.749273  1
  Ce  Ce1  1  0.939047  0.622623  0.250727  1
  Ce  Ce2  1  0.683576  0.060953  0.250727  1
  Ce  Ce3  1  0.316424  0.939047  0.749273  1
  Ce  Ce4  1  0.060953  0.377377  0.749273  1
  Ce  Ce5  1  0.377377  0.316424  0.250727  1
  Sc  Sc6  1  0.000000  0.000000  0.500000  1
  Mn  Mn7  1  0.000000  0.000000  0.000000  1
  Mn  Mn8  1  0.666667  0.333333  0.750718  1
  Mn  Mn9  1  0.333333  0.666667  0.249282  1
  C  C10  1  0.964546  0.761277  0.762475  1
  C  C11  1  0.203269  0.964546  0.237525  1
  C  C12  1  0.761277  0.796731  0.237525  1
  C  C13  1  0.238723  0.203269  0.762475  1
  C  C14  1  0.796731  0.035454  0.762475  1
  C  C15  1  0.035454  0.238723  0.237525  1
  C  C16  1  0.859572  0.570384  0.758702  1
  C  C17  1  0.289187  0.859572  0.241298  1
  C  C18  1  0.570384  0.710813  0.241298  1
  C  C19  1  0.429616  0.289187  0.758702  1
  C  C20  1  0.140428  0.429616  0.241298  1
  C  C21  1  0.710813  0.140428  0.758702  1
