# generated using pymatgen
data_La8Y12Si15Tc
_symmetry_space_group_name_H-M   'P 1'
_cell_length_a   7.57245824
_cell_length_b   7.94285911
_cell_length_c   14.91615300
_cell_angle_alpha   90.00000000
_cell_angle_beta   90.00000000
_cell_angle_gamma   90.06470747
_symmetry_Int_Tables_number   1
_chemical_formula_structural   La8Y12Si15Tc
_chemical_formula_sum   'La8 Y12 Si15 Tc1'
_cell_volume   897.16081865
_cell_formula_units_Z   1
loop_
 _symmetry_equiv_pos_site_id
 _symmetry_equiv_pos_as_xyz
  1  'x, y, z'
loop_
 _atom_site_type_symbol
 _atom_site_label
 _atom_site_symmetry_multiplicity
 _atom_site_fract_x
 _atom_site_fract_y
 _atom_site_fract_z
 _atom_site_occupancy
  La  La0  1  0.022405  0.184045  0.099036  1
  La  La1  1  0.981225  0.829061  0.900899  1
  La  La2  1  0.479834  0.674632  0.903687  1
  La  La3  1  0.981225  0.829061  0.599101  1
  La  La4  1  0.520492  0.322673  0.097280  1
  La  La5  1  0.022405  0.184045  0.400964  1
  La  La6  1  0.520492  0.322673  0.402720  1
  La  La7  1  0.479834  0.674632  0.596313  1
  Y  Y8  1  0.148345  0.506262  0.750000  1
  Y  Y9  1  0.847099  0.491161  0.250000  1
  Y  Y10  1  0.344351  0.013996  0.250000  1
  Y  Y11  1  0.659780  0.989650  0.750000  1
  Y  Y12  1  0.310583  0.173892  0.626653  1
  Y  Y13  1  0.680814  0.827288  0.375157  1
  Y  Y14  1  0.181191  0.679149  0.375930  1
  Y  Y15  1  0.680814  0.827288  0.124843  1
  Y  Y16  1  0.829454  0.313153  0.625419  1
  Y  Y17  1  0.310583  0.173892  0.873347  1
  Y  Y18  1  0.829454  0.313153  0.874581  1
  Y  Y19  1  0.181191  0.679149  0.124070  1
  Si  Si20  1  0.975906  0.884680  0.250000  1
  Si  Si21  1  0.476876  0.614873  0.250000  1
  Si  Si22  1  0.524637  0.388187  0.750000  1
  Si  Si23  1  0.273305  0.872440  0.750000  1
  Si  Si24  1  0.723119  0.125643  0.250000  1
  Si  Si25  1  0.226825  0.377968  0.250000  1
  Si  Si26  1  0.764860  0.614738  0.750000  1
  Si  Si27  1  0.147080  0.473452  0.538430  1
  Si  Si28  1  0.856289  0.534363  0.462187  1
  Si  Si29  1  0.354727  0.968726  0.461115  1
  Si  Si30  1  0.856289  0.534363  0.037813  1
  Si  Si31  1  0.640602  0.028739  0.538963  1
  Si  Si32  1  0.147080  0.473452  0.961570  1
  Si  Si33  1  0.640602  0.028739  0.961037  1
  Si  Si34  1  0.354727  0.968726  0.038885  1
  Tc  Tc35  1  0.025502  0.102055  0.750000  1
