# generated using pymatgen
data_Hf8Ti11Si14MoP2
_symmetry_space_group_name_H-M   'P 1'
_cell_length_a   6.56163501
_cell_length_b   6.72771524
_cell_length_c   12.91055400
_cell_angle_alpha   90.00000000
_cell_angle_beta   90.00000000
_cell_angle_gamma   89.96297435
_symmetry_Int_Tables_number   1
_chemical_formula_structural   Hf8Ti11Si14MoP2
_chemical_formula_sum   'Hf8 Ti11 Si14 Mo1 P2'
_cell_volume   569.93385767
_cell_formula_units_Z   1
loop_
 _symmetry_equiv_pos_site_id
 _symmetry_equiv_pos_as_xyz
  1  'x, y, z'
loop_
 _atom_site_type_symbol
 _atom_site_label
 _atom_site_symmetry_multiplicity
 _atom_site_fract_x
 _atom_site_fract_y
 _atom_site_fract_z
 _atom_site_occupancy
  Hf  Hf0  1  0.997492  0.171785  0.095392  1
  Hf  Hf1  1  0.002747  0.827849  0.905866  1
  Hf  Hf2  1  0.502844  0.673813  0.906673  1
  Hf  Hf3  1  0.002747  0.827849  0.594134  1
  Hf  Hf4  1  0.498767  0.328825  0.095873  1
  Hf  Hf5  1  0.997492  0.171785  0.404608  1
  Hf  Hf6  1  0.498767  0.328825  0.404127  1
  Hf  Hf7  1  0.502844  0.673813  0.593327  1
  Ti  Ti8  1  0.164346  0.494043  0.750000  1
  Ti  Ti9  1  0.833073  0.507483  0.250000  1
  Ti  Ti10  1  0.333637  0.992764  0.250000  1
  Ti  Ti11  1  0.336181  0.171034  0.624238  1
  Ti  Ti12  1  0.666234  0.825678  0.373717  1
  Ti  Ti13  1  0.165879  0.674174  0.373608  1
  Ti  Ti14  1  0.666234  0.825678  0.126283  1
  Ti  Ti15  1  0.835119  0.327653  0.624488  1
  Ti  Ti16  1  0.336181  0.171034  0.875762  1
  Ti  Ti17  1  0.835119  0.327653  0.875512  1
  Ti  Ti18  1  0.165879  0.674174  0.126392  1
  Si  Si19  1  0.037971  0.117450  0.750000  1
  Si  Si20  1  0.537415  0.382110  0.750000  1
  Si  Si21  1  0.297845  0.861317  0.750000  1
  Si  Si22  1  0.699365  0.136804  0.250000  1
  Si  Si23  1  0.199275  0.362417  0.250000  1
  Si  Si24  1  0.798526  0.635956  0.750000  1
  Si  Si25  1  0.170417  0.462835  0.537248  1
  Si  Si26  1  0.830452  0.538407  0.462120  1
  Si  Si27  1  0.330647  0.962187  0.462128  1
  Si  Si28  1  0.830452  0.538407  0.037880  1
  Si  Si29  1  0.670800  0.038064  0.536769  1
  Si  Si30  1  0.170417  0.462835  0.962752  1
  Si  Si31  1  0.670800  0.038064  0.963231  1
  Si  Si32  1  0.330647  0.962187  0.037872  1
  Mo  Mo33  1  0.663774  0.004625  0.750000  1
  P  P34  1  0.959517  0.877904  0.250000  1
  P  P35  1  0.460096  0.622521  0.250000  1
