# generated using pymatgen
data_DyU(TcB4)2
_symmetry_space_group_name_H-M   'P 1'
_cell_length_a   3.60539500
_cell_length_b   5.94732411
_cell_length_c   11.49346621
_cell_angle_alpha   89.97809340
_cell_angle_beta   90.00000000
_cell_angle_gamma   90.00000000
_symmetry_Int_Tables_number   1
_chemical_formula_structural   DyU(TcB4)2
_chemical_formula_sum   'Dy2 U2 Tc4 B16'
_cell_volume   246.44808646
_cell_formula_units_Z   2
loop_
 _symmetry_equiv_pos_site_id
 _symmetry_equiv_pos_as_xyz
  1  'x, y, z'
loop_
 _atom_site_type_symbol
 _atom_site_label
 _atom_site_symmetry_multiplicity
 _atom_site_fract_x
 _atom_site_fract_y
 _atom_site_fract_z
 _atom_site_occupancy
  Dy  Dy0  1  0.000000  0.627289  0.648629  1
  Dy  Dy1  1  0.000000  0.372711  0.351371  1
  U  U2  1  0.000000  0.127552  0.849213  1
  U  U3  1  0.000000  0.872448  0.150787  1
  Tc  Tc4  1  0.000000  0.640953  0.908875  1
  Tc  Tc5  1  0.000000  0.359047  0.091125  1
  Tc  Tc6  1  0.000000  0.135060  0.592072  1
  Tc  Tc7  1  0.000000  0.864940  0.407928  1
  B  B8  1  0.500000  0.978070  0.692847  1
  B  B9  1  0.500000  0.021930  0.307153  1
  B  B10  1  0.500000  0.472857  0.808582  1
  B  B11  1  0.500000  0.527143  0.191418  1
  B  B12  1  0.500000  0.867704  0.968498  1
  B  B13  1  0.500000  0.132296  0.031502  1
  B  B14  1  0.500000  0.363524  0.531552  1
  B  B15  1  0.500000  0.636476  0.468448  1
  B  B16  1  0.500000  0.791246  0.814166  1
  B  B17  1  0.500000  0.208754  0.185834  1
  B  B18  1  0.500000  0.287453  0.687442  1
  B  B19  1  0.500000  0.712547  0.312558  1
  B  B20  1  0.500000  0.886700  0.546212  1
  B  B21  1  0.500000  0.113300  0.453788  1
  B  B22  1  0.500000  0.385857  0.953006  1
  B  B23  1  0.500000  0.614143  0.046994  1
