# generated using pymatgen
data_Yb4Mn3FeB16
_symmetry_space_group_name_H-M   'P 1'
_cell_length_a   3.34176400
_cell_length_b   5.90411831
_cell_length_c   11.42889361
_cell_angle_alpha   89.96264977
_cell_angle_beta   90.00000000
_cell_angle_gamma   90.00000000
_symmetry_Int_Tables_number   1
_chemical_formula_structural   Yb4Mn3FeB16
_chemical_formula_sum   'Yb4 Mn3 Fe1 B16'
_cell_volume   225.49396624
_cell_formula_units_Z   1
loop_
 _symmetry_equiv_pos_site_id
 _symmetry_equiv_pos_as_xyz
  1  'x, y, z'
loop_
 _atom_site_type_symbol
 _atom_site_label
 _atom_site_symmetry_multiplicity
 _atom_site_fract_x
 _atom_site_fract_y
 _atom_site_fract_z
 _atom_site_occupancy
  Yb  Yb0  1  0.000000  0.125668  0.650930  1
  Yb  Yb1  1  0.000000  0.875015  0.348522  1
  Yb  Yb2  1  0.000000  0.624723  0.848906  1
  Yb  Yb3  1  0.000000  0.375083  0.151948  1
  Mn  Mn4  1  0.000000  0.121157  0.921026  1
  Mn  Mn5  1  0.000000  0.879196  0.079538  1
  Mn  Mn6  1  0.000000  0.626340  0.581927  1
  Fe  Fe7  1  0.000000  0.374698  0.418139  1
  B  B8  1  0.500000  0.361882  0.967025  1
  B  B9  1  0.500000  0.637748  0.033154  1
  B  B10  1  0.500000  0.862131  0.531873  1
  B  B11  1  0.500000  0.138771  0.467101  1
  B  B12  1  0.500000  0.474568  0.690665  1
  B  B13  1  0.500000  0.523693  0.309410  1
  B  B14  1  0.500000  0.976726  0.809220  1
  B  B15  1  0.500000  0.023813  0.191128  1
  B  B16  1  0.500000  0.279188  0.817321  1
  B  B17  1  0.500000  0.720376  0.182949  1
  B  B18  1  0.500000  0.780504  0.683478  1
  B  B19  1  0.500000  0.221592  0.317719  1
  B  B20  1  0.500000  0.385669  0.545648  1
  B  B21  1  0.500000  0.611001  0.452297  1
  B  B22  1  0.500000  0.886822  0.953259  1
  B  B23  1  0.500000  0.113638  0.046819  1
