# generated using pymatgen
data_Ca13Nd7Si15Hg
_symmetry_space_group_name_H-M   'P 1'
_cell_length_a   7.68736922
_cell_length_b   7.99391461
_cell_length_c   15.65727100
_cell_angle_alpha   90.25116886
_cell_angle_beta   89.20006288
_cell_angle_gamma   90.28103917
_symmetry_Int_Tables_number   1
_chemical_formula_structural   Ca13Nd7Si15Hg
_chemical_formula_sum   'Ca13 Nd7 Si15 Hg1'
_cell_volume   962.05902038
_cell_formula_units_Z   1
loop_
 _symmetry_equiv_pos_site_id
 _symmetry_equiv_pos_as_xyz
  1  'x, y, z'
loop_
 _atom_site_type_symbol
 _atom_site_label
 _atom_site_symmetry_multiplicity
 _atom_site_fract_x
 _atom_site_fract_y
 _atom_site_fract_z
 _atom_site_occupancy
  Ca  Ca0  1  0.648071  0.977046  0.251834  1
  Ca  Ca1  1  0.152771  0.520318  0.250982  1
  Ca  Ca2  1  0.847958  0.481874  0.746802  1
  Ca  Ca3  1  0.352408  0.019960  0.747154  1
  Ca  Ca4  1  0.984049  0.820129  0.102564  1
  Ca  Ca5  1  0.469966  0.685923  0.404043  1
  Ca  Ca6  1  0.507930  0.314633  0.900055  1
  Ca  Ca7  1  0.030650  0.187454  0.597282  1
  Ca  Ca8  1  0.029685  0.173771  0.900120  1
  Ca  Ca9  1  0.531500  0.313233  0.596741  1
  Ca  Ca10  1  0.474280  0.684088  0.096229  1
  Ca  Ca11  1  0.969799  0.813094  0.403159  1
  Ca  Ca12  1  0.671142  0.830440  0.871958  1
  Nd  Nd13  1  0.183790  0.679037  0.620856  1
  Nd  Nd14  1  0.825395  0.316363  0.127727  1
  Nd  Nd15  1  0.315886  0.177653  0.380161  1
  Nd  Nd16  1  0.323147  0.179630  0.122672  1
  Nd  Nd17  1  0.815303  0.321659  0.379997  1
  Nd  Nd18  1  0.188080  0.677983  0.878014  1
  Nd  Nd19  1  0.684617  0.822086  0.621575  1
  Si  Si20  1  0.754959  0.607951  0.250936  1
  Si  Si21  1  0.254824  0.890323  0.252202  1
  Si  Si22  1  0.749282  0.113808  0.746548  1
  Si  Si23  1  0.241115  0.390040  0.748303  1
  Si  Si24  1  0.027646  0.103466  0.251473  1
  Si  Si25  1  0.527770  0.393606  0.253657  1
  Si  Si26  1  0.470949  0.603118  0.745330  1
  Si  Si27  1  0.974735  0.895449  0.751591  1
  Si  Si28  1  0.363036  0.968047  0.538216  1
  Si  Si29  1  0.645714  0.036555  0.034898  1
  Si  Si30  1  0.136744  0.469050  0.461630  1
  Si  Si31  1  0.153194  0.468698  0.040544  1
  Si  Si32  1  0.637022  0.031208  0.461779  1
  Si  Si33  1  0.362302  0.968307  0.964177  1
  Si  Si34  1  0.862845  0.533668  0.537403  1
  Hg  Hg35  1  0.831436  0.530333  0.961391  1
