# generated using pymatgen
data_Nd11In9CuRu3
_symmetry_space_group_name_H-M   'P 1'
_cell_length_a   13.41341170
_cell_length_b   13.38143893
_cell_length_c   3.83326400
_cell_angle_alpha   90.00000000
_cell_angle_beta   90.00000000
_cell_angle_gamma   111.95883365
_symmetry_Int_Tables_number   1
_chemical_formula_structural   Nd11In9CuRu3
_chemical_formula_sum   'Nd11 In9 Cu1 Ru3'
_cell_volume   638.12036109
_cell_formula_units_Z   1
loop_
 _symmetry_equiv_pos_site_id
 _symmetry_equiv_pos_as_xyz
  1  'x, y, z'
loop_
 _atom_site_type_symbol
 _atom_site_label
 _atom_site_symmetry_multiplicity
 _atom_site_fract_x
 _atom_site_fract_y
 _atom_site_fract_z
 _atom_site_occupancy
  Nd  Nd0  1  0.078396  0.419735  0.000000  1
  Nd  Nd1  1  0.919873  0.579801  0.000000  1
  Nd  Nd2  1  0.421003  0.080780  0.000000  1
  Nd  Nd3  1  0.582056  0.928246  0.000000  1
  Nd  Nd4  1  0.624265  0.372546  0.000000  1
  Nd  Nd5  1  0.365244  0.620184  0.000000  1
  Nd  Nd6  1  0.839819  0.159956  0.000000  1
  Nd  Nd7  1  0.160309  0.839918  0.000000  1
  Nd  Nd8  1  0.999835  0.999386  0.000000  1
  Nd  Nd9  1  0.313580  0.313073  0.000000  1
  Nd  Nd10  1  0.692515  0.680986  0.000000  1
  In  In11  1  0.837888  0.364908  0.500000  1
  In  In12  1  0.163731  0.634122  0.500000  1
  In  In13  1  0.367822  0.840819  0.500000  1
  In  In14  1  0.633113  0.162108  0.500000  1
  In  In15  1  0.080402  0.221848  0.500000  1
  In  In16  1  0.919787  0.777715  0.500000  1
  In  In17  1  0.221977  0.079293  0.500000  1
  In  In18  1  0.780038  0.923748  0.500000  1
  In  In19  1  0.499070  0.501764  0.500000  1
  Cu  Cu20  1  0.549123  0.749983  0.500000  1
  Ru  Ru21  1  0.246219  0.449318  0.500000  1
  Ru  Ru22  1  0.753859  0.550765  0.500000  1
  Ru  Ru23  1  0.450077  0.248998  0.500000  1
