# generated using pymatgen
data_Sc4Nb4TcOs7
_symmetry_space_group_name_H-M   'P 1'
_cell_length_a   6.39126800
_cell_length_b   4.53687500
_cell_length_c   9.06042900
_cell_angle_alpha   90.00000000
_cell_angle_beta   89.99890667
_cell_angle_gamma   90.00000000
_symmetry_Int_Tables_number   1
_chemical_formula_structural   Sc4Nb4TcOs7
_chemical_formula_sum   'Sc4 Nb4 Tc1 Os7'
_cell_volume   262.71967853
_cell_formula_units_Z   1
loop_
 _symmetry_equiv_pos_site_id
 _symmetry_equiv_pos_as_xyz
  1  'x, y, z'
loop_
 _atom_site_type_symbol
 _atom_site_label
 _atom_site_symmetry_multiplicity
 _atom_site_fract_x
 _atom_site_fract_y
 _atom_site_fract_z
 _atom_site_occupancy
  Sc  Sc0  1  0.749034  0.250001  0.125009  1
  Sc  Sc1  1  0.250391  0.749999  0.374097  1
  Sc  Sc2  1  0.750222  0.250001  0.625002  1
  Sc  Sc3  1  0.250382  0.749999  0.875895  1
  Nb  Nb4  1  0.252176  0.250001  0.125005  1
  Nb  Nb5  1  0.748496  0.749999  0.373425  1
  Nb  Nb6  1  0.250501  0.250001  0.625001  1
  Nb  Nb7  1  0.748483  0.749999  0.876571  1
  Tc  Tc8  1  0.500597  0.749999  0.124991  1
  Os  Os9  1  0.999676  0.749999  0.125003  1
  Os  Os10  1  0.499775  0.250001  0.375882  1
  Os  Os11  1  0.000351  0.250001  0.375601  1
  Os  Os12  1  0.999833  0.749999  0.625009  1
  Os  Os13  1  0.499981  0.749999  0.625009  1
  Os  Os14  1  0.000332  0.250001  0.874388  1
  Os  Os15  1  0.499771  0.250001  0.874114  1
