# generated using pymatgen
data_Li4Sm3TmPt4
_symmetry_space_group_name_H-M   'P 1'
_cell_length_a   4.06973900
_cell_length_b   7.09270024
_cell_length_c   8.50757600
_cell_angle_alpha   89.86655719
_cell_angle_beta   90.00000000
_cell_angle_gamma   90.00000000
_symmetry_Int_Tables_number   1
_chemical_formula_structural   Li4Sm3TmPt4
_chemical_formula_sum   'Li4 Sm3 Tm1 Pt4'
_cell_volume   245.57424805
_cell_formula_units_Z   1
loop_
 _symmetry_equiv_pos_site_id
 _symmetry_equiv_pos_as_xyz
  1  'x, y, z'
loop_
 _atom_site_type_symbol
 _atom_site_label
 _atom_site_symmetry_multiplicity
 _atom_site_fract_x
 _atom_site_fract_y
 _atom_site_fract_z
 _atom_site_occupancy
  Li  Li0  1  0.250000  0.624800  0.556179  1
  Li  Li1  1  0.750000  0.376045  0.441057  1
  Li  Li2  1  0.750000  0.872756  0.058852  1
  Li  Li3  1  0.250000  0.126889  0.943320  1
  Sm  Sm4  1  0.750000  0.453974  0.821046  1
  Sm  Sm5  1  0.750000  0.952810  0.681065  1
  Sm  Sm6  1  0.250000  0.045233  0.316491  1
  Tm  Tm7  1  0.250000  0.546594  0.179467  1
  Pt  Pt8  1  0.250000  0.746688  0.881359  1
  Pt  Pt9  1  0.750000  0.260814  0.126611  1
  Pt  Pt10  1  0.750000  0.746005  0.371200  1
  Pt  Pt11  1  0.250000  0.247393  0.623351  1
