# generated using pymatgen
data_K4YUI12
_symmetry_space_group_name_H-M   'P 1'
_cell_length_a   8.93288629
_cell_length_b   8.36077797
_cell_length_c   14.40844165
_cell_angle_alpha   54.23700393
_cell_angle_beta   91.08053443
_cell_angle_gamma   91.78354633
_symmetry_Int_Tables_number   1
_chemical_formula_structural   K4YUI12
_chemical_formula_sum   'K4 Y1 U1 I12'
_cell_volume   872.77459055
_cell_formula_units_Z   1
loop_
 _symmetry_equiv_pos_site_id
 _symmetry_equiv_pos_as_xyz
  1  'x, y, z'
loop_
 _atom_site_type_symbol
 _atom_site_label
 _atom_site_symmetry_multiplicity
 _atom_site_fract_x
 _atom_site_fract_y
 _atom_site_fract_z
 _atom_site_occupancy
  K  K0  1  0.592360  0.760248  0.215508  1
  K  K1  1  0.087806  0.296331  0.209556  1
  K  K2  1  0.407640  0.239752  0.784492  1
  K  K3  1  0.912194  0.703669  0.790444  1
  Y  Y4  1  0.000000  0.000000  0.000000  1
  U  U5  1  0.500000  0.000000  0.500000  1
  I  I6  1  0.975598  0.844815  0.250825  1
  I  I7  1  0.488410  0.151244  0.256955  1
  I  I8  1  0.024402  0.155185  0.749175  1
  I  I9  1  0.511590  0.848756  0.743045  1
  I  I10  1  0.671117  0.659838  0.553774  1
  I  I11  1  0.191908  0.353654  0.948600  1
  I  I12  1  0.328883  0.340162  0.446226  1
  I  I13  1  0.808092  0.646346  0.051400  1
  I  I14  1  0.713847  0.228593  0.950889  1
  I  I15  1  0.218321  0.776364  0.543949  1
  I  I16  1  0.286153  0.771407  0.049111  1
  I  I17  1  0.781679  0.223636  0.456051  1
