# generated using pymatgen
data_Pr2YPtRh8
_symmetry_space_group_name_H-M   'P 1'
_cell_length_a   5.35650100
_cell_length_b   5.35650167
_cell_length_c   17.66011500
_cell_angle_alpha   90.00000000
_cell_angle_beta   90.00000000
_cell_angle_gamma   119.99998971
_symmetry_Int_Tables_number   1
_chemical_formula_structural   Pr2YPtRh8
_chemical_formula_sum   'Pr4 Y2 Pt2 Rh16'
_cell_volume   438.82022802
_cell_formula_units_Z   2
loop_
 _symmetry_equiv_pos_site_id
 _symmetry_equiv_pos_as_xyz
  1  'x, y, z'
loop_
 _atom_site_type_symbol
 _atom_site_label
 _atom_site_symmetry_multiplicity
 _atom_site_fract_x
 _atom_site_fract_y
 _atom_site_fract_z
 _atom_site_occupancy
  Pr  Pr0  1  0.333333  0.666667  0.956003  1
  Pr  Pr1  1  0.666667  0.333333  0.043997  1
  Pr  Pr2  1  0.333333  0.666667  0.747431  1
  Pr  Pr3  1  0.666667  0.333333  0.252569  1
  Y  Y4  1  0.666667  0.333333  0.458434  1
  Y  Y5  1  0.333333  0.666667  0.541566  1
  Pt  Pt6  1  0.000000  0.000000  0.500000  1
  Pt  Pt7  1  0.000000  0.000000  0.000000  1
  Rh  Rh8  1  0.168153  0.831847  0.375480  1
  Rh  Rh9  1  0.168153  0.336305  0.375480  1
  Rh  Rh10  1  0.663695  0.831847  0.375480  1
  Rh  Rh11  1  0.831847  0.168153  0.624520  1
  Rh  Rh12  1  0.831847  0.663695  0.624520  1
  Rh  Rh13  1  0.336305  0.168153  0.624520  1
  Rh  Rh14  1  0.832904  0.167096  0.870251  1
  Rh  Rh15  1  0.832904  0.665809  0.870251  1
  Rh  Rh16  1  0.334191  0.167096  0.870251  1
  Rh  Rh17  1  0.167096  0.832904  0.129749  1
  Rh  Rh18  1  0.167096  0.334191  0.129749  1
  Rh  Rh19  1  0.665809  0.832904  0.129749  1
  Rh  Rh20  1  0.333333  0.666667  0.252277  1
  Rh  Rh21  1  0.666667  0.333333  0.747723  1
  Rh  Rh22  1  0.000000  0.000000  0.252917  1
  Rh  Rh23  1  0.000000  0.000000  0.747083  1
