# generated using pymatgen
data_Dy4Os3Ru3W2
_symmetry_space_group_name_H-M   'P 1'
_cell_length_a   5.55215263
_cell_length_b   5.19524095
_cell_length_c   9.13725000
_cell_angle_alpha   90.00000000
_cell_angle_beta   90.00000000
_cell_angle_gamma   122.04744365
_symmetry_Int_Tables_number   1
_chemical_formula_structural   Dy4Os3Ru3W2
_chemical_formula_sum   'Dy4 Os3 Ru3 W2'
_cell_volume   223.39742446
_cell_formula_units_Z   1
loop_
 _symmetry_equiv_pos_site_id
 _symmetry_equiv_pos_as_xyz
  1  'x, y, z'
loop_
 _atom_site_type_symbol
 _atom_site_label
 _atom_site_symmetry_multiplicity
 _atom_site_fract_x
 _atom_site_fract_y
 _atom_site_fract_z
 _atom_site_occupancy
  Dy  Dy0  1  0.668919  0.337537  0.565779  1
  Dy  Dy1  1  0.330856  0.661603  0.434445  1
  Dy  Dy2  1  0.330856  0.661603  0.065555  1
  Dy  Dy3  1  0.668919  0.337537  0.934221  1
  Os  Os4  1  0.170001  0.814820  0.750000  1
  Os  Os5  1  0.644586  0.815484  0.750000  1
  Os  Os6  1  0.832328  0.186684  0.250000  1
  Ru  Ru7  1  0.995782  0.998234  0.499655  1
  Ru  Ru8  1  0.995782  0.998234  0.000345  1
  Ru  Ru9  1  0.357461  0.185391  0.250000  1
  W  W10  1  0.153298  0.305965  0.750000  1
  W  W11  1  0.851209  0.696907  0.250000  1
