# generated using pymatgen
data_La11Pr3IrPt5
_symmetry_space_group_name_H-M   'P 1'
_cell_length_a   6.56504059
_cell_length_b   10.31135664
_cell_length_c   10.31135506
_cell_angle_alpha   119.97384851
_cell_angle_beta   89.87681880
_cell_angle_gamma   90.12317967
_symmetry_Int_Tables_number   1
_chemical_formula_structural   La11Pr3IrPt5
_chemical_formula_sum   'La11 Pr3 Ir1 Pt5'
_cell_volume   604.66195395
_cell_formula_units_Z   1
loop_
 _symmetry_equiv_pos_site_id
 _symmetry_equiv_pos_as_xyz
  1  'x, y, z'
loop_
 _atom_site_type_symbol
 _atom_site_label
 _atom_site_symmetry_multiplicity
 _atom_site_fract_x
 _atom_site_fract_y
 _atom_site_fract_z
 _atom_site_occupancy
  La  La0  1  0.459044  0.333301  0.666699  1
  La  La1  1  0.964848  0.668588  0.331412  1
  La  La2  1  0.242450  0.127979  0.872021  1
  La  La3  1  0.241876  0.747050  0.878154  1
  La  La4  1  0.241876  0.121846  0.252950  1
  La  La5  1  0.748368  0.871994  0.128006  1
  La  La6  1  0.743357  0.255343  0.127254  1
  La  La7  1  0.743357  0.872746  0.744657  1
  La  La8  1  0.442792  0.536802  0.463198  1
  La  La9  1  0.439693  0.922350  0.458027  1
  La  La10  1  0.439693  0.541973  0.077650  1
  Pr  Pr11  1  0.944268  0.462983  0.537017  1
  Pr  Pr12  1  0.943168  0.075157  0.536502  1
  Pr  Pr13  1  0.943168  0.463498  0.924843  1
  Ir  Ir14  1  0.191030  0.810916  0.189084  1
  Pt  Pt15  1  0.191736  0.376164  0.189184  1
  Pt  Pt16  1  0.191736  0.810816  0.623836  1
  Pt  Pt17  1  0.691544  0.188539  0.811461  1
  Pt  Pt18  1  0.690998  0.622859  0.810905  1
  Pt  Pt19  1  0.690998  0.189095  0.377141  1
