# generated using pymatgen
data_Sm5FeRuO12
_symmetry_space_group_name_H-M   'P 1'
_cell_length_a   6.96463669
_cell_length_b   6.96463660
_cell_length_c   7.47038787
_cell_angle_alpha   74.45924732
_cell_angle_beta   74.45925050
_cell_angle_gamma   50.99858498
_symmetry_Int_Tables_number   1
_chemical_formula_structural   Sm5FeRuO12
_chemical_formula_sum   'Sm5 Fe1 Ru1 O12'
_cell_volume   268.90846315
_cell_formula_units_Z   1
loop_
 _symmetry_equiv_pos_site_id
 _symmetry_equiv_pos_as_xyz
  1  'x, y, z'
loop_
 _atom_site_type_symbol
 _atom_site_label
 _atom_site_symmetry_multiplicity
 _atom_site_fract_x
 _atom_site_fract_y
 _atom_site_fract_z
 _atom_site_occupancy
  Sm  Sm0  1  0.306313  0.302521  0.358399  1
  Sm  Sm1  1  0.697479  0.693687  0.641601  1
  Sm  Sm2  1  0.692064  0.693720  0.166929  1
  Sm  Sm3  1  0.306280  0.307936  0.833071  1
  Sm  Sm4  1  0.002403  0.997597  0.500000  1
  Fe  Fe5  1  0.751427  0.248573  0.000000  1
  Ru  Ru6  1  0.239828  0.760172  0.000000  1
  O  O7  1  0.097182  0.594253  0.577145  1
  O  O8  1  0.009087  0.989243  0.179945  1
  O  O9  1  0.405747  0.902818  0.422855  1
  O  O10  1  0.488849  0.511417  0.180318  1
  O  O11  1  0.097273  0.575804  0.080470  1
  O  O12  1  0.905203  0.400807  0.423856  1
  O  O13  1  0.010757  0.990913  0.820055  1
  O  O14  1  0.599193  0.094796  0.576144  1
  O  O15  1  0.488583  0.511151  0.819682  1
  O  O16  1  0.581918  0.103782  0.078064  1
  O  O17  1  0.424196  0.902727  0.919530  1
  O  O18  1  0.896218  0.418082  0.921936  1
