# generated using pymatgen
data_La6Pr2Lu12Si15As
_symmetry_space_group_name_H-M   'P 1'
_cell_length_a   7.48601334
_cell_length_b   7.77374788
_cell_length_c   14.62261694
_cell_angle_alpha   90.00881726
_cell_angle_beta   89.99978622
_cell_angle_gamma   90.56362626
_symmetry_Int_Tables_number   1
_chemical_formula_structural   La6Pr2Lu12Si15As
_chemical_formula_sum   'La6 Pr2 Lu12 Si15 As1'
_cell_volume   850.91294871
_cell_formula_units_Z   1
loop_
 _symmetry_equiv_pos_site_id
 _symmetry_equiv_pos_as_xyz
  1  'x, y, z'
loop_
 _atom_site_type_symbol
 _atom_site_label
 _atom_site_symmetry_multiplicity
 _atom_site_fract_x
 _atom_site_fract_y
 _atom_site_fract_z
 _atom_site_occupancy
  La  La0  1  0.016047  0.175816  0.401313  1
  La  La1  1  0.515308  0.326708  0.400628  1
  La  La2  1  0.491002  0.666722  0.906168  1
  La  La3  1  0.490964  0.667422  0.594567  1
  La  La4  1  0.986874  0.827617  0.599524  1
  La  La5  1  0.986616  0.827839  0.901531  1
  Pr  Pr6  1  0.515415  0.325545  0.099455  1
  Pr  Pr7  1  0.016133  0.176288  0.098847  1
  Lu  Lu8  1  0.321732  0.171854  0.626438  1
  Lu  Lu9  1  0.675290  0.826187  0.373773  1
  Lu  Lu10  1  0.661165  0.994687  0.750387  1
  Lu  Lu11  1  0.173797  0.675503  0.375053  1
  Lu  Lu12  1  0.821243  0.327911  0.877641  1
  Lu  Lu13  1  0.821710  0.328690  0.623210  1
  Lu  Lu14  1  0.840657  0.494612  0.249158  1
  Lu  Lu15  1  0.342446  0.005566  0.248982  1
  Lu  Lu16  1  0.321756  0.172828  0.874503  1
  Lu  Lu17  1  0.173336  0.675842  0.123616  1
  Lu  Lu18  1  0.675702  0.825650  0.124978  1
  Lu  Lu19  1  0.155934  0.500189  0.750384  1
  Si  Si20  1  0.468166  0.620861  0.249208  1
  Si  Si21  1  0.015334  0.139413  0.750278  1
  Si  Si22  1  0.526370  0.373539  0.750292  1
  Si  Si23  1  0.150788  0.467004  0.540555  1
  Si  Si24  1  0.972915  0.880170  0.249408  1
  Si  Si25  1  0.715755  0.123471  0.248865  1
  Si  Si26  1  0.847845  0.534027  0.041192  1
  Si  Si27  1  0.350188  0.967897  0.039333  1
  Si  Si28  1  0.151028  0.465543  0.960010  1
  Si  Si29  1  0.647276  0.032744  0.539882  1
  Si  Si30  1  0.351353  0.966577  0.461360  1
  Si  Si31  1  0.849033  0.536035  0.459390  1
  Si  Si32  1  0.786868  0.625823  0.750272  1
  Si  Si33  1  0.216449  0.379116  0.248835  1
  Si  Si34  1  0.647604  0.033907  0.960630  1
  As  As35  1  0.299900  0.860401  0.750331  1
