# generated using pymatgen
data_Ba12Ta8Mn(FeO12)3
_symmetry_space_group_name_H-M   'P 1'
_cell_length_a   9.30935964
_cell_length_b   9.29428928
_cell_length_c   11.75598465
_cell_angle_alpha   108.38469897
_cell_angle_beta   108.09593508
_cell_angle_gamma   66.05691346
_symmetry_Int_Tables_number   1
_chemical_formula_structural   Ba12Ta8Mn(FeO12)3
_chemical_formula_sum   'Ba12 Ta8 Mn1 Fe3 O36'
_cell_volume   862.41930646
_cell_formula_units_Z   1
loop_
 _symmetry_equiv_pos_site_id
 _symmetry_equiv_pos_as_xyz
  1  'x, y, z'
loop_
 _atom_site_type_symbol
 _atom_site_label
 _atom_site_symmetry_multiplicity
 _atom_site_fract_x
 _atom_site_fract_y
 _atom_site_fract_z
 _atom_site_occupancy
  Ba  Ba0  1  0.999308  0.999940  0.499910  1
  Ba  Ba1  1  0.500538  0.499837  0.749884  1
  Ba  Ba2  1  0.999618  0.000066  0.000168  1
  Ba  Ba3  1  0.500519  0.500119  0.250031  1
  Ba  Ba4  1  0.334011  0.003655  0.334863  1
  Ba  Ba5  1  0.836465  0.500450  0.585340  1
  Ba  Ba6  1  0.334838  0.003108  0.834419  1
  Ba  Ba7  1  0.838049  0.499663  0.083640  1
  Ba  Ba8  1  0.165618  0.496982  0.415370  1
  Ba  Ba9  1  0.662182  0.000207  0.666407  1
  Ba  Ba10  1  0.165515  0.496290  0.915366  1
  Ba  Ba11  1  0.663306  0.999709  0.164600  1
  Ta  Ta12  1  0.579156  0.247624  0.456742  1
  Ta  Ta13  1  0.079799  0.746012  0.707478  1
  Ta  Ta14  1  0.579957  0.246906  0.956663  1
  Ta  Ta15  1  0.080884  0.745720  0.206092  1
  Ta  Ta16  1  0.920608  0.252556  0.293211  1
  Ta  Ta17  1  0.419110  0.754362  0.543957  1
  Ta  Ta18  1  0.920262  0.252936  0.793308  1
  Ta  Ta19  1  0.420235  0.753902  0.042555  1
  Mn  Mn20  1  0.750017  0.749871  0.374911  1
  Fe  Fe21  1  0.249693  0.250210  0.625107  1
  Fe  Fe22  1  0.750054  0.749974  0.875052  1
  Fe  Fe23  1  0.250352  0.249822  0.124893  1
  O  O24  1  0.000818  0.998485  0.249681  1
  O  O25  1  0.499207  0.501549  0.500306  1
  O  O26  1  0.999343  0.998247  0.750414  1
  O  O27  1  0.500591  0.501729  0.999577  1
  O  O28  1  0.749887  0.250013  0.375054  1
  O  O29  1  0.248670  0.749937  0.625589  1
  O  O30  1  0.750099  0.250002  0.874955  1
  O  O31  1  0.251348  0.750051  0.124410  1
  O  O32  1  0.249974  0.750058  0.375054  1
  O  O33  1  0.749903  0.249832  0.624904  1
  O  O34  1  0.249985  0.749918  0.874977  1
  O  O35  1  0.750131  0.250230  0.125071  1
  O  O36  1  0.426357  0.254075  0.300693  1
  O  O37  1  0.927154  0.751447  0.551963  1
  O  O38  1  0.426818  0.253825  0.800748  1
  O  O39  1  0.928665  0.750992  0.050311  1
  O  O40  1  0.073110  0.246365  0.449249  1
  O  O41  1  0.571485  0.748675  0.699701  1
  O  O42  1  0.073714  0.245740  0.949242  1
  O  O43  1  0.572712  0.748891  0.198102  1
  O  O44  1  0.665072  0.013901  0.420045  1
  O  O45  1  0.166979  0.510032  0.670118  1
  O  O46  1  0.666083  0.013272  0.919752  1
  O  O47  1  0.169226  0.509501  0.169399  1
  O  O48  1  0.834627  0.486419  0.330050  1
  O  O49  1  0.330835  0.990489  0.580896  1
  O  O50  1  0.834210  0.486462  0.830252  1
  O  O51  1  0.332919  0.989971  0.079512  1
  O  O52  1  0.425146  0.255063  0.540444  1
  O  O53  1  0.925030  0.751079  0.791105  1
  O  O54  1  0.426080  0.254564  0.040106  1
  O  O55  1  0.928070  0.751141  0.289025  1
  O  O56  1  0.074629  0.245367  0.209912  1
  O  O57  1  0.571868  0.749031  0.461054  1
  O  O58  1  0.074129  0.245056  0.709521  1
  O  O59  1  0.575036  0.748668  0.958838  1
