# generated using pymatgen
data_TbMnHgPt3
_symmetry_space_group_name_H-M   'P 1'
_cell_length_a   5.26553432
_cell_length_b   5.50468900
_cell_length_c   5.50468900
_cell_angle_alpha   60.00000603
_cell_angle_beta   58.48583485
_cell_angle_gamma   58.48583532
_symmetry_Int_Tables_number   1
_chemical_formula_structural   TbMnHgPt3
_chemical_formula_sum   'Tb1 Mn1 Hg1 Pt3'
_cell_volume   110.17035626
_cell_formula_units_Z   1
loop_
 _symmetry_equiv_pos_site_id
 _symmetry_equiv_pos_as_xyz
  1  'x, y, z'
loop_
 _atom_site_type_symbol
 _atom_site_label
 _atom_site_symmetry_multiplicity
 _atom_site_fract_x
 _atom_site_fract_y
 _atom_site_fract_z
 _atom_site_occupancy
  Tb  Tb0  1  0.740799  0.753067  0.753067  1
  Mn  Mn1  1  0.878273  0.373908  0.373908  1
  Hg  Hg2  1  0.997888  0.000704  0.000704  1
  Pt  Pt3  1  0.377679  0.875249  0.373535  1
  Pt  Pt4  1  0.377679  0.373535  0.373535  1
  Pt  Pt5  1  0.377679  0.373535  0.875249  1
