# generated using pymatgen
data_ErRuI18
_symmetry_space_group_name_H-M   'P 1'
_cell_length_a   10.23419490
_cell_length_b   10.36423277
_cell_length_c   10.23674563
_cell_angle_alpha   92.98109845
_cell_angle_beta   93.26769986
_cell_angle_gamma   92.92948268
_symmetry_Int_Tables_number   1
_chemical_formula_structural   ErRuI18
_chemical_formula_sum   'Er1 Ru1 I18'
_cell_volume   1080.98170164
_cell_formula_units_Z   1
loop_
 _symmetry_equiv_pos_site_id
 _symmetry_equiv_pos_as_xyz
  1  'x, y, z'
loop_
 _atom_site_type_symbol
 _atom_site_label
 _atom_site_symmetry_multiplicity
 _atom_site_fract_x
 _atom_site_fract_y
 _atom_site_fract_z
 _atom_site_occupancy
  Er  Er0  1  0.500000  0.500000  0.500000  1
  Ru  Ru1  1  0.000000  0.000000  0.000000  1
  I  I2  1  0.792668  0.478954  0.526308  1
  I  I3  1  0.526543  0.789930  0.478065  1
  I  I4  1  0.479800  0.528047  0.793831  1
  I  I5  1  0.207332  0.521046  0.473692  1
  I  I6  1  0.473457  0.210070  0.521935  1
  I  I7  1  0.520200  0.471953  0.206169  1
  I  I8  1  0.900898  0.361524  0.767809  1
  I  I9  1  0.767746  0.897079  0.362908  1
  I  I10  1  0.362356  0.766759  0.899463  1
  I  I11  1  0.099102  0.638476  0.232191  1
  I  I12  1  0.232254  0.102921  0.637092  1
  I  I13  1  0.637644  0.233241  0.100537  1
  I  I14  1  0.005905  0.967103  0.736764  1
  I  I15  1  0.738902  0.005240  0.970334  1
  I  I16  1  0.968470  0.737729  0.000962  1
  I  I17  1  0.994095  0.032897  0.263236  1
  I  I18  1  0.261098  0.994760  0.029666  1
  I  I19  1  0.031530  0.262271  0.999038  1
