# generated using pymatgen
data_Er3LuHf2Pt2F28
_symmetry_space_group_name_H-M   'P 1'
_cell_length_a   5.60253264
_cell_length_b   8.87368261
_cell_length_c   11.96593555
_cell_angle_alpha   62.70026726
_cell_angle_beta   90.02706661
_cell_angle_gamma   89.97009260
_symmetry_Int_Tables_number   1
_chemical_formula_structural   Er3LuHf2Pt2F28
_chemical_formula_sum   'Er3 Lu1 Hf2 Pt2 F28'
_cell_volume   528.62843960
_cell_formula_units_Z   1
loop_
 _symmetry_equiv_pos_site_id
 _symmetry_equiv_pos_as_xyz
  1  'x, y, z'
loop_
 _atom_site_type_symbol
 _atom_site_label
 _atom_site_symmetry_multiplicity
 _atom_site_fract_x
 _atom_site_fract_y
 _atom_site_fract_z
 _atom_site_occupancy
  Er  Er0  1  0.258216  0.182794  0.731802  1
  Er  Er1  1  0.241396  0.186034  0.237087  1
  Er  Er2  1  0.741232  0.814139  0.263081  1
  Lu  Lu3  1  0.759393  0.814597  0.768147  1
  Hf  Hf4  1  0.756176  0.275014  0.956078  1
  Hf  Hf5  1  0.256823  0.726616  0.544826  1
  Pt  Pt6  1  0.240388  0.728219  0.043684  1
  Pt  Pt7  1  0.741756  0.271403  0.455532  1
  F  F8  1  0.436913  0.702688  0.916687  1
  F  F9  1  0.935813  0.296343  0.583443  1
  F  F10  1  0.533145  0.289582  0.080469  1
  F  F11  1  0.033266  0.711800  0.420497  1
  F  F12  1  0.442278  0.276305  0.541747  1
  F  F13  1  0.941003  0.723448  0.956560  1
  F  F14  1  0.549019  0.720671  0.449189  1
  F  F15  1  0.050012  0.280232  0.050927  1
  F  F16  1  0.768632  0.528988  0.860666  1
  F  F17  1  0.270581  0.473243  0.639152  1
  F  F18  1  0.224822  0.479907  0.145032  1
  F  F19  1  0.726674  0.520191  0.355058  1
  F  F20  1  0.759884  0.022771  0.057002  1
  F  F21  1  0.260687  0.978727  0.443325  1
  F  F22  1  0.247314  0.977173  0.948338  1
  F  F23  1  0.748427  0.022301  0.550976  1
  F  F24  1  0.985949  0.732843  0.652732  1
  F  F25  1  0.485622  0.267234  0.848976  1
  F  F26  1  0.032168  0.273984  0.362921  1
  F  F27  1  0.529642  0.726204  0.137294  1
  F  F28  1  0.052835  0.746736  0.176435  1
  F  F29  1  0.555474  0.253549  0.322211  1
  F  F30  1  0.971643  0.253942  0.828290  1
  F  F31  1  0.475439  0.748409  0.671927  1
  F  F32  1  0.422179  0.972088  0.233350  1
  F  F33  1  0.922458  0.028161  0.266497  1
  F  F34  1  0.574013  0.023119  0.764803  1
  F  F35  1  0.068731  0.970543  0.735258  1
