# generated using pymatgen
data_Y3Cd3IrAu2
_symmetry_space_group_name_H-M   'P 1'
_cell_length_a   7.88685500
_cell_length_b   7.88685544
_cell_length_c   3.80085300
_cell_angle_alpha   90.00000000
_cell_angle_beta   90.00000000
_cell_angle_gamma   120.00000237
_symmetry_Int_Tables_number   1
_chemical_formula_structural   Y3Cd3IrAu2
_chemical_formula_sum   'Y3 Cd3 Ir1 Au2'
_cell_volume   204.74788837
_cell_formula_units_Z   1
loop_
 _symmetry_equiv_pos_site_id
 _symmetry_equiv_pos_as_xyz
  1  'x, y, z'
loop_
 _atom_site_type_symbol
 _atom_site_label
 _atom_site_symmetry_multiplicity
 _atom_site_fract_x
 _atom_site_fract_y
 _atom_site_fract_z
 _atom_site_occupancy
  Y  Y0  1  0.581382  0.972449  0.000000  1
  Y  Y1  1  0.027551  0.608933  0.000000  1
  Y  Y2  1  0.391067  0.418618  0.000000  1
  Cd  Cd3  1  0.269165  0.003138  0.500000  1
  Cd  Cd4  1  0.996862  0.266028  0.500000  1
  Cd  Cd5  1  0.733972  0.730835  0.500000  1
  Ir  Ir6  1  0.333333  0.666667  0.500000  1
  Au  Au7  1  0.666667  0.333333  0.500000  1
  Au  Au8  1  0.000000  0.000000  0.000000  1
