# generated using pymatgen
data_Sm4CdIn7Pd12
_symmetry_space_group_name_H-M   'P 1'
_cell_length_a   4.59786300
_cell_length_b   9.82196109
_cell_length_c   10.59174331
_cell_angle_alpha   89.67821974
_cell_angle_beta   90.00000000
_cell_angle_gamma   90.00000000
_symmetry_Int_Tables_number   1
_chemical_formula_structural   Sm4CdIn7Pd12
_chemical_formula_sum   'Sm4 Cd1 In7 Pd12'
_cell_volume   478.31591807
_cell_formula_units_Z   1
loop_
 _symmetry_equiv_pos_site_id
 _symmetry_equiv_pos_as_xyz
  1  'x, y, z'
loop_
 _atom_site_type_symbol
 _atom_site_label
 _atom_site_symmetry_multiplicity
 _atom_site_fract_x
 _atom_site_fract_y
 _atom_site_fract_z
 _atom_site_occupancy
  Sm  Sm0  1  0.250000  0.452325  0.725268  1
  Sm  Sm1  1  0.250000  0.047209  0.229437  1
  Sm  Sm2  1  0.750000  0.548879  0.274576  1
  Sm  Sm3  1  0.750000  0.949822  0.774597  1
  Cd  Cd4  1  0.250000  0.891521  0.514493  1
  In  In5  1  0.250000  0.611248  0.011889  1
  In  In6  1  0.750000  0.107779  0.487899  1
  In  In7  1  0.750000  0.386679  0.988653  1
  In  In8  1  0.250000  0.165814  0.896080  1
  In  In9  1  0.250000  0.334135  0.397735  1
  In  In10  1  0.750000  0.833744  0.102477  1
  In  In11  1  0.750000  0.670114  0.599061  1
  Pd  Pd12  1  0.250000  0.156954  0.624142  1
  Pd  Pd13  1  0.250000  0.353506  0.128273  1
  Pd  Pd14  1  0.750000  0.853472  0.368618  1
  Pd  Pd15  1  0.750000  0.641807  0.870708  1
  Pd  Pd16  1  0.250000  0.746643  0.741360  1
  Pd  Pd17  1  0.250000  0.749318  0.237044  1
  Pd  Pd18  1  0.750000  0.250653  0.262233  1
  Pd  Pd19  1  0.750000  0.248609  0.763142  1
  Pd  Pd20  1  0.250000  0.896543  0.972866  1
  Pd  Pd21  1  0.250000  0.604464  0.471165  1
  Pd  Pd22  1  0.750000  0.104466  0.028608  1
  Pd  Pd23  1  0.750000  0.394296  0.529674  1
