# generated using pymatgen
data_Ac2La5Os4C9
_symmetry_space_group_name_H-M   'P 1'
_cell_length_a   6.66458090
_cell_length_b   6.66458086
_cell_length_c   12.06629232
_cell_angle_alpha   70.91454713
_cell_angle_beta   70.91454623
_cell_angle_gamma   48.69331950
_symmetry_Int_Tables_number   1
_chemical_formula_structural   Ac2La5Os4C9
_chemical_formula_sum   'Ac2 La5 Os4 C9'
_cell_volume   375.77265154
_cell_formula_units_Z   1
loop_
 _symmetry_equiv_pos_site_id
 _symmetry_equiv_pos_as_xyz
  1  'x, y, z'
loop_
 _atom_site_type_symbol
 _atom_site_label
 _atom_site_symmetry_multiplicity
 _atom_site_fract_x
 _atom_site_fract_y
 _atom_site_fract_z
 _atom_site_occupancy
  Ac  Ac0  1  0.366479  0.366479  0.849145  1
  Ac  Ac1  1  0.147752  0.147752  0.676064  1
  La  La2  1  0.855171  0.855171  0.318963  1
  La  La3  1  0.138166  0.138166  0.379856  1
  La  La4  1  0.862871  0.862871  0.616408  1
  La  La5  1  0.998567  0.998567  0.002626  1
  La  La6  1  0.624560  0.624560  0.157895  1
  Os  Os7  1  0.358265  0.358265  0.142612  1
  Os  Os8  1  0.567530  0.567530  0.570390  1
  Os  Os9  1  0.436602  0.436602  0.427086  1
  Os  Os10  1  0.641232  0.641232  0.858779  1
  C  C11  1  0.385149  0.385149  0.291475  1
  C  C12  1  0.917745  0.917745  0.823829  1
  C  C13  1  0.395589  0.395589  0.609316  1
  C  C14  1  0.198142  0.198142  0.144510  1
  C  C15  1  0.801321  0.801321  0.854278  1
  C  C16  1  0.500818  0.500818  0.001625  1
  C  C17  1  0.080678  0.080678  0.179077  1
  C  C18  1  0.614585  0.614585  0.709344  1
  C  C19  1  0.608777  0.608777  0.386722  1
