# generated using pymatgen
data_Rb5Hg6
_symmetry_space_group_name_H-M   'P 1'
_cell_length_a   18.96312340
_cell_length_b   18.96312304
_cell_length_c   5.66361200
_cell_angle_alpha   90.00000000
_cell_angle_beta   90.00000000
_cell_angle_gamma   166.53473191
_symmetry_Int_Tables_number   1
_chemical_formula_structural   Rb5Hg6
_chemical_formula_sum   'Rb5 Hg6'
_cell_volume   474.24246943
_cell_formula_units_Z   1
loop_
 _symmetry_equiv_pos_site_id
 _symmetry_equiv_pos_as_xyz
  1  'x, y, z'
loop_
 _atom_site_type_symbol
 _atom_site_label
 _atom_site_symmetry_multiplicity
 _atom_site_fract_x
 _atom_site_fract_y
 _atom_site_fract_z
 _atom_site_occupancy
  Rb  Rb0  1  0.000000  0.000000  0.000000  1
  Rb  Rb1  1  0.616589  0.383409  0.000000  1
  Rb  Rb2  1  0.383409  0.616589  0.000000  1
  Rb  Rb3  1  0.805846  0.194152  0.500001  1
  Rb  Rb4  1  0.194152  0.805846  0.500001  1
  Hg  Hg5  1  0.721653  0.278345  0.000000  1
  Hg  Hg6  1  0.278345  0.721653  0.000000  1
  Hg  Hg7  1  0.905955  0.094044  0.500001  1
  Hg  Hg8  1  0.539714  0.460284  0.500001  1
  Hg  Hg9  1  0.460284  0.539714  0.500001  1
  Hg  Hg10  1  0.094044  0.905955  0.500001  1
