# generated using pymatgen
data_Tb7LuTi7Si16Mo5
_symmetry_space_group_name_H-M   'P 1'
_cell_length_a   6.80796380
_cell_length_b   7.00163102
_cell_length_c   13.22990803
_cell_angle_alpha   90.03410335
_cell_angle_beta   89.95223330
_cell_angle_gamma   89.96655947
_symmetry_Int_Tables_number   1
_chemical_formula_structural   Tb7LuTi7Si16Mo5
_chemical_formula_sum   'Tb7 Lu1 Ti7 Si16 Mo5'
_cell_volume   630.62761069
_cell_formula_units_Z   1
loop_
 _symmetry_equiv_pos_site_id
 _symmetry_equiv_pos_as_xyz
  1  'x, y, z'
loop_
 _atom_site_type_symbol
 _atom_site_label
 _atom_site_symmetry_multiplicity
 _atom_site_fract_x
 _atom_site_fract_y
 _atom_site_fract_z
 _atom_site_occupancy
  Tb  Tb0  1  0.503297  0.329629  0.096724  1
  Tb  Tb1  1  0.002379  0.170723  0.403600  1
  Tb  Tb2  1  0.496968  0.671593  0.596201  1
  Tb  Tb3  1  0.997206  0.830202  0.903989  1
  Tb  Tb4  1  0.495547  0.669846  0.902371  1
  Tb  Tb5  1  0.998674  0.830751  0.595765  1
  Tb  Tb6  1  0.502668  0.328993  0.404561  1
  Lu  Lu7  1  0.002867  0.171931  0.098124  1
  Ti  Ti8  1  0.836098  0.327336  0.627010  1
  Ti  Ti9  1  0.331603  0.172232  0.872680  1
  Ti  Ti10  1  0.166673  0.672227  0.127102  1
  Ti  Ti11  1  0.666783  0.829560  0.372978  1
  Ti  Ti12  1  0.166276  0.672403  0.373658  1
  Ti  Ti13  1  0.668241  0.828732  0.126878  1
  Ti  Ti14  1  0.833065  0.325914  0.871379  1
  Si  Si15  1  0.656027  0.040862  0.544798  1
  Si  Si16  1  0.157938  0.456688  0.957272  1
  Si  Si17  1  0.338189  0.960470  0.044141  1
  Si  Si18  1  0.840884  0.540428  0.456364  1
  Si  Si19  1  0.339005  0.958037  0.457666  1
  Si  Si20  1  0.843303  0.538498  0.044747  1
  Si  Si21  1  0.657778  0.040973  0.956621  1
  Si  Si22  1  0.161744  0.457742  0.544116  1
  Si  Si23  1  0.534259  0.370792  0.748277  1
  Si  Si24  1  0.037967  0.126444  0.749795  1
  Si  Si25  1  0.463493  0.628372  0.250183  1
  Si  Si26  1  0.964770  0.874311  0.249490  1
  Si  Si27  1  0.798161  0.623679  0.749174  1
  Si  Si28  1  0.300110  0.877799  0.749944  1
  Si  Si29  1  0.202002  0.374504  0.249608  1
  Si  Si30  1  0.703305  0.125029  0.249185  1
  Mo  Mo31  1  0.331660  0.170916  0.626615  1
  Mo  Mo32  1  0.662815  0.011387  0.749802  1
  Mo  Mo33  1  0.159535  0.488459  0.749699  1
  Mo  Mo34  1  0.338243  0.991827  0.249592  1
  Mo  Mo35  1  0.840469  0.510710  0.249889  1
