# generated using pymatgen
data_YbTmSi4Tc3
_symmetry_space_group_name_H-M   'P 1'
_cell_length_a   6.79280800
_cell_length_b   6.63062325
_cell_length_c   6.77309655
_cell_angle_alpha   70.63298498
_cell_angle_beta   90.00000000
_cell_angle_gamma   90.00000000
_symmetry_Int_Tables_number   1
_chemical_formula_structural   YbTmSi4Tc3
_chemical_formula_sum   'Yb2 Tm2 Si8 Tc6'
_cell_volume   287.80156310
_cell_formula_units_Z   2
loop_
 _symmetry_equiv_pos_site_id
 _symmetry_equiv_pos_as_xyz
  1  'x, y, z'
loop_
 _atom_site_type_symbol
 _atom_site_label
 _atom_site_symmetry_multiplicity
 _atom_site_fract_x
 _atom_site_fract_y
 _atom_site_fract_z
 _atom_site_occupancy
  Yb  Yb0  1  0.333940  0.555676  0.814049  1
  Yb  Yb1  1  0.833940  0.944324  0.185951  1
  Tm  Tm2  1  0.668382  0.441920  0.192584  1
  Tm  Tm3  1  0.168382  0.058080  0.807416  1
  Si  Si4  1  0.546865  0.879593  0.897159  1
  Si  Si5  1  0.046865  0.620407  0.102841  1
  Si  Si6  1  0.453806  0.120592  0.102632  1
  Si  Si7  1  0.953806  0.379408  0.897368  1
  Si  Si8  1  0.139109  0.864747  0.490979  1
  Si  Si9  1  0.639109  0.635253  0.509021  1
  Si  Si10  1  0.860182  0.131281  0.509375  1
  Si  Si11  1  0.360182  0.368719  0.490625  1
  Tc  Tc12  1  0.497786  0.002280  0.501346  1
  Tc  Tc13  1  0.997786  0.497720  0.498654  1
  Tc  Tc14  1  0.842341  0.755556  0.763178  1
  Tc  Tc15  1  0.342341  0.744444  0.236822  1
  Tc  Tc16  1  0.157590  0.242447  0.237514  1
  Tc  Tc17  1  0.657590  0.257553  0.762486  1
