# generated using pymatgen
data_Tb2B4Ir3Os
_symmetry_space_group_name_H-M   'P 1'
_cell_length_a   6.96871459
_cell_length_b   6.06786258
_cell_length_c   5.58048626
_cell_angle_alpha   73.35579161
_cell_angle_beta   56.53754058
_cell_angle_gamma   49.34171778
_symmetry_Int_Tables_number   1
_chemical_formula_structural   Tb2B4Ir3Os
_chemical_formula_sum   'Tb2 B4 Ir3 Os1'
_cell_volume   148.34686166
_cell_formula_units_Z   1
loop_
 _symmetry_equiv_pos_site_id
 _symmetry_equiv_pos_as_xyz
  1  'x, y, z'
loop_
 _atom_site_type_symbol
 _atom_site_label
 _atom_site_symmetry_multiplicity
 _atom_site_fract_x
 _atom_site_fract_y
 _atom_site_fract_z
 _atom_site_occupancy
  Tb  Tb0  1  0.501708  0.501708  0.498292  1
  Tb  Tb1  1  0.750321  0.750321  0.749679  1
  B  B2  1  0.158353  0.827573  0.201959  1
  B  B3  1  0.080664  0.430065  0.048897  1
  B  B4  1  0.827573  0.158352  0.812115  1
  B  B5  1  0.430065  0.080664  0.440373  1
  Ir  Ir6  1  0.129601  0.129601  0.870399  1
  Ir  Ir7  1  0.384785  0.384785  0.115215  1
  Ir  Ir8  1  0.121428  0.121428  0.378572  1
  Os  Os9  1  0.865502  0.865502  0.134498  1
