# generated using pymatgen
data_La12ZnInCo4
_symmetry_space_group_name_H-M   'P 1'
_cell_length_a   8.73551103
_cell_length_b   8.73551249
_cell_length_c   8.73551100
_cell_angle_alpha   113.68811828
_cell_angle_beta   108.96931264
_cell_angle_gamma   105.85360276
_symmetry_Int_Tables_number   1
_chemical_formula_structural   La12ZnInCo4
_chemical_formula_sum   'La12 Zn1 In1 Co4'
_cell_volume   510.69768293
_cell_formula_units_Z   1
loop_
 _symmetry_equiv_pos_site_id
 _symmetry_equiv_pos_as_xyz
  1  'x, y, z'
loop_
 _atom_site_type_symbol
 _atom_site_label
 _atom_site_symmetry_multiplicity
 _atom_site_fract_x
 _atom_site_fract_y
 _atom_site_fract_z
 _atom_site_occupancy
  La  La0  1  0.418191  0.217634  0.200557  1
  La  La1  1  0.581809  0.782366  0.799443  1
  La  La2  1  0.017076  0.217634  0.799443  1
  La  La3  1  0.982924  0.782366  0.200557  1
  La  La4  1  0.174329  0.301906  0.476234  1
  La  La5  1  0.825671  0.698094  0.523766  1
  La  La6  1  0.174329  0.698094  0.872424  1
  La  La7  1  0.825671  0.301906  0.127576  1
  La  La8  1  0.329355  0.643502  0.314147  1
  La  La9  1  0.670645  0.356498  0.685853  1
  La  La10  1  0.329355  0.015209  0.685853  1
  La  La11  1  0.670645  0.984791  0.314147  1
  Zn  Zn12  1  0.000000  0.000000  0.000000  1
  In  In13  1  0.500000  0.500000  0.000000  1
  Co  Co14  1  0.328269  0.000000  0.328269  1
  Co  Co15  1  0.671731  0.000000  0.671731  1
  Co  Co16  1  0.137806  0.637806  0.500000  1
  Co  Co17  1  0.862194  0.362194  0.500000  1
