# generated using pymatgen
data_YLu4Hf5(Si5Ir2)4
_symmetry_space_group_name_H-M   'P 1'
_cell_length_a   12.45262514
_cell_length_b   12.45252614
_cell_length_c   4.14865500
_cell_angle_alpha   90.00000000
_cell_angle_beta   90.00000000
_cell_angle_gamma   89.89591348
_symmetry_Int_Tables_number   1
_chemical_formula_structural   YLu4Hf5(Si5Ir2)4
_chemical_formula_sum   'Y1 Lu4 Hf5 Si20 Ir8'
_cell_volume   643.31692980
_cell_formula_units_Z   1
loop_
 _symmetry_equiv_pos_site_id
 _symmetry_equiv_pos_as_xyz
  1  'x, y, z'
loop_
 _atom_site_type_symbol
 _atom_site_label
 _atom_site_symmetry_multiplicity
 _atom_site_fract_x
 _atom_site_fract_y
 _atom_site_fract_z
 _atom_site_occupancy
  Y  Y0  1  0.615409  0.884393  0.500000  1
  Lu  Lu1  1  0.000245  0.000041  0.000000  1
  Lu  Lu2  1  0.884311  0.384506  0.500000  1
  Lu  Lu3  1  0.115599  0.615561  0.500000  1
  Lu  Lu4  1  0.384498  0.115597  0.500000  1
  Hf  Hf5  1  0.499960  0.499844  0.000000  1
  Hf  Hf6  1  0.673956  0.175525  0.500000  1
  Hf  Hf7  1  0.325719  0.824742  0.500000  1
  Hf  Hf8  1  0.175076  0.326269  0.500000  1
  Hf  Hf9  1  0.825120  0.673561  0.500000  1
  Si  Si10  1  0.565718  0.067526  0.000000  1
  Si  Si11  1  0.433924  0.932728  0.000000  1
  Si  Si12  1  0.067108  0.434486  0.000000  1
  Si  Si13  1  0.932931  0.565505  0.000000  1
  Si  Si14  1  0.665412  0.701094  0.000000  1
  Si  Si15  1  0.334298  0.298391  0.000000  1
  Si  Si16  1  0.163953  0.800547  0.000000  1
  Si  Si17  1  0.836282  0.199994  0.000000  1
  Si  Si18  1  0.297855  0.665355  0.000000  1
  Si  Si19  1  0.701589  0.334433  0.000000  1
  Si  Si20  1  0.199454  0.164162  0.000000  1
  Si  Si21  1  0.800971  0.836141  0.000000  1
  Si  Si22  1  0.651184  0.508243  0.500000  1
  Si  Si23  1  0.348760  0.491527  0.500000  1
  Si  Si24  1  0.154894  0.992087  0.500000  1
  Si  Si25  1  0.845707  0.007937  0.500000  1
  Si  Si26  1  0.491546  0.650536  0.500000  1
  Si  Si27  1  0.508461  0.348959  0.500000  1
  Si  Si28  1  0.007849  0.155162  0.500000  1
  Si  Si29  1  0.992328  0.844965  0.500000  1
  Ir  Ir30  1  0.743241  0.520844  0.000000  1
  Ir  Ir31  1  0.256712  0.478850  0.000000  1
  Ir  Ir32  1  0.246232  0.978827  0.000000  1
  Ir  Ir33  1  0.754777  0.022626  0.000000  1
  Ir  Ir34  1  0.477690  0.741797  0.000000  1
  Ir  Ir35  1  0.520936  0.257146  0.000000  1
  Ir  Ir36  1  0.021424  0.246786  0.000000  1
  Ir  Ir37  1  0.978872  0.753307  0.000000  1
