# generated using pymatgen
data_Lu4FeCo2Si4Rh
_symmetry_space_group_name_H-M   'P 1'
_cell_length_a   4.13953500
_cell_length_b   6.71275044
_cell_length_c   7.03651121
_cell_angle_alpha   89.98304793
_cell_angle_beta   90.00000000
_cell_angle_gamma   90.00000000
_symmetry_Int_Tables_number   1
_chemical_formula_structural   Lu4FeCo2Si4Rh
_chemical_formula_sum   'Lu4 Fe1 Co2 Si4 Rh1'
_cell_volume   195.52821054
_cell_formula_units_Z   1
loop_
 _symmetry_equiv_pos_site_id
 _symmetry_equiv_pos_as_xyz
  1  'x, y, z'
loop_
 _atom_site_type_symbol
 _atom_site_label
 _atom_site_symmetry_multiplicity
 _atom_site_fract_x
 _atom_site_fract_y
 _atom_site_fract_z
 _atom_site_occupancy
  Lu  Lu0  1  0.250000  0.994486  0.803860  1
  Lu  Lu1  1  0.750000  0.005991  0.193404  1
  Lu  Lu2  1  0.250000  0.484916  0.691202  1
  Lu  Lu3  1  0.750000  0.508305  0.312012  1
  Fe  Fe4  1  0.750000  0.849884  0.565970  1
  Co  Co5  1  0.250000  0.155960  0.436422  1
  Co  Co6  1  0.750000  0.347780  0.935431  1
  Si  Si7  1  0.250000  0.292816  0.104813  1
  Si  Si8  1  0.750000  0.700467  0.878049  1
  Si  Si9  1  0.250000  0.803945  0.408245  1
  Si  Si10  1  0.750000  0.197794  0.603644  1
  Rh  Rh11  1  0.250000  0.657656  0.066946  1
