# generated using pymatgen
data_Ag2AsRhF12
_symmetry_space_group_name_H-M   'P 1'
_cell_length_a   5.41015131
_cell_length_b   5.76756562
_cell_length_c   7.95367513
_cell_angle_alpha   96.16040102
_cell_angle_beta   89.69558097
_cell_angle_gamma   90.40437976
_symmetry_Int_Tables_number   1
_chemical_formula_structural   Ag2AsRhF12
_chemical_formula_sum   'Ag2 As1 Rh1 F12'
_cell_volume   246.73983350
_cell_formula_units_Z   1
loop_
 _symmetry_equiv_pos_site_id
 _symmetry_equiv_pos_as_xyz
  1  'x, y, z'
loop_
 _atom_site_type_symbol
 _atom_site_label
 _atom_site_symmetry_multiplicity
 _atom_site_fract_x
 _atom_site_fract_y
 _atom_site_fract_z
 _atom_site_occupancy
  Ag  Ag0  1  0.000000  0.000000  0.000000  1
  Ag  Ag1  1  0.500000  0.500000  0.500000  1
  As  As2  1  0.500000  0.500000  0.000000  1
  Rh  Rh3  1  0.000000  0.000000  0.500000  1
  F  F4  1  0.875377  0.999585  0.729041  1
  F  F5  1  0.162221  0.298570  0.565652  1
  F  F6  1  0.238486  0.631239  0.914494  1
  F  F7  1  0.337345  0.483774  0.192642  1
  F  F8  1  0.384861  0.218600  0.923264  1
  F  F9  1  0.295438  0.841343  0.561314  1
  F  F10  1  0.704562  0.158657  0.438686  1
  F  F11  1  0.615139  0.781400  0.076736  1
  F  F12  1  0.662655  0.516226  0.807358  1
  F  F13  1  0.761514  0.368761  0.085506  1
  F  F14  1  0.837779  0.701430  0.434348  1
  F  F15  1  0.124623  0.000415  0.270959  1
