# generated using pymatgen
data_Rb4Na2DyInAs4
_symmetry_space_group_name_H-M   'P 1'
_cell_length_a   9.49568916
_cell_length_b   9.49568824
_cell_length_c   9.49568763
_cell_angle_alpha   136.36925932
_cell_angle_beta   137.45119803
_cell_angle_gamma   62.58040327
_symmetry_Int_Tables_number   1
_chemical_formula_structural   Rb4Na2DyInAs4
_chemical_formula_sum   'Rb4 Na2 Dy1 In1 As4'
_cell_volume   394.62098937
_cell_formula_units_Z   1
loop_
 _symmetry_equiv_pos_site_id
 _symmetry_equiv_pos_as_xyz
  1  'x, y, z'
loop_
 _atom_site_type_symbol
 _atom_site_label
 _atom_site_symmetry_multiplicity
 _atom_site_fract_x
 _atom_site_fract_y
 _atom_site_fract_z
 _atom_site_occupancy
  Rb  Rb0  1  0.668846  0.399179  0.712931  1
  Rb  Rb1  1  0.831154  0.044085  0.230333  1
  Rb  Rb2  1  0.186248  0.955915  0.787069  1
  Rb  Rb3  1  0.313752  0.600821  0.269667  1
  Na  Na4  1  0.750000  0.000000  0.750000  1
  Na  Na5  1  0.250000  0.000000  0.250000  1
  Dy  Dy6  1  0.750000  0.500000  0.250000  1
  In  In7  1  0.250000  0.500000  0.750000  1
  As  As8  1  0.397427  0.182502  0.775672  1
  As  As9  1  0.593170  0.817498  0.214925  1
  As  As10  1  0.102573  0.378245  0.285075  1
  As  As11  1  0.906830  0.621755  0.724328  1
