# generated using pymatgen
data_Cs3Na2TaP3
_symmetry_space_group_name_H-M   'P 1'
_cell_length_a   10.48386547
_cell_length_b   10.48386641
_cell_length_c   16.84294200
_cell_angle_alpha   90.00000000
_cell_angle_beta   90.00000000
_cell_angle_gamma   141.90426585
_symmetry_Int_Tables_number   1
_chemical_formula_structural   Cs3Na2TaP3
_chemical_formula_sum   'Cs12 Na8 Ta4 P12'
_cell_volume   1142.16814967
_cell_formula_units_Z   4
loop_
 _symmetry_equiv_pos_site_id
 _symmetry_equiv_pos_as_xyz
  1  'x, y, z'
loop_
 _atom_site_type_symbol
 _atom_site_label
 _atom_site_symmetry_multiplicity
 _atom_site_fract_x
 _atom_site_fract_y
 _atom_site_fract_z
 _atom_site_occupancy
  Cs  Cs0  1  0.944080  0.612136  0.827863  1
  Cs  Cs1  1  0.555920  0.887864  0.327863  1
  Cs  Cs2  1  0.387864  0.055920  0.172137  1
  Cs  Cs3  1  0.055920  0.387864  0.172137  1
  Cs  Cs4  1  0.887864  0.555920  0.327863  1
  Cs  Cs5  1  0.444080  0.112136  0.672137  1
  Cs  Cs6  1  0.612136  0.944080  0.827863  1
  Cs  Cs7  1  0.278495  0.278495  0.314727  1
  Cs  Cs8  1  0.778495  0.778495  0.185273  1
  Cs  Cs9  1  0.221505  0.221505  0.814727  1
  Cs  Cs10  1  0.721505  0.721505  0.685273  1
  Cs  Cs11  1  0.112136  0.444080  0.672137  1
  Na  Na12  1  0.921194  0.078806  0.000000  1
  Na  Na13  1  0.578806  0.421194  0.500000  1
  Na  Na14  1  0.078806  0.921194  0.000000  1
  Na  Na15  1  0.421194  0.578806  0.500000  1
  Na  Na16  1  0.755500  0.244500  0.000000  1
  Na  Na17  1  0.744500  0.255500  0.500000  1
  Na  Na18  1  0.244500  0.755500  0.000000  1
  Na  Na19  1  0.255500  0.744500  0.500000  1
  Ta  Ta20  1  0.581691  0.418309  0.000000  1
  Ta  Ta21  1  0.918309  0.081691  0.500000  1
  Ta  Ta22  1  0.418309  0.581691  0.000000  1
  Ta  Ta23  1  0.081691  0.918309  0.500000  1
  P  P24  1  0.855897  0.552059  0.085543  1
  P  P25  1  0.447941  0.144103  0.914457  1
  P  P26  1  0.644103  0.947941  0.585543  1
  P  P27  1  0.947941  0.644103  0.585543  1
  P  P28  1  0.144103  0.447941  0.914457  1
  P  P29  1  0.552059  0.855897  0.085543  1
  P  P30  1  0.355897  0.052059  0.414457  1
  P  P31  1  0.193048  0.193048  0.580437  1
  P  P32  1  0.693048  0.693048  0.919563  1
  P  P33  1  0.306952  0.306952  0.080437  1
  P  P34  1  0.052059  0.355897  0.414457  1
  P  P35  1  0.806952  0.806952  0.419563  1
