# generated using pymatgen
data_EuDy(BrO3)6
_symmetry_space_group_name_H-M   'P 1'
_cell_length_a   9.91100500
_cell_length_b   9.91100366
_cell_length_c   5.79495800
_cell_angle_alpha   90.00000000
_cell_angle_beta   90.00000000
_cell_angle_gamma   119.99998779
_symmetry_Int_Tables_number   1
_chemical_formula_structural   EuDy(BrO3)6
_chemical_formula_sum   'Eu1 Dy1 Br6 O18'
_cell_volume   492.96525371
_cell_formula_units_Z   1
loop_
 _symmetry_equiv_pos_site_id
 _symmetry_equiv_pos_as_xyz
  1  'x, y, z'
loop_
 _atom_site_type_symbol
 _atom_site_label
 _atom_site_symmetry_multiplicity
 _atom_site_fract_x
 _atom_site_fract_y
 _atom_site_fract_z
 _atom_site_occupancy
  Eu  Eu0  1  0.666667  0.333333  0.700216  1
  Dy  Dy1  1  0.333333  0.666667  0.199187  1
  Br  Br2  1  0.682577  0.015068  0.364679  1
  Br  Br3  1  0.309748  0.974434  0.866259  1
  Br  Br4  1  0.025566  0.335313  0.866259  1
  Br  Br5  1  0.332491  0.317423  0.364679  1
  Br  Br6  1  0.984932  0.667509  0.364679  1
  Br  Br7  1  0.664687  0.690252  0.866259  1
  O  O8  1  0.770952  0.830134  0.048312  1
  O  O9  1  0.952218  0.774163  0.546682  1
  O  O10  1  0.821946  0.047782  0.546682  1
  O  O11  1  0.169866  0.940817  0.048312  1
  O  O12  1  0.059183  0.229048  0.048312  1
  O  O13  1  0.225837  0.178054  0.546682  1
  O  O14  1  0.709952  0.547660  0.922353  1
  O  O15  1  0.172271  0.710483  0.423212  1
  O  O16  1  0.521054  0.403124  0.461580  1
  O  O17  1  0.126104  0.523546  0.966258  1
  O  O18  1  0.397442  0.873896  0.966258  1
  O  O19  1  0.596876  0.117930  0.461580  1
  O  O20  1  0.882070  0.478946  0.461580  1
  O  O21  1  0.476454  0.602558  0.966258  1
  O  O22  1  0.289517  0.461788  0.423212  1
  O  O23  1  0.837709  0.290048  0.922353  1
  O  O24  1  0.452340  0.162291  0.922353  1
  O  O25  1  0.538212  0.827729  0.423212  1
