# generated using pymatgen
data_LiY8AlPd23
_symmetry_space_group_name_H-M   'P 1'
_cell_length_a   8.33311200
_cell_length_b   8.40281300
_cell_length_c   8.35314800
_cell_angle_alpha   90.00000000
_cell_angle_beta   90.00000000
_cell_angle_gamma   90.00000000
_symmetry_Int_Tables_number   1
_chemical_formula_structural   LiY8AlPd23
_chemical_formula_sum   'Li1 Y8 Al1 Pd23'
_cell_volume   584.90063634
_cell_formula_units_Z   1
loop_
 _symmetry_equiv_pos_site_id
 _symmetry_equiv_pos_as_xyz
  1  'x, y, z'
loop_
 _atom_site_type_symbol
 _atom_site_label
 _atom_site_symmetry_multiplicity
 _atom_site_fract_x
 _atom_site_fract_y
 _atom_site_fract_z
 _atom_site_occupancy
  Li  Li0  1  0.266987  0.500000  0.000000  1
  Y  Y1  1  0.252080  0.247187  0.258270  1
  Y  Y2  1  0.747776  0.746866  0.750532  1
  Y  Y3  1  0.747776  0.746866  0.249468  1
  Y  Y4  1  0.747776  0.253134  0.750532  1
  Y  Y5  1  0.252080  0.247187  0.741730  1
  Y  Y6  1  0.252080  0.752813  0.258270  1
  Y  Y7  1  0.252080  0.752813  0.741730  1
  Y  Y8  1  0.747776  0.253134  0.249468  1
  Al  Al9  1  0.995623  0.000000  0.000000  1
  Pd  Pd10  1  0.743570  0.500000  0.000000  1
  Pd  Pd11  1  0.996909  0.259573  0.500000  1
  Pd  Pd12  1  0.494347  0.262570  0.000000  1
  Pd  Pd13  1  0.996909  0.740427  0.500000  1
  Pd  Pd14  1  0.494347  0.737430  0.000000  1
  Pd  Pd15  1  0.500301  0.000000  0.260559  1
  Pd  Pd16  1  0.258797  0.000000  0.500000  1
  Pd  Pd17  1  0.500301  0.000000  0.739441  1
  Pd  Pd18  1  0.739457  0.000000  0.500000  1
  Pd  Pd19  1  0.002460  0.500000  0.260754  1
  Pd  Pd20  1  0.002460  0.500000  0.739246  1
  Pd  Pd21  1  0.252003  0.500000  0.500000  1
  Pd  Pd22  1  0.747832  0.500000  0.500000  1
  Pd  Pd23  1  0.502139  0.252755  0.500000  1
  Pd  Pd24  1  0.502139  0.747245  0.500000  1
  Pd  Pd25  1  0.496608  0.500000  0.251869  1
  Pd  Pd26  1  0.496608  0.500000  0.748131  1
  Pd  Pd27  1  0.285741  0.000000  0.000000  1
  Pd  Pd28  1  0.706415  0.000000  0.000000  1
  Pd  Pd29  1  0.011307  0.292331  0.000000  1
  Pd  Pd30  1  0.011307  0.707669  0.000000  1
  Pd  Pd31  1  0.998004  0.000000  0.290046  1
  Pd  Pd32  1  0.998004  0.000000  0.709954  1
