# generated using pymatgen
data_Rb8Mn3CoBr16
_symmetry_space_group_name_H-M   'P 1'
_cell_length_a   7.80636700
_cell_length_b   9.92554963
_cell_length_c   13.87790310
_cell_angle_alpha   89.88671081
_cell_angle_beta   90.00000000
_cell_angle_gamma   90.00000000
_symmetry_Int_Tables_number   1
_chemical_formula_structural   Rb8Mn3CoBr16
_chemical_formula_sum   'Rb8 Mn3 Co1 Br16'
_cell_volume   1075.29229011
_cell_formula_units_Z   1
loop_
 _symmetry_equiv_pos_site_id
 _symmetry_equiv_pos_as_xyz
  1  'x, y, z'
loop_
 _atom_site_type_symbol
 _atom_site_label
 _atom_site_symmetry_multiplicity
 _atom_site_fract_x
 _atom_site_fract_y
 _atom_site_fract_z
 _atom_site_occupancy
  Rb  Rb0  1  0.250000  0.621955  0.580889  1
  Rb  Rb1  1  0.750000  0.377681  0.416005  1
  Rb  Rb2  1  0.250000  0.124219  0.920597  1
  Rb  Rb3  1  0.750000  0.876207  0.080523  1
  Rb  Rb4  1  0.250000  0.984067  0.325972  1
  Rb  Rb5  1  0.750000  0.016903  0.673355  1
  Rb  Rb6  1  0.250000  0.482645  0.172205  1
  Rb  Rb7  1  0.750000  0.515499  0.828932  1
  Mn  Mn8  1  0.250000  0.724722  0.923757  1
  Mn  Mn9  1  0.250000  0.223290  0.576385  1
  Mn  Mn10  1  0.750000  0.776508  0.423848  1
  Co  Co11  1  0.750000  0.273116  0.076255  1
  Br  Br12  1  0.993678  0.321554  0.655656  1
  Br  Br13  1  0.493684  0.678606  0.344188  1
  Br  Br14  1  0.506808  0.823216  0.845172  1
  Br  Br15  1  0.999953  0.181484  0.152718  1
  Br  Br16  1  0.993192  0.823216  0.845172  1
  Br  Br17  1  0.006316  0.678606  0.344188  1
  Br  Br18  1  0.500047  0.181484  0.152718  1
  Br  Br19  1  0.506322  0.321554  0.655656  1
  Br  Br20  1  0.750000  0.514540  0.085210  1
  Br  Br21  1  0.250000  0.475619  0.915455  1
  Br  Br22  1  0.750000  0.026033  0.416407  1
  Br  Br23  1  0.250000  0.973837  0.583248  1
  Br  Br24  1  0.750000  0.183961  0.914671  1
  Br  Br25  1  0.250000  0.820002  0.091042  1
  Br  Br26  1  0.750000  0.681286  0.590977  1
  Br  Br27  1  0.250000  0.318190  0.408800  1
