# generated using pymatgen
data_Eu4Ga7Ag5
_symmetry_space_group_name_H-M   'P 1'
_cell_length_a   4.53984800
_cell_length_b   7.24820131
_cell_length_c   10.60605951
_cell_angle_alpha   89.72990764
_cell_angle_beta   90.00000000
_cell_angle_gamma   90.00000000
_symmetry_Int_Tables_number   1
_chemical_formula_structural   Eu4Ga7Ag5
_chemical_formula_sum   'Eu4 Ga7 Ag5'
_cell_volume   348.99627628
_cell_formula_units_Z   1
loop_
 _symmetry_equiv_pos_site_id
 _symmetry_equiv_pos_as_xyz
  1  'x, y, z'
loop_
 _atom_site_type_symbol
 _atom_site_label
 _atom_site_symmetry_multiplicity
 _atom_site_fract_x
 _atom_site_fract_y
 _atom_site_fract_z
 _atom_site_occupancy
  Eu  Eu0  1  0.500000  0.783301  0.169924  1
  Eu  Eu1  1  0.500000  0.281229  0.330274  1
  Eu  Eu2  1  0.000000  0.215880  0.830547  1
  Eu  Eu3  1  0.000000  0.717679  0.669958  1
  Ga  Ga4  1  0.500000  0.921819  0.848127  1
  Ga  Ga5  1  0.500000  0.420940  0.651723  1
  Ga  Ga6  1  0.000000  0.078880  0.151579  1
  Ga  Ga7  1  0.000000  0.578093  0.348193  1
  Ga  Ga8  1  0.500000  0.202632  0.037449  1
  Ga  Ga9  1  0.000000  0.298294  0.537349  1
  Ga  Ga10  1  0.000000  0.797186  0.962522  1
  Ag  Ag11  1  0.500000  0.540485  0.902491  1
  Ag  Ag12  1  0.500000  0.043687  0.599158  1
  Ag  Ag13  1  0.000000  0.459135  0.097724  1
  Ag  Ag14  1  0.000000  0.960131  0.402124  1
  Ag  Ag15  1  0.500000  0.700631  0.460856  1
