# generated using pymatgen
data_TbY3Hg2
_symmetry_space_group_name_H-M   'P 1'
_cell_length_a   5.11723700
_cell_length_b   7.10403100
_cell_length_c   9.31522600
_cell_angle_alpha   90.00000000
_cell_angle_beta   90.00000000
_cell_angle_gamma   90.00000000
_symmetry_Int_Tables_number   1
_chemical_formula_structural   TbY3Hg2
_chemical_formula_sum   'Tb2 Y6 Hg4'
_cell_volume   338.63650656
_cell_formula_units_Z   2
loop_
 _symmetry_equiv_pos_site_id
 _symmetry_equiv_pos_as_xyz
  1  'x, y, z'
loop_
 _atom_site_type_symbol
 _atom_site_label
 _atom_site_symmetry_multiplicity
 _atom_site_fract_x
 _atom_site_fract_y
 _atom_site_fract_z
 _atom_site_occupancy
  Tb  Tb0  1  0.750000  0.832024  0.574189  1
  Tb  Tb1  1  0.750000  0.332024  0.925811  1
  Y  Y2  1  0.250000  0.018425  0.806170  1
  Y  Y3  1  0.250000  0.518425  0.693830  1
  Y  Y4  1  0.750000  0.982433  0.192114  1
  Y  Y5  1  0.750000  0.482433  0.307886  1
  Y  Y6  1  0.250000  0.168384  0.425557  1
  Y  Y7  1  0.250000  0.668384  0.074443  1
  Hg  Hg8  1  0.250000  0.735281  0.397631  1
  Hg  Hg9  1  0.250000  0.235281  0.102369  1
  Hg  Hg10  1  0.750000  0.263455  0.603299  1
  Hg  Hg11  1  0.750000  0.763455  0.896701  1
