# generated using pymatgen
data_ZrSc7(Si4Tc3)4
_symmetry_space_group_name_H-M   'P 1'
_cell_length_a   6.63824639
_cell_length_b   6.64137866
_cell_length_c   12.38787363
_cell_angle_alpha   90.27565096
_cell_angle_beta   90.05145779
_cell_angle_gamma   90.05345659
_symmetry_Int_Tables_number   1
_chemical_formula_structural   ZrSc7(Si4Tc3)4
_chemical_formula_sum   'Zr1 Sc7 Si16 Tc12'
_cell_volume   546.13874105
_cell_formula_units_Z   1
loop_
 _symmetry_equiv_pos_site_id
 _symmetry_equiv_pos_as_xyz
  1  'x, y, z'
loop_
 _atom_site_type_symbol
 _atom_site_label
 _atom_site_symmetry_multiplicity
 _atom_site_fract_x
 _atom_site_fract_y
 _atom_site_fract_z
 _atom_site_occupancy
  Zr  Zr0  1  0.340506  0.992154  0.466337  1
  Sc  Sc1  1  0.005832  0.658593  0.030965  1
  Sc  Sc2  1  0.996055  0.340325  0.531206  1
  Sc  Sc3  1  0.658778  0.005539  0.969039  1
  Sc  Sc4  1  0.158866  0.493161  0.781095  1
  Sc  Sc5  1  0.842203  0.506510  0.280715  1
  Sc  Sc6  1  0.495080  0.159509  0.218464  1
  Sc  Sc7  1  0.506529  0.841892  0.719044  1
  Si  Si8  1  0.024120  0.721667  0.438235  1
  Si  Si9  1  0.972997  0.279926  0.936164  1
  Si  Si10  1  0.725919  0.026885  0.563723  1
  Si  Si11  1  0.222329  0.474700  0.186634  1
  Si  Si12  1  0.781542  0.526382  0.686572  1
  Si  Si13  1  0.471982  0.217870  0.814273  1
  Si  Si14  1  0.527909  0.776754  0.311311  1
  Si  Si15  1  0.279900  0.973567  0.063248  1
  Si  Si16  1  0.877402  0.804292  0.818846  1
  Si  Si17  1  0.119384  0.197341  0.317638  1
  Si  Si18  1  0.806192  0.879475  0.181423  1
  Si  Si19  1  0.304267  0.618971  0.569292  1
  Si  Si20  1  0.694392  0.379153  0.067457  1
  Si  Si21  1  0.620860  0.307353  0.432988  1
  Si  Si22  1  0.377797  0.694166  0.932025  1
  Si  Si23  1  0.193921  0.120393  0.681311  1
  Tc  Tc24  1  0.316203  0.484487  0.382124  1
  Tc  Tc25  1  0.815080  0.021227  0.368111  1
  Tc  Tc26  1  0.980610  0.182945  0.130491  1
  Tc  Tc27  1  0.021120  0.812739  0.634344  1
  Tc  Tc28  1  0.679487  0.517568  0.880148  1
  Tc  Tc29  1  0.480924  0.318750  0.621197  1
  Tc  Tc30  1  0.520212  0.683481  0.117551  1
  Tc  Tc31  1  0.180806  0.979047  0.869255  1
  Tc  Tc32  1  0.668151  0.670853  0.499745  1
  Tc  Tc33  1  0.832442  0.168102  0.749931  1
  Tc  Tc34  1  0.168427  0.832484  0.248957  1
  Tc  Tc35  1  0.331775  0.331742  0.000143  1
