# generated using pymatgen
data_Tb3Dy9Co5Pb
_symmetry_space_group_name_H-M   'P 1'
_cell_length_a   8.30030928
_cell_length_b   8.29881467
_cell_length_c   8.29881485
_cell_angle_alpha   106.95738553
_cell_angle_beta   110.72479227
_cell_angle_gamma   110.75254296
_symmetry_Int_Tables_number   1
_chemical_formula_structural   Tb3Dy9Co5Pb
_chemical_formula_sum   'Tb3 Dy9 Co5 Pb1'
_cell_volume   439.46405920
_cell_formula_units_Z   1
loop_
 _symmetry_equiv_pos_site_id
 _symmetry_equiv_pos_as_xyz
  1  'x, y, z'
loop_
 _atom_site_type_symbol
 _atom_site_label
 _atom_site_symmetry_multiplicity
 _atom_site_fract_x
 _atom_site_fract_y
 _atom_site_fract_z
 _atom_site_occupancy
  Tb  Tb0  1  0.479492  0.292969  0.186523  1
  Tb  Tb1  1  0.106888  0.293107  0.813781  1
  Tb  Tb2  1  0.893198  0.707460  0.185739  1
  Dy  Dy3  1  0.520893  0.707278  0.813616  1
  Dy  Dy4  1  0.307348  0.620340  0.313596  1
  Dy  Dy5  1  0.307348  0.993754  0.687008  1
  Dy  Dy6  1  0.692863  0.379784  0.686928  1
  Dy  Dy7  1  0.692863  0.005934  0.313078  1
  Dy  Dy8  1  0.193018  0.206498  0.399141  1
  Dy  Dy9  1  0.807319  0.794175  0.601854  1
  Dy  Dy10  1  0.193018  0.793877  0.986520  1
  Dy  Dy11  1  0.807319  0.205464  0.013145  1
  Co  Co12  1  0.499721  0.612577  0.111724  1
  Co  Co13  1  0.499721  0.387998  0.887144  1
  Co  Co14  1  0.377283  0.999953  0.377330  1
  Co  Co15  1  0.621944  0.999454  0.622491  1
  Co  Co16  1  0.999703  0.999351  0.000353  1
  Pb  Pb17  1  0.000057  0.500025  0.500032  1
