# generated using pymatgen
data_ErLu7(Si3Rh)4
_symmetry_space_group_name_H-M   'P 1'
_cell_length_a   8.11385500
_cell_length_b   8.11392428
_cell_length_c   7.70458500
_cell_angle_alpha   90.00000000
_cell_angle_beta   90.00000000
_cell_angle_gamma   119.99925216
_symmetry_Int_Tables_number   1
_chemical_formula_structural   ErLu7(Si3Rh)4
_chemical_formula_sum   'Er1 Lu7 Si12 Rh4'
_cell_volume   439.27991618
_cell_formula_units_Z   1
loop_
 _symmetry_equiv_pos_site_id
 _symmetry_equiv_pos_as_xyz
  1  'x, y, z'
loop_
 _atom_site_type_symbol
 _atom_site_label
 _atom_site_symmetry_multiplicity
 _atom_site_fract_x
 _atom_site_fract_y
 _atom_site_fract_z
 _atom_site_occupancy
  Er  Er0  1  0.999997  0.999998  0.250000  1
  Lu  Lu1  1  0.981420  0.490707  0.250000  1
  Lu  Lu2  1  0.509285  0.490703  0.250000  1
  Lu  Lu3  1  0.490687  0.981379  0.750000  1
  Lu  Lu4  1  0.018611  0.509312  0.750000  1
  Lu  Lu5  1  0.490696  0.509306  0.750000  1
  Lu  Lu6  1  0.509295  0.018584  0.250000  1
  Lu  Lu7  1  0.000013  0.000008  0.750000  1
  Si  Si8  1  0.166901  0.833101  0.500281  1
  Si  Si9  1  0.166898  0.333797  0.500281  1
  Si  Si10  1  0.666201  0.833102  0.500282  1
  Si  Si11  1  0.333852  0.166926  0.999431  1
  Si  Si12  1  0.833074  0.666149  0.500572  1
  Si  Si13  1  0.833073  0.166928  0.999428  1
  Si  Si14  1  0.833074  0.666149  0.999428  1
  Si  Si15  1  0.166898  0.333797  0.999719  1
  Si  Si16  1  0.666201  0.833102  0.999718  1
  Si  Si17  1  0.333852  0.166926  0.500569  1
  Si  Si18  1  0.833073  0.166928  0.500572  1
  Si  Si19  1  0.166901  0.833101  0.999719  1
  Rh  Rh20  1  0.333335  0.666667  0.034531  1
  Rh  Rh21  1  0.666665  0.333331  0.964932  1
  Rh  Rh22  1  0.666665  0.333331  0.535068  1
  Rh  Rh23  1  0.333335  0.666667  0.465469  1
