# generated using pymatgen
data_Lu4Tc4OsRu3
_symmetry_space_group_name_H-M   'P 1'
_cell_length_a   5.22248582
_cell_length_b   5.29669958
_cell_length_c   9.01037400
_cell_angle_alpha   90.00000000
_cell_angle_beta   90.00000000
_cell_angle_gamma   121.25342987
_symmetry_Int_Tables_number   1
_chemical_formula_structural   Lu4Tc4OsRu3
_chemical_formula_sum   'Lu4 Tc4 Os1 Ru3'
_cell_volume   213.07426501
_cell_formula_units_Z   1
loop_
 _symmetry_equiv_pos_site_id
 _symmetry_equiv_pos_as_xyz
  1  'x, y, z'
loop_
 _atom_site_type_symbol
 _atom_site_label
 _atom_site_symmetry_multiplicity
 _atom_site_fract_x
 _atom_site_fract_y
 _atom_site_fract_z
 _atom_site_occupancy
  Lu  Lu0  1  0.336495  0.665818  0.435564  1
  Lu  Lu1  1  0.663412  0.332152  0.565344  1
  Lu  Lu2  1  0.663412  0.332152  0.934656  1
  Lu  Lu3  1  0.336495  0.665818  0.064436  1
  Tc  Tc4  1  0.169990  0.830085  0.750000  1
  Tc  Tc5  1  0.338910  0.174565  0.250000  1
  Tc  Tc6  1  0.826357  0.660301  0.250000  1
  Tc  Tc7  1  0.660250  0.832842  0.750000  1
  Os  Os8  1  0.171140  0.345247  0.750000  1
  Ru  Ru9  1  0.003812  0.992581  0.000967  1
  Ru  Ru10  1  0.825919  0.175858  0.250000  1
  Ru  Ru11  1  0.003812  0.992581  0.499033  1
