# generated using pymatgen
data_Ac6HfP12Rh17
_symmetry_space_group_name_H-M   'P 1'
_cell_length_a   4.08291200
_cell_length_b   11.63138200
_cell_length_c   13.36650000
_cell_angle_alpha   90.00000000
_cell_angle_beta   90.00000000
_cell_angle_gamma   90.00000000
_symmetry_Int_Tables_number   1
_chemical_formula_structural   Ac6HfP12Rh17
_chemical_formula_sum   'Ac6 Hf1 P12 Rh17'
_cell_volume   634.77387058
_cell_formula_units_Z   1
loop_
 _symmetry_equiv_pos_site_id
 _symmetry_equiv_pos_as_xyz
  1  'x, y, z'
loop_
 _atom_site_type_symbol
 _atom_site_label
 _atom_site_symmetry_multiplicity
 _atom_site_fract_x
 _atom_site_fract_y
 _atom_site_fract_z
 _atom_site_occupancy
  Ac  Ac0  1  0.000000  0.500000  0.520219  1
  Ac  Ac1  1  0.500000  0.000000  0.479534  1
  Ac  Ac2  1  0.500000  0.819809  0.206787  1
  Ac  Ac3  1  0.500000  0.180191  0.206787  1
  Ac  Ac4  1  0.000000  0.681739  0.797238  1
  Ac  Ac5  1  0.000000  0.318261  0.797238  1
  Hf  Hf6  1  0.500000  0.500000  0.151750  1
  P  P7  1  0.500000  0.500000  0.885881  1
  P  P8  1  0.000000  0.000000  0.110045  1
  P  P9  1  0.500000  0.500000  0.345064  1
  P  P10  1  0.000000  0.000000  0.663388  1
  P  P11  1  0.500000  0.304174  0.615136  1
  P  P12  1  0.500000  0.695826  0.615136  1
  P  P13  1  0.000000  0.195872  0.387353  1
  P  P14  1  0.000000  0.804128  0.387353  1
  P  P15  1  0.500000  0.853619  0.891166  1
  P  P16  1  0.500000  0.146381  0.891166  1
  P  P17  1  0.000000  0.655654  0.103357  1
  P  P18  1  0.000000  0.344346  0.103357  1
  Rh  Rh19  1  0.000000  0.000000  0.836361  1
  Rh  Rh20  1  0.500000  0.500000  0.702517  1
  Rh  Rh21  1  0.000000  0.000000  0.295781  1
  Rh  Rh22  1  0.000000  0.500000  0.988883  1
  Rh  Rh23  1  0.500000  0.000000  0.012346  1
  Rh  Rh24  1  0.500000  0.332327  0.993650  1
  Rh  Rh25  1  0.500000  0.667673  0.993650  1
  Rh  Rh26  1  0.000000  0.164979  0.005086  1
  Rh  Rh27  1  0.000000  0.835021  0.005086  1
  Rh  Rh28  1  0.500000  0.289140  0.434171  1
  Rh  Rh29  1  0.500000  0.710860  0.434171  1
  Rh  Rh30  1  0.000000  0.206792  0.569710  1
  Rh  Rh31  1  0.000000  0.793208  0.569710  1
  Rh  Rh32  1  0.500000  0.877896  0.709944  1
  Rh  Rh33  1  0.500000  0.122104  0.709944  1
  Rh  Rh34  1  0.000000  0.623161  0.290515  1
  Rh  Rh35  1  0.000000  0.376839  0.290515  1
