# generated using pymatgen
data_DyLu11CuNi4Sn
_symmetry_space_group_name_H-M   'P 1'
_cell_length_a   8.15188078
_cell_length_b   8.15188078
_cell_length_c   8.14777193
_cell_angle_alpha   112.26749084
_cell_angle_beta   109.69711610
_cell_angle_gamma   106.52192020
_symmetry_Int_Tables_number   1
_chemical_formula_structural   DyLu11CuNi4Sn
_chemical_formula_sum   'Dy1 Lu11 Cu1 Ni4 Sn1'
_cell_volume   415.64350397
_cell_formula_units_Z   1
loop_
 _symmetry_equiv_pos_site_id
 _symmetry_equiv_pos_as_xyz
  1  'x, y, z'
loop_
 _atom_site_type_symbol
 _atom_site_label
 _atom_site_symmetry_multiplicity
 _atom_site_fract_x
 _atom_site_fract_y
 _atom_site_fract_z
 _atom_site_occupancy
  Dy  Dy0  1  0.819273  0.791362  0.610635  1
  Lu  Lu1  1  0.027234  0.720768  0.305493  1
  Lu  Lu2  1  0.973272  0.279935  0.694077  1
  Lu  Lu3  1  0.584725  0.278260  0.305493  1
  Lu  Lu4  1  0.414142  0.720804  0.694077  1
  Lu  Lu5  1  0.675869  0.868435  0.191447  1
  Lu  Lu6  1  0.323012  0.515577  0.191447  1
  Lu  Lu7  1  0.324310  0.131797  0.807901  1
  Lu  Lu8  1  0.676104  0.483592  0.807901  1
  Lu  Lu9  1  0.180734  0.208638  0.389373  1
  Lu  Lu10  1  0.819188  0.209169  0.028355  1
  Lu  Lu11  1  0.181417  0.791387  0.972807  1
  Cu  Cu12  1  0.000218  0.499623  0.499842  1
  Ni  Ni13  1  0.644164  0.499480  0.143644  1
  Ni  Ni14  1  0.355628  0.500007  0.855634  1
  Ni  Ni15  1  0.875207  0.875377  0.000970  1
  Ni  Ni16  1  0.125593  0.125763  0.000970  1
  Sn  Sn17  1  0.499909  0.000024  0.499933  1
