# generated using pymatgen
data_Sm5Y2Sn23Rh6
_symmetry_space_group_name_H-M   'P 1'
_cell_length_a   9.91818203
_cell_length_b   9.91954110
_cell_length_c   10.16217901
_cell_angle_alpha   90.00307656
_cell_angle_beta   89.99593114
_cell_angle_gamma   120.00363465
_symmetry_Int_Tables_number   1
_chemical_formula_structural   Sm5Y2Sn23Rh6
_chemical_formula_sum   'Sm5 Y2 Sn23 Rh6'
_cell_volume   865.81522771
_cell_formula_units_Z   1
loop_
 _symmetry_equiv_pos_site_id
 _symmetry_equiv_pos_as_xyz
  1  'x, y, z'
loop_
 _atom_site_type_symbol
 _atom_site_label
 _atom_site_symmetry_multiplicity
 _atom_site_fract_x
 _atom_site_fract_y
 _atom_site_fract_z
 _atom_site_occupancy
  Sm  Sm0  1  0.000071  0.000034  0.999928  1
  Sm  Sm1  1  0.044486  0.522253  0.307586  1
  Sm  Sm2  1  0.477831  0.955576  0.307649  1
  Sm  Sm3  1  0.477842  0.522261  0.307662  1
  Sm  Sm4  1  0.955376  0.477678  0.692565  1
  Y  Y5  1  0.521875  0.043871  0.692522  1
  Y  Y6  1  0.521862  0.477996  0.692509  1
  Sn  Sn7  1  0.000308  0.000153  0.500046  1
  Sn  Sn8  1  0.118533  0.881613  0.279737  1
  Sn  Sn9  1  0.762901  0.881449  0.279910  1
  Sn  Sn10  1  0.118537  0.236924  0.279754  1
  Sn  Sn11  1  0.880795  0.118153  0.720225  1
  Sn  Sn12  1  0.238706  0.119355  0.720074  1
  Sn  Sn13  1  0.880794  0.762640  0.720210  1
  Sn  Sn14  1  0.351376  0.000189  0.999682  1
  Sn  Sn15  1  0.648576  0.648774  0.999707  1
  Sn  Sn16  1  0.000097  0.351311  0.999886  1
  Sn  Sn17  1  0.351389  0.351204  0.999682  1
  Sn  Sn18  1  0.000091  0.648784  0.999882  1
  Sn  Sn19  1  0.648589  0.999797  0.999712  1
  Sn  Sn20  1  0.778665  0.558060  0.454736  1
  Sn  Sn21  1  0.778672  0.220606  0.454741  1
  Sn  Sn22  1  0.441740  0.220873  0.455149  1
  Sn  Sn23  1  0.221709  0.441962  0.546282  1
  Sn  Sn24  1  0.221704  0.779745  0.546276  1
  Sn  Sn25  1  0.557964  0.778979  0.546691  1
  Sn  Sn26  1  0.666677  0.333332  0.180839  1
  Sn  Sn27  1  0.333582  0.666797  0.818826  1
  Sn  Sn28  1  0.665509  0.332754  0.883174  1
  Sn  Sn29  1  0.333391  0.666695  0.115541  1
  Rh  Rh30  1  0.168678  0.832284  0.802232  1
  Rh  Rh31  1  0.662940  0.831460  0.802025  1
  Rh  Rh32  1  0.168696  0.336416  0.802243  1
  Rh  Rh33  1  0.831773  0.168159  0.197418  1
  Rh  Rh34  1  0.336519  0.168272  0.197491  1
  Rh  Rh35  1  0.831748  0.663590  0.197406  1
