# generated using pymatgen
data_Ho4Lu4Re3B24Rh
_symmetry_space_group_name_H-M   'P 1'
_cell_length_a   3.63861100
_cell_length_b   9.09237524
_cell_length_c   11.47179663
_cell_angle_alpha   90.12311620
_cell_angle_beta   90.00000000
_cell_angle_gamma   90.00000000
_symmetry_Int_Tables_number   1
_chemical_formula_structural   Ho4Lu4Re3B24Rh
_chemical_formula_sum   'Ho4 Lu4 Re3 B24 Rh1'
_cell_volume   379.52764485
_cell_formula_units_Z   1
loop_
 _symmetry_equiv_pos_site_id
 _symmetry_equiv_pos_as_xyz
  1  'x, y, z'
loop_
 _atom_site_type_symbol
 _atom_site_label
 _atom_site_symmetry_multiplicity
 _atom_site_fract_x
 _atom_site_fract_y
 _atom_site_fract_z
 _atom_site_occupancy
  Ho  Ho0  1  0.000000  0.318229  0.415699  1
  Ho  Ho1  1  0.000000  0.678587  0.590637  1
  Ho  Ho2  1  0.000000  0.825974  0.081675  1
  Ho  Ho3  1  0.000000  0.177588  0.912983  1
  Lu  Lu4  1  0.000000  0.944370  0.370476  1
  Lu  Lu5  1  0.000000  0.055555  0.628985  1
  Lu  Lu6  1  0.000000  0.441309  0.128380  1
  Lu  Lu7  1  0.000000  0.556212  0.871529  1
  Re  Re8  1  0.000000  0.361536  0.678565  1
  Re  Re9  1  0.000000  0.139123  0.180628  1
  Re  Re10  1  0.000000  0.860710  0.820293  1
  B  B11  1  0.500000  0.554619  0.433579  1
  B  B12  1  0.500000  0.446299  0.566497  1
  B  B13  1  0.500000  0.053628  0.066738  1
  B  B14  1  0.500000  0.946456  0.932811  1
  B  B15  1  0.500000  0.750957  0.419934  1
  B  B16  1  0.500000  0.248777  0.581026  1
  B  B17  1  0.500000  0.250948  0.081313  1
  B  B18  1  0.500000  0.749671  0.918826  1
  B  B19  1  0.500000  0.792275  0.264768  1
  B  B20  1  0.500000  0.207223  0.734566  1
  B  B21  1  0.500000  0.293131  0.235533  1
  B  B22  1  0.500000  0.707021  0.765391  1
  B  B23  1  0.500000  0.631125  0.183248  1
  B  B24  1  0.500000  0.369869  0.815169  1
  B  B25  1  0.500000  0.130449  0.315800  1
  B  B26  1  0.500000  0.869099  0.684415  1
  B  B27  1  0.500000  0.982296  0.212750  1
  B  B28  1  0.500000  0.017753  0.786606  1
  B  B29  1  0.500000  0.483071  0.287341  1
  B  B30  1  0.500000  0.518600  0.712825  1
  B  B31  1  0.500000  0.601218  0.028468  1
  B  B32  1  0.500000  0.399764  0.972870  1
  B  B33  1  0.500000  0.099653  0.472042  1
  B  B34  1  0.500000  0.897772  0.527354  1
  Rh  Rh35  1  0.000000  0.639131  0.320277  1
