# generated using pymatgen
data_YbHo6Co3Sn23Ir3
_symmetry_space_group_name_H-M   'P 1'
_cell_length_a   9.79827800
_cell_length_b   9.79827643
_cell_length_c   10.00498600
_cell_angle_alpha   90.00000000
_cell_angle_beta   90.00000000
_cell_angle_gamma   119.99999181
_symmetry_Int_Tables_number   1
_chemical_formula_structural   YbHo6Co3Sn23Ir3
_chemical_formula_sum   'Yb1 Ho6 Co3 Sn23 Ir3'
_cell_volume   831.85301993
_cell_formula_units_Z   1
loop_
 _symmetry_equiv_pos_site_id
 _symmetry_equiv_pos_as_xyz
  1  'x, y, z'
loop_
 _atom_site_type_symbol
 _atom_site_label
 _atom_site_symmetry_multiplicity
 _atom_site_fract_x
 _atom_site_fract_y
 _atom_site_fract_z
 _atom_site_occupancy
  Yb  Yb0  1  0.000000  0.000000  0.986522  1
  Ho  Ho1  1  0.518616  0.481384  0.694972  1
  Ho  Ho2  1  0.518616  0.037231  0.694972  1
  Ho  Ho3  1  0.962769  0.481384  0.694972  1
  Ho  Ho4  1  0.038533  0.519267  0.307027  1
  Ho  Ho5  1  0.480733  0.961467  0.307027  1
  Ho  Ho6  1  0.480733  0.519267  0.307027  1
  Co  Co7  1  0.338380  0.169191  0.202090  1
  Co  Co8  1  0.830809  0.661620  0.202090  1
  Co  Co9  1  0.830809  0.169191  0.202090  1
  Sn  Sn10  1  0.666667  0.333333  0.184226  1
  Sn  Sn11  1  0.666667  0.333333  0.878915  1
  Sn  Sn12  1  0.333333  0.666667  0.126033  1
  Sn  Sn13  1  0.351905  0.345146  0.006119  1
  Sn  Sn14  1  0.993241  0.648095  0.006119  1
  Sn  Sn15  1  0.654854  0.006759  0.006119  1
  Sn  Sn16  1  0.654854  0.648095  0.006119  1
  Sn  Sn17  1  0.333333  0.666667  0.827407  1
  Sn  Sn18  1  0.439745  0.219873  0.452489  1
  Sn  Sn19  1  0.221802  0.778198  0.541204  1
  Sn  Sn20  1  0.221802  0.443603  0.541204  1
  Sn  Sn21  1  0.556397  0.778198  0.541204  1
  Sn  Sn22  1  0.116721  0.883279  0.272280  1
  Sn  Sn23  1  0.780127  0.560255  0.452489  1
  Sn  Sn24  1  0.780127  0.219873  0.452489  1
  Sn  Sn25  1  0.351905  0.006759  0.006119  1
  Sn  Sn26  1  0.116721  0.233441  0.272280  1
  Sn  Sn27  1  0.766559  0.883279  0.272280  1
  Sn  Sn28  1  0.237654  0.118827  0.715312  1
  Sn  Sn29  1  0.881173  0.762346  0.715312  1
  Sn  Sn30  1  0.881173  0.118827  0.715312  1
  Sn  Sn31  1  0.000000  0.000000  0.496149  1
  Sn  Sn32  1  0.993241  0.345146  0.006119  1
  Ir  Ir33  1  0.169727  0.830273  0.802638  1
  Ir  Ir34  1  0.169727  0.339453  0.802638  1
  Ir  Ir35  1  0.660547  0.830273  0.802638  1
