# generated using pymatgen
data_YLu5(Al3Ru)8
_symmetry_space_group_name_H-M   'P 1'
_cell_length_a   8.75278900
_cell_length_b   8.74872094
_cell_length_c   9.56297001
_cell_angle_alpha   89.99920937
_cell_angle_beta   90.00000000
_cell_angle_gamma   120.01539427
_symmetry_Int_Tables_number   1
_chemical_formula_structural   YLu5(Al3Ru)8
_chemical_formula_sum   'Y1 Lu5 Al24 Ru8'
_cell_volume   634.08438508
_cell_formula_units_Z   1
loop_
 _symmetry_equiv_pos_site_id
 _symmetry_equiv_pos_as_xyz
  1  'x, y, z'
loop_
 _atom_site_type_symbol
 _atom_site_label
 _atom_site_symmetry_multiplicity
 _atom_site_fract_x
 _atom_site_fract_y
 _atom_site_fract_z
 _atom_site_occupancy
  Y  Y0  1  0.192714  0.385428  0.250033  1
  Lu  Lu1  1  0.805643  0.194886  0.750045  1
  Lu  Lu2  1  0.195071  0.804946  0.249993  1
  Lu  Lu3  1  0.389243  0.194886  0.750045  1
  Lu  Lu4  1  0.609874  0.804946  0.249993  1
  Lu  Lu5  1  0.805617  0.611234  0.750006  1
  Al  Al6  1  0.666858  0.333714  0.979076  1
  Al  Al7  1  0.333533  0.667066  0.018985  1
  Al  Al8  1  0.333523  0.667046  0.481056  1
  Al  Al9  1  0.666899  0.333796  0.520994  1
  Al  Al10  1  0.836485  0.162530  0.423005  1
  Al  Al11  1  0.162567  0.837554  0.578473  1
  Al  Al12  1  0.326046  0.162530  0.423005  1
  Al  Al13  1  0.162517  0.837555  0.921568  1
  Al  Al14  1  0.674987  0.837554  0.578473  1
  Al  Al15  1  0.836536  0.162521  0.076973  1
  Al  Al16  1  0.837374  0.674747  0.422609  1
  Al  Al17  1  0.675039  0.837555  0.921568  1
  Al  Al18  1  0.162737  0.325473  0.579505  1
  Al  Al19  1  0.325986  0.162521  0.076973  1
  Al  Al20  1  0.162720  0.325439  0.920581  1
  Al  Al21  1  0.837431  0.674861  0.077405  1
  Al  Al22  1  0.439323  0.561461  0.749996  1
  Al  Al23  1  0.562521  0.439232  0.250077  1
  Al  Al24  1  0.122138  0.561461  0.749996  1
  Al  Al25  1  0.876712  0.439232  0.250077  1
  Al  Al26  1  0.439064  0.878130  0.749902  1
  Al  Al27  1  0.561170  0.122340  0.249986  1
  Al  Al28  1  0.000207  0.000414  0.749975  1
  Al  Al29  1  0.997763  0.995526  0.249944  1
  Ru  Ru30  1  0.501051  0.500595  0.999605  1
  Ru  Ru31  1  0.999544  0.500595  0.999605  1
  Ru  Ru32  1  0.500926  0.500582  0.500476  1
  Ru  Ru33  1  0.500111  0.000222  0.999734  1
  Ru  Ru34  1  0.999654  0.500582  0.500476  1
  Ru  Ru35  1  0.500081  0.000162  0.499871  1
  Ru  Ru36  1  0.000168  0.000336  0.000066  1
  Ru  Ru37  1  0.000171  0.000342  0.499851  1
