# generated using pymatgen
data_Yb3Sm(Ga2Ag)4
_symmetry_space_group_name_H-M   'P 1'
_cell_length_a   4.36015600
_cell_length_b   7.00361181
_cell_length_c   10.46060381
_cell_angle_alpha   90.55059718
_cell_angle_beta   90.00000000
_cell_angle_gamma   90.00000000
_symmetry_Int_Tables_number   1
_chemical_formula_structural   Yb3Sm(Ga2Ag)4
_chemical_formula_sum   'Yb3 Sm1 Ga8 Ag4'
_cell_volume   319.41903595
_cell_formula_units_Z   1
loop_
 _symmetry_equiv_pos_site_id
 _symmetry_equiv_pos_as_xyz
  1  'x, y, z'
loop_
 _atom_site_type_symbol
 _atom_site_label
 _atom_site_symmetry_multiplicity
 _atom_site_fract_x
 _atom_site_fract_y
 _atom_site_fract_z
 _atom_site_occupancy
  Yb  Yb0  1  0.750000  0.225253  0.172679  1
  Yb  Yb1  1  0.750000  0.723777  0.327788  1
  Yb  Yb2  1  0.250000  0.275912  0.669914  1
  Sm  Sm3  1  0.250000  0.780120  0.828176  1
  Ga  Ga4  1  0.250000  0.700305  0.533560  1
  Ga  Ga5  1  0.750000  0.300013  0.465424  1
  Ga  Ga6  1  0.750000  0.796957  0.037341  1
  Ga  Ga7  1  0.250000  0.202884  0.965718  1
  Ga  Ga8  1  0.250000  0.924716  0.148889  1
  Ga  Ga9  1  0.750000  0.077123  0.849163  1
  Ga  Ga10  1  0.750000  0.571689  0.650231  1
  Ga  Ga11  1  0.250000  0.426668  0.349031  1
  Ag  Ag12  1  0.250000  0.537910  0.102013  1
  Ag  Ag13  1  0.750000  0.456214  0.901018  1
  Ag  Ag14  1  0.750000  0.960095  0.598697  1
  Ag  Ag15  1  0.250000  0.040365  0.400358  1
