# generated using pymatgen
data_SmYMn3Co9As7
_symmetry_space_group_name_H-M   'P 1'
_cell_length_a   3.75926300
_cell_length_b   9.48306321
_cell_length_c   9.48306400
_cell_angle_alpha   119.99999576
_cell_angle_beta   90.00000000
_cell_angle_gamma   90.00000000
_symmetry_Int_Tables_number   1
_chemical_formula_structural   SmYMn3Co9As7
_chemical_formula_sum   'Sm1 Y1 Mn3 Co9 As7'
_cell_volume   292.77277399
_cell_formula_units_Z   1
loop_
 _symmetry_equiv_pos_site_id
 _symmetry_equiv_pos_as_xyz
  1  'x, y, z'
loop_
 _atom_site_type_symbol
 _atom_site_label
 _atom_site_symmetry_multiplicity
 _atom_site_fract_x
 _atom_site_fract_y
 _atom_site_fract_z
 _atom_site_occupancy
  Sm  Sm0  1  0.000000  0.666667  0.333333  1
  Y  Y1  1  0.500000  0.333333  0.666667  1
  Mn  Mn2  1  0.500000  0.778283  0.893680  1
  Mn  Mn3  1  0.500000  0.115397  0.221717  1
  Mn  Mn4  1  0.500000  0.106320  0.884603  1
  Co  Co5  1  0.000000  0.571708  0.939901  1
  Co  Co6  1  0.000000  0.368193  0.428292  1
  Co  Co7  1  0.000000  0.060099  0.631807  1
  Co  Co8  1  0.000000  0.882217  0.158704  1
  Co  Co9  1  0.000000  0.276487  0.117783  1
  Co  Co10  1  0.000000  0.841296  0.723513  1
  Co  Co11  1  0.500000  0.951039  0.385590  1
  Co  Co12  1  0.500000  0.434550  0.048961  1
  Co  Co13  1  0.500000  0.614410  0.565450  1
  As  As14  1  0.000000  0.000000  0.000000  1
  As  As15  1  0.500000  0.710399  0.116457  1
  As  As16  1  0.500000  0.406060  0.289601  1
  As  As17  1  0.500000  0.883543  0.593940  1
  As  As18  1  0.000000  0.584420  0.698136  1
  As  As19  1  0.000000  0.113716  0.415580  1
  As  As20  1  0.000000  0.301864  0.886284  1
