# generated using pymatgen
data_YbNp2Sc5(ReB6)4
_symmetry_space_group_name_H-M   'P 1'
_cell_length_a   3.56548400
_cell_length_b   8.97612259
_cell_length_c   11.31771100
_cell_angle_alpha   90.15956773
_cell_angle_beta   90.00000000
_cell_angle_gamma   90.00000000
_symmetry_Int_Tables_number   1
_chemical_formula_structural   YbNp2Sc5(ReB6)4
_chemical_formula_sum   'Yb1 Np2 Sc5 Re4 B24'
_cell_volume   362.21312475
_cell_formula_units_Z   1
loop_
 _symmetry_equiv_pos_site_id
 _symmetry_equiv_pos_as_xyz
  1  'x, y, z'
loop_
 _atom_site_type_symbol
 _atom_site_label
 _atom_site_symmetry_multiplicity
 _atom_site_fract_x
 _atom_site_fract_y
 _atom_site_fract_z
 _atom_site_occupancy
  Yb  Yb0  1  0.000000  0.821708  0.085657  1
  Np  Np1  1  0.000000  0.319824  0.413189  1
  Np  Np2  1  0.000000  0.680206  0.586692  1
  Sc  Sc3  1  0.000000  0.177393  0.915047  1
  Sc  Sc4  1  0.000000  0.945259  0.370866  1
  Sc  Sc5  1  0.000000  0.054832  0.628656  1
  Sc  Sc6  1  0.000000  0.443587  0.126931  1
  Sc  Sc7  1  0.000000  0.556195  0.872849  1
  Re  Re8  1  0.000000  0.637141  0.322612  1
  Re  Re9  1  0.000000  0.361452  0.679325  1
  Re  Re10  1  0.000000  0.143622  0.182057  1
  Re  Re11  1  0.000000  0.859172  0.816687  1
  B  B12  1  0.500000  0.552732  0.433863  1
  B  B13  1  0.500000  0.446508  0.567177  1
  B  B14  1  0.500000  0.054711  0.065065  1
  B  B15  1  0.500000  0.947574  0.933402  1
  B  B16  1  0.500000  0.753422  0.419406  1
  B  B17  1  0.500000  0.246362  0.581088  1
  B  B18  1  0.500000  0.252832  0.077693  1
  B  B19  1  0.500000  0.747231  0.919722  1
  B  B20  1  0.500000  0.794361  0.264493  1
  B  B21  1  0.500000  0.204903  0.737143  1
  B  B22  1  0.500000  0.295501  0.234092  1
  B  B23  1  0.500000  0.705137  0.765112  1
  B  B24  1  0.500000  0.628828  0.182856  1
  B  B25  1  0.500000  0.369240  0.818762  1
  B  B26  1  0.500000  0.130846  0.316488  1
  B  B27  1  0.500000  0.870292  0.682957  1
  B  B28  1  0.500000  0.981100  0.212219  1
  B  B29  1  0.500000  0.020887  0.788035  1
  B  B30  1  0.500000  0.480191  0.285786  1
  B  B31  1  0.500000  0.519278  0.715090  1
  B  B32  1  0.500000  0.595619  0.026301  1
  B  B33  1  0.500000  0.401671  0.972792  1
  B  B34  1  0.500000  0.099480  0.472813  1
  B  B35  1  0.500000  0.900903  0.527075  1
