# generated using pymatgen
data_EuY2Tm(Ga2Ag)4
_symmetry_space_group_name_H-M   'P 1'
_cell_length_a   4.41008400
_cell_length_b   7.04607653
_cell_length_c   10.39032345
_cell_angle_alpha   89.60595687
_cell_angle_beta   90.00000000
_cell_angle_gamma   90.00000000
_symmetry_Int_Tables_number   1
_chemical_formula_structural   EuY2Tm(Ga2Ag)4
_chemical_formula_sum   'Eu1 Y2 Tm1 Ga8 Ag4'
_cell_volume   322.85908692
_cell_formula_units_Z   1
loop_
 _symmetry_equiv_pos_site_id
 _symmetry_equiv_pos_as_xyz
  1  'x, y, z'
loop_
 _atom_site_type_symbol
 _atom_site_label
 _atom_site_symmetry_multiplicity
 _atom_site_fract_x
 _atom_site_fract_y
 _atom_site_fract_z
 _atom_site_occupancy
  Eu  Eu0  1  0.250000  0.778719  0.824585  1
  Y  Y1  1  0.750000  0.221624  0.173895  1
  Y  Y2  1  0.750000  0.721746  0.326708  1
  Tm  Tm3  1  0.250000  0.279827  0.672750  1
  Ga  Ga4  1  0.250000  0.696700  0.533590  1
  Ga  Ga5  1  0.750000  0.297096  0.464405  1
  Ga  Ga6  1  0.750000  0.797739  0.036761  1
  Ga  Ga7  1  0.250000  0.206257  0.963904  1
  Ga  Ga8  1  0.250000  0.928563  0.155581  1
  Ga  Ga9  1  0.750000  0.076800  0.847242  1
  Ga  Ga10  1  0.750000  0.568081  0.651468  1
  Ga  Ga11  1  0.250000  0.426228  0.344855  1
  Ag  Ag12  1  0.250000  0.543999  0.098753  1
  Ag  Ag13  1  0.750000  0.453440  0.903955  1
  Ag  Ag14  1  0.750000  0.958120  0.596066  1
  Ag  Ag15  1  0.250000  0.045062  0.405482  1
