# generated using pymatgen
data_La16Tc3Ag4Pt
_symmetry_space_group_name_H-M   'P 1'
_cell_length_a   10.05330712
_cell_length_b   10.17697071
_cell_length_c   10.17697100
_cell_angle_alpha   60.00000229
_cell_angle_beta   59.59225447
_cell_angle_gamma   59.59225205
_symmetry_Int_Tables_number   1
_chemical_formula_structural   La16Tc3Ag4Pt
_chemical_formula_sum   'La16 Tc3 Ag4 Pt1'
_cell_volume   731.68937529
_cell_formula_units_Z   1
loop_
 _symmetry_equiv_pos_site_id
 _symmetry_equiv_pos_as_xyz
  1  'x, y, z'
loop_
 _atom_site_type_symbol
 _atom_site_label
 _atom_site_symmetry_multiplicity
 _atom_site_fract_x
 _atom_site_fract_y
 _atom_site_fract_z
 _atom_site_occupancy
  La  La0  1  0.595886  0.600853  0.600853  1
  La  La1  1  0.595886  0.600853  0.202410  1
  La  La2  1  0.595886  0.202410  0.600853  1
  La  La3  1  0.208109  0.597297  0.597297  1
  La  La4  1  0.069035  0.439471  0.439471  1
  La  La5  1  0.440970  0.060991  0.060991  1
  La  La6  1  0.440970  0.060991  0.437047  1
  La  La7  1  0.069035  0.439471  0.052024  1
  La  La8  1  0.440970  0.437047  0.060991  1
  La  La9  1  0.069035  0.052024  0.439471  1
  La  La10  1  0.191093  0.808121  0.808121  1
  La  La11  1  0.804982  0.192080  0.192080  1
  La  La12  1  0.804982  0.192080  0.810858  1
  La  La13  1  0.191093  0.808121  0.192666  1
  La  La14  1  0.804982  0.810858  0.192080  1
  La  La15  1  0.191093  0.192666  0.808121  1
  Tc  Tc16  1  0.385914  0.385396  0.385396  1
  Tc  Tc17  1  0.385914  0.385396  0.843294  1
  Tc  Tc18  1  0.385914  0.843294  0.385396  1
  Ag  Ag19  1  0.830520  0.829065  0.829065  1
  Ag  Ag20  1  0.830520  0.829065  0.511350  1
  Ag  Ag21  1  0.830520  0.511350  0.829065  1
  Ag  Ag22  1  0.509925  0.830025  0.830025  1
  Pt  Pt23  1  0.826770  0.391076  0.391076  1
