# generated using pymatgen
data_KSbOF4
_symmetry_space_group_name_H-M   'P 1'
_cell_length_a   6.19452500
_cell_length_b   5.53238092
_cell_length_c   15.17616406
_cell_angle_alpha   70.93378241
_cell_angle_beta   90.00000000
_cell_angle_gamma   90.00000000
_symmetry_Int_Tables_number   1
_chemical_formula_structural   KSbOF4
_chemical_formula_sum   'K4 Sb4 O4 F16'
_cell_volume   491.56280433
_cell_formula_units_Z   4
loop_
 _symmetry_equiv_pos_site_id
 _symmetry_equiv_pos_as_xyz
  1  'x, y, z'
loop_
 _atom_site_type_symbol
 _atom_site_label
 _atom_site_symmetry_multiplicity
 _atom_site_fract_x
 _atom_site_fract_y
 _atom_site_fract_z
 _atom_site_occupancy
  K  K0  1  0.635487  0.630474  0.854698  1
  K  K1  1  0.135487  0.369526  0.645302  1
  K  K2  1  0.364513  0.369526  0.145302  1
  K  K3  1  0.864513  0.630474  0.354698  1
  Sb  Sb4  1  0.125689  0.031717  0.913131  1
  Sb  Sb5  1  0.625689  0.968283  0.586869  1
  Sb  Sb6  1  0.874311  0.968283  0.086869  1
  Sb  Sb7  1  0.374311  0.031717  0.413131  1
  O  O8  1  0.622650  0.827194  0.482203  1
  O  O9  1  0.122650  0.172806  0.017797  1
  O  O10  1  0.377350  0.172806  0.517797  1
  O  O11  1  0.877350  0.827194  0.982203  1
  F  F12  1  0.160062  0.767420  0.470104  1
  F  F13  1  0.660062  0.232580  0.029896  1
  F  F14  1  0.839938  0.232580  0.529896  1
  F  F15  1  0.339938  0.767420  0.970104  1
  F  F16  1  0.939324  0.299269  0.833345  1
  F  F17  1  0.439324  0.700731  0.666655  1
  F  F18  1  0.060676  0.700731  0.166655  1
  F  F19  1  0.560676  0.299269  0.333345  1
  F  F20  1  0.103551  0.879730  0.815130  1
  F  F21  1  0.603551  0.120270  0.684870  1
  F  F22  1  0.896449  0.120270  0.184870  1
  F  F23  1  0.396449  0.879730  0.315130  1
  F  F24  1  0.363171  0.241506  0.848192  1
  F  F25  1  0.863171  0.758494  0.651808  1
  F  F26  1  0.636829  0.758494  0.151808  1
  F  F27  1  0.136829  0.241506  0.348192  1
