# generated using pymatgen
data_Nd2Dy4ZnRh17
_symmetry_space_group_name_H-M   'P 1'
_cell_length_a   5.32416900
_cell_length_b   5.32416959
_cell_length_c   17.33139600
_cell_angle_alpha   90.00000000
_cell_angle_beta   90.00000000
_cell_angle_gamma   120.00000255
_symmetry_Int_Tables_number   1
_chemical_formula_structural   Nd2Dy4ZnRh17
_chemical_formula_sum   'Nd2 Dy4 Zn1 Rh17'
_cell_volume   425.46895723
_cell_formula_units_Z   1
loop_
 _symmetry_equiv_pos_site_id
 _symmetry_equiv_pos_as_xyz
  1  'x, y, z'
loop_
 _atom_site_type_symbol
 _atom_site_label
 _atom_site_symmetry_multiplicity
 _atom_site_fract_x
 _atom_site_fract_y
 _atom_site_fract_z
 _atom_site_occupancy
  Nd  Nd0  1  0.333333  0.666667  0.750000  1
  Nd  Nd1  1  0.666667  0.333333  0.250000  1
  Dy  Dy2  1  0.333333  0.666667  0.539611  1
  Dy  Dy3  1  0.666667  0.333333  0.042260  1
  Dy  Dy4  1  0.666667  0.333333  0.457740  1
  Dy  Dy5  1  0.333333  0.666667  0.960389  1
  Zn  Zn6  1  0.000000  0.000000  0.250000  1
  Rh  Rh7  1  0.168141  0.336282  0.125428  1
  Rh  Rh8  1  0.832378  0.664757  0.624125  1
  Rh  Rh9  1  0.663718  0.831859  0.125428  1
  Rh  Rh10  1  0.168141  0.831859  0.125428  1
  Rh  Rh11  1  0.832378  0.167622  0.624125  1
  Rh  Rh12  1  0.335243  0.167622  0.624125  1
  Rh  Rh13  1  0.832378  0.664757  0.875875  1
  Rh  Rh14  1  0.832378  0.167622  0.875875  1
  Rh  Rh15  1  0.335243  0.167622  0.875875  1
  Rh  Rh16  1  0.663718  0.831859  0.374572  1
  Rh  Rh17  1  0.168141  0.831859  0.374572  1
  Rh  Rh18  1  0.168141  0.336282  0.374572  1
  Rh  Rh19  1  0.000000  0.000000  0.750000  1
  Rh  Rh20  1  0.333333  0.666667  0.250000  1
  Rh  Rh21  1  0.666667  0.333333  0.750000  1
  Rh  Rh22  1  0.000000  0.000000  0.002080  1
  Rh  Rh23  1  0.000000  0.000000  0.497920  1
