# generated using pymatgen
data_Tb3Mg2CdSi2Ag
_symmetry_space_group_name_H-M   'P 1'
_cell_length_a   7.30230800
_cell_length_b   7.25743686
_cell_length_c   4.35238500
_cell_angle_alpha   90.00000000
_cell_angle_beta   90.00000000
_cell_angle_gamma   120.20473638
_symmetry_Int_Tables_number   1
_chemical_formula_structural   Tb3Mg2CdSi2Ag
_chemical_formula_sum   'Tb3 Mg2 Cd1 Si2 Ag1'
_cell_volume   199.34331314
_cell_formula_units_Z   1
loop_
 _symmetry_equiv_pos_site_id
 _symmetry_equiv_pos_as_xyz
  1  'x, y, z'
loop_
 _atom_site_type_symbol
 _atom_site_label
 _atom_site_symmetry_multiplicity
 _atom_site_fract_x
 _atom_site_fract_y
 _atom_site_fract_z
 _atom_site_occupancy
  Tb  Tb0  1  0.575210  0.000000  0.000000  1
  Tb  Tb1  1  0.000244  0.577753  0.000000  1
  Tb  Tb2  1  0.422490  0.422247  0.000000  1
  Mg  Mg3  1  0.001115  0.246770  0.500000  1
  Mg  Mg4  1  0.754344  0.753230  0.500000  1
  Cd  Cd5  1  0.251455  0.000000  0.500000  1
  Si  Si6  1  0.333620  0.664313  0.500000  1
  Si  Si7  1  0.669308  0.335687  0.500000  1
  Ag  Ag8  1  0.992215  0.000000  0.000000  1
