# generated using pymatgen
data_Ca2MgInAu2
_symmetry_space_group_name_H-M   'P 1'
_cell_length_a   4.42241500
_cell_length_b   7.59490800
_cell_length_c   8.72527900
_cell_angle_alpha   90.00000000
_cell_angle_beta   90.00000000
_cell_angle_gamma   90.00000000
_symmetry_Int_Tables_number   1
_chemical_formula_structural   Ca2MgInAu2
_chemical_formula_sum   'Ca4 Mg2 In2 Au4'
_cell_volume   293.06323193
_cell_formula_units_Z   2
loop_
 _symmetry_equiv_pos_site_id
 _symmetry_equiv_pos_as_xyz
  1  'x, y, z'
loop_
 _atom_site_type_symbol
 _atom_site_label
 _atom_site_symmetry_multiplicity
 _atom_site_fract_x
 _atom_site_fract_y
 _atom_site_fract_z
 _atom_site_occupancy
  Ca  Ca0  1  0.750000  0.963041  0.675990  1
  Ca  Ca1  1  0.250000  0.030962  0.322389  1
  Ca  Ca2  1  0.750000  0.469038  0.822389  1
  Ca  Ca3  1  0.250000  0.536959  0.175990  1
  Mg  Mg4  1  0.750000  0.360549  0.439187  1
  Mg  Mg5  1  0.250000  0.139451  0.939187  1
  In  In6  1  0.250000  0.639412  0.559912  1
  In  In7  1  0.750000  0.860588  0.059912  1
  Au  Au8  1  0.250000  0.765205  0.871396  1
  Au  Au9  1  0.250000  0.259377  0.631126  1
  Au  Au10  1  0.750000  0.734795  0.371396  1
  Au  Au11  1  0.750000  0.240623  0.131126  1
