# generated using pymatgen
data_Ti3V(SiIr)4
_symmetry_space_group_name_H-M   'P 1'
_cell_length_a   3.87628800
_cell_length_b   6.24102008
_cell_length_c   7.21844939
_cell_angle_alpha   89.74827614
_cell_angle_beta   90.00000000
_cell_angle_gamma   90.00000000
_symmetry_Int_Tables_number   1
_chemical_formula_structural   Ti3V(SiIr)4
_chemical_formula_sum   'Ti3 V1 Si4 Ir4'
_cell_volume   174.62697912
_cell_formula_units_Z   1
loop_
 _symmetry_equiv_pos_site_id
 _symmetry_equiv_pos_as_xyz
  1  'x, y, z'
loop_
 _atom_site_type_symbol
 _atom_site_label
 _atom_site_symmetry_multiplicity
 _atom_site_fract_x
 _atom_site_fract_y
 _atom_site_fract_z
 _atom_site_occupancy
  Ti  Ti0  1  0.250000  0.523517  0.684421  1
  Ti  Ti1  1  0.750000  0.976004  0.176651  1
  Ti  Ti2  1  0.750000  0.473613  0.319163  1
  V  V3  1  0.250000  0.024951  0.820658  1
  Si  Si4  1  0.250000  0.771484  0.375900  1
  Si  Si5  1  0.250000  0.266369  0.118902  1
  Si  Si6  1  0.750000  0.222552  0.629123  1
  Si  Si7  1  0.750000  0.737128  0.875673  1
  Ir  Ir8  1  0.250000  0.158265  0.440244  1
  Ir  Ir9  1  0.250000  0.655529  0.062494  1
  Ir  Ir10  1  0.750000  0.842087  0.558962  1
  Ir  Ir11  1  0.750000  0.348502  0.937809  1
