# generated using pymatgen
data_Ho4Tm(CoO6)2
_symmetry_space_group_name_H-M   'P 1'
_cell_length_a   6.70740167
_cell_length_b   6.70740216
_cell_length_c   7.13157038
_cell_angle_alpha   74.48141643
_cell_angle_beta   74.48141196
_cell_angle_gamma   50.54940709
_symmetry_Int_Tables_number   1
_chemical_formula_structural   Ho4Tm(CoO6)2
_chemical_formula_sum   'Ho4 Tm1 Co2 O12'
_cell_volume   236.65452465
_cell_formula_units_Z   1
loop_
 _symmetry_equiv_pos_site_id
 _symmetry_equiv_pos_as_xyz
  1  'x, y, z'
loop_
 _atom_site_type_symbol
 _atom_site_label
 _atom_site_symmetry_multiplicity
 _atom_site_fract_x
 _atom_site_fract_y
 _atom_site_fract_z
 _atom_site_occupancy
  Ho  Ho0  1  0.694762  0.694762  0.643310  1
  Ho  Ho1  1  0.308002  0.308002  0.834649  1
  Ho  Ho2  1  0.691873  0.691873  0.165462  1
  Ho  Ho3  1  0.000140  0.000140  0.499451  1
  Tm  Tm4  1  0.305471  0.305471  0.355999  1
  Co  Co5  1  0.755399  0.244149  0.000314  1
  Co  Co6  1  0.244149  0.755399  0.000314  1
  O  O7  1  0.901172  0.418334  0.920551  1
  O  O8  1  0.418334  0.901172  0.920551  1
  O  O9  1  0.099657  0.580393  0.081316  1
  O  O10  1  0.580393  0.099657  0.081316  1
  O  O11  1  0.098559  0.596927  0.573779  1
  O  O12  1  0.596927  0.098559  0.573779  1
  O  O13  1  0.905402  0.401020  0.423914  1
  O  O14  1  0.401020  0.905402  0.423914  1
  O  O15  1  0.999821  0.999821  0.827457  1
  O  O16  1  0.999883  0.999883  0.171873  1
  O  O17  1  0.500161  0.500161  0.824274  1
  O  O18  1  0.498873  0.498873  0.177778  1
