# generated using pymatgen
data_Sm3PaAg2Rh3
_symmetry_space_group_name_H-M   'P 1'
_cell_length_a   7.75974900
_cell_length_b   7.75974766
_cell_length_c   3.92591500
_cell_angle_alpha   90.00000000
_cell_angle_beta   90.00000000
_cell_angle_gamma   121.37766732
_symmetry_Int_Tables_number   1
_chemical_formula_structural   Sm3PaAg2Rh3
_chemical_formula_sum   'Sm3 Pa1 Ag2 Rh3'
_cell_volume   201.82214623
_cell_formula_units_Z   1
loop_
 _symmetry_equiv_pos_site_id
 _symmetry_equiv_pos_as_xyz
  1  'x, y, z'
loop_
 _atom_site_type_symbol
 _atom_site_label
 _atom_site_symmetry_multiplicity
 _atom_site_fract_x
 _atom_site_fract_y
 _atom_site_fract_z
 _atom_site_occupancy
  Sm  Sm0  1  0.960965  0.406236  0.500000  1
  Sm  Sm1  1  0.641438  0.641438  0.500000  1
  Sm  Sm2  1  0.406236  0.960965  0.500000  1
  Pa  Pa3  1  0.263788  0.263788  0.000000  1
  Ag  Ag4  1  0.013060  0.746561  0.000000  1
  Ag  Ag5  1  0.746561  0.013060  0.000000  1
  Rh  Rh6  1  0.318739  0.616191  0.000000  1
  Rh  Rh7  1  0.033023  0.033023  0.500000  1
  Rh  Rh8  1  0.616191  0.318739  0.000000  1
