# generated using pymatgen
data_TcTe29
_symmetry_space_group_name_H-M   'P 1'
_cell_length_a   8.30499226
_cell_length_b   10.77426306
_cell_length_c   12.89781400
_cell_angle_alpha   73.93446864
_cell_angle_beta   80.61394244
_cell_angle_gamma   67.49014844
_symmetry_Int_Tables_number   1
_chemical_formula_structural   TcTe29
_chemical_formula_sum   'Tc1 Te29'
_cell_volume   1022.40916316
_cell_formula_units_Z   1
loop_
 _symmetry_equiv_pos_site_id
 _symmetry_equiv_pos_as_xyz
  1  'x, y, z'
loop_
 _atom_site_type_symbol
 _atom_site_label
 _atom_site_symmetry_multiplicity
 _atom_site_fract_x
 _atom_site_fract_y
 _atom_site_fract_z
 _atom_site_occupancy
  Tc  Tc0  1  0.000000  0.000000  0.000000  1
  Te  Te1  1  0.500000  0.000000  0.000000  1
  Te  Te2  1  0.100892  0.200166  0.200715  1
  Te  Te3  1  0.699858  0.400984  0.399197  1
  Te  Te4  1  0.300142  0.599016  0.600803  1
  Te  Te5  1  0.599096  0.199739  0.201131  1
  Te  Te6  1  0.899108  0.799834  0.799285  1
  Te  Te7  1  0.200658  0.399554  0.399645  1
  Te  Te8  1  0.799342  0.600446  0.600355  1
  Te  Te9  1  0.400904  0.800261  0.798869  1
  Te  Te10  1  0.223821  0.084577  0.842119  1
  Te  Te11  1  0.652997  0.703020  0.976487  1
  Te  Te12  1  0.862402  0.264842  0.024157  1
  Te  Te13  1  0.228239  0.914906  0.157819  1
  Te  Te14  1  0.446495  0.498083  0.223501  1
  Te  Te15  1  0.771761  0.085094  0.842181  1
  Te  Te16  1  0.854416  0.101907  0.376497  1
  Te  Te17  1  0.137598  0.735158  0.975843  1
  Te  Te18  1  0.047483  0.695501  0.423257  1
  Te  Te19  1  0.347003  0.296980  0.023513  1
  Te  Te20  1  0.776179  0.915423  0.157881  1
  Te  Te21  1  0.453579  0.304294  0.575263  1
  Te  Te22  1  0.644824  0.900586  0.621910  1
  Te  Te23  1  0.946005  0.497671  0.222737  1
  Te  Te24  1  0.053995  0.502329  0.777263  1
  Te  Te25  1  0.355176  0.099414  0.378090  1
  Te  Te26  1  0.546421  0.695706  0.424737  1
  Te  Te27  1  0.952517  0.304499  0.576743  1
  Te  Te28  1  0.145584  0.898093  0.623503  1
  Te  Te29  1  0.553505  0.501917  0.776499  1
