# generated using pymatgen
data_Y6CuSn6Ir5
_symmetry_space_group_name_H-M   'P 1'
_cell_length_a   7.53448700
_cell_length_b   7.53448799
_cell_length_c   7.91679000
_cell_angle_alpha   90.00000000
_cell_angle_beta   90.00000000
_cell_angle_gamma   120.00000005
_symmetry_Int_Tables_number   1
_chemical_formula_structural   Y6CuSn6Ir5
_chemical_formula_sum   'Y6 Cu1 Sn6 Ir5'
_cell_volume   389.21286711
_cell_formula_units_Z   1
loop_
 _symmetry_equiv_pos_site_id
 _symmetry_equiv_pos_as_xyz
  1  'x, y, z'
loop_
 _atom_site_type_symbol
 _atom_site_label
 _atom_site_symmetry_multiplicity
 _atom_site_fract_x
 _atom_site_fract_y
 _atom_site_fract_z
 _atom_site_occupancy
  Y  Y0  1  0.400499  0.993245  0.246294  1
  Y  Y1  1  0.592746  0.599501  0.246294  1
  Y  Y2  1  0.006755  0.407254  0.246294  1
  Y  Y3  1  0.399975  0.992165  0.753757  1
  Y  Y4  1  0.592190  0.600025  0.753757  1
  Y  Y5  1  0.007835  0.407810  0.753757  1
  Cu  Cu6  1  0.666667  0.333333  0.500840  1
  Sn  Sn7  1  0.261344  0.258247  0.999983  1
  Sn  Sn8  1  0.996902  0.738656  0.999983  1
  Sn  Sn9  1  0.999431  0.738767  0.499965  1
  Sn  Sn10  1  0.739334  0.000569  0.499965  1
  Sn  Sn11  1  0.261233  0.260666  0.499965  1
  Sn  Sn12  1  0.741753  0.003098  0.999983  1
  Ir  Ir13  1  0.000000  0.000000  0.749494  1
  Ir  Ir14  1  0.000000  0.000000  0.250432  1
  Ir  Ir15  1  0.666667  0.333333  0.999220  1
  Ir  Ir16  1  0.333333  0.666667  0.499128  1
  Ir  Ir17  1  0.333333  0.666667  0.000885  1
