# generated using pymatgen
data_Nd4TeC4Br
_symmetry_space_group_name_H-M   'P 1'
_cell_length_a   7.68902701
_cell_length_b   7.68902713
_cell_length_c   6.93880958
_cell_angle_alpha   80.01615348
_cell_angle_beta   80.01615459
_cell_angle_gamma   33.25245833
_symmetry_Int_Tables_number   1
_chemical_formula_structural   Nd4TeC4Br
_chemical_formula_sum   'Nd4 Te1 C4 Br1'
_cell_volume   221.22857652
_cell_formula_units_Z   1
loop_
 _symmetry_equiv_pos_site_id
 _symmetry_equiv_pos_as_xyz
  1  'x, y, z'
loop_
 _atom_site_type_symbol
 _atom_site_label
 _atom_site_symmetry_multiplicity
 _atom_site_fract_x
 _atom_site_fract_y
 _atom_site_fract_z
 _atom_site_occupancy
  Nd  Nd0  1  0.543782  0.145592  0.144527  1
  Nd  Nd1  1  0.142447  0.551118  0.652180  1
  Nd  Nd2  1  0.448882  0.857553  0.847820  1
  Nd  Nd3  1  0.854408  0.456218  0.355473  1
  Te  Te4  1  0.788836  0.211164  0.750000  1
  C  C5  1  0.353841  0.106126  0.472296  1
  C  C6  1  0.893874  0.646159  0.027704  1
  C  C7  1  0.643467  0.901633  0.524867  1
  C  C8  1  0.098367  0.356533  0.975133  1
  Br  Br9  1  0.232096  0.767904  0.250000  1
