# generated using pymatgen
data_Sm(TaSn)6
_symmetry_space_group_name_H-M   'P 1'
_cell_length_a   5.78982941
_cell_length_b   5.78982882
_cell_length_c   9.66915000
_cell_angle_alpha   90.00000000
_cell_angle_beta   90.00000000
_cell_angle_gamma   120.01534481
_symmetry_Int_Tables_number   1
_chemical_formula_structural   Sm(TaSn)6
_chemical_formula_sum   'Sm1 Ta6 Sn6'
_cell_volume   280.66176213
_cell_formula_units_Z   1
loop_
 _symmetry_equiv_pos_site_id
 _symmetry_equiv_pos_as_xyz
  1  'x, y, z'
loop_
 _atom_site_type_symbol
 _atom_site_label
 _atom_site_symmetry_multiplicity
 _atom_site_fract_x
 _atom_site_fract_y
 _atom_site_fract_z
 _atom_site_occupancy
  Sm  Sm0  1  0.000007  0.000007  0.000000  1
  Ta  Ta1  1  0.500005  0.500006  0.249855  1
  Ta  Ta2  1  0.500023  0.000009  0.249846  1
  Ta  Ta3  1  0.000009  0.500021  0.249846  1
  Ta  Ta4  1  0.500023  0.000009  0.750155  1
  Ta  Ta5  1  0.000009  0.500021  0.750155  1
  Ta  Ta6  1  0.500005  0.500006  0.750146  1
  Sn  Sn7  1  0.666671  0.333356  0.000000  1
  Sn  Sn8  1  0.333357  0.666672  0.000000  1
  Sn  Sn9  1  0.000014  0.000014  0.330381  1
  Sn  Sn10  1  0.666664  0.333298  0.500000  1
  Sn  Sn11  1  0.333297  0.666664  0.500000  1
  Sn  Sn12  1  0.000014  0.000014  0.669620  1
