# generated using pymatgen
data_GdYCl6
_symmetry_space_group_name_H-M   'P 1'
_cell_length_a   6.93509986
_cell_length_b   7.05730105
_cell_length_c   7.05653615
_cell_angle_alpha   119.79594294
_cell_angle_beta   99.88346535
_cell_angle_gamma   99.89768014
_symmetry_Int_Tables_number   1
_chemical_formula_structural   GdYCl6
_chemical_formula_sum   'Gd1 Y1 Cl6'
_cell_volume   281.58634221
_cell_formula_units_Z   1
loop_
 _symmetry_equiv_pos_site_id
 _symmetry_equiv_pos_as_xyz
  1  'x, y, z'
loop_
 _atom_site_type_symbol
 _atom_site_label
 _atom_site_symmetry_multiplicity
 _atom_site_fract_x
 _atom_site_fract_y
 _atom_site_fract_z
 _atom_site_occupancy
  Gd  Gd0  1  0.999994  0.833580  0.166376  1
  Y  Y1  1  0.000002  0.166586  0.833439  1
  Cl  Cl2  1  0.772811  0.420812  0.050101  1
  Cl  Cl3  1  0.231772  0.200613  0.197820  1
  Cl  Cl4  1  0.772432  0.052670  0.426366  1
  Cl  Cl5  1  0.227187  0.949913  0.579176  1
  Cl  Cl6  1  0.768220  0.802179  0.799389  1
  Cl  Cl7  1  0.227582  0.573645  0.947332  1
