# generated using pymatgen
data_LaNd(Cu3Ni2)2
_symmetry_space_group_name_H-M   'P 1'
_cell_length_a   4.06352500
_cell_length_b   5.01491800
_cell_length_c   8.73191400
_cell_angle_alpha   90.00000000
_cell_angle_beta   90.00000000
_cell_angle_gamma   90.00000000
_symmetry_Int_Tables_number   1
_chemical_formula_structural   LaNd(Cu3Ni2)2
_chemical_formula_sum   'La1 Nd1 Cu6 Ni4'
_cell_volume   177.94107989
_cell_formula_units_Z   1
loop_
 _symmetry_equiv_pos_site_id
 _symmetry_equiv_pos_as_xyz
  1  'x, y, z'
loop_
 _atom_site_type_symbol
 _atom_site_label
 _atom_site_symmetry_multiplicity
 _atom_site_fract_x
 _atom_site_fract_y
 _atom_site_fract_z
 _atom_site_occupancy
  La  La0  1  0.000000  0.000000  0.993835  1
  Nd  Nd1  1  0.000000  0.500000  0.505809  1
  Cu  Cu2  1  0.000000  0.000000  0.333261  1
  Cu  Cu3  1  0.500000  0.000000  0.500797  1
  Cu  Cu4  1  0.500000  0.252868  0.250474  1
  Cu  Cu5  1  0.500000  0.747524  0.748730  1
  Cu  Cu6  1  0.500000  0.747132  0.250474  1
  Cu  Cu7  1  0.500000  0.252476  0.748730  1
  Ni  Ni8  1  0.000000  0.500000  0.838472  1
  Ni  Ni9  1  0.000000  0.500000  0.163854  1
  Ni  Ni10  1  0.000000  0.000000  0.665235  1
  Ni  Ni11  1  0.500000  0.500000  0.000328  1
