# generated using pymatgen
data_Ho3Zn3NiIr2
_symmetry_space_group_name_H-M   'P 1'
_cell_length_a   7.03910200
_cell_length_b   7.03910447
_cell_length_c   3.87925000
_cell_angle_alpha   90.00000000
_cell_angle_beta   90.00000000
_cell_angle_gamma   119.99998841
_symmetry_Int_Tables_number   1
_chemical_formula_structural   Ho3Zn3NiIr2
_chemical_formula_sum   'Ho3 Zn3 Ni1 Ir2'
_cell_volume   166.46123798
_cell_formula_units_Z   1
loop_
 _symmetry_equiv_pos_site_id
 _symmetry_equiv_pos_as_xyz
  1  'x, y, z'
loop_
 _atom_site_type_symbol
 _atom_site_label
 _atom_site_symmetry_multiplicity
 _atom_site_fract_x
 _atom_site_fract_y
 _atom_site_fract_z
 _atom_site_occupancy
  Ho  Ho0  1  0.409215  0.409215  0.500000  1
  Ho  Ho1  1  0.590785  0.000000  0.500000  1
  Ho  Ho2  1  0.000000  0.590785  0.500000  1
  Zn  Zn3  1  0.762752  0.762752  0.000000  1
  Zn  Zn4  1  0.237248  0.000000  0.000000  1
  Zn  Zn5  1  0.000000  0.237248  0.000000  1
  Ni  Ni6  1  0.000000  0.000000  0.500000  1
  Ir  Ir7  1  0.666667  0.333333  0.000000  1
  Ir  Ir8  1  0.333333  0.666667  0.000000  1
