# generated using pymatgen
data_Ac4Si7Au
_symmetry_space_group_name_H-M   'P 1'
_cell_length_a   8.44388100
_cell_length_b   8.44387949
_cell_length_c   4.63959700
_cell_angle_alpha   90.00000000
_cell_angle_beta   90.00000000
_cell_angle_gamma   120.00000199
_symmetry_Int_Tables_number   1
_chemical_formula_structural   Ac4Si7Au
_chemical_formula_sum   'Ac4 Si7 Au1'
_cell_volume   286.48046483
_cell_formula_units_Z   1
loop_
 _symmetry_equiv_pos_site_id
 _symmetry_equiv_pos_as_xyz
  1  'x, y, z'
loop_
 _atom_site_type_symbol
 _atom_site_label
 _atom_site_symmetry_multiplicity
 _atom_site_fract_x
 _atom_site_fract_y
 _atom_site_fract_z
 _atom_site_occupancy
  Ac  Ac0  1  0.504112  0.495888  0.000000  1
  Ac  Ac1  1  0.991776  0.495888  0.000000  1
  Ac  Ac2  1  0.504112  0.008224  0.000000  1
  Ac  Ac3  1  0.000000  0.000000  0.000000  1
  Si  Si4  1  0.666667  0.333333  0.500000  1
  Si  Si5  1  0.833288  0.666579  0.500000  1
  Si  Si6  1  0.163233  0.836767  0.500000  1
  Si  Si7  1  0.673532  0.836767  0.500000  1
  Si  Si8  1  0.163233  0.326468  0.500000  1
  Si  Si9  1  0.833288  0.166712  0.500000  1
  Si  Si10  1  0.333421  0.166712  0.500000  1
  Au  Au11  1  0.333333  0.666667  0.500000  1
