# generated using pymatgen
data_Th3Al12IrRu3
_symmetry_space_group_name_H-M   'P 1'
_cell_length_a   8.97203700
_cell_length_b   8.98225659
_cell_length_c   9.55835517
_cell_angle_alpha   90.10200776
_cell_angle_beta   90.00000000
_cell_angle_gamma   119.96236688
_symmetry_Int_Tables_number   1
_chemical_formula_structural   Th3Al12IrRu3
_chemical_formula_sum   'Th6 Al24 Ir2 Ru6'
_cell_volume   667.35045104
_cell_formula_units_Z   2
loop_
 _symmetry_equiv_pos_site_id
 _symmetry_equiv_pos_as_xyz
  1  'x, y, z'
loop_
 _atom_site_type_symbol
 _atom_site_label
 _atom_site_symmetry_multiplicity
 _atom_site_fract_x
 _atom_site_fract_y
 _atom_site_fract_z
 _atom_site_occupancy
  Th  Th0  1  0.195112  0.807547  0.248635  1
  Th  Th1  1  0.193728  0.387458  0.248400  1
  Th  Th2  1  0.612434  0.807547  0.248635  1
  Th  Th3  1  0.804888  0.192453  0.751365  1
  Th  Th4  1  0.806272  0.612542  0.751600  1
  Th  Th5  1  0.387566  0.192453  0.751365  1
  Al  Al6  1  0.564217  0.436744  0.248985  1
  Al  Al7  1  0.563869  0.127739  0.250432  1
  Al  Al8  1  0.872528  0.436744  0.248985  1
  Al  Al9  1  0.435783  0.563256  0.751015  1
  Al  Al10  1  0.436131  0.872261  0.749568  1
  Al  Al11  1  0.127472  0.563256  0.751015  1
  Al  Al12  1  0.325108  0.161549  0.422743  1
  Al  Al13  1  0.836441  0.161549  0.422743  1
  Al  Al14  1  0.837750  0.675500  0.423349  1
  Al  Al15  1  0.674892  0.838451  0.577257  1
  Al  Al16  1  0.163559  0.838451  0.577257  1
  Al  Al17  1  0.162250  0.324500  0.576651  1
  Al  Al18  1  0.673764  0.836804  0.922415  1
  Al  Al19  1  0.163040  0.836804  0.922415  1
  Al  Al20  1  0.162877  0.325754  0.922243  1
  Al  Al21  1  0.326236  0.163196  0.077585  1
  Al  Al22  1  0.836960  0.163196  0.077585  1
  Al  Al23  1  0.837123  0.674246  0.077757  1
  Al  Al24  1  0.665697  0.331393  0.514694  1
  Al  Al25  1  0.334303  0.668607  0.485306  1
  Al  Al26  1  0.333215  0.666429  0.012770  1
  Al  Al27  1  0.666785  0.333571  0.987230  1
  Al  Al28  1  0.000373  0.000746  0.249971  1
  Al  Al29  1  0.999627  0.999254  0.750029  1
  Ir  Ir30  1  0.500000  0.500000  0.500000  1
  Ir  Ir31  1  0.000000  0.500000  0.500000  1
  Ru  Ru32  1  0.000000  0.000000  0.500000  1
  Ru  Ru33  1  0.000000  0.000000  0.000000  1
  Ru  Ru34  1  0.500000  0.000000  0.500000  1
  Ru  Ru35  1  0.500000  0.500000  0.000000  1
  Ru  Ru36  1  0.500000  0.000000  0.000000  1
  Ru  Ru37  1  0.000000  0.500000  0.000000  1
