# generated using pymatgen
data_Mg2MnFe11P7
_symmetry_space_group_name_H-M   'P 1'
_cell_length_a   8.87740900
_cell_length_b   8.86923651
_cell_length_c   3.58006300
_cell_angle_alpha   90.00000000
_cell_angle_beta   90.00000000
_cell_angle_gamma   119.99563442
_symmetry_Int_Tables_number   1
_chemical_formula_structural   Mg2MnFe11P7
_chemical_formula_sum   'Mg2 Mn1 Fe11 P7'
_cell_volume   244.12534464
_cell_formula_units_Z   1
loop_
 _symmetry_equiv_pos_site_id
 _symmetry_equiv_pos_as_xyz
  1  'x, y, z'
loop_
 _atom_site_type_symbol
 _atom_site_label
 _atom_site_symmetry_multiplicity
 _atom_site_fract_x
 _atom_site_fract_y
 _atom_site_fract_z
 _atom_site_occupancy
  Mg  Mg0  1  0.665303  0.330179  0.000000  1
  Mg  Mg1  1  0.332646  0.667131  0.500000  1
  Mn  Mn2  1  0.883179  0.785986  0.000000  1
  Fe  Fe3  1  0.429047  0.057328  0.500000  1
  Fe  Fe4  1  0.942803  0.372546  0.500000  1
  Fe  Fe5  1  0.622805  0.570450  0.500000  1
  Fe  Fe6  1  0.160320  0.280009  0.500000  1
  Fe  Fe7  1  0.727434  0.882601  0.500000  1
  Fe  Fe8  1  0.118290  0.839019  0.500000  1
  Fe  Fe9  1  0.387853  0.435966  0.000000  1
  Fe  Fe10  1  0.564906  0.952151  0.000000  1
  Fe  Fe11  1  0.048556  0.613329  0.000000  1
  Fe  Fe12  1  0.213529  0.093872  0.000000  1
  Fe  Fe13  1  0.908908  0.118834  0.000000  1
  P  P14  1  0.114655  0.402913  0.000000  1
  P  P15  1  0.589622  0.715129  0.000000  1
  P  P16  1  0.291216  0.886668  0.000000  1
  P  P17  1  0.005447  0.005503  0.500000  1
  P  P18  1  0.413064  0.292347  0.500000  1
  P  P19  1  0.704839  0.117875  0.500000  1
  P  P20  1  0.875574  0.580163  0.500000  1
