# generated using pymatgen
data_CeNdRh2F14
_symmetry_space_group_name_H-M   'P 1'
_cell_length_a   5.72602297
_cell_length_b   6.03993938
_cell_length_c   8.25004257
_cell_angle_alpha   101.23593329
_cell_angle_beta   90.00086175
_cell_angle_gamma   90.06559492
_symmetry_Int_Tables_number   1
_chemical_formula_structural   CeNdRh2F14
_chemical_formula_sum   'Ce1 Nd1 Rh2 F14'
_cell_volume   279.85733370
_cell_formula_units_Z   1
loop_
 _symmetry_equiv_pos_site_id
 _symmetry_equiv_pos_as_xyz
  1  'x, y, z'
loop_
 _atom_site_type_symbol
 _atom_site_label
 _atom_site_symmetry_multiplicity
 _atom_site_fract_x
 _atom_site_fract_y
 _atom_site_fract_z
 _atom_site_occupancy
  Ce  Ce0  1  0.699694  0.664467  0.693004  1
  Nd  Nd1  1  0.203846  0.335766  0.307069  1
  Rh  Rh2  1  0.710642  0.808921  0.223499  1
  Rh  Rh3  1  0.210259  0.189804  0.773992  1
  F  F4  1  0.877280  0.453867  0.485297  1
  F  F5  1  0.393810  0.559712  0.531147  1
  F  F6  1  0.423742  0.933479  0.771219  1
  F  F7  1  0.913952  0.068786  0.227332  1
  F  F8  1  0.945078  0.973757  0.759591  1
  F  F9  1  0.443692  0.014371  0.234607  1
  F  F10  1  0.999608  0.452849  0.789443  1
  F  F11  1  0.506708  0.545130  0.210247  1
  F  F12  1  0.705295  0.760021  0.980428  1
  F  F13  1  0.203926  0.236040  0.014382  1
  F  F14  1  0.718811  0.867119  0.466681  1
  F  F15  1  0.218253  0.133022  0.531853  1
  F  F16  1  0.489840  0.386690  0.790382  1
  F  F17  1  0.988285  0.616198  0.209829  1
