# generated using pymatgen
data_Lu3Sc5Nb12Si15Sb
_symmetry_space_group_name_H-M   'P 1'
_cell_length_a   6.78454535
_cell_length_b   6.97323480
_cell_length_c   13.30194827
_cell_angle_alpha   89.87291094
_cell_angle_beta   90.44001216
_cell_angle_gamma   90.07775205
_symmetry_Int_Tables_number   1
_chemical_formula_structural   Lu3Sc5Nb12Si15Sb
_chemical_formula_sum   'Lu3 Sc5 Nb12 Si15 Sb1'
_cell_volume   629.29753168
_cell_formula_units_Z   1
loop_
 _symmetry_equiv_pos_site_id
 _symmetry_equiv_pos_as_xyz
  1  'x, y, z'
loop_
 _atom_site_type_symbol
 _atom_site_label
 _atom_site_symmetry_multiplicity
 _atom_site_fract_x
 _atom_site_fract_y
 _atom_site_fract_z
 _atom_site_occupancy
  Lu  Lu0  1  0.495910  0.669565  0.596675  1
  Lu  Lu1  1  0.000563  0.828386  0.906022  1
  Lu  Lu2  1  0.498011  0.326910  0.093043  1
  Sc  Sc3  1  0.016646  0.184944  0.398936  1
  Sc  Sc4  1  0.497023  0.331023  0.401263  1
  Sc  Sc5  1  0.997177  0.174551  0.096116  1
  Sc  Sc6  1  0.502277  0.676079  0.903850  1
  Sc  Sc7  1  0.005858  0.820052  0.601958  1
  Nb  Nb8  1  0.654045  0.184068  0.630587  1
  Nb  Nb9  1  0.158862  0.323947  0.876276  1
  Nb  Nb10  1  0.336800  0.824935  0.124340  1
  Nb  Nb11  1  0.847135  0.658782  0.370752  1
  Nb  Nb12  1  0.332267  0.826052  0.374011  1
  Nb  Nb13  1  0.835914  0.671851  0.125025  1
  Nb  Nb14  1  0.663761  0.173897  0.875120  1
  Nb  Nb15  1  0.160945  0.328371  0.627119  1
  Nb  Nb16  1  0.835629  0.495093  0.750384  1
  Nb  Nb17  1  0.334940  0.005226  0.750435  1
  Nb  Nb18  1  0.163496  0.504354  0.249559  1
  Nb  Nb19  1  0.664533  0.992992  0.245125  1
  Si  Si20  1  0.162386  0.532282  0.040401  1
  Si  Si21  1  0.337020  0.031908  0.958923  1
  Si  Si22  1  0.835009  0.463829  0.538868  1
  Si  Si23  1  0.314540  0.038943  0.540739  1
  Si  Si24  1  0.829741  0.465329  0.960234  1
  Si  Si25  1  0.668219  0.963495  0.039150  1
  Si  Si26  1  0.171374  0.534692  0.461620  1
  Si  Si27  1  0.454892  0.384356  0.755017  1
  Si  Si28  1  0.957567  0.116817  0.749460  1
  Si  Si29  1  0.541083  0.617905  0.250388  1
  Si  Si30  1  0.040398  0.884733  0.248061  1
  Si  Si31  1  0.703029  0.866164  0.751043  1
  Si  Si32  1  0.203042  0.633432  0.752824  1
  Si  Si33  1  0.296860  0.134301  0.248656  1
  Si  Si34  1  0.796680  0.360705  0.248117  1
  Sb  Sb35  1  0.686368  0.970029  0.459900  1
