# generated using pymatgen
data_Ta3Mn3FeP4W
_symmetry_space_group_name_H-M   'P 1'
_cell_length_a   3.62738400
_cell_length_b   6.08383492
_cell_length_c   6.96118351
_cell_angle_alpha   90.31198387
_cell_angle_beta   90.00000000
_cell_angle_gamma   90.00000000
_symmetry_Int_Tables_number   1
_chemical_formula_structural   Ta3Mn3FeP4W
_chemical_formula_sum   'Ta3 Mn3 Fe1 P4 W1'
_cell_volume   153.61994284
_cell_formula_units_Z   1
loop_
 _symmetry_equiv_pos_site_id
 _symmetry_equiv_pos_as_xyz
  1  'x, y, z'
loop_
 _atom_site_type_symbol
 _atom_site_label
 _atom_site_symmetry_multiplicity
 _atom_site_fract_x
 _atom_site_fract_y
 _atom_site_fract_z
 _atom_site_occupancy
  Ta  Ta0  1  0.250000  0.523308  0.322242  1
  Ta  Ta1  1  0.250000  0.021953  0.175450  1
  Ta  Ta2  1  0.750000  0.474333  0.677919  1
  Mn  Mn3  1  0.750000  0.353661  0.059276  1
  Mn  Mn4  1  0.750000  0.852687  0.442277  1
  Mn  Mn5  1  0.250000  0.148050  0.562289  1
  Fe  Fe6  1  0.250000  0.646963  0.935074  1
  P  P7  1  0.250000  0.779496  0.626310  1
  P  P8  1  0.750000  0.221409  0.376172  1
  P  P9  1  0.250000  0.277175  0.879170  1
  P  P10  1  0.750000  0.721011  0.116662  1
  W  W11  1  0.750000  0.979953  0.827160  1
