# generated using pymatgen
data_Y8SiPI12
_symmetry_space_group_name_H-M   'P 1'
_cell_length_a   4.21006100
_cell_length_b   13.93696481
_cell_length_c   14.73300786
_cell_angle_alpha   90.03919615
_cell_angle_beta   90.00000000
_cell_angle_gamma   90.00000000
_symmetry_Int_Tables_number   1
_chemical_formula_structural   Y8SiPI12
_chemical_formula_sum   'Y8 Si1 P1 I12'
_cell_volume   864.46598839
_cell_formula_units_Z   1
loop_
 _symmetry_equiv_pos_site_id
 _symmetry_equiv_pos_as_xyz
  1  'x, y, z'
loop_
 _atom_site_type_symbol
 _atom_site_label
 _atom_site_symmetry_multiplicity
 _atom_site_fract_x
 _atom_site_fract_y
 _atom_site_fract_z
 _atom_site_occupancy
  Y  Y0  1  0.500000  0.111987  0.350840  1
  Y  Y1  1  0.500000  0.888013  0.649160  1
  Y  Y2  1  0.500000  0.614942  0.152916  1
  Y  Y3  1  0.500000  0.385058  0.847084  1
  Y  Y4  1  0.000000  0.106250  0.571159  1
  Y  Y5  1  0.000000  0.893750  0.428841  1
  Y  Y6  1  0.000000  0.611841  0.924924  1
  Y  Y7  1  0.000000  0.388159  0.075076  1
  Si  Si8  1  0.500000  0.500000  0.000000  1
  P  P9  1  0.500000  0.000000  0.500000  1
  I  I10  1  0.500000  0.244409  0.162775  1
  I  I11  1  0.500000  0.755591  0.837225  1
  I  I12  1  0.500000  0.747333  0.339981  1
  I  I13  1  0.500000  0.252667  0.660019  1
  I  I14  1  0.000000  0.258009  0.415108  1
  I  I15  1  0.000000  0.741991  0.584892  1
  I  I16  1  0.000000  0.759964  0.085382  1
  I  I17  1  0.000000  0.240036  0.914618  1
  I  I18  1  0.000000  0.999123  0.241458  1
  I  I19  1  0.000000  0.000877  0.758542  1
  I  I20  1  0.000000  0.499312  0.260676  1
  I  I21  1  0.000000  0.500688  0.739324  1
