# generated using pymatgen
data_Tm5Cd4NiAu
_symmetry_space_group_name_H-M   'P 1'
_cell_length_a   3.58247800
_cell_length_b   7.86798036
_cell_length_c   18.25172708
_cell_angle_alpha   89.93308727
_cell_angle_beta   90.00000000
_cell_angle_gamma   90.00000000
_symmetry_Int_Tables_number   1
_chemical_formula_structural   Tm5Cd4NiAu
_chemical_formula_sum   'Tm10 Cd8 Ni2 Au2'
_cell_volume   514.45864425
_cell_formula_units_Z   2
loop_
 _symmetry_equiv_pos_site_id
 _symmetry_equiv_pos_as_xyz
  1  'x, y, z'
loop_
 _atom_site_type_symbol
 _atom_site_label
 _atom_site_symmetry_multiplicity
 _atom_site_fract_x
 _atom_site_fract_y
 _atom_site_fract_z
 _atom_site_occupancy
  Tm  Tm0  1  0.000000  0.500000  0.500000  1
  Tm  Tm1  1  0.000000  0.000000  0.000000  1
  Tm  Tm2  1  0.000000  0.767934  0.283330  1
  Tm  Tm3  1  0.000000  0.232066  0.716670  1
  Tm  Tm4  1  0.000000  0.767843  0.776465  1
  Tm  Tm5  1  0.000000  0.232157  0.223535  1
  Tm  Tm6  1  0.000000  0.620267  0.081797  1
  Tm  Tm7  1  0.000000  0.379733  0.918203  1
  Tm  Tm8  1  0.000000  0.886161  0.587545  1
  Tm  Tm9  1  0.000000  0.113839  0.412455  1
  Cd  Cd10  1  0.500000  0.713922  0.932154  1
  Cd  Cd11  1  0.500000  0.286078  0.067846  1
  Cd  Cd12  1  0.500000  0.788990  0.432299  1
  Cd  Cd13  1  0.500000  0.211010  0.567701  1
  Cd  Cd14  1  0.500000  0.573056  0.646041  1
  Cd  Cd15  1  0.500000  0.426944  0.353959  1
  Cd  Cd16  1  0.500000  0.931434  0.149765  1
  Cd  Cd17  1  0.500000  0.068566  0.850235  1
  Ni  Ni18  1  0.500000  0.965802  0.694187  1
  Ni  Ni19  1  0.500000  0.034198  0.305813  1
  Au  Au20  1  0.500000  0.533535  0.198426  1
  Au  Au21  1  0.500000  0.466465  0.801574  1
