# generated using pymatgen
data_U8AgS17
_symmetry_space_group_name_H-M   'P 1'
_cell_length_a   7.88090394
_cell_length_b   7.88090282
_cell_length_c   10.49025594
_cell_angle_alpha   79.75836594
_cell_angle_beta   79.75836625
_cell_angle_gamma   63.92966520
_symmetry_Int_Tables_number   1
_chemical_formula_structural   U8AgS17
_chemical_formula_sum   'U8 Ag1 S17'
_cell_volume   572.24809184
_cell_formula_units_Z   1
loop_
 _symmetry_equiv_pos_site_id
 _symmetry_equiv_pos_as_xyz
  1  'x, y, z'
loop_
 _atom_site_type_symbol
 _atom_site_label
 _atom_site_symmetry_multiplicity
 _atom_site_fract_x
 _atom_site_fract_y
 _atom_site_fract_z
 _atom_site_occupancy
  U  U0  1  0.796987  0.796987  0.459436  1
  U  U1  1  0.203013  0.203013  0.540564  1
  U  U2  1  0.697859  0.182906  0.699432  1
  U  U3  1  0.182906  0.697859  0.699432  1
  U  U4  1  0.817094  0.302141  0.300568  1
  U  U5  1  0.679750  0.679750  0.987354  1
  U  U6  1  0.320250  0.320250  0.012646  1
  U  U7  1  0.302141  0.817094  0.300568  1
  Ag  Ag8  1  0.000000  0.000000  0.000000  1
  S  S9  1  0.479458  0.479458  0.170449  1
  S  S10  1  0.697692  0.697692  0.247583  1
  S  S11  1  0.567353  0.179115  0.466608  1
  S  S12  1  0.055387  0.663484  0.957350  1
  S  S13  1  0.211668  0.211668  0.279672  1
  S  S14  1  0.432647  0.820885  0.533392  1
  S  S15  1  0.520542  0.520542  0.829551  1
  S  S16  1  0.663484  0.055387  0.957350  1
  S  S17  1  0.940869  0.940869  0.239244  1
  S  S18  1  0.059131  0.059131  0.760756  1
  S  S19  1  0.302308  0.302308  0.752417  1
  S  S20  1  0.336516  0.944613  0.042650  1
  S  S21  1  0.820885  0.432647  0.533392  1
  S  S22  1  0.944613  0.336516  0.042650  1
  S  S23  1  0.179115  0.567353  0.466608  1
  S  S24  1  0.000000  0.000000  0.500000  1
  S  S25  1  0.788332  0.788332  0.720328  1
