# generated using pymatgen
data_TaNb2Si2Pd
_symmetry_space_group_name_H-M   'P 1'
_cell_length_a   3.55341300
_cell_length_b   6.73668509
_cell_length_c   8.01760216
_cell_angle_alpha   89.43615067
_cell_angle_beta   90.00000000
_cell_angle_gamma   90.00000000
_symmetry_Int_Tables_number   1
_chemical_formula_structural   TaNb2Si2Pd
_chemical_formula_sum   'Ta2 Nb4 Si4 Pd2'
_cell_volume   191.91786589
_cell_formula_units_Z   2
loop_
 _symmetry_equiv_pos_site_id
 _symmetry_equiv_pos_as_xyz
  1  'x, y, z'
loop_
 _atom_site_type_symbol
 _atom_site_label
 _atom_site_symmetry_multiplicity
 _atom_site_fract_x
 _atom_site_fract_y
 _atom_site_fract_z
 _atom_site_occupancy
  Ta  Ta0  1  0.750000  0.858960  0.566818  1
  Ta  Ta1  1  0.250000  0.141040  0.433182  1
  Nb  Nb2  1  0.250000  0.542891  0.657586  1
  Nb  Nb3  1  0.750000  0.457109  0.342414  1
  Nb  Nb4  1  0.250000  0.019346  0.838909  1
  Nb  Nb5  1  0.750000  0.980654  0.161091  1
  Si  Si6  1  0.250000  0.271557  0.124640  1
  Si  Si7  1  0.750000  0.728443  0.875360  1
  Si  Si8  1  0.250000  0.753121  0.350309  1
  Si  Si9  1  0.750000  0.246879  0.649691  1
  Pd  Pd10  1  0.750000  0.354175  0.935169  1
  Pd  Pd11  1  0.250000  0.645825  0.064831  1
