# generated using pymatgen
data_La2ErCuSe5
_symmetry_space_group_name_H-M   'P 1'
_cell_length_a   12.24405400
_cell_length_b   4.13774700
_cell_length_c   17.85638900
_cell_angle_alpha   90.00000000
_cell_angle_beta   90.00000000
_cell_angle_gamma   90.00000000
_symmetry_Int_Tables_number   1
_chemical_formula_structural   La2ErCuSe5
_chemical_formula_sum   'La8 Er4 Cu4 Se20'
_cell_volume   904.65462367
_cell_formula_units_Z   4
loop_
 _symmetry_equiv_pos_site_id
 _symmetry_equiv_pos_as_xyz
  1  'x, y, z'
loop_
 _atom_site_type_symbol
 _atom_site_label
 _atom_site_symmetry_multiplicity
 _atom_site_fract_x
 _atom_site_fract_y
 _atom_site_fract_z
 _atom_site_occupancy
  La  La0  1  0.355836  0.249999  0.103831  1
  La  La1  1  0.006961  0.249999  0.174954  1
  La  La2  1  0.506961  0.249999  0.325046  1
  La  La3  1  0.855836  0.249999  0.396169  1
  La  La4  1  0.144163  0.750001  0.603831  1
  La  La5  1  0.493039  0.750001  0.674954  1
  La  La6  1  0.993039  0.750001  0.825046  1
  La  La7  1  0.644164  0.750001  0.896169  1
  Er  Er8  1  0.694939  0.750001  0.134197  1
  Er  Er9  1  0.194940  0.750001  0.365804  1
  Er  Er10  1  0.805060  0.249999  0.634197  1
  Er  Er11  1  0.305061  0.249999  0.865803  1
  Cu  Cu12  1  0.821515  0.249999  0.019712  1
  Cu  Cu13  1  0.321514  0.249999  0.480288  1
  Cu  Cu14  1  0.678485  0.750001  0.519711  1
  Cu  Cu15  1  0.178485  0.750001  0.980289  1
  Se  Se16  1  0.615470  0.249999  0.031026  1
  Se  Se17  1  0.902510  0.750001  0.070365  1
  Se  Se18  1  0.177201  0.750001  0.115523  1
  Se  Se19  1  0.482265  0.750001  0.197578  1
  Se  Se20  1  0.755273  0.249999  0.230435  1
  Se  Se21  1  0.255273  0.249999  0.269565  1
  Se  Se22  1  0.982266  0.750001  0.302421  1
  Se  Se23  1  0.677200  0.750001  0.384478  1
  Se  Se24  1  0.402510  0.750001  0.429635  1
  Se  Se25  1  0.115470  0.249999  0.468974  1
  Se  Se26  1  0.884530  0.750001  0.531026  1
  Se  Se27  1  0.597490  0.249999  0.570366  1
  Se  Se28  1  0.322800  0.249999  0.615523  1
  Se  Se29  1  0.017734  0.249999  0.697578  1
  Se  Se30  1  0.744727  0.750001  0.730435  1
  Se  Se31  1  0.244727  0.750001  0.769564  1
  Se  Se32  1  0.517735  0.249999  0.802421  1
  Se  Se33  1  0.822800  0.249999  0.884478  1
  Se  Se34  1  0.097491  0.249999  0.929635  1
  Se  Se35  1  0.384530  0.750001  0.968974  1
