# generated using pymatgen
data_Dy4Zr3InIr4
_symmetry_space_group_name_H-M   'P 1'
_cell_length_a   7.13992239
_cell_length_b   4.51129100
_cell_length_c   8.32175980
_cell_angle_alpha   90.00000000
_cell_angle_beta   94.11813782
_cell_angle_gamma   90.00000000
_symmetry_Int_Tables_number   1
_chemical_formula_structural   Dy4Zr3InIr4
_chemical_formula_sum   'Dy4 Zr3 In1 Ir4'
_cell_volume   267.35404190
_cell_formula_units_Z   1
loop_
 _symmetry_equiv_pos_site_id
 _symmetry_equiv_pos_as_xyz
  1  'x, y, z'
loop_
 _atom_site_type_symbol
 _atom_site_label
 _atom_site_symmetry_multiplicity
 _atom_site_fract_x
 _atom_site_fract_y
 _atom_site_fract_z
 _atom_site_occupancy
  Dy  Dy0  1  0.491834  0.750001  0.166372  1
  Dy  Dy1  1  0.963020  0.750001  0.315500  1
  Dy  Dy2  1  0.022673  0.249999  0.679423  1
  Dy  Dy3  1  0.532721  0.249999  0.835708  1
  Zr  Zr4  1  0.142297  0.249999  0.065071  1
  Zr  Zr5  1  0.630707  0.249999  0.427687  1
  Zr  Zr6  1  0.361024  0.750001  0.572305  1
  In  In7  1  0.855647  0.750001  0.926975  1
  Ir  Ir8  1  0.766638  0.249999  0.131396  1
  Ir  Ir9  1  0.255688  0.249999  0.398702  1
  Ir  Ir10  1  0.732551  0.750001  0.595470  1
  Ir  Ir11  1  0.245204  0.750001  0.885391  1
