# generated using pymatgen
data_LiYb2Fe2N3
_symmetry_space_group_name_H-M   'P 1'
_cell_length_a   6.16340073
_cell_length_b   6.16340151
_cell_length_c   6.24096853
_cell_angle_alpha   88.20792368
_cell_angle_beta   88.20792283
_cell_angle_gamma   119.81061698
_symmetry_Int_Tables_number   1
_chemical_formula_structural   LiYb2Fe2N3
_chemical_formula_sum   'Li2 Yb4 Fe4 N6'
_cell_volume   205.30657304
_cell_formula_units_Z   2
loop_
 _symmetry_equiv_pos_site_id
 _symmetry_equiv_pos_as_xyz
  1  'x, y, z'
loop_
 _atom_site_type_symbol
 _atom_site_label
 _atom_site_symmetry_multiplicity
 _atom_site_fract_x
 _atom_site_fract_y
 _atom_site_fract_z
 _atom_site_occupancy
  Li  Li0  1  0.809529  0.190471  0.750000  1
  Li  Li1  1  0.190471  0.809529  0.250000  1
  Yb  Yb2  1  0.821669  0.684866  0.902923  1
  Yb  Yb3  1  0.315134  0.178331  0.597077  1
  Yb  Yb4  1  0.178331  0.315134  0.097077  1
  Yb  Yb5  1  0.684866  0.821669  0.402923  1
  Fe  Fe6  1  0.573925  0.171657  0.102669  1
  Fe  Fe7  1  0.426075  0.828343  0.897331  1
  Fe  Fe8  1  0.828343  0.426075  0.397331  1
  Fe  Fe9  1  0.171657  0.573925  0.602669  1
  N  N10  1  0.424903  0.575097  0.750000  1
  N  N11  1  0.575097  0.424903  0.250000  1
  N  N12  1  0.993930  0.728638  0.527549  1
  N  N13  1  0.728638  0.993930  0.027549  1
  N  N14  1  0.006070  0.271362  0.472451  1
  N  N15  1  0.271362  0.006070  0.972451  1
