# generated using pymatgen
data_YHo3Al18Ir5Pt
_symmetry_space_group_name_H-M   'P 1'
_cell_length_a   7.55697665
_cell_length_b   7.55867344
_cell_length_c   9.46500332
_cell_angle_alpha   90.00460438
_cell_angle_beta   90.00108500
_cell_angle_gamma   119.54613456
_symmetry_Int_Tables_number   1
_chemical_formula_structural   YHo3Al18Ir5Pt
_chemical_formula_sum   'Y1 Ho3 Al18 Ir5 Pt1'
_cell_volume   470.34136332
_cell_formula_units_Z   1
loop_
 _symmetry_equiv_pos_site_id
 _symmetry_equiv_pos_as_xyz
  1  'x, y, z'
loop_
 _atom_site_type_symbol
 _atom_site_label
 _atom_site_symmetry_multiplicity
 _atom_site_fract_x
 _atom_site_fract_y
 _atom_site_fract_z
 _atom_site_occupancy
  Y  Y0  1  0.994411  0.670381  0.250681  1
  Ho  Ho1  1  0.004646  0.328914  0.749361  1
  Ho  Ho2  1  0.671062  0.995507  0.250624  1
  Ho  Ho3  1  0.329270  0.005313  0.749207  1
  Al  Al4  1  0.128113  0.127744  0.250273  1
  Al  Al5  1  0.872736  0.871988  0.749721  1
  Al  Al6  1  0.003969  0.334777  0.076268  1
  Al  Al7  1  0.002280  0.668406  0.923122  1
  Al  Al8  1  0.000165  0.664985  0.575194  1
  Al  Al9  1  0.335512  0.000252  0.425560  1
  Al  Al10  1  0.000430  0.334076  0.425012  1
  Al  Al11  1  0.665451  0.999547  0.575177  1
  Al  Al12  1  0.664792  0.996008  0.923544  1
  Al  Al13  1  0.332038  0.998115  0.076192  1
  Al  Al14  1  0.332807  0.332637  0.552012  1
  Al  Al15  1  0.667024  0.667129  0.448264  1
  Al  Al16  1  0.665999  0.669364  0.055161  1
  Al  Al17  1  0.330601  0.333683  0.944534  1
  Al  Al18  1  0.340802  0.549390  0.250362  1
  Al  Al19  1  0.659826  0.453054  0.747551  1
  Al  Al20  1  0.546277  0.339618  0.252475  1
  Al  Al21  1  0.450518  0.659542  0.749649  1
  Ir  Ir22  1  0.327976  0.671883  0.999912  1
  Ir  Ir23  1  0.328326  0.671514  0.500091  1
  Ir  Ir24  1  0.672181  0.327891  0.500113  1
  Ir  Ir25  1  0.999975  0.000440  0.999847  1
  Ir  Ir26  1  0.000476  0.999985  0.500143  1
  Pt  Pt27  1  0.672337  0.327856  0.999948  1
