# generated using pymatgen
data_CeSmU(SnRh)3
_symmetry_space_group_name_H-M   'P 1'
_cell_length_a   7.44752216
_cell_length_b   7.61150662
_cell_length_c   4.03343600
_cell_angle_alpha   90.00000000
_cell_angle_beta   90.00000000
_cell_angle_gamma   120.48494956
_symmetry_Int_Tables_number   1
_chemical_formula_structural   CeSmU(SnRh)3
_chemical_formula_sum   'Ce1 Sm1 U1 Sn3 Rh3'
_cell_volume   197.03581329
_cell_formula_units_Z   1
loop_
 _symmetry_equiv_pos_site_id
 _symmetry_equiv_pos_as_xyz
  1  'x, y, z'
loop_
 _atom_site_type_symbol
 _atom_site_label
 _atom_site_symmetry_multiplicity
 _atom_site_fract_x
 _atom_site_fract_y
 _atom_site_fract_z
 _atom_site_occupancy
  Ce  Ce0  1  0.411278  0.411763  0.500000  1
  Sm  Sm1  1  0.590828  0.000672  0.500000  1
  U  U2  1  0.000027  0.584953  0.500000  1
  Sn  Sn3  1  0.737324  0.747326  0.000000  1
  Sn  Sn4  1  0.264337  0.008568  0.000000  1
  Sn  Sn5  1  0.998468  0.242097  0.000000  1
  Rh  Rh6  1  0.696855  0.364833  0.000000  1
  Rh  Rh7  1  0.299134  0.657729  0.000000  1
  Rh  Rh8  1  0.001748  0.982058  0.500000  1
