# generated using pymatgen
data_PrDyYTaO7
_symmetry_space_group_name_H-M   'P 1'
_cell_length_a   6.52538173
_cell_length_b   6.52538237
_cell_length_c   7.63543400
_cell_angle_alpha   90.00000000
_cell_angle_beta   90.00000000
_cell_angle_gamma   109.35920184
_symmetry_Int_Tables_number   1
_chemical_formula_structural   PrDyYTaO7
_chemical_formula_sum   'Pr2 Dy2 Y2 Ta2 O14'
_cell_volume   306.73873260
_cell_formula_units_Z   2
loop_
 _symmetry_equiv_pos_site_id
 _symmetry_equiv_pos_as_xyz
  1  'x, y, z'
loop_
 _atom_site_type_symbol
 _atom_site_label
 _atom_site_symmetry_multiplicity
 _atom_site_fract_x
 _atom_site_fract_y
 _atom_site_fract_z
 _atom_site_occupancy
  Pr  Pr0  1  0.499976  0.499976  0.500000  1
  Pr  Pr1  1  0.499976  0.499976  0.000000  1
  Dy  Dy2  1  0.533102  0.000813  0.750000  1
  Dy  Dy3  1  0.000813  0.533102  0.250000  1
  Y  Y4  1  0.467169  0.999479  0.250000  1
  Y  Y5  1  0.999479  0.467169  0.750000  1
  Ta  Ta6  1  0.999975  0.999975  0.500000  1
  Ta  Ta7  1  0.999975  0.999975  0.000000  1
  O  O8  1  0.680935  0.931624  0.468614  1
  O  O9  1  0.931624  0.680935  0.531386  1
  O  O10  1  0.680935  0.931624  0.031386  1
  O  O11  1  0.931624  0.680935  0.968614  1
  O  O12  1  0.319240  0.068301  0.532204  1
  O  O13  1  0.068301  0.319240  0.467796  1
  O  O14  1  0.319240  0.068301  0.967796  1
  O  O15  1  0.068301  0.319240  0.032204  1
  O  O16  1  0.937360  0.062275  0.750000  1
  O  O17  1  0.062275  0.937360  0.250000  1
  O  O18  1  0.363257  0.636988  0.750000  1
  O  O19  1  0.636988  0.363257  0.250000  1
  O  O20  1  0.643375  0.356081  0.750000  1
  O  O21  1  0.356081  0.643375  0.250000  1
