# generated using pymatgen
data_Ho5(TmZn)4
_symmetry_space_group_name_H-M   'P 1'
_cell_length_a   8.47957994
_cell_length_b   8.47958099
_cell_length_c   8.48026290
_cell_angle_alpha   94.98394447
_cell_angle_beta   95.02652754
_cell_angle_gamma   145.63844818
_symmetry_Int_Tables_number   1
_chemical_formula_structural   Ho5(TmZn)4
_chemical_formula_sum   'Ho5 Tm4 Zn4'
_cell_volume   328.80129444
_cell_formula_units_Z   1
loop_
 _symmetry_equiv_pos_site_id
 _symmetry_equiv_pos_as_xyz
  1  'x, y, z'
loop_
 _atom_site_type_symbol
 _atom_site_label
 _atom_site_symmetry_multiplicity
 _atom_site_fract_x
 _atom_site_fract_y
 _atom_site_fract_z
 _atom_site_occupancy
  Ho  Ho0  1  0.598040  0.882000  0.480043  1
  Ho  Ho1  1  0.399808  0.116546  0.516352  1
  Ho  Ho2  1  0.117111  0.599215  0.716326  1
  Ho  Ho3  1  0.888946  0.818558  0.707507  1
  Ho  Ho4  1  0.818823  0.111725  0.930549  1
  Tm  Tm5  1  0.501443  0.500094  0.001539  1
  Tm  Tm6  1  0.182271  0.889964  0.072236  1
  Tm  Tm7  1  0.110841  0.181846  0.292687  1
  Tm  Tm8  1  0.883020  0.400216  0.283238  1
  Zn  Zn9  1  0.392668  0.736184  0.128854  1
  Zn  Zn10  1  0.735173  0.605499  0.340676  1
  Zn  Zn11  1  0.264597  0.392637  0.657233  1
  Zn  Zn12  1  0.607251  0.265510  0.872761  1
