# generated using pymatgen
data_TlTcCl6
_symmetry_space_group_name_H-M   'P 1'
_cell_length_a   6.90918064
_cell_length_b   6.90917835
_cell_length_c   6.80290575
_cell_angle_alpha   80.50254546
_cell_angle_beta   80.50255900
_cell_angle_gamma   119.97120633
_symmetry_Int_Tables_number   1
_chemical_formula_structural   TlTcCl6
_chemical_formula_sum   'Tl1 Tc1 Cl6'
_cell_volume   265.57616406
_cell_formula_units_Z   1
loop_
 _symmetry_equiv_pos_site_id
 _symmetry_equiv_pos_as_xyz
  1  'x, y, z'
loop_
 _atom_site_type_symbol
 _atom_site_label
 _atom_site_symmetry_multiplicity
 _atom_site_fract_x
 _atom_site_fract_y
 _atom_site_fract_z
 _atom_site_occupancy
  Tl  Tl0  1  0.166749  0.833251  0.000000  1
  Tc  Tc1  1  0.833479  0.166521  0.000000  1
  Cl  Cl2  1  0.486856  0.101634  0.210269  1
  Cl  Cl3  1  0.898366  0.513144  0.789731  1
  Cl  Cl4  1  0.182173  0.237152  0.789627  1
  Cl  Cl5  1  0.762848  0.817827  0.210373  1
  Cl  Cl6  1  0.046868  0.377338  0.209364  1
  Cl  Cl7  1  0.622662  0.953132  0.790636  1
