# generated using pymatgen
data_Hf3Zr11Nb2(Ir2N)4
_symmetry_space_group_name_H-M   'P 1'
_cell_length_a   8.76961615
_cell_length_b   8.76961578
_cell_length_c   8.81495900
_cell_angle_alpha   59.82880986
_cell_angle_beta   59.82881126
_cell_angle_gamma   59.49982705
_symmetry_Int_Tables_number   1
_chemical_formula_structural   Hf3Zr11Nb2(Ir2N)4
_chemical_formula_sum   'Hf3 Zr11 Nb2 Ir8 N4'
_cell_volume   476.29686108
_cell_formula_units_Z   1
loop_
 _symmetry_equiv_pos_site_id
 _symmetry_equiv_pos_as_xyz
  1  'x, y, z'
loop_
 _atom_site_type_symbol
 _atom_site_label
 _atom_site_symmetry_multiplicity
 _atom_site_fract_x
 _atom_site_fract_y
 _atom_site_fract_z
 _atom_site_occupancy
  Hf  Hf0  1  0.124674  0.625189  0.625069  1
  Hf  Hf1  1  0.625189  0.124674  0.625069  1
  Hf  Hf2  1  0.814041  0.814041  0.185959  1
  Zr  Zr3  1  0.183968  0.183968  0.816032  1
  Zr  Zr4  1  0.814433  0.185824  0.814468  1
  Zr  Zr5  1  0.185824  0.814433  0.185274  1
  Zr  Zr6  1  0.185824  0.814433  0.814468  1
  Zr  Zr7  1  0.814433  0.185824  0.185274  1
  Zr  Zr8  1  0.436840  0.436840  0.063160  1
  Zr  Zr9  1  0.066147  0.066147  0.433853  1
  Zr  Zr10  1  0.435982  0.063269  0.435793  1
  Zr  Zr11  1  0.063269  0.435982  0.064957  1
  Zr  Zr12  1  0.063269  0.435982  0.435793  1
  Zr  Zr13  1  0.435982  0.063269  0.064957  1
  Nb  Nb14  1  0.625481  0.625481  0.124938  1
  Nb  Nb15  1  0.625481  0.625481  0.624100  1
  Ir  Ir16  1  0.757949  0.418756  0.411647  1
  Ir  Ir17  1  0.418756  0.757949  0.411647  1
  Ir  Ir18  1  0.414105  0.414105  0.767008  1
  Ir  Ir19  1  0.414105  0.414105  0.404782  1
  Ir  Ir20  1  0.492413  0.831312  0.838137  1
  Ir  Ir21  1  0.831312  0.492413  0.838137  1
  Ir  Ir22  1  0.835826  0.835826  0.480271  1
  Ir  Ir23  1  0.835826  0.835826  0.848077  1
  N  N24  1  0.627499  0.121113  0.125694  1
  N  N25  1  0.121113  0.627499  0.125694  1
  N  N26  1  0.125130  0.125130  0.624807  1
  N  N27  1  0.125130  0.125130  0.124934  1
