# generated using pymatgen
data_Nd2Tc3B4C
_symmetry_space_group_name_H-M   'P 1'
_cell_length_a   5.66835086
_cell_length_b   5.66835111
_cell_length_c   8.00666800
_cell_angle_alpha   57.84593988
_cell_angle_beta   57.84593828
_cell_angle_gamma   42.36508747
_symmetry_Int_Tables_number   1
_chemical_formula_structural   Nd2Tc3B4C
_chemical_formula_sum   'Nd2 Tc3 B4 C1'
_cell_volume   142.34242489
_cell_formula_units_Z   1
loop_
 _symmetry_equiv_pos_site_id
 _symmetry_equiv_pos_as_xyz
  1  'x, y, z'
loop_
 _atom_site_type_symbol
 _atom_site_label
 _atom_site_symmetry_multiplicity
 _atom_site_fract_x
 _atom_site_fract_y
 _atom_site_fract_z
 _atom_site_occupancy
  Nd  Nd0  1  0.401655  0.921673  0.744995  1
  Nd  Nd1  1  0.078327  0.598345  0.255005  1
  Tc  Tc2  1  0.001074  0.998926  0.500000  1
  Tc  Tc3  1  0.613671  0.124988  0.905623  1
  Tc  Tc4  1  0.875012  0.386329  0.094377  1
  B  B5  1  0.528078  0.526986  0.379348  1
  B  B6  1  0.473014  0.471922  0.620652  1
  B  B7  1  0.090321  0.628129  0.811485  1
  B  B8  1  0.371871  0.909679  0.188515  1
  C  C9  1  0.733252  0.266748  0.000000  1
