# generated using pymatgen
data_Li2Dy5GaMoP11Ir16
_symmetry_space_group_name_H-M   'P 1'
_cell_length_a   12.79418900
_cell_length_b   12.68577028
_cell_length_c   3.97940100
_cell_angle_alpha   90.00000000
_cell_angle_beta   90.00000000
_cell_angle_gamma   120.28311777
_symmetry_Int_Tables_number   1
_chemical_formula_structural   Li2Dy5GaMoP11Ir16
_chemical_formula_sum   'Li2 Dy5 Ga1 Mo1 P11 Ir16'
_cell_volume   557.74009617
_cell_formula_units_Z   1
loop_
 _symmetry_equiv_pos_site_id
 _symmetry_equiv_pos_as_xyz
  1  'x, y, z'
loop_
 _atom_site_type_symbol
 _atom_site_label
 _atom_site_symmetry_multiplicity
 _atom_site_fract_x
 _atom_site_fract_y
 _atom_site_fract_z
 _atom_site_occupancy
  Li  Li0  1  0.001033  0.438345  0.500000  1
  Li  Li1  1  0.555184  0.556425  0.500000  1
  Dy  Dy2  1  0.334033  0.669094  0.500000  1
  Dy  Dy3  1  0.665433  0.329956  0.500000  1
  Dy  Dy4  1  0.004583  0.815700  0.000000  1
  Dy  Dy5  1  0.190516  0.187483  0.000000  1
  Dy  Dy6  1  0.810708  0.999448  0.000000  1
  Ga  Ga7  1  0.999497  0.629489  0.500000  1
  Mo  Mo8  1  0.452821  0.006805  0.500000  1
  P  P9  1  0.365441  0.368514  0.500000  1
  P  P10  1  0.633134  0.999741  0.500000  1
  P  P11  1  0.514063  0.686060  0.000000  1
  P  P12  1  0.314468  0.833524  0.000000  1
  P  P13  1  0.172289  0.482583  0.000000  1
  P  P14  1  0.484635  0.167247  0.000000  1
  P  P15  1  0.688919  0.516200  0.000000  1
  P  P16  1  0.830671  0.313463  0.000000  1
  P  P17  1  0.998740  0.178867  0.500000  1
  P  P18  1  0.816017  0.818917  0.500000  1
  P  P19  1  0.176580  0.000765  0.500000  1
  Ir  Ir20  1  0.508286  0.870771  0.000000  1
  Ir  Ir21  1  0.139113  0.642334  0.000000  1
  Ir  Ir22  1  0.358713  0.483776  0.000000  1
  Ir  Ir23  1  0.494782  0.355672  0.000000  1
  Ir  Ir24  1  0.867062  0.508462  0.000000  1
  Ir  Ir25  1  0.642046  0.130779  0.000000  1
  Ir  Ir26  1  0.998906  0.277640  0.000000  1
  Ir  Ir27  1  0.717542  0.722728  0.000000  1
  Ir  Ir28  1  0.286937  0.005149  0.000000  1
  Ir  Ir29  1  0.622004  0.805783  0.500000  1
  Ir  Ir30  1  0.202806  0.828824  0.500000  1
  Ir  Ir31  1  0.177913  0.374734  0.500000  1
  Ir  Ir32  1  0.368278  0.182572  0.500000  1
  Ir  Ir33  1  0.792194  0.620932  0.500000  1
  Ir  Ir34  1  0.819509  0.193186  0.500000  1
  Ir  Ir35  1  0.995147  0.998030  0.500000  1
