# generated using pymatgen
data_CeTm(Al3Rh)3
_symmetry_space_group_name_H-M   'P 1'
_cell_length_a   7.59567500
_cell_length_b   7.58937272
_cell_length_c   9.46033800
_cell_angle_alpha   90.00000000
_cell_angle_beta   90.00000000
_cell_angle_gamma   119.41960703
_symmetry_Int_Tables_number   1
_chemical_formula_structural   CeTm(Al3Rh)3
_chemical_formula_sum   'Ce2 Tm2 Al18 Rh6'
_cell_volume   475.02873890
_cell_formula_units_Z   2
loop_
 _symmetry_equiv_pos_site_id
 _symmetry_equiv_pos_as_xyz
  1  'x, y, z'
loop_
 _atom_site_type_symbol
 _atom_site_label
 _atom_site_symmetry_multiplicity
 _atom_site_fract_x
 _atom_site_fract_y
 _atom_site_fract_z
 _atom_site_occupancy
  Ce  Ce0  1  0.671862  0.995916  0.250000  1
  Ce  Ce1  1  0.328138  0.004084  0.750000  1
  Tm  Tm2  1  0.995045  0.672498  0.250000  1
  Tm  Tm3  1  0.004955  0.327502  0.750000  1
  Al  Al4  1  0.002055  0.338158  0.075222  1
  Al  Al5  1  0.997945  0.661842  0.924778  1
  Al  Al6  1  0.997945  0.661842  0.575222  1
  Al  Al7  1  0.333624  0.000580  0.422369  1
  Al  Al8  1  0.002055  0.338158  0.424778  1
  Al  Al9  1  0.666376  0.999420  0.577631  1
  Al  Al10  1  0.666376  0.999420  0.922369  1
  Al  Al11  1  0.333624  0.000580  0.077631  1
  Al  Al12  1  0.332535  0.334103  0.549812  1
  Al  Al13  1  0.667465  0.665897  0.450188  1
  Al  Al14  1  0.667465  0.665897  0.049812  1
  Al  Al15  1  0.332535  0.334103  0.950188  1
  Al  Al16  1  0.128578  0.129219  0.250000  1
  Al  Al17  1  0.871422  0.870781  0.750000  1
  Al  Al18  1  0.339308  0.549316  0.250000  1
  Al  Al19  1  0.660692  0.450684  0.750000  1
  Al  Al20  1  0.551142  0.343325  0.250000  1
  Al  Al21  1  0.448858  0.656675  0.750000  1
  Rh  Rh22  1  0.672087  0.327963  0.000198  1
  Rh  Rh23  1  0.327913  0.672037  0.999802  1
  Rh  Rh24  1  0.327913  0.672037  0.500198  1
  Rh  Rh25  1  0.672087  0.327963  0.499802  1
  Rh  Rh26  1  0.000000  0.000000  0.000000  1
  Rh  Rh27  1  0.000000  0.000000  0.500000  1
