# generated using pymatgen
data_Ce2ReMoH18
_symmetry_space_group_name_H-M   'P 1'
_cell_length_a   4.86197200
_cell_length_b   4.86197177
_cell_length_c   8.87684600
_cell_angle_alpha   90.00000000
_cell_angle_beta   90.00000000
_cell_angle_gamma   120.00000156
_symmetry_Int_Tables_number   1
_chemical_formula_structural   Ce2ReMoH18
_chemical_formula_sum   'Ce2 Re1 Mo1 H18'
_cell_volume   181.72479886
_cell_formula_units_Z   1
loop_
 _symmetry_equiv_pos_site_id
 _symmetry_equiv_pos_as_xyz
  1  'x, y, z'
loop_
 _atom_site_type_symbol
 _atom_site_label
 _atom_site_symmetry_multiplicity
 _atom_site_fract_x
 _atom_site_fract_y
 _atom_site_fract_z
 _atom_site_occupancy
  Ce  Ce0  1  0.000000  0.000000  0.011040  1
  Ce  Ce1  1  0.000000  0.000000  0.488960  1
  Re  Re2  1  0.666667  0.333333  0.750000  1
  Mo  Mo3  1  0.333333  0.666667  0.250000  1
  H  H4  1  0.481533  0.518467  0.392514  1
  H  H5  1  0.481533  0.963067  0.392514  1
  H  H6  1  0.036933  0.518467  0.392514  1
  H  H7  1  0.955808  0.477904  0.886614  1
  H  H8  1  0.128179  0.256359  0.250000  1
  H  H9  1  0.867404  0.132596  0.750000  1
  H  H10  1  0.265193  0.132596  0.750000  1
  H  H11  1  0.743641  0.871821  0.250000  1
  H  H12  1  0.128179  0.871821  0.250000  1
  H  H13  1  0.867404  0.734807  0.750000  1
  H  H14  1  0.481533  0.963067  0.107486  1
  H  H15  1  0.522096  0.477904  0.613386  1
  H  H16  1  0.955808  0.477904  0.613386  1
  H  H17  1  0.036933  0.518467  0.107486  1
  H  H18  1  0.481533  0.518467  0.107486  1
  H  H19  1  0.522096  0.044192  0.886614  1
  H  H20  1  0.522096  0.477904  0.886614  1
  H  H21  1  0.522096  0.044192  0.613386  1
