# generated using pymatgen
data_HoRuF7
_symmetry_space_group_name_H-M   'P 1'
_cell_length_a   5.54301300
_cell_length_b   8.82624807
_cell_length_c   11.92323785
_cell_angle_alpha   63.81041429
_cell_angle_beta   90.00000000
_cell_angle_gamma   90.00000000
_symmetry_Int_Tables_number   1
_chemical_formula_structural   HoRuF7
_chemical_formula_sum   'Ho4 Ru4 F28'
_cell_volume   523.44684469
_cell_formula_units_Z   4
loop_
 _symmetry_equiv_pos_site_id
 _symmetry_equiv_pos_as_xyz
  1  'x, y, z'
loop_
 _atom_site_type_symbol
 _atom_site_label
 _atom_site_symmetry_multiplicity
 _atom_site_fract_x
 _atom_site_fract_y
 _atom_site_fract_z
 _atom_site_occupancy
  Ho  Ho0  1  0.758924  0.810936  0.768555  1
  Ho  Ho1  1  0.258924  0.189064  0.731445  1
  Ho  Ho2  1  0.241076  0.189064  0.231445  1
  Ho  Ho3  1  0.741076  0.810936  0.268555  1
  Ru  Ru4  1  0.756731  0.271499  0.956402  1
  Ru  Ru5  1  0.256731  0.728501  0.543598  1
  Ru  Ru6  1  0.243269  0.728501  0.043598  1
  Ru  Ru7  1  0.743269  0.271499  0.456402  1
  F  F8  1  0.444943  0.705642  0.916343  1
  F  F9  1  0.944943  0.294358  0.583657  1
  F  F10  1  0.555057  0.294358  0.083657  1
  F  F11  1  0.055057  0.705642  0.416343  1
  F  F12  1  0.447149  0.276205  0.547453  1
  F  F13  1  0.947149  0.723795  0.952547  1
  F  F14  1  0.552851  0.723795  0.452547  1
  F  F15  1  0.052851  0.276205  0.047453  1
  F  F16  1  0.773213  0.512080  0.862011  1
  F  F17  1  0.273213  0.487920  0.637989  1
  F  F18  1  0.226787  0.487920  0.137989  1
  F  F19  1  0.726787  0.512080  0.362011  1
  F  F20  1  0.754681  0.032530  0.048544  1
  F  F21  1  0.254681  0.967470  0.451456  1
  F  F22  1  0.245319  0.967470  0.951456  1
  F  F23  1  0.745319  0.032530  0.548544  1
  F  F24  1  0.968909  0.729098  0.640222  1
  F  F25  1  0.468909  0.270902  0.859778  1
  F  F26  1  0.031091  0.270902  0.359778  1
  F  F27  1  0.531091  0.729098  0.140222  1
  F  F28  1  0.043292  0.750643  0.173002  1
  F  F29  1  0.543292  0.249357  0.326998  1
  F  F30  1  0.956708  0.249357  0.826998  1
  F  F31  1  0.456708  0.750643  0.673002  1
  F  F32  1  0.421795  0.972422  0.231432  1
  F  F33  1  0.921795  0.027578  0.268568  1
  F  F34  1  0.578205  0.027578  0.768568  1
  F  F35  1  0.078205  0.972422  0.731432  1
