# generated using pymatgen
data_Er8Hf11Si16Hg
_symmetry_space_group_name_H-M   'P 1'
_cell_length_a   7.27999373
_cell_length_b   7.27999444
_cell_length_c   13.23867794
_cell_angle_alpha   90.23852378
_cell_angle_beta   89.76147633
_cell_angle_gamma   89.88419163
_symmetry_Int_Tables_number   1
_chemical_formula_structural   Er8Hf11Si16Hg
_chemical_formula_sum   'Er8 Hf11 Si16 Hg1'
_cell_volume   701.61399126
_cell_formula_units_Z   1
loop_
 _symmetry_equiv_pos_site_id
 _symmetry_equiv_pos_as_xyz
  1  'x, y, z'
loop_
 _atom_site_type_symbol
 _atom_site_label
 _atom_site_symmetry_multiplicity
 _atom_site_fract_x
 _atom_site_fract_y
 _atom_site_fract_z
 _atom_site_occupancy
  Er  Er0  1  0.345507  0.003300  0.464981  1
  Er  Er1  1  0.494803  0.845300  0.715972  1
  Er  Er2  1  0.503540  0.152148  0.211965  1
  Er  Er3  1  0.845300  0.494803  0.284028  1
  Er  Er4  1  0.152148  0.503540  0.788035  1
  Er  Er5  1  0.652660  0.001332  0.967215  1
  Er  Er6  1  0.003300  0.345507  0.535019  1
  Er  Er7  1  0.001332  0.652660  0.032785  1
  Hf  Hf8  1  0.177770  0.822112  0.249901  1
  Hf  Hf9  1  0.822112  0.177770  0.750099  1
  Hf  Hf10  1  0.675550  0.675550  0.500000  1
  Hf  Hf11  1  0.142683  0.008427  0.877177  1
  Hf  Hf12  1  0.498433  0.643375  0.121134  1
  Hf  Hf13  1  0.501500  0.355909  0.624576  1
  Hf  Hf14  1  0.643375  0.498433  0.878866  1
  Hf  Hf15  1  0.355909  0.501500  0.375424  1
  Hf  Hf16  1  0.854207  0.995269  0.373581  1
  Hf  Hf17  1  0.008427  0.142683  0.122823  1
  Hf  Hf18  1  0.995269  0.854207  0.626419  1
  Si  Si19  1  0.203027  0.142368  0.682539  1
  Si  Si20  1  0.367832  0.728174  0.924817  1
  Si  Si21  1  0.641236  0.292575  0.430659  1
  Si  Si22  1  0.728174  0.367832  0.075183  1
  Si  Si23  1  0.292575  0.641236  0.569341  1
  Si  Si24  1  0.796879  0.857375  0.180192  1
  Si  Si25  1  0.142368  0.203027  0.317461  1
  Si  Si26  1  0.857375  0.796879  0.819808  1
  Si  Si27  1  0.290196  0.930439  0.064647  1
  Si  Si28  1  0.550046  0.794740  0.313333  1
  Si  Si29  1  0.450279  0.202042  0.807751  1
  Si  Si30  1  0.794740  0.550046  0.686667  1
  Si  Si31  1  0.202042  0.450279  0.192249  1
  Si  Si32  1  0.703507  0.050093  0.563721  1
  Si  Si33  1  0.930439  0.290196  0.935353  1
  Si  Si34  1  0.050093  0.703507  0.436279  1
  Hg  Hg35  1  0.325369  0.325369  0.000000  1
