# generated using pymatgen
data_DyHoFe9Ni3P7
_symmetry_space_group_name_H-M   'P 1'
_cell_length_a   9.05599939
_cell_length_b   9.00803231
_cell_length_c   3.63690600
_cell_angle_alpha   90.00000000
_cell_angle_beta   90.00000000
_cell_angle_gamma   120.12497002
_symmetry_Int_Tables_number   1
_chemical_formula_structural   DyHoFe9Ni3P7
_chemical_formula_sum   'Dy1 Ho1 Fe9 Ni3 P7'
_cell_volume   256.61423910
_cell_formula_units_Z   1
loop_
 _symmetry_equiv_pos_site_id
 _symmetry_equiv_pos_as_xyz
  1  'x, y, z'
loop_
 _atom_site_type_symbol
 _atom_site_label
 _atom_site_symmetry_multiplicity
 _atom_site_fract_x
 _atom_site_fract_y
 _atom_site_fract_z
 _atom_site_occupancy
  Dy  Dy0  1  0.998051  0.002317  0.500000  1
  Ho  Ho1  1  0.334634  0.665733  0.000000  1
  Fe  Fe2  1  0.034467  0.272780  0.000000  1
  Fe  Fe3  1  0.942354  0.489342  0.000000  1
  Fe  Fe4  1  0.511715  0.449405  0.000000  1
  Fe  Fe5  1  0.546580  0.059823  0.000000  1
  Fe  Fe6  1  0.281617  0.381111  0.500000  1
  Fe  Fe7  1  0.617605  0.897442  0.500000  1
  Fe  Fe8  1  0.765091  0.557477  0.500000  1
  Fe  Fe9  1  0.451327  0.214589  0.500000  1
  Fe  Fe10  1  0.789080  0.235610  0.500000  1
  Ni  Ni11  1  0.726633  0.764754  0.000000  1
  Ni  Ni12  1  0.233125  0.961787  0.000000  1
  Ni  Ni13  1  0.104208  0.718828  0.500000  1
  P  P14  1  0.960105  0.739063  0.000000  1
  P  P15  1  0.255624  0.225794  0.000000  1
  P  P16  1  0.775997  0.039700  0.000000  1
  P  P17  1  0.066594  0.438539  0.500000  1
  P  P18  1  0.547455  0.616644  0.500000  1
  P  P19  1  0.388427  0.934811  0.500000  1
  P  P20  1  0.669312  0.334447  0.000000  1
