# generated using pymatgen
data_Pa2SiNi2Ge
_symmetry_space_group_name_H-M   'P 1'
_cell_length_a   4.18961200
_cell_length_b   6.96430400
_cell_length_c   7.22248300
_cell_angle_alpha   90.00000000
_cell_angle_beta   90.00000000
_cell_angle_gamma   90.00000000
_symmetry_Int_Tables_number   1
_chemical_formula_structural   Pa2SiNi2Ge
_chemical_formula_sum   'Pa4 Si2 Ni4 Ge2'
_cell_volume   210.73567053
_cell_formula_units_Z   2
loop_
 _symmetry_equiv_pos_site_id
 _symmetry_equiv_pos_as_xyz
  1  'x, y, z'
loop_
 _atom_site_type_symbol
 _atom_site_label
 _atom_site_symmetry_multiplicity
 _atom_site_fract_x
 _atom_site_fract_y
 _atom_site_fract_z
 _atom_site_occupancy
  Pa  Pa0  1  0.500000  0.507031  0.040561  1
  Pa  Pa1  1  0.500000  0.007031  0.959439  1
  Pa  Pa2  1  0.000000  0.489781  0.459146  1
  Pa  Pa3  1  0.000000  0.989781  0.540854  1
  Si  Si4  1  0.500000  0.705016  0.661966  1
  Si  Si5  1  0.500000  0.205016  0.338034  1
  Ni  Ni6  1  0.500000  0.312027  0.658659  1
  Ni  Ni7  1  0.500000  0.812027  0.341341  1
  Ni  Ni8  1  0.000000  0.694762  0.824165  1
  Ni  Ni9  1  0.000000  0.194762  0.175835  1
  Ge  Ge10  1  0.000000  0.291384  0.839562  1
  Ge  Ge11  1  0.000000  0.791383  0.160438  1
