# generated using pymatgen
data_AcU(GeIr)2
_symmetry_space_group_name_H-M   'P 1'
_cell_length_a   4.33845700
_cell_length_b   7.79365327
_cell_length_c   7.65630236
_cell_angle_alpha   90.25175672
_cell_angle_beta   90.00000000
_cell_angle_gamma   90.00000000
_symmetry_Int_Tables_number   1
_chemical_formula_structural   AcU(GeIr)2
_chemical_formula_sum   'Ac2 U2 Ge4 Ir4'
_cell_volume   258.87568550
_cell_formula_units_Z   2
loop_
 _symmetry_equiv_pos_site_id
 _symmetry_equiv_pos_as_xyz
  1  'x, y, z'
loop_
 _atom_site_type_symbol
 _atom_site_label
 _atom_site_symmetry_multiplicity
 _atom_site_fract_x
 _atom_site_fract_y
 _atom_site_fract_z
 _atom_site_occupancy
  Ac  Ac0  1  0.250000  0.485702  0.229576  1
  Ac  Ac1  1  0.750000  0.514298  0.770424  1
  U  U2  1  0.250000  0.992101  0.288090  1
  U  U3  1  0.750000  0.007899  0.711910  1
  Ge  Ge4  1  0.250000  0.822580  0.921579  1
  Ge  Ge5  1  0.750000  0.177420  0.078421  1
  Ge  Ge6  1  0.250000  0.272411  0.586136  1
  Ge  Ge7  1  0.750000  0.727589  0.413864  1
  Ir  Ir8  1  0.750000  0.821793  0.096540  1
  Ir  Ir9  1  0.250000  0.178207  0.903460  1
  Ir  Ir10  1  0.750000  0.211474  0.417221  1
  Ir  Ir11  1  0.250000  0.788526  0.582779  1
