# generated using pymatgen
data_YbCu3NiAg
_symmetry_space_group_name_H-M   'P 1'
_cell_length_a   4.95849916
_cell_length_b   4.95849904
_cell_length_c   4.98121183
_cell_angle_alpha   60.15071245
_cell_angle_beta   60.15070984
_cell_angle_gamma   59.99998776
_symmetry_Int_Tables_number   1
_chemical_formula_structural   YbCu3NiAg
_chemical_formula_sum   'Yb1 Cu3 Ni1 Ag1'
_cell_volume   86.79726201
_cell_formula_units_Z   1
loop_
 _symmetry_equiv_pos_site_id
 _symmetry_equiv_pos_as_xyz
  1  'x, y, z'
loop_
 _atom_site_type_symbol
 _atom_site_label
 _atom_site_symmetry_multiplicity
 _atom_site_fract_x
 _atom_site_fract_y
 _atom_site_fract_z
 _atom_site_occupancy
  Yb  Yb0  1  0.999080  0.999080  0.002761  1
  Cu  Cu1  1  0.624810  0.125890  0.624490  1
  Cu  Cu2  1  0.125890  0.624810  0.624490  1
  Cu  Cu3  1  0.624810  0.624810  0.624490  1
  Ni  Ni4  1  0.625175  0.625175  0.124474  1
  Ag  Ag5  1  0.250235  0.250235  0.249295  1
