# generated using pymatgen
data_La12TcOs3
_symmetry_space_group_name_H-M   'P 1'
_cell_length_a   7.48332555
_cell_length_b   10.09121600
_cell_length_c   6.58162649
_cell_angle_alpha   90.00000000
_cell_angle_beta   89.95603220
_cell_angle_gamma   90.00000000
_symmetry_Int_Tables_number   1
_chemical_formula_structural   La12TcOs3
_chemical_formula_sum   'La12 Tc1 Os3'
_cell_volume   497.01700185
_cell_formula_units_Z   1
loop_
 _symmetry_equiv_pos_site_id
 _symmetry_equiv_pos_as_xyz
  1  'x, y, z'
loop_
 _atom_site_type_symbol
 _atom_site_label
 _atom_site_symmetry_multiplicity
 _atom_site_fract_x
 _atom_site_fract_y
 _atom_site_fract_z
 _atom_site_occupancy
  La  La0  1  0.047664  0.750000  0.152403  1
  La  La1  1  0.330182  0.070974  0.174106  1
  La  La2  1  0.330182  0.429027  0.174106  1
  La  La3  1  0.830089  0.069699  0.327075  1
  La  La4  1  0.830089  0.430302  0.327075  1
  La  La5  1  0.546892  0.750000  0.348407  1
  La  La6  1  0.452888  0.250000  0.650077  1
  La  La7  1  0.170903  0.569933  0.673180  1
  La  La8  1  0.170903  0.930068  0.673180  1
  La  La9  1  0.671905  0.570007  0.827925  1
  La  La10  1  0.671905  0.929994  0.827925  1
  La  La11  1  0.950072  0.250000  0.850589  1
  Tc  Tc12  1  0.611570  0.250000  0.046731  1
  Os  Os13  1  0.115661  0.250000  0.448749  1
  Os  Os14  1  0.885058  0.750000  0.554128  1
  Os  Os15  1  0.384037  0.750000  0.944337  1
