# generated using pymatgen
data_TbLu3(TiAl3)2
_symmetry_space_group_name_H-M   'P 1'
_cell_length_a   9.53663438
_cell_length_b   9.53663414
_cell_length_c   9.53663381
_cell_angle_alpha   34.25821500
_cell_angle_beta   34.25821402
_cell_angle_gamma   34.25822066
_symmetry_Int_Tables_number   1
_chemical_formula_structural   TbLu3(TiAl3)2
_chemical_formula_sum   'Tb1 Lu3 Ti2 Al6'
_cell_volume   245.09380668
_cell_formula_units_Z   1
loop_
 _symmetry_equiv_pos_site_id
 _symmetry_equiv_pos_as_xyz
  1  'x, y, z'
loop_
 _atom_site_type_symbol
 _atom_site_label
 _atom_site_symmetry_multiplicity
 _atom_site_fract_x
 _atom_site_fract_y
 _atom_site_fract_z
 _atom_site_occupancy
  Tb  Tb0  1  0.813462  0.813462  0.813462  1
  Lu  Lu1  1  0.314136  0.314136  0.314136  1
  Lu  Lu2  1  0.685572  0.685572  0.685572  1
  Lu  Lu3  1  0.186092  0.186092  0.186092  1
  Ti  Ti4  1  0.499990  0.499990  0.499990  1
  Ti  Ti5  1  0.000205  0.000205  0.000205  1
  Al  Al6  1  0.249999  0.249999  0.749447  1
  Al  Al7  1  0.750163  0.750163  0.250773  1
  Al  Al8  1  0.249999  0.749447  0.249999  1
  Al  Al9  1  0.750163  0.250773  0.750163  1
  Al  Al10  1  0.749447  0.249999  0.249999  1
  Al  Al11  1  0.250773  0.750163  0.750163  1
