# generated using pymatgen
data_Ca2Yb(EuPd)2
_symmetry_space_group_name_H-M   'P 1'
_cell_length_a   8.96422222
_cell_length_b   8.96422224
_cell_length_c   7.75772478
_cell_angle_alpha   83.18601812
_cell_angle_beta   83.18601652
_cell_angle_gamma   43.98359215
_symmetry_Int_Tables_number   1
_chemical_formula_structural   Ca2Yb(EuPd)2
_chemical_formula_sum   'Ca4 Yb2 Eu4 Pd4'
_cell_volume   429.35574804
_cell_formula_units_Z   2
loop_
 _symmetry_equiv_pos_site_id
 _symmetry_equiv_pos_as_xyz
  1  'x, y, z'
loop_
 _atom_site_type_symbol
 _atom_site_label
 _atom_site_symmetry_multiplicity
 _atom_site_fract_x
 _atom_site_fract_y
 _atom_site_fract_z
 _atom_site_occupancy
  Ca  Ca0  1  0.364800  0.201296  0.818538  1
  Ca  Ca1  1  0.798704  0.635200  0.681462  1
  Ca  Ca2  1  0.635200  0.798704  0.181462  1
  Ca  Ca3  1  0.201296  0.364800  0.318538  1
  Yb  Yb4  1  0.578623  0.421377  0.750000  1
  Yb  Yb5  1  0.421377  0.578623  0.250000  1
  Eu  Eu6  1  0.023106  0.795263  0.921714  1
  Eu  Eu7  1  0.204737  0.976894  0.578286  1
  Eu  Eu8  1  0.976894  0.204737  0.078286  1
  Eu  Eu9  1  0.795263  0.023106  0.421714  1
  Pd  Pd10  1  0.195549  0.591291  0.577561  1
  Pd  Pd11  1  0.408709  0.804451  0.922439  1
  Pd  Pd12  1  0.804451  0.408709  0.422439  1
  Pd  Pd13  1  0.591291  0.195550  0.077561  1
