# generated using pymatgen
data_Nd3ZnHg2IrPd2
_symmetry_space_group_name_H-M   'P 1'
_cell_length_a   7.67739382
_cell_length_b   7.62402806
_cell_length_c   3.99801800
_cell_angle_alpha   90.00000000
_cell_angle_beta   90.00000000
_cell_angle_gamma   119.60791711
_symmetry_Int_Tables_number   1
_chemical_formula_structural   Nd3ZnHg2IrPd2
_chemical_formula_sum   'Nd3 Zn1 Hg2 Ir1 Pd2'
_cell_volume   203.45857942
_cell_formula_units_Z   1
loop_
 _symmetry_equiv_pos_site_id
 _symmetry_equiv_pos_as_xyz
  1  'x, y, z'
loop_
 _atom_site_type_symbol
 _atom_site_label
 _atom_site_symmetry_multiplicity
 _atom_site_fract_x
 _atom_site_fract_y
 _atom_site_fract_z
 _atom_site_occupancy
  Nd  Nd0  1  0.412074  0.399259  0.000000  1
  Nd  Nd1  1  0.603023  0.014176  0.000000  1
  Nd  Nd2  1  0.987425  0.579868  0.000000  1
  Zn  Zn3  1  0.997045  0.256048  0.500000  1
  Hg  Hg4  1  0.743249  0.746606  0.500000  1
  Hg  Hg5  1  0.252728  0.994223  0.500000  1
  Ir  Ir6  1  0.679585  0.330287  0.500000  1
  Pd  Pd7  1  0.002567  0.028625  0.000000  1
  Pd  Pd8  1  0.322306  0.650906  0.500000  1
