# generated using pymatgen
data_LiRh(CO3)2
_symmetry_space_group_name_H-M   'P 1'
_cell_length_a   4.68047389
_cell_length_b   5.72649160
_cell_length_c   8.10495141
_cell_angle_alpha   76.47315580
_cell_angle_beta   90.01222466
_cell_angle_gamma   114.20131576
_symmetry_Int_Tables_number   1
_chemical_formula_structural   LiRh(CO3)2
_chemical_formula_sum   'Li2 Rh2 C4 O12'
_cell_volume   191.52118735
_cell_formula_units_Z   2
loop_
 _symmetry_equiv_pos_site_id
 _symmetry_equiv_pos_as_xyz
  1  'x, y, z'
loop_
 _atom_site_type_symbol
 _atom_site_label
 _atom_site_symmetry_multiplicity
 _atom_site_fract_x
 _atom_site_fract_y
 _atom_site_fract_z
 _atom_site_occupancy
  Li  Li0  1  0.000023  0.000003  0.000010  1
  Li  Li1  1  0.499996  0.000002  0.500005  1
  Rh  Rh2  1  0.749989  0.499978  0.749966  1
  Rh  Rh3  1  0.249999  0.499982  0.249992  1
  C  C4  1  0.866108  0.731960  0.378347  1
  C  C5  1  0.366129  0.731951  0.878339  1
  C  C6  1  0.633884  0.268051  0.121666  1
  C  C7  1  0.133886  0.268044  0.621658  1
  O  O8  1  0.908988  0.264109  0.123903  1
  O  O9  1  0.408983  0.264088  0.623903  1
  O  O10  1  0.504375  0.736243  0.017139  1
  O  O11  1  0.004334  0.736214  0.517144  1
  O  O12  1  0.009135  0.735870  0.239988  1
  O  O13  1  0.509146  0.735830  0.739991  1
  O  O14  1  0.490881  0.264191  0.260008  1
  O  O15  1  0.990856  0.264138  0.760015  1
  O  O16  1  0.995647  0.263787  0.482857  1
  O  O17  1  0.495622  0.263746  0.982876  1
  O  O18  1  0.591003  0.735921  0.376096  1
  O  O19  1  0.091015  0.735894  0.876100  1
