# generated using pymatgen
data_Ho6Zn4IrPd12
_symmetry_space_group_name_H-M   'P 1'
_cell_length_a   8.23444637
_cell_length_b   8.23444599
_cell_length_c   8.23444600
_cell_angle_alpha   109.47121082
_cell_angle_beta   109.47120990
_cell_angle_gamma   109.47123578
_symmetry_Int_Tables_number   1
_chemical_formula_structural   Ho6Zn4IrPd12
_chemical_formula_sum   'Ho6 Zn4 Ir1 Pd12'
_cell_volume   429.81474945
_cell_formula_units_Z   1
loop_
 _symmetry_equiv_pos_site_id
 _symmetry_equiv_pos_as_xyz
  1  'x, y, z'
loop_
 _atom_site_type_symbol
 _atom_site_label
 _atom_site_symmetry_multiplicity
 _atom_site_fract_x
 _atom_site_fract_y
 _atom_site_fract_z
 _atom_site_occupancy
  Ho  Ho0  1  0.704344  0.704344  0.000000  1
  Ho  Ho1  1  0.295656  0.000000  0.295656  1
  Ho  Ho2  1  0.000000  0.295656  0.295656  1
  Ho  Ho3  1  0.295656  0.295656  0.000000  1
  Ho  Ho4  1  0.704344  0.000000  0.704344  1
  Ho  Ho5  1  0.000000  0.704344  0.704344  1
  Zn  Zn6  1  0.000000  0.000000  0.500000  1
  Zn  Zn7  1  0.000000  0.500000  0.000000  1
  Zn  Zn8  1  0.500000  0.000000  0.000000  1
  Zn  Zn9  1  0.500000  0.500000  0.500000  1
  Ir  Ir10  1  0.000000  0.000000  0.000000  1
  Pd  Pd11  1  0.333324  0.333324  0.666648  1
  Pd  Pd12  1  0.666676  0.000000  0.333324  1
  Pd  Pd13  1  0.000000  0.666676  0.333324  1
  Pd  Pd14  1  0.666676  0.333324  0.000000  1
  Pd  Pd15  1  0.333324  0.666648  0.333324  1
  Pd  Pd16  1  0.000000  0.333324  0.666676  1
  Pd  Pd17  1  0.333324  0.666676  0.000000  1
  Pd  Pd18  1  0.333324  0.000000  0.666676  1
  Pd  Pd19  1  0.666648  0.333324  0.333324  1
  Pd  Pd20  1  0.666676  0.666676  0.333352  1
  Pd  Pd21  1  0.666676  0.333352  0.666676  1
  Pd  Pd22  1  0.333352  0.666676  0.666676  1
