# generated using pymatgen
data_Ti2VCo3
_symmetry_space_group_name_H-M   'P 1'
_cell_length_a   4.87079000
_cell_length_b   4.87078924
_cell_length_c   7.49358500
_cell_angle_alpha   90.00000000
_cell_angle_beta   90.00000000
_cell_angle_gamma   120.00000516
_symmetry_Int_Tables_number   1
_chemical_formula_structural   Ti2VCo3
_chemical_formula_sum   'Ti4 V2 Co6'
_cell_volume   153.96393095
_cell_formula_units_Z   2
loop_
 _symmetry_equiv_pos_site_id
 _symmetry_equiv_pos_as_xyz
  1  'x, y, z'
loop_
 _atom_site_type_symbol
 _atom_site_label
 _atom_site_symmetry_multiplicity
 _atom_site_fract_x
 _atom_site_fract_y
 _atom_site_fract_z
 _atom_site_occupancy
  Ti  Ti0  1  0.333333  0.666667  0.940911  1
  Ti  Ti1  1  0.666667  0.333333  0.059089  1
  Ti  Ti2  1  0.666667  0.333333  0.440911  1
  Ti  Ti3  1  0.333333  0.666667  0.559089  1
  V  V4  1  0.000000  0.000000  0.000000  1
  V  V5  1  0.000000  0.000000  0.500000  1
  Co  Co6  1  0.827293  0.172707  0.750000  1
  Co  Co7  1  0.827293  0.654586  0.750000  1
  Co  Co8  1  0.345414  0.172707  0.750000  1
  Co  Co9  1  0.172707  0.827293  0.250000  1
  Co  Co10  1  0.172707  0.345414  0.250000  1
  Co  Co11  1  0.654586  0.827293  0.250000  1
