# generated using pymatgen
data_La5Th(PaBi5)2
_symmetry_space_group_name_H-M   'P 1'
_cell_length_a   10.12141507
_cell_length_b   10.08433725
_cell_length_c   6.47240100
_cell_angle_alpha   90.00000000
_cell_angle_beta   90.00000000
_cell_angle_gamma   119.87888135
_symmetry_Int_Tables_number   1
_chemical_formula_structural   La5Th(PaBi5)2
_chemical_formula_sum   'La5 Th1 Pa2 Bi10'
_cell_volume   572.81369960
_cell_formula_units_Z   1
loop_
 _symmetry_equiv_pos_site_id
 _symmetry_equiv_pos_as_xyz
  1  'x, y, z'
loop_
 _atom_site_type_symbol
 _atom_site_label
 _atom_site_symmetry_multiplicity
 _atom_site_fract_x
 _atom_site_fract_y
 _atom_site_fract_z
 _atom_site_occupancy
  La  La0  1  0.381327  0.381388  0.250000  1
  La  La1  1  0.383970  0.001097  0.750000  1
  La  La2  1  0.616030  0.617127  0.750000  1
  La  La3  1  0.618673  0.000060  0.250000  1
  La  La4  1  0.000000  0.380587  0.750000  1
  Th  Th5  1  0.000000  0.618693  0.250000  1
  Pa  Pa6  1  0.000000  0.000002  0.999348  1
  Pa  Pa7  1  0.000000  0.000002  0.500652  1
  Bi  Bi8  1  0.000000  0.275493  0.250000  1
  Bi  Bi9  1  0.330031  0.666991  0.497703  1
  Bi  Bi10  1  0.669969  0.336959  0.002297  1
  Bi  Bi11  1  0.330031  0.666991  0.002297  1
  Bi  Bi12  1  0.274077  0.273647  0.750000  1
  Bi  Bi13  1  0.725923  0.999571  0.750000  1
  Bi  Bi14  1  0.000000  0.723368  0.750000  1
  Bi  Bi15  1  0.727429  0.724247  0.250000  1
  Bi  Bi16  1  0.272571  0.996816  0.250000  1
  Bi  Bi17  1  0.669969  0.336959  0.497703  1
