# generated using pymatgen
data_Th14ReTc5
_symmetry_space_group_name_H-M   'P 1'
_cell_length_a   9.98834842
_cell_length_b   9.98834960
_cell_length_c   6.34664567
_cell_angle_alpha   90.10675362
_cell_angle_beta   89.89324286
_cell_angle_gamma   120.07414615
_symmetry_Int_Tables_number   1
_chemical_formula_structural   Th14ReTc5
_chemical_formula_sum   'Th14 Re1 Tc5'
_cell_volume   547.94419639
_cell_formula_units_Z   1
loop_
 _symmetry_equiv_pos_site_id
 _symmetry_equiv_pos_as_xyz
  1  'x, y, z'
loop_
 _atom_site_type_symbol
 _atom_site_label
 _atom_site_symmetry_multiplicity
 _atom_site_fract_x
 _atom_site_fract_y
 _atom_site_fract_z
 _atom_site_occupancy
  Th  Th0  1  0.333427  0.666573  0.025058  1
  Th  Th1  1  0.666515  0.333485  0.525827  1
  Th  Th2  1  0.125614  0.874386  0.256778  1
  Th  Th3  1  0.251204  0.125779  0.756844  1
  Th  Th4  1  0.874221  0.748796  0.756844  1
  Th  Th5  1  0.126743  0.251375  0.256833  1
  Th  Th6  1  0.748625  0.873257  0.256833  1
  Th  Th7  1  0.874427  0.125573  0.757236  1
  Th  Th8  1  0.539943  0.460057  0.047742  1
  Th  Th9  1  0.079677  0.539427  0.547547  1
  Th  Th10  1  0.460573  0.920323  0.547547  1
  Th  Th11  1  0.539072  0.079606  0.047217  1
  Th  Th12  1  0.920394  0.460928  0.047217  1
  Th  Th13  1  0.460017  0.539983  0.547781  1
  Re  Re14  1  0.814462  0.185538  0.298269  1
  Tc  Tc15  1  0.629134  0.814372  0.796910  1
  Tc  Tc16  1  0.185628  0.370866  0.796910  1
  Tc  Tc17  1  0.814718  0.629564  0.296873  1
  Tc  Tc18  1  0.370436  0.185282  0.296873  1
  Tc  Tc19  1  0.185170  0.814830  0.796856  1
