# generated using pymatgen
data_Eu5AgHgPd
_symmetry_space_group_name_H-M   'P 1'
_cell_length_a   9.32638057
_cell_length_b   9.32637903
_cell_length_c   9.33328600
_cell_angle_alpha   128.37352744
_cell_angle_beta   128.37351993
_cell_angle_gamma   75.96642336
_symmetry_Int_Tables_number   1
_chemical_formula_structural   Eu5AgHgPd
_chemical_formula_sum   'Eu10 Ag2 Hg2 Pd2'
_cell_volume   485.29592081
_cell_formula_units_Z   2
loop_
 _symmetry_equiv_pos_site_id
 _symmetry_equiv_pos_as_xyz
  1  'x, y, z'
loop_
 _atom_site_type_symbol
 _atom_site_label
 _atom_site_symmetry_multiplicity
 _atom_site_fract_x
 _atom_site_fract_y
 _atom_site_fract_z
 _atom_site_occupancy
  Eu  Eu0  1  0.500000  0.500000  0.000000  1
  Eu  Eu1  1  0.000000  0.000000  0.000000  1
  Eu  Eu2  1  0.530949  0.030949  0.846487  1
  Eu  Eu3  1  0.184462  0.684462  0.153513  1
  Eu  Eu4  1  0.020512  0.197103  0.500000  1
  Eu  Eu5  1  0.697103  0.520512  0.500000  1
  Eu  Eu6  1  0.469051  0.969051  0.153513  1
  Eu  Eu7  1  0.815538  0.315538  0.846487  1
  Eu  Eu8  1  0.979488  0.802897  0.500000  1
  Eu  Eu9  1  0.302897  0.479488  0.500000  1
  Ag  Ag10  1  0.625233  0.874767  0.500000  1
  Ag  Ag11  1  0.374767  0.125233  0.500000  1
  Hg  Hg12  1  0.250000  0.250000  0.000000  1
  Hg  Hg13  1  0.750000  0.750000  0.000000  1
  Pd  Pd14  1  0.126963  0.626963  0.753923  1
  Pd  Pd15  1  0.873037  0.373037  0.246077  1
