# generated using pymatgen
data_Y3Pa(Zn5Sn)2
_symmetry_space_group_name_H-M   'P 1'
_cell_length_a   8.37602421
_cell_length_b   8.37602488
_cell_length_c   8.99971400
_cell_angle_alpha   90.00000000
_cell_angle_beta   90.00000000
_cell_angle_gamma   149.63746124
_symmetry_Int_Tables_number   1
_chemical_formula_structural   Y3Pa(Zn5Sn)2
_chemical_formula_sum   'Y3 Pa1 Zn10 Sn2'
_cell_volume   319.15359452
_cell_formula_units_Z   1
loop_
 _symmetry_equiv_pos_site_id
 _symmetry_equiv_pos_as_xyz
  1  'x, y, z'
loop_
 _atom_site_type_symbol
 _atom_site_label
 _atom_site_symmetry_multiplicity
 _atom_site_fract_x
 _atom_site_fract_y
 _atom_site_fract_z
 _atom_site_occupancy
  Y  Y0  1  0.798129  0.201871  0.750000  1
  Y  Y1  1  0.000343  0.999657  0.501447  1
  Y  Y2  1  0.000343  0.999657  0.998553  1
  Pa  Pa3  1  0.203296  0.796704  0.250000  1
  Zn  Zn4  1  0.812368  0.187632  0.391504  1
  Zn  Zn5  1  0.185835  0.814165  0.608223  1
  Zn  Zn6  1  0.812368  0.187632  0.108496  1
  Zn  Zn7  1  0.185835  0.814165  0.891777  1
  Zn  Zn8  1  0.657151  0.342849  0.480198  1
  Zn  Zn9  1  0.343599  0.656401  0.518625  1
  Zn  Zn10  1  0.657151  0.342849  0.019802  1
  Zn  Zn11  1  0.343599  0.656401  0.981375  1
  Zn  Zn12  1  0.391467  0.608533  0.250000  1
  Zn  Zn13  1  0.608933  0.391067  0.750000  1
  Sn  Sn14  1  0.552819  0.447181  0.250000  1
  Sn  Sn15  1  0.446764  0.553236  0.750000  1
