# generated using pymatgen
data_LiSc6Al13(Si5Os3)2
_symmetry_space_group_name_H-M   'P 1'
_cell_length_a   8.47381569
_cell_length_b   8.47381654
_cell_length_c   9.04867945
_cell_angle_alpha   90.07308198
_cell_angle_beta   89.92691886
_cell_angle_gamma   119.61851127
_symmetry_Int_Tables_number   1
_chemical_formula_structural   LiSc6Al13(Si5Os3)2
_chemical_formula_sum   'Li1 Sc6 Al13 Si10 Os6'
_cell_volume   564.84607688
_cell_formula_units_Z   1
loop_
 _symmetry_equiv_pos_site_id
 _symmetry_equiv_pos_as_xyz
  1  'x, y, z'
loop_
 _atom_site_type_symbol
 _atom_site_label
 _atom_site_symmetry_multiplicity
 _atom_site_fract_x
 _atom_site_fract_y
 _atom_site_fract_z
 _atom_site_occupancy
  Li  Li0  1  0.158530  0.841470  0.914365  1
  Sc  Sc1  1  0.199063  0.800937  0.249574  1
  Sc  Sc2  1  0.200775  0.399103  0.247747  1
  Sc  Sc3  1  0.600897  0.799225  0.247747  1
  Sc  Sc4  1  0.800604  0.199396  0.751129  1
  Sc  Sc5  1  0.798145  0.601033  0.750697  1
  Sc  Sc6  1  0.398967  0.201855  0.750697  1
  Al  Al7  1  0.159405  0.314068  0.917219  1
  Al  Al8  1  0.685932  0.840595  0.917219  1
  Al  Al9  1  0.842559  0.157441  0.083242  1
  Al  Al10  1  0.846611  0.684127  0.077823  1
  Al  Al11  1  0.315873  0.153389  0.077823  1
  Al  Al12  1  0.841817  0.158183  0.418691  1
  Al  Al13  1  0.841397  0.684184  0.419215  1
  Al  Al14  1  0.315816  0.158603  0.419215  1
  Al  Al15  1  0.158303  0.841697  0.584189  1
  Al  Al16  1  0.159451  0.319357  0.582316  1
  Al  Al17  1  0.680643  0.840549  0.582316  1
  Al  Al18  1  0.000712  0.999288  0.250899  1
  Al  Al19  1  0.998971  0.001029  0.744271  1
  Si  Si20  1  0.566653  0.433347  0.249470  1
  Si  Si21  1  0.566125  0.131845  0.250784  1
  Si  Si22  1  0.868155  0.433875  0.250784  1
  Si  Si23  1  0.432366  0.567634  0.750840  1
  Si  Si24  1  0.429051  0.869341  0.754054  1
  Si  Si25  1  0.130659  0.570949  0.754054  1
  Si  Si26  1  0.333136  0.666864  0.452647  1
  Si  Si27  1  0.666953  0.333047  0.547411  1
  Si  Si28  1  0.666635  0.333365  0.955717  1
  Si  Si29  1  0.330579  0.669421  0.041733  1
  Os  Os30  1  0.500143  0.499857  0.499698  1
  Os  Os31  1  0.500098  0.000078  0.500952  1
  Os  Os32  1  0.999922  0.499902  0.500952  1
  Os  Os33  1  0.499556  0.500444  0.001340  1
  Os  Os34  1  0.508363  0.002867  0.001586  1
  Os  Os35  1  0.997133  0.491637  0.001586  1
