# generated using pymatgen
data_Pr4Ga4Ir3Pt
_symmetry_space_group_name_H-M   'P 1'
_cell_length_a   4.45112300
_cell_length_b   7.13148512
_cell_length_c   7.92740813
_cell_angle_alpha   90.02083365
_cell_angle_beta   90.00000000
_cell_angle_gamma   90.00000000
_symmetry_Int_Tables_number   1
_chemical_formula_structural   Pr4Ga4Ir3Pt
_chemical_formula_sum   'Pr4 Ga4 Ir3 Pt1'
_cell_volume   251.64063060
_cell_formula_units_Z   1
loop_
 _symmetry_equiv_pos_site_id
 _symmetry_equiv_pos_as_xyz
  1  'x, y, z'
loop_
 _atom_site_type_symbol
 _atom_site_label
 _atom_site_symmetry_multiplicity
 _atom_site_fract_x
 _atom_site_fract_y
 _atom_site_fract_z
 _atom_site_occupancy
  Pr  Pr0  1  0.250000  0.023154  0.686624  1
  Pr  Pr1  1  0.250000  0.529082  0.810372  1
  Pr  Pr2  1  0.750000  0.974576  0.310310  1
  Pr  Pr3  1  0.750000  0.478190  0.193331  1
  Ga  Ga4  1  0.250000  0.153820  0.073804  1
  Ga  Ga5  1  0.250000  0.655360  0.428101  1
  Ga  Ga6  1  0.750000  0.839399  0.929000  1
  Ga  Ga7  1  0.750000  0.345939  0.567688  1
  Ir  Ir8  1  0.250000  0.279216  0.391428  1
  Ir  Ir9  1  0.250000  0.780492  0.108115  1
  Ir  Ir10  1  0.750000  0.721234  0.609694  1
  Pt  Pt11  1  0.750000  0.219538  0.891532  1
