# generated using pymatgen
data_LiLu8(B8Ir)3
_symmetry_space_group_name_H-M   'P 1'
_cell_length_a   3.59040700
_cell_length_b   9.06019587
_cell_length_c   11.40126188
_cell_angle_alpha   90.15094371
_cell_angle_beta   90.00000000
_cell_angle_gamma   90.00000000
_symmetry_Int_Tables_number   1
_chemical_formula_structural   LiLu8(B8Ir)3
_chemical_formula_sum   'Li1 Lu8 B24 Ir3'
_cell_volume   370.87937530
_cell_formula_units_Z   1
loop_
 _symmetry_equiv_pos_site_id
 _symmetry_equiv_pos_as_xyz
  1  'x, y, z'
loop_
 _atom_site_type_symbol
 _atom_site_label
 _atom_site_symmetry_multiplicity
 _atom_site_fract_x
 _atom_site_fract_y
 _atom_site_fract_z
 _atom_site_occupancy
  Li  Li0  1  0.000000  0.637173  0.322639  1
  Lu  Lu1  1  0.000000  0.326393  0.412658  1
  Lu  Lu2  1  0.000000  0.677152  0.581035  1
  Lu  Lu3  1  0.000000  0.819409  0.088800  1
  Lu  Lu4  1  0.000000  0.179811  0.914766  1
  Lu  Lu5  1  0.000000  0.939926  0.372280  1
  Lu  Lu6  1  0.000000  0.056129  0.625006  1
  Lu  Lu7  1  0.000000  0.447203  0.130087  1
  Lu  Lu8  1  0.000000  0.556378  0.873826  1
  B  B9  1  0.500000  0.552053  0.434391  1
  B  B10  1  0.500000  0.447868  0.563631  1
  B  B11  1  0.500000  0.053972  0.065678  1
  B  B12  1  0.500000  0.946981  0.934756  1
  B  B13  1  0.500000  0.747866  0.420026  1
  B  B14  1  0.500000  0.251411  0.577887  1
  B  B15  1  0.500000  0.252543  0.080524  1
  B  B16  1  0.500000  0.750182  0.921477  1
  B  B17  1  0.500000  0.793711  0.262731  1
  B  B18  1  0.500000  0.205656  0.736625  1
  B  B19  1  0.500000  0.295712  0.236551  1
  B  B20  1  0.500000  0.705862  0.763766  1
  B  B21  1  0.500000  0.633623  0.183565  1
  B  B22  1  0.500000  0.367392  0.818066  1
  B  B23  1  0.500000  0.131319  0.315416  1
  B  B24  1  0.500000  0.867388  0.682075  1
  B  B25  1  0.500000  0.979071  0.212810  1
  B  B26  1  0.500000  0.018937  0.786392  1
  B  B27  1  0.500000  0.481229  0.288589  1
  B  B28  1  0.500000  0.518255  0.712174  1
  B  B29  1  0.500000  0.607697  0.030138  1
  B  B30  1  0.500000  0.395445  0.972183  1
  B  B31  1  0.500000  0.106182  0.469972  1
  B  B32  1  0.500000  0.891528  0.528615  1
  Ir  Ir33  1  0.000000  0.358171  0.683021  1
  Ir  Ir34  1  0.000000  0.137934  0.176348  1
  Ir  Ir35  1  0.000000  0.862436  0.821497  1
