# generated using pymatgen
data_Rb3P5RuSe10
_symmetry_space_group_name_H-M   'P 1'
_cell_length_a   7.46738600
_cell_length_b   11.62093380
_cell_length_c   12.96964501
_cell_angle_alpha   88.31886173
_cell_angle_beta   90.00000000
_cell_angle_gamma   90.00000000
_symmetry_Int_Tables_number   1
_chemical_formula_structural   Rb3P5RuSe10
_chemical_formula_sum   'Rb6 P10 Ru2 Se20'
_cell_volume   1124.99539588
_cell_formula_units_Z   2
loop_
 _symmetry_equiv_pos_site_id
 _symmetry_equiv_pos_as_xyz
  1  'x, y, z'
loop_
 _atom_site_type_symbol
 _atom_site_label
 _atom_site_symmetry_multiplicity
 _atom_site_fract_x
 _atom_site_fract_y
 _atom_site_fract_z
 _atom_site_occupancy
  Rb  Rb0  1  0.250000  0.987335  0.611905  1
  Rb  Rb1  1  0.750000  0.012665  0.388095  1
  Rb  Rb2  1  0.250000  0.099766  0.069037  1
  Rb  Rb3  1  0.250000  0.480952  0.616861  1
  Rb  Rb4  1  0.750000  0.900234  0.930963  1
  Rb  Rb5  1  0.750000  0.519048  0.383139  1
  P  P6  1  0.750000  0.275625  0.596432  1
  P  P7  1  0.519470  0.474174  0.918085  1
  P  P8  1  0.480530  0.525826  0.081915  1
  P  P9  1  0.250000  0.860178  0.273164  1
  P  P10  1  0.250000  0.724375  0.403568  1
  P  P11  1  0.750000  0.139822  0.726836  1
  P  P12  1  0.250000  0.716572  0.944929  1
  P  P13  1  0.980530  0.474174  0.918085  1
  P  P14  1  0.019470  0.525826  0.081915  1
  P  P15  1  0.750000  0.283428  0.055071  1
  Ru  Ru16  1  0.250000  0.649403  0.113481  1
  Ru  Ru17  1  0.750000  0.350597  0.886519  1
  Se  Se18  1  0.250000  0.894279  0.885136  1
  Se  Se19  1  0.750000  0.969120  0.667039  1
  Se  Se20  1  0.250000  0.378478  0.881810  1
  Se  Se21  1  0.993908  0.257085  0.507230  1
  Se  Se22  1  0.474253  0.810304  0.168911  1
  Se  Se23  1  0.488257  0.651820  0.842932  1
  Se  Se24  1  0.011743  0.651820  0.842932  1
  Se  Se25  1  0.506092  0.257085  0.507230  1
  Se  Se26  1  0.250000  0.030880  0.332961  1
  Se  Se27  1  0.511743  0.348180  0.157068  1
  Se  Se28  1  0.750000  0.621522  0.118190  1
  Se  Se29  1  0.525747  0.189696  0.831089  1
  Se  Se30  1  0.250000  0.565694  0.305541  1
  Se  Se31  1  0.974253  0.189696  0.831089  1
  Se  Se32  1  0.493908  0.742915  0.492770  1
  Se  Se33  1  0.988257  0.348180  0.157068  1
  Se  Se34  1  0.750000  0.105721  0.114864  1
  Se  Se35  1  0.025747  0.810304  0.168911  1
  Se  Se36  1  0.006092  0.742915  0.492770  1
  Se  Se37  1  0.750000  0.434306  0.694459  1
