# generated using pymatgen
data_Er16Tl4In2FeOs
_symmetry_space_group_name_H-M   'P 1'
_cell_length_a   10.25710500
_cell_length_b   10.25128297
_cell_length_c   7.12525032
_cell_angle_alpha   90.01896088
_cell_angle_beta   90.00000000
_cell_angle_gamma   120.01877912
_symmetry_Int_Tables_number   1
_chemical_formula_structural   Er16Tl4In2FeOs
_chemical_formula_sum   'Er16 Tl4 In2 Fe1 Os1'
_cell_volume   648.71140920
_cell_formula_units_Z   1
loop_
 _symmetry_equiv_pos_site_id
 _symmetry_equiv_pos_as_xyz
  1  'x, y, z'
loop_
 _atom_site_type_symbol
 _atom_site_label
 _atom_site_symmetry_multiplicity
 _atom_site_fract_x
 _atom_site_fract_y
 _atom_site_fract_z
 _atom_site_occupancy
  Er  Er0  1  0.537356  0.074711  0.791012  1
  Er  Er1  1  0.923981  0.463128  0.792474  1
  Er  Er2  1  0.539147  0.463128  0.792474  1
  Er  Er3  1  0.465154  0.930310  0.295578  1
  Er  Er4  1  0.070328  0.535069  0.294408  1
  Er  Er5  1  0.464739  0.535069  0.294408  1
  Er  Er6  1  0.820297  0.640594  0.494606  1
  Er  Er7  1  0.358290  0.179579  0.496000  1
  Er  Er8  1  0.821289  0.179579  0.496000  1
  Er  Er9  1  0.176726  0.353454  0.992840  1
  Er  Er10  1  0.646616  0.823728  0.995345  1
  Er  Er11  1  0.177111  0.823728  0.995345  1
  Er  Er12  1  0.666301  0.332601  0.181946  1
  Er  Er13  1  0.333555  0.667110  0.673668  1
  Er  Er14  1  0.998891  0.997782  0.773791  1
  Er  Er15  1  0.999385  0.998770  0.278836  1
  Tl  Tl16  1  0.836241  0.672482  0.045994  1
  Tl  Tl17  1  0.327874  0.164272  0.046206  1
  Tl  Tl18  1  0.836396  0.164272  0.046206  1
  Tl  Tl19  1  0.163060  0.326120  0.544085  1
  In  In20  1  0.675356  0.837580  0.543012  1
  In  In21  1  0.162224  0.837580  0.543012  1
  Fe  Fe22  1  0.666326  0.332651  0.563362  1
  Os  Os23  1  0.333354  0.666708  0.065292  1
