# generated using pymatgen
data_NaPr(Si7Ir3)2
_symmetry_space_group_name_H-M   'P 1'
_cell_length_a   8.04673445
_cell_length_b   8.04673418
_cell_length_c   8.04673424
_cell_angle_alpha   56.88642526
_cell_angle_beta   56.88642951
_cell_angle_gamma   56.88642055
_symmetry_Int_Tables_number   1
_chemical_formula_structural   NaPr(Si7Ir3)2
_chemical_formula_sum   'Na1 Pr1 Si14 Ir6'
_cell_volume   341.95625666
_cell_formula_units_Z   1
loop_
 _symmetry_equiv_pos_site_id
 _symmetry_equiv_pos_as_xyz
  1  'x, y, z'
loop_
 _atom_site_type_symbol
 _atom_site_label
 _atom_site_symmetry_multiplicity
 _atom_site_fract_x
 _atom_site_fract_y
 _atom_site_fract_z
 _atom_site_occupancy
  Na  Na0  1  0.500000  0.500000  0.500000  1
  Pr  Pr1  1  0.000000  0.000000  0.000000  1
  Si  Si2  1  0.068168  0.846487  0.670545  1
  Si  Si3  1  0.670545  0.068168  0.846487  1
  Si  Si4  1  0.846487  0.670545  0.068168  1
  Si  Si5  1  0.176947  0.353558  0.562433  1
  Si  Si6  1  0.562433  0.176947  0.353558  1
  Si  Si7  1  0.353558  0.562433  0.176947  1
  Si  Si8  1  0.931832  0.153513  0.329455  1
  Si  Si9  1  0.329455  0.931832  0.153513  1
  Si  Si10  1  0.153513  0.329455  0.931832  1
  Si  Si11  1  0.823053  0.646442  0.437567  1
  Si  Si12  1  0.437567  0.823053  0.646442  1
  Si  Si13  1  0.646442  0.437567  0.823053  1
  Si  Si14  1  0.750482  0.750482  0.750482  1
  Si  Si15  1  0.249518  0.249518  0.249518  1
  Ir  Ir16  1  0.067649  0.751568  0.428753  1
  Ir  Ir17  1  0.428753  0.067649  0.751568  1
  Ir  Ir18  1  0.751568  0.428753  0.067649  1
  Ir  Ir19  1  0.932351  0.248432  0.571247  1
  Ir  Ir20  1  0.571247  0.932351  0.248432  1
  Ir  Ir21  1  0.248432  0.571247  0.932351  1
