# generated using pymatgen
data_Li3Er4Si8Pt
_symmetry_space_group_name_H-M   'P 1'
_cell_length_a   3.79462000
_cell_length_b   7.47314507
_cell_length_c   10.04643900
_cell_angle_alpha   90.03067523
_cell_angle_beta   90.00000000
_cell_angle_gamma   90.00000000
_symmetry_Int_Tables_number   1
_chemical_formula_structural   Li3Er4Si8Pt
_chemical_formula_sum   'Li3 Er4 Si8 Pt1'
_cell_volume   284.89432202
_cell_formula_units_Z   1
loop_
 _symmetry_equiv_pos_site_id
 _symmetry_equiv_pos_as_xyz
  1  'x, y, z'
loop_
 _atom_site_type_symbol
 _atom_site_label
 _atom_site_symmetry_multiplicity
 _atom_site_fract_x
 _atom_site_fract_y
 _atom_site_fract_z
 _atom_site_occupancy
  Li  Li0  1  0.750000  0.008876  0.604670  1
  Li  Li1  1  0.250000  0.490168  0.108423  1
  Li  Li2  1  0.750000  0.507089  0.891293  1
  Er  Er3  1  0.250000  0.138022  0.865421  1
  Er  Er4  1  0.750000  0.861454  0.135269  1
  Er  Er5  1  0.250000  0.643219  0.631982  1
  Er  Er6  1  0.750000  0.367303  0.364896  1
  Si  Si7  1  0.750000  0.265122  0.071829  1
  Si  Si8  1  0.250000  0.730866  0.930437  1
  Si  Si9  1  0.750000  0.772010  0.435789  1
  Si  Si10  1  0.250000  0.226915  0.564101  1
  Si  Si11  1  0.750000  0.845734  0.818959  1
  Si  Si12  1  0.250000  0.153146  0.185636  1
  Si  Si13  1  0.750000  0.339641  0.677294  1
  Si  Si14  1  0.250000  0.659398  0.318889  1
  Pt  Pt15  1  0.250000  0.991037  0.395112  1
