# generated using pymatgen
data_ErAgIr2O7
_symmetry_space_group_name_H-M   'P 1'
_cell_length_a   7.21176270
_cell_length_b   7.15017355
_cell_length_c   7.21176207
_cell_angle_alpha   60.28210679
_cell_angle_beta   61.16059892
_cell_angle_gamma   60.28210761
_symmetry_Int_Tables_number   1
_chemical_formula_structural   ErAgIr2O7
_chemical_formula_sum   'Er2 Ag2 Ir4 O14'
_cell_volume   266.33058572
_cell_formula_units_Z   2
loop_
 _symmetry_equiv_pos_site_id
 _symmetry_equiv_pos_as_xyz
  1  'x, y, z'
loop_
 _atom_site_type_symbol
 _atom_site_label
 _atom_site_symmetry_multiplicity
 _atom_site_fract_x
 _atom_site_fract_y
 _atom_site_fract_z
 _atom_site_occupancy
  Er  Er0  1  0.625000  0.125000  0.125000  1
  Er  Er1  1  0.125000  0.125000  0.625000  1
  Ag  Ag2  1  0.125000  0.625000  0.125000  1
  Ag  Ag3  1  0.125000  0.125000  0.125000  1
  Ir  Ir4  1  0.125000  0.625000  0.625000  1
  Ir  Ir5  1  0.625000  0.125000  0.625000  1
  Ir  Ir6  1  0.625000  0.625000  0.125000  1
  Ir  Ir7  1  0.625000  0.625000  0.625000  1
  O  O8  1  0.694352  0.715543  0.297493  1
  O  O9  1  0.297493  0.292612  0.694352  1
  O  O10  1  0.713352  0.286648  0.713352  1
  O  O11  1  0.308221  0.691779  0.308221  1
  O  O12  1  0.297493  0.715543  0.694352  1
  O  O13  1  0.694352  0.292612  0.297493  1
  O  O14  1  0.555648  0.534457  0.952507  1
  O  O15  1  0.952507  0.957388  0.555648  1
  O  O16  1  0.536648  0.963352  0.536648  1
  O  O17  1  0.941779  0.558221  0.941779  1
  O  O18  1  0.952507  0.534457  0.555648  1
  O  O19  1  0.555648  0.957388  0.952507  1
  O  O20  1  0.246674  0.253326  0.246674  1
  O  O21  1  0.003326  0.996674  0.003326  1
