# generated using pymatgen
data_MnAl(BW)4
_symmetry_space_group_name_H-M   'P 1'
_cell_length_a   5.82865100
_cell_length_b   5.82865100
_cell_length_c   3.17835700
_cell_angle_alpha   90.00000000
_cell_angle_beta   90.00000000
_cell_angle_gamma   90.00000000
_symmetry_Int_Tables_number   1
_chemical_formula_structural   MnAl(BW)4
_chemical_formula_sum   'Mn1 Al1 B4 W4'
_cell_volume   107.97887056
_cell_formula_units_Z   1
loop_
 _symmetry_equiv_pos_site_id
 _symmetry_equiv_pos_as_xyz
  1  'x, y, z'
loop_
 _atom_site_type_symbol
 _atom_site_label
 _atom_site_symmetry_multiplicity
 _atom_site_fract_x
 _atom_site_fract_y
 _atom_site_fract_z
 _atom_site_occupancy
  Mn  Mn0  1  0.000000  0.000000  0.000000  1
  Al  Al1  1  0.500000  0.500000  0.000000  1
  B  B2  1  0.113409  0.615621  0.000000  1
  B  B3  1  0.886591  0.384379  0.000000  1
  B  B4  1  0.615621  0.886591  0.000000  1
  B  B5  1  0.384379  0.113409  0.000000  1
  W  W6  1  0.827517  0.680449  0.500000  1
  W  W7  1  0.172483  0.319551  0.500000  1
  W  W8  1  0.680449  0.172483  0.500000  1
  W  W9  1  0.319551  0.827517  0.500000  1
