# generated using pymatgen
data_KPr(Cu9Si4)2
_symmetry_space_group_name_H-M   'P 1'
_cell_length_a   8.16010691
_cell_length_b   8.16010681
_cell_length_c   8.16010652
_cell_angle_alpha   120.43200113
_cell_angle_beta   120.43200252
_cell_angle_gamma   89.25336598
_symmetry_Int_Tables_number   1
_chemical_formula_structural   KPr(Cu9Si4)2
_chemical_formula_sum   'K1 Pr1 Cu18 Si8'
_cell_volume   381.66947837
_cell_formula_units_Z   1
loop_
 _symmetry_equiv_pos_site_id
 _symmetry_equiv_pos_as_xyz
  1  'x, y, z'
loop_
 _atom_site_type_symbol
 _atom_site_label
 _atom_site_symmetry_multiplicity
 _atom_site_fract_x
 _atom_site_fract_y
 _atom_site_fract_z
 _atom_site_occupancy
  K  K0  1  0.750000  0.750000  0.000000  1
  Pr  Pr1  1  0.250000  0.250000  0.000000  1
  Cu  Cu2  1  0.936231  0.204243  0.138172  1
  Cu  Cu3  1  0.204243  0.066071  0.268013  1
  Cu  Cu4  1  0.798059  0.936231  0.731987  1
  Cu  Cu5  1  0.433929  0.295757  0.731987  1
  Cu  Cu6  1  0.066071  0.798059  0.861828  1
  Cu  Cu7  1  0.807133  0.058861  0.500472  1
  Cu  Cu8  1  0.558389  0.306661  0.499528  1
  Cu  Cu9  1  0.193339  0.941611  0.500472  1
  Cu  Cu10  1  0.441139  0.692867  0.499528  1
  Cu  Cu11  1  0.941611  0.441139  0.748272  1
  Cu  Cu12  1  0.692867  0.193339  0.251728  1
  Cu  Cu13  1  0.058861  0.558389  0.251728  1
  Cu  Cu14  1  0.701941  0.433929  0.138172  1
  Cu  Cu15  1  0.563769  0.701941  0.268013  1
  Cu  Cu16  1  0.500000  0.000000  0.500000  1
  Cu  Cu17  1  0.000000  0.500000  0.500000  1
  Cu  Cu18  1  0.306661  0.807133  0.748272  1
  Cu  Cu19  1  0.295757  0.563769  0.861828  1
  Si  Si20  1  0.794241  0.290993  0.851368  1
  Si  Si21  1  0.557127  0.060376  0.851368  1
  Si  Si22  1  0.060376  0.209007  0.503249  1
  Si  Si23  1  0.290993  0.439624  0.496751  1
  Si  Si24  1  0.942873  0.794241  0.503249  1
  Si  Si25  1  0.439624  0.942873  0.148632  1
  Si  Si26  1  0.209007  0.705759  0.148632  1
  Si  Si27  1  0.705759  0.557127  0.496751  1
