# generated using pymatgen
data_Ca2Bi2S3O2
_symmetry_space_group_name_H-M   'P 1'
_cell_length_a   10.17028272
_cell_length_b   3.94031600
_cell_length_c   13.02542884
_cell_angle_alpha   89.99889383
_cell_angle_beta   129.25838197
_cell_angle_gamma   89.99881318
_symmetry_Int_Tables_number   1
_chemical_formula_structural   Ca2Bi2S3O2
_chemical_formula_sum   'Ca4 Bi4 S6 O4'
_cell_volume   404.17124294
_cell_formula_units_Z   2
loop_
 _symmetry_equiv_pos_site_id
 _symmetry_equiv_pos_as_xyz
  1  'x, y, z'
loop_
 _atom_site_type_symbol
 _atom_site_label
 _atom_site_symmetry_multiplicity
 _atom_site_fract_x
 _atom_site_fract_y
 _atom_site_fract_z
 _atom_site_occupancy
  Ca  Ca0  1  0.855185  0.998955  0.107714  1
  Ca  Ca1  1  0.144819  0.498968  0.392283  1
  Ca  Ca2  1  0.855207  0.501024  0.607723  1
  Ca  Ca3  1  0.144780  0.001024  0.892268  1
  Bi  Bi4  1  0.643607  0.498703  0.208411  1
  Bi  Bi5  1  0.356432  0.998701  0.291598  1
  Bi  Bi6  1  0.643526  0.001368  0.708371  1
  Bi  Bi7  1  0.356421  0.501267  0.791620  1
  S  S8  1  0.499994  0.999981  0.000016  1
  S  S9  1  0.250552  0.500119  0.105129  1
  S  S10  1  0.749469  0.000134  0.394885  1
  S  S11  1  0.499993  0.500012  0.499990  1
  S  S12  1  0.250621  0.999845  0.605163  1
  S  S13  1  0.749384  0.499906  0.894845  1
  O  O14  1  0.861350  0.498610  0.213197  1
  O  O15  1  0.138630  0.998600  0.286793  1
  O  O16  1  0.861366  0.001400  0.713188  1
  O  O17  1  0.138664  0.501380  0.786809  1
