# generated using pymatgen
data_K4Mn9GaO20
_symmetry_space_group_name_H-M   'P 1'
_cell_length_a   7.90196797
_cell_length_b   5.16529842
_cell_length_c   12.98721500
_cell_angle_alpha   86.73828040
_cell_angle_beta   83.46505847
_cell_angle_gamma   69.60016950
_symmetry_Int_Tables_number   1
_chemical_formula_structural   K4Mn9GaO20
_chemical_formula_sum   'K4 Mn9 Ga1 O20'
_cell_volume   493.52841002
_cell_formula_units_Z   1
loop_
 _symmetry_equiv_pos_site_id
 _symmetry_equiv_pos_as_xyz
  1  'x, y, z'
loop_
 _atom_site_type_symbol
 _atom_site_label
 _atom_site_symmetry_multiplicity
 _atom_site_fract_x
 _atom_site_fract_y
 _atom_site_fract_z
 _atom_site_occupancy
  K  K0  1  0.056915  0.715609  0.501414  1
  K  K1  1  0.546360  0.476208  0.497630  1
  K  K2  1  0.554855  0.215737  0.001063  1
  K  K3  1  0.049123  0.985164  0.998273  1
  Mn  Mn4  1  0.049512  0.350036  0.749714  1
  Mn  Mn5  1  0.346772  0.448955  0.253564  1
  Mn  Mn6  1  0.255292  0.749322  0.746434  1
  Mn  Mn7  1  0.451037  0.153465  0.745242  1
  Mn  Mn8  1  0.548315  0.850059  0.250210  1
  Mn  Mn9  1  0.752347  0.249989  0.245633  1
  Mn  Mn10  1  0.646215  0.549919  0.754441  1
  Mn  Mn11  1  0.951197  0.651586  0.245359  1
  Mn  Mn12  1  0.848547  0.949604  0.754064  1
  Ga  Ga13  1  0.150429  0.046160  0.256203  1
  O  O14  1  0.055997  0.013164  0.673729  1
  O  O15  1  0.131009  0.390453  0.328234  1
  O  O16  1  0.165130  0.706518  0.173296  1
  O  O17  1  0.041873  0.687510  0.826453  1
  O  O18  1  0.237293  0.081161  0.820827  1
  O  O19  1  0.364122  0.119571  0.176931  1
  O  O20  1  0.280205  0.437061  0.666139  1
  O  O21  1  0.322361  0.756340  0.336580  1
  O  O22  1  0.543132  0.184682  0.325323  1
  O  O23  1  0.433466  0.515455  0.831708  1
  O  O24  1  0.556185  0.513251  0.173670  1
  O  O25  1  0.469265  0.788778  0.668490  1
  O  O26  1  0.669595  0.223668  0.676202  1
  O  O27  1  0.740862  0.579706  0.321556  1
  O  O28  1  0.784442  0.933313  0.164099  1
  O  O29  1  0.635830  0.877545  0.826637  1
  O  O30  1  0.959722  0.326820  0.171636  1
  O  O31  1  0.816722  0.266395  0.835868  1
  O  O32  1  0.858624  0.620395  0.677906  1
  O  O33  1  0.926449  0.978430  0.325195  1
