# generated using pymatgen
data_ErPaTiGaIr2
_symmetry_space_group_name_H-M   'P 1'
_cell_length_a   4.18937200
_cell_length_b   6.98491200
_cell_length_c   8.09004000
_cell_angle_alpha   90.00000000
_cell_angle_beta   90.00000000
_cell_angle_gamma   90.00000000
_symmetry_Int_Tables_number   1
_chemical_formula_structural   ErPaTiGaIr2
_chemical_formula_sum   'Er2 Pa2 Ti2 Ga2 Ir4'
_cell_volume   236.73394407
_cell_formula_units_Z   2
loop_
 _symmetry_equiv_pos_site_id
 _symmetry_equiv_pos_as_xyz
  1  'x, y, z'
loop_
 _atom_site_type_symbol
 _atom_site_label
 _atom_site_symmetry_multiplicity
 _atom_site_fract_x
 _atom_site_fract_y
 _atom_site_fract_z
 _atom_site_occupancy
  Er  Er0  1  0.750000  0.037677  0.676847  1
  Er  Er1  1  0.750000  0.537677  0.823153  1
  Pa  Pa2  1  0.250000  0.976081  0.320648  1
  Pa  Pa3  1  0.250000  0.476081  0.179352  1
  Ti  Ti4  1  0.750000  0.622317  0.449288  1
  Ti  Ti5  1  0.750000  0.122317  0.050712  1
  Ga  Ga6  1  0.250000  0.358397  0.576000  1
  Ga  Ga7  1  0.250000  0.858397  0.924000  1
  Ir  Ir8  1  0.250000  0.244253  0.905009  1
  Ir  Ir9  1  0.250000  0.744253  0.594991  1
  Ir  Ir10  1  0.750000  0.761274  0.141610  1
  Ir  Ir11  1  0.750000  0.261274  0.358390  1
