# generated using pymatgen
data_ThGa3Pd
_symmetry_space_group_name_H-M   'P 1'
_cell_length_a   6.12581509
_cell_length_b   6.12581461
_cell_length_c   6.12581508
_cell_angle_alpha   138.67514089
_cell_angle_beta   138.67513720
_cell_angle_gamma   59.87054770
_symmetry_Int_Tables_number   1
_chemical_formula_structural   ThGa3Pd
_chemical_formula_sum   'Th1 Ga3 Pd1'
_cell_volume   99.21410003
_cell_formula_units_Z   1
loop_
 _symmetry_equiv_pos_site_id
 _symmetry_equiv_pos_as_xyz
  1  'x, y, z'
loop_
 _atom_site_type_symbol
 _atom_site_label
 _atom_site_symmetry_multiplicity
 _atom_site_fract_x
 _atom_site_fract_y
 _atom_site_fract_z
 _atom_site_occupancy
  Th  Th0  1  0.999885  0.999885  0.000000  1
  Ga  Ga1  1  0.592394  0.592394  0.000000  1
  Ga  Ga2  1  0.741977  0.241977  0.500000  1
  Ga  Ga3  1  0.241977  0.741977  0.500000  1
  Pd  Pd4  1  0.361828  0.361828  0.000000  1
