# generated using pymatgen
data_NaCl37
_symmetry_space_group_name_H-M   'P 1'
_cell_length_a   12.54025145
_cell_length_b   12.26284315
_cell_length_c   12.11404658
_cell_angle_alpha   88.43152362
_cell_angle_beta   60.46815862
_cell_angle_gamma   75.38185470
_symmetry_Int_Tables_number   1
_chemical_formula_structural   NaCl37
_chemical_formula_sum   'Na1 Cl37'
_cell_volume   1557.94630723
_cell_formula_units_Z   1
loop_
 _symmetry_equiv_pos_site_id
 _symmetry_equiv_pos_as_xyz
  1  'x, y, z'
loop_
 _atom_site_type_symbol
 _atom_site_label
 _atom_site_symmetry_multiplicity
 _atom_site_fract_x
 _atom_site_fract_y
 _atom_site_fract_z
 _atom_site_occupancy
  Na  Na0  1  0.500000  0.000000  0.000000  1
  Cl  Cl1  1  0.771898  0.296058  0.080315  1
  Cl  Cl2  1  0.228102  0.703942  0.919685  1
  Cl  Cl3  1  0.790561  0.017341  0.284391  1
  Cl  Cl4  1  0.209439  0.982659  0.715609  1
  Cl  Cl5  1  0.149710  0.296385  0.118921  1
  Cl  Cl6  1  0.850290  0.703615  0.881079  1
  Cl  Cl7  1  0.835874  0.610230  0.213385  1
  Cl  Cl8  1  0.164126  0.389770  0.786615  1
  Cl  Cl9  1  0.654320  0.289507  0.527879  1
  Cl  Cl10  1  0.345680  0.710493  0.472121  1
  Cl  Cl11  1  0.016367  0.164345  0.438993  1
  Cl  Cl12  1  0.983633  0.835655  0.561007  1
  Cl  Cl13  1  0.960373  0.936493  0.262615  1
  Cl  Cl14  1  0.039627  0.063507  0.737385  1
  Cl  Cl15  1  0.954314  0.391333  0.636742  1
  Cl  Cl16  1  0.045686  0.608667  0.363258  1
  Cl  Cl17  1  0.607275  0.411739  0.196878  1
  Cl  Cl18  1  0.392725  0.588261  0.803122  1
  Cl  Cl19  1  0.177316  0.460310  0.283731  1
  Cl  Cl20  1  0.822684  0.539690  0.716269  1
  Cl  Cl21  1  0.000000  0.500000  0.000000  1
  Cl  Cl22  1  0.506752  0.962280  0.246058  1
  Cl  Cl23  1  0.493248  0.037720  0.753942  1
  Cl  Cl24  1  0.189085  0.054150  0.357903  1
  Cl  Cl25  1  0.810915  0.945850  0.642097  1
  Cl  Cl26  1  0.497381  0.111178  0.319534  1
  Cl  Cl27  1  0.502619  0.888822  0.680466  1
  Cl  Cl28  1  0.138165  0.165917  0.033367  1
  Cl  Cl29  1  0.861835  0.834083  0.966633  1
  Cl  Cl30  1  0.702207  0.707301  0.395557  1
  Cl  Cl31  1  0.297793  0.292699  0.604443  1
  Cl  Cl32  1  0.607311  0.184819  0.933647  1
  Cl  Cl33  1  0.392689  0.815181  0.066353  1
  Cl  Cl34  1  0.409056  0.241506  0.017395  1
  Cl  Cl35  1  0.590944  0.758494  0.982605  1
  Cl  Cl36  1  0.657973  0.428938  0.605883  1
  Cl  Cl37  1  0.342027  0.571062  0.394117  1
