# generated using pymatgen
data_TbTh(PdPt)3
_symmetry_space_group_name_H-M   'P 1'
_cell_length_a   5.90282900
_cell_length_b   5.90282663
_cell_length_c   9.71648200
_cell_angle_alpha   90.00000000
_cell_angle_beta   90.00000000
_cell_angle_gamma   119.99999646
_symmetry_Int_Tables_number   1
_chemical_formula_structural   TbTh(PdPt)3
_chemical_formula_sum   'Tb2 Th2 Pd6 Pt6'
_cell_volume   293.19727388
_cell_formula_units_Z   2
loop_
 _symmetry_equiv_pos_site_id
 _symmetry_equiv_pos_as_xyz
  1  'x, y, z'
loop_
 _atom_site_type_symbol
 _atom_site_label
 _atom_site_symmetry_multiplicity
 _atom_site_fract_x
 _atom_site_fract_y
 _atom_site_fract_z
 _atom_site_occupancy
  Tb  Tb0  1  0.333333  0.666667  0.250000  1
  Tb  Tb1  1  0.666667  0.333333  0.750000  1
  Th  Th2  1  0.000000  0.000000  0.500000  1
  Th  Th3  1  0.000000  0.000000  0.000000  1
  Pd  Pd4  1  0.825843  0.651687  0.250000  1
  Pd  Pd5  1  0.348313  0.174157  0.250000  1
  Pd  Pd6  1  0.825843  0.174157  0.250000  1
  Pd  Pd7  1  0.174157  0.348313  0.750000  1
  Pd  Pd8  1  0.651687  0.825843  0.750000  1
  Pd  Pd9  1  0.174157  0.825843  0.750000  1
  Pt  Pt10  1  0.500000  0.500000  0.500000  1
  Pt  Pt11  1  0.500000  0.000000  0.500000  1
  Pt  Pt12  1  0.000000  0.500000  0.500000  1
  Pt  Pt13  1  0.500000  0.500000  0.000000  1
  Pt  Pt14  1  0.500000  0.000000  0.000000  1
  Pt  Pt15  1  0.000000  0.500000  0.000000  1
