# generated using pymatgen
data_LaDy3Zn2(Co2B)6
_symmetry_space_group_name_H-M   'P 1'
_cell_length_a   5.13159348
_cell_length_b   5.13029705
_cell_length_c   12.65875400
_cell_angle_alpha   90.00000000
_cell_angle_beta   89.99997767
_cell_angle_gamma   120.01919298
_symmetry_Int_Tables_number   1
_chemical_formula_structural   LaDy3Zn2(Co2B)6
_chemical_formula_sum   'La1 Dy3 Zn2 Co12 B6'
_cell_volume   288.55747122
_cell_formula_units_Z   1
loop_
 _symmetry_equiv_pos_site_id
 _symmetry_equiv_pos_as_xyz
  1  'x, y, z'
loop_
 _atom_site_type_symbol
 _atom_site_label
 _atom_site_symmetry_multiplicity
 _atom_site_fract_x
 _atom_site_fract_y
 _atom_site_fract_z
 _atom_site_occupancy
  La  La0  1  0.000000  0.000000  0.000541  1
  Dy  Dy1  1  0.000000  0.000000  0.262028  1
  Dy  Dy2  1  0.000000  0.000000  0.499859  1
  Dy  Dy3  1  0.000000  0.000000  0.737907  1
  Zn  Zn4  1  0.333474  0.666927  0.000156  1
  Zn  Zn5  1  0.666526  0.333073  0.000156  1
  Co  Co6  1  0.500000  0.000001  0.612747  1
  Co  Co7  1  0.500000  0.000000  0.835699  1
  Co  Co8  1  0.500000  0.500000  0.835880  1
  Co  Co9  1  0.500000  0.500000  0.387039  1
  Co  Co10  1  0.000000  0.500000  0.612766  1
  Co  Co11  1  0.000000  0.500000  0.164190  1
  Co  Co12  1  0.000000  0.500000  0.835888  1
  Co  Co13  1  0.500000  0.500000  0.164156  1
  Co  Co14  1  0.500000  0.000000  0.387087  1
  Co  Co15  1  0.500000  0.000000  0.164319  1
  Co  Co16  1  0.500000  0.500000  0.612802  1
  Co  Co17  1  0.000000  0.500000  0.387071  1
  B  B18  1  0.666749  0.333613  0.728817  1
  B  B19  1  0.333251  0.666387  0.728817  1
  B  B20  1  0.333218  0.666384  0.271097  1
  B  B21  1  0.666595  0.333442  0.499940  1
  B  B22  1  0.666781  0.333616  0.271097  1
  B  B23  1  0.333405  0.666557  0.499940  1
