# generated using pymatgen
data_Nd3AgSnS7
_symmetry_space_group_name_H-M   'P 1'
_cell_length_a   10.32324001
_cell_length_b   10.32243970
_cell_length_c   6.05199400
_cell_angle_alpha   90.00000000
_cell_angle_beta   90.00000000
_cell_angle_gamma   119.99820742
_symmetry_Int_Tables_number   1
_chemical_formula_structural   Nd3AgSnS7
_chemical_formula_sum   'Nd6 Ag2 Sn2 S14'
_cell_volume   558.51564630
_cell_formula_units_Z   2
loop_
 _symmetry_equiv_pos_site_id
 _symmetry_equiv_pos_as_xyz
  1  'x, y, z'
loop_
 _atom_site_type_symbol
 _atom_site_label
 _atom_site_symmetry_multiplicity
 _atom_site_fract_x
 _atom_site_fract_y
 _atom_site_fract_z
 _atom_site_occupancy
  Nd  Nd0  1  0.869967  0.228691  0.459986  1
  Nd  Nd1  1  0.358730  0.130024  0.459985  1
  Nd  Nd2  1  0.771297  0.641277  0.459988  1
  Nd  Nd3  1  0.130033  0.771309  0.959986  1
  Nd  Nd4  1  0.228704  0.358723  0.959987  1
  Nd  Nd5  1  0.641269  0.869975  0.959986  1
  Ag  Ag6  1  0.000001  0.000006  0.025846  1
  Ag  Ag7  1  0.999999  0.999994  0.525846  1
  Sn  Sn8  1  0.333504  0.666902  0.385675  1
  Sn  Sn9  1  0.666495  0.333099  0.885674  1
  S  S10  1  0.486961  0.579214  0.209305  1
  S  S11  1  0.420770  0.907713  0.209334  1
  S  S12  1  0.092236  0.513031  0.209289  1
  S  S13  1  0.666671  0.333338  0.278883  1
  S  S14  1  0.102244  0.830863  0.490359  1
  S  S15  1  0.169128  0.271374  0.490355  1
  S  S16  1  0.728625  0.897751  0.490355  1
  S  S17  1  0.513039  0.420786  0.709305  1
  S  S18  1  0.579230  0.092286  0.709333  1
  S  S19  1  0.907765  0.486969  0.709290  1
  S  S20  1  0.333329  0.666662  0.778883  1
  S  S21  1  0.897756  0.169137  0.990359  1
  S  S22  1  0.271375  0.102248  0.990354  1
  S  S23  1  0.830872  0.728626  0.990354  1
