# generated using pymatgen
data_Sm4Dy2Cd23As
_symmetry_space_group_name_H-M   'P 1'
_cell_length_a   9.98061802
_cell_length_b   9.98415927
_cell_length_c   9.98415900
_cell_angle_alpha   60.07708622
_cell_angle_beta   60.01173896
_cell_angle_gamma   60.01173191
_symmetry_Int_Tables_number   1
_chemical_formula_structural   Sm4Dy2Cd23As
_chemical_formula_sum   'Sm4 Dy2 Cd23 As1'
_cell_volume   704.03605487
_cell_formula_units_Z   1
loop_
 _symmetry_equiv_pos_site_id
 _symmetry_equiv_pos_as_xyz
  1  'x, y, z'
loop_
 _atom_site_type_symbol
 _atom_site_label
 _atom_site_symmetry_multiplicity
 _atom_site_fract_x
 _atom_site_fract_y
 _atom_site_fract_z
 _atom_site_occupancy
  Sm  Sm0  1  0.793723  0.205660  0.206841  1
  Sm  Sm1  1  0.205464  0.204726  0.795243  1
  Sm  Sm2  1  0.794536  0.204757  0.795274  1
  Sm  Sm3  1  0.206277  0.793159  0.794340  1
  Dy  Dy4  1  0.796542  0.796490  0.203613  1
  Dy  Dy5  1  0.203458  0.796387  0.203510  1
  Cd  Cd6  1  0.836777  0.834605  0.491743  1
  Cd  Cd7  1  0.834609  0.496516  0.834174  1
  Cd  Cd8  1  0.492797  0.834758  0.836320  1
  Cd  Cd9  1  0.836139  0.834703  0.836278  1
  Cd  Cd10  1  0.165391  0.165826  0.503484  1
  Cd  Cd11  1  0.163223  0.508257  0.165395  1
  Cd  Cd12  1  0.507203  0.163680  0.165242  1
  Cd  Cd13  1  0.163861  0.163722  0.165297  1
  Cd  Cd14  1  0.619982  0.623047  0.136930  1
  Cd  Cd15  1  0.621725  0.134273  0.622218  1
  Cd  Cd16  1  0.135953  0.622255  0.619602  1
  Cd  Cd17  1  0.622199  0.622271  0.619619  1
  Cd  Cd18  1  0.378275  0.377782  0.865727  1
  Cd  Cd19  1  0.380018  0.863070  0.376953  1
  Cd  Cd20  1  0.864047  0.380398  0.377745  1
  Cd  Cd21  1  0.377801  0.380381  0.377729  1
  Cd  Cd22  1  0.999864  0.999214  0.500353  1
  Cd  Cd23  1  0.500590  0.999215  0.500344  1
  Cd  Cd24  1  0.000000  0.500115  0.499885  1
  Cd  Cd25  1  0.499410  0.499656  0.000785  1
  Cd  Cd26  1  0.000136  0.499647  0.000786  1
  Cd  Cd27  1  0.500000  0.999586  0.000414  1
  Cd  Cd28  1  0.500000  0.498697  0.501303  1
  As  As29  1  0.000000  0.997151  0.002849  1
