# generated using pymatgen
data_SmTh2In3Ru2Rh
_symmetry_space_group_name_H-M   'P 1'
_cell_length_a   7.34599800
_cell_length_b   7.72743662
_cell_length_c   4.06853300
_cell_angle_alpha   90.00000000
_cell_angle_beta   90.00000000
_cell_angle_gamma   118.38012676
_symmetry_Int_Tables_number   1
_chemical_formula_structural   SmTh2In3Ru2Rh
_chemical_formula_sum   'Sm1 Th2 In3 Ru2 Rh1'
_cell_volume   203.19579591
_cell_formula_units_Z   1
loop_
 _symmetry_equiv_pos_site_id
 _symmetry_equiv_pos_as_xyz
  1  'x, y, z'
loop_
 _atom_site_type_symbol
 _atom_site_label
 _atom_site_symmetry_multiplicity
 _atom_site_fract_x
 _atom_site_fract_y
 _atom_site_fract_z
 _atom_site_occupancy
  Sm  Sm0  1  0.407455  0.000000  0.500000  1
  Th  Th1  1  0.998424  0.417349  0.500000  1
  Th  Th2  1  0.581075  0.582651  0.500000  1
  In  In3  1  0.249876  0.236911  0.000000  1
  In  In4  1  0.012965  0.763089  0.000000  1
  In  In5  1  0.734785  0.000000  0.000000  1
  Ru  Ru6  1  0.329993  0.633780  0.000000  1
  Ru  Ru7  1  0.696214  0.366220  0.000000  1
  Rh  Rh8  1  0.989213  0.000000  0.500000  1
