# generated using pymatgen
data_Er4InNi
_symmetry_space_group_name_H-M   'P 1'
_cell_length_a   9.47503251
_cell_length_b   9.47503177
_cell_length_c   9.47503300
_cell_angle_alpha   59.99999920
_cell_angle_beta   60.00000177
_cell_angle_gamma   60.00000062
_symmetry_Int_Tables_number   1
_chemical_formula_structural   Er4InNi
_chemical_formula_sum   'Er16 In4 Ni4'
_cell_volume   601.48821439
_cell_formula_units_Z   4
loop_
 _symmetry_equiv_pos_site_id
 _symmetry_equiv_pos_as_xyz
  1  'x, y, z'
loop_
 _atom_site_type_symbol
 _atom_site_label
 _atom_site_symmetry_multiplicity
 _atom_site_fract_x
 _atom_site_fract_y
 _atom_site_fract_z
 _atom_site_occupancy
  Er  Er0  1  0.347799  0.347799  0.347799  1
  Er  Er1  1  0.347799  0.347799  0.956605  1
  Er  Er2  1  0.347799  0.956605  0.347799  1
  Er  Er3  1  0.956605  0.347799  0.347799  1
  Er  Er4  1  0.812031  0.187969  0.187969  1
  Er  Er5  1  0.187969  0.812031  0.812031  1
  Er  Er6  1  0.187969  0.812031  0.187969  1
  Er  Er7  1  0.812031  0.187969  0.812031  1
  Er  Er8  1  0.187969  0.187969  0.812031  1
  Er  Er9  1  0.812031  0.812031  0.187969  1
  Er  Er10  1  0.937822  0.562178  0.562178  1
  Er  Er11  1  0.562178  0.937822  0.937822  1
  Er  Er12  1  0.562178  0.937822  0.562178  1
  Er  Er13  1  0.937822  0.562178  0.937822  1
  Er  Er14  1  0.562178  0.562178  0.937822  1
  Er  Er15  1  0.937822  0.937822  0.562178  1
  In  In16  1  0.582545  0.582545  0.582545  1
  In  In17  1  0.582545  0.582545  0.252364  1
  In  In18  1  0.582545  0.252364  0.582545  1
  In  In19  1  0.252364  0.582545  0.582545  1
  Ni  Ni20  1  0.142460  0.142460  0.142460  1
  Ni  Ni21  1  0.142460  0.142460  0.572620  1
  Ni  Ni22  1  0.142460  0.572620  0.142460  1
  Ni  Ni23  1  0.572620  0.142460  0.142460  1
