# generated using pymatgen
data_Y14Ho2In4Ir3Rh
_symmetry_space_group_name_H-M   'P 1'
_cell_length_a   9.69985228
_cell_length_b   9.71879100
_cell_length_c   9.68333883
_cell_angle_alpha   59.87882033
_cell_angle_beta   59.82775901
_cell_angle_gamma   59.93539994
_symmetry_Int_Tables_number   1
_chemical_formula_structural   Y14Ho2In4Ir3Rh
_chemical_formula_sum   'Y14 Ho2 In4 Ir3 Rh1'
_cell_volume   643.73802155
_cell_formula_units_Z   1
loop_
 _symmetry_equiv_pos_site_id
 _symmetry_equiv_pos_as_xyz
  1  'x, y, z'
loop_
 _atom_site_type_symbol
 _atom_site_label
 _atom_site_symmetry_multiplicity
 _atom_site_fract_x
 _atom_site_fract_y
 _atom_site_fract_z
 _atom_site_occupancy
  Y  Y0  1  0.189775  0.188825  0.810097  1
  Y  Y1  1  0.600740  0.599452  0.200355  1
  Y  Y2  1  0.441032  0.059237  0.440494  1
  Y  Y3  1  0.440016  0.441021  0.059348  1
  Y  Y4  1  0.811550  0.189408  0.809633  1
  Y  Y5  1  0.189989  0.810136  0.189740  1
  Y  Y6  1  0.440016  0.059616  0.059348  1
  Y  Y7  1  0.189775  0.811303  0.810097  1
  Y  Y8  1  0.059081  0.440324  0.060271  1
  Y  Y9  1  0.810264  0.809623  0.190392  1
  Y  Y10  1  0.199870  0.599758  0.600614  1
  Y  Y11  1  0.058676  0.441409  0.439974  1
  Y  Y12  1  0.058676  0.059943  0.439974  1
  Y  Y13  1  0.810264  0.189721  0.190392  1
  Ho  Ho14  1  0.599281  0.204189  0.598515  1
  Ho  Ho15  1  0.599281  0.598015  0.598515  1
  In  In16  1  0.833216  0.833865  0.833003  1
  In  In17  1  0.832638  0.833055  0.501252  1
  In  In18  1  0.501172  0.833125  0.832578  1
  In  In19  1  0.833216  0.499917  0.833003  1
  Ir  Ir20  1  0.392358  0.824292  0.392798  1
  Ir  Ir21  1  0.392358  0.390552  0.392798  1
  Ir  Ir22  1  0.823160  0.391494  0.393852  1
  Rh  Rh23  1  0.393599  0.391722  0.822955  1
