# generated using pymatgen
data_Ca2Sc6Re(B8Ru)3
_symmetry_space_group_name_H-M   'P 1'
_cell_length_a   3.51961400
_cell_length_b   8.95258452
_cell_length_c   11.30231667
_cell_angle_alpha   90.03105703
_cell_angle_beta   90.00000000
_cell_angle_gamma   90.00000000
_symmetry_Int_Tables_number   1
_chemical_formula_structural   Ca2Sc6Re(B8Ru)3
_chemical_formula_sum   'Ca2 Sc6 Re1 B24 Ru3'
_cell_volume   356.13189742
_cell_formula_units_Z   1
loop_
 _symmetry_equiv_pos_site_id
 _symmetry_equiv_pos_as_xyz
  1  'x, y, z'
loop_
 _atom_site_type_symbol
 _atom_site_label
 _atom_site_symmetry_multiplicity
 _atom_site_fract_x
 _atom_site_fract_y
 _atom_site_fract_z
 _atom_site_occupancy
  Ca  Ca0  1  0.000000  0.322291  0.414842  1
  Ca  Ca1  1  0.000000  0.677901  0.585215  1
  Sc  Sc2  1  0.000000  0.822118  0.084318  1
  Sc  Sc3  1  0.000000  0.178047  0.914319  1
  Sc  Sc4  1  0.000000  0.943012  0.368579  1
  Sc  Sc5  1  0.000000  0.057045  0.630410  1
  Sc  Sc6  1  0.000000  0.443079  0.128510  1
  Sc  Sc7  1  0.000000  0.555054  0.872342  1
  Re  Re8  1  0.000000  0.863177  0.823342  1
  B  B9  1  0.500000  0.555351  0.431349  1
  B  B10  1  0.500000  0.445351  0.568938  1
  B  B11  1  0.500000  0.054041  0.064847  1
  B  B12  1  0.500000  0.947383  0.936614  1
  B  B13  1  0.500000  0.753213  0.416252  1
  B  B14  1  0.500000  0.246926  0.583619  1
  B  B15  1  0.500000  0.251668  0.078787  1
  B  B16  1  0.500000  0.746434  0.922496  1
  B  B17  1  0.500000  0.795249  0.260831  1
  B  B18  1  0.500000  0.205260  0.738277  1
  B  B19  1  0.500000  0.293026  0.233378  1
  B  B20  1  0.500000  0.705208  0.766978  1
  B  B21  1  0.500000  0.630586  0.180579  1
  B  B22  1  0.500000  0.369021  0.819218  1
  B  B23  1  0.500000  0.129241  0.315115  1
  B  B24  1  0.500000  0.871872  0.684395  1
  B  B25  1  0.500000  0.980528  0.210515  1
  B  B26  1  0.500000  0.021769  0.789465  1
  B  B27  1  0.500000  0.482487  0.284907  1
  B  B28  1  0.500000  0.517399  0.715528  1
  B  B29  1  0.500000  0.598040  0.027202  1
  B  B30  1  0.500000  0.399863  0.973397  1
  B  B31  1  0.500000  0.095305  0.473561  1
  B  B32  1  0.500000  0.905424  0.525358  1
  Ru  Ru33  1  0.000000  0.643160  0.314027  1
  Ru  Ru34  1  0.000000  0.357137  0.685089  1
  Ru  Ru35  1  0.000000  0.137334  0.177400  1
