# generated using pymatgen
data_Dy5ErCo17ReP12
_symmetry_space_group_name_H-M   'P 1'
_cell_length_a   3.69901800
_cell_length_b   10.50886901
_cell_length_c   12.20143001
_cell_angle_alpha   90.00514672
_cell_angle_beta   90.00000000
_cell_angle_gamma   90.00000000
_symmetry_Int_Tables_number   1
_chemical_formula_structural   Dy5ErCo17ReP12
_chemical_formula_sum   'Dy5 Er1 Co17 Re1 P12'
_cell_volume   474.30003292
_cell_formula_units_Z   1
loop_
 _symmetry_equiv_pos_site_id
 _symmetry_equiv_pos_as_xyz
  1  'x, y, z'
loop_
 _atom_site_type_symbol
 _atom_site_label
 _atom_site_symmetry_multiplicity
 _atom_site_fract_x
 _atom_site_fract_y
 _atom_site_fract_z
 _atom_site_occupancy
  Dy  Dy0  1  0.750000  0.250004  0.475720  1
  Dy  Dy1  1  0.250000  0.749958  0.522505  1
  Dy  Dy2  1  0.250000  0.932037  0.793050  1
  Dy  Dy3  1  0.750000  0.067308  0.204865  1
  Dy  Dy4  1  0.750000  0.432713  0.204879  1
  Er  Er5  1  0.250000  0.567823  0.793039  1
  Co  Co6  1  0.750000  0.749978  0.160555  1
  Co  Co7  1  0.250000  0.250021  0.297408  1
  Co  Co8  1  0.750000  0.749558  0.703632  1
  Co  Co9  1  0.750000  0.250104  0.011634  1
  Co  Co10  1  0.250000  0.749823  0.985213  1
  Co  Co11  1  0.250000  0.417781  0.008677  1
  Co  Co12  1  0.250000  0.082367  0.008812  1
  Co  Co13  1  0.750000  0.583493  0.993935  1
  Co  Co14  1  0.750000  0.916387  0.994180  1
  Co  Co15  1  0.250000  0.453504  0.569312  1
  Co  Co16  1  0.250000  0.046573  0.569098  1
  Co  Co17  1  0.750000  0.546840  0.431206  1
  Co  Co18  1  0.750000  0.953134  0.431123  1
  Co  Co19  1  0.250000  0.871080  0.291491  1
  Co  Co20  1  0.250000  0.628906  0.291511  1
  Co  Co21  1  0.750000  0.129285  0.708474  1
  Co  Co22  1  0.750000  0.371166  0.708674  1
  Re  Re23  1  0.250000  0.250106  0.842755  1
  P  P24  1  0.250000  0.250031  0.119119  1
  P  P25  1  0.750000  0.749574  0.882490  1
  P  P26  1  0.250000  0.249947  0.649991  1
  P  P27  1  0.750000  0.749996  0.344639  1
  P  P28  1  0.250000  0.438899  0.383669  1
  P  P29  1  0.250000  0.061139  0.383640  1
  P  P30  1  0.750000  0.561584  0.616036  1
  P  P31  1  0.750000  0.938450  0.615526  1
  P  P32  1  0.250000  0.900134  0.108362  1
  P  P33  1  0.250000  0.599855  0.108431  1
  P  P34  1  0.750000  0.093831  0.893332  1
  P  P35  1  0.750000  0.406611  0.893018  1
