# generated using pymatgen
data_YScB6Ir
_symmetry_space_group_name_H-M   'P 1'
_cell_length_a   3.55106200
_cell_length_b   9.01753200
_cell_length_c   11.38934400
_cell_angle_alpha   90.00000000
_cell_angle_beta   90.00000000
_cell_angle_gamma   90.00000000
_symmetry_Int_Tables_number   1
_chemical_formula_structural   YScB6Ir
_chemical_formula_sum   'Y4 Sc4 B24 Ir4'
_cell_volume   364.70746903
_cell_formula_units_Z   4
loop_
 _symmetry_equiv_pos_site_id
 _symmetry_equiv_pos_as_xyz
  1  'x, y, z'
loop_
 _atom_site_type_symbol
 _atom_site_label
 _atom_site_symmetry_multiplicity
 _atom_site_fract_x
 _atom_site_fract_y
 _atom_site_fract_z
 _atom_site_occupancy
  Y  Y0  1  0.500000  0.319747  0.413880  1
  Y  Y1  1  0.500000  0.680253  0.586120  1
  Y  Y2  1  0.500000  0.180253  0.913880  1
  Y  Y3  1  0.500000  0.819747  0.086120  1
  Sc  Sc4  1  0.500000  0.445103  0.124490  1
  Sc  Sc5  1  0.500000  0.554897  0.875510  1
  Sc  Sc6  1  0.500000  0.054897  0.624490  1
  Sc  Sc7  1  0.500000  0.945103  0.375510  1
  B  B8  1  0.000000  0.100052  0.472823  1
  B  B9  1  0.000000  0.899948  0.527177  1
  B  B10  1  0.000000  0.399948  0.972823  1
  B  B11  1  0.000000  0.600052  0.027177  1
  B  B12  1  0.000000  0.129708  0.318303  1
  B  B13  1  0.000000  0.870292  0.681697  1
  B  B14  1  0.000000  0.370292  0.818303  1
  B  B15  1  0.000000  0.629708  0.181697  1
  B  B16  1  0.000000  0.054691  0.065795  1
  B  B17  1  0.000000  0.945309  0.934205  1
  B  B18  1  0.000000  0.445309  0.565795  1
  B  B19  1  0.000000  0.554691  0.434205  1
  B  B20  1  0.000000  0.481644  0.284952  1
  B  B21  1  0.000000  0.518356  0.715048  1
  B  B22  1  0.000000  0.018356  0.784952  1
  B  B23  1  0.000000  0.981644  0.215048  1
  B  B24  1  0.000000  0.254298  0.080252  1
  B  B25  1  0.000000  0.745702  0.919748  1
  B  B26  1  0.000000  0.245702  0.580252  1
  B  B27  1  0.000000  0.754298  0.419748  1
  B  B28  1  0.000000  0.295872  0.235093  1
  B  B29  1  0.000000  0.704128  0.764907  1
  B  B30  1  0.000000  0.204128  0.735093  1
  B  B31  1  0.000000  0.795872  0.264907  1
  Ir  Ir32  1  0.500000  0.141489  0.181365  1
  Ir  Ir33  1  0.500000  0.858511  0.818635  1
  Ir  Ir34  1  0.500000  0.358511  0.681365  1
  Ir  Ir35  1  0.500000  0.641489  0.318635  1
