# generated using pymatgen
data_La7Nd2HoIn6
_symmetry_space_group_name_H-M   'P 1'
_cell_length_a   6.24760370
_cell_length_b   9.55080790
_cell_length_c   9.58161517
_cell_angle_alpha   83.94034374
_cell_angle_beta   71.11201656
_cell_angle_gamma   71.16071864
_symmetry_Int_Tables_number   1
_chemical_formula_structural   La7Nd2HoIn6
_chemical_formula_sum   'La7 Nd2 Ho1 In6'
_cell_volume   511.96602317
_cell_formula_units_Z   1
loop_
 _symmetry_equiv_pos_site_id
 _symmetry_equiv_pos_as_xyz
  1  'x, y, z'
loop_
 _atom_site_type_symbol
 _atom_site_label
 _atom_site_symmetry_multiplicity
 _atom_site_fract_x
 _atom_site_fract_y
 _atom_site_fract_z
 _atom_site_occupancy
  La  La0  1  0.725233  0.863145  0.690978  1
  La  La1  1  0.279497  0.135979  0.309955  1
  La  La2  1  0.774339  0.310012  0.137303  1
  La  La3  1  0.220532  0.689725  0.863866  1
  La  La4  1  0.584533  0.690022  0.138016  1
  La  La5  1  0.410666  0.309359  0.862914  1
  La  La6  1  0.089320  0.137173  0.690723  1
  Nd  Nd7  1  0.915724  0.864855  0.306248  1
  Nd  Nd8  1  0.749797  0.501114  0.498948  1
  Ho  Ho9  1  0.250067  0.500388  0.499699  1
  In  In10  1  0.161040  0.501220  0.183374  1
  In  In11  1  0.845100  0.500000  0.817059  1
  In  In12  1  0.338415  0.817142  0.498755  1
  In  In13  1  0.656602  0.181329  0.498827  1
  In  In14  1  0.248569  0.999608  0.001462  1
  In  In15  1  0.750565  0.998930  0.001873  1
