# generated using pymatgen
data_K11Bi5Pb2
_symmetry_space_group_name_H-M   'P 1'
_cell_length_a   10.33290601
_cell_length_b   12.55143522
_cell_length_c   13.32518569
_cell_angle_alpha   103.45158902
_cell_angle_beta   96.82454877
_cell_angle_gamma   107.54251656
_symmetry_Int_Tables_number   1
_chemical_formula_structural   K11Bi5Pb2
_chemical_formula_sum   'K22 Bi10 Pb4'
_cell_volume   1568.98633841
_cell_formula_units_Z   2
loop_
 _symmetry_equiv_pos_site_id
 _symmetry_equiv_pos_as_xyz
  1  'x, y, z'
loop_
 _atom_site_type_symbol
 _atom_site_label
 _atom_site_symmetry_multiplicity
 _atom_site_fract_x
 _atom_site_fract_y
 _atom_site_fract_z
 _atom_site_occupancy
  K  K0  1  0.850675  0.570148  0.961511  1
  K  K1  1  0.149325  0.429852  0.038489  1
  K  K2  1  0.306009  0.895128  0.774942  1
  K  K3  1  0.693991  0.104872  0.225058  1
  K  K4  1  0.629907  0.163364  0.531238  1
  K  K5  1  0.370093  0.836636  0.468762  1
  K  K6  1  0.630624  0.673183  0.557436  1
  K  K7  1  0.369376  0.326817  0.442564  1
  K  K8  1  0.192966  0.555982  0.570648  1
  K  K9  1  0.807034  0.444018  0.429352  1
  K  K10  1  0.051334  0.703587  0.263162  1
  K  K11  1  0.948666  0.296413  0.736838  1
  K  K12  1  0.196613  0.076715  0.571080  1
  K  K13  1  0.803387  0.923285  0.428920  1
  K  K14  1  0.875379  0.097811  0.984979  1
  K  K15  1  0.124621  0.902189  0.015021  1
  K  K16  1  0.582011  0.226945  0.862331  1
  K  K17  1  0.417989  0.773055  0.137669  1
  K  K18  1  0.390884  0.247008  0.142640  1
  K  K19  1  0.609116  0.752992  0.857360  1
  K  K20  1  0.353205  0.414870  0.791303  1
  K  K21  1  0.646795  0.585130  0.208697  1
  Bi  Bi22  1  0.003262  0.761998  0.537059  1
  Bi  Bi23  1  0.996738  0.238002  0.462941  1
  Bi  Bi24  1  0.656953  0.447775  0.685436  1
  Bi  Bi25  1  0.343047  0.552225  0.314564  1
  Bi  Bi26  1  0.654104  0.975879  0.699418  1
  Bi  Bi27  1  0.345896  0.024121  0.300582  1
  Bi  Bi28  1  0.196762  0.156823  0.868795  1
  Bi  Bi29  1  0.803238  0.843177  0.131205  1
  Bi  Bi30  1  0.196508  0.631036  0.867110  1
  Bi  Bi31  1  0.803492  0.368964  0.132890  1
  Pb  Pb32  1  0.939238  0.930356  0.740363  1
  Pb  Pb33  1  0.060762  0.069644  0.259637  1
  Pb  Pb34  1  0.938054  0.665861  0.738119  1
  Pb  Pb35  1  0.061946  0.334139  0.261881  1
