# generated using pymatgen
data_Th8MgSe17
_symmetry_space_group_name_H-M   'P 1'
_cell_length_a   8.50602421
_cell_length_b   8.50602374
_cell_length_c   11.32692703
_cell_angle_alpha   79.96068733
_cell_angle_beta   79.96068844
_cell_angle_gamma   64.32515796
_symmetry_Int_Tables_number   1
_chemical_formula_structural   Th8MgSe17
_chemical_formula_sum   'Th8 Mg1 Se17'
_cell_volume   722.78623019
_cell_formula_units_Z   1
loop_
 _symmetry_equiv_pos_site_id
 _symmetry_equiv_pos_as_xyz
  1  'x, y, z'
loop_
 _atom_site_type_symbol
 _atom_site_label
 _atom_site_symmetry_multiplicity
 _atom_site_fract_x
 _atom_site_fract_y
 _atom_site_fract_z
 _atom_site_occupancy
  Th  Th0  1  0.184372  0.697100  0.703193  1
  Th  Th1  1  0.697100  0.184372  0.703193  1
  Th  Th2  1  0.815628  0.302900  0.296807  1
  Th  Th3  1  0.302900  0.815628  0.296807  1
  Th  Th4  1  0.796559  0.796559  0.456368  1
  Th  Th5  1  0.203441  0.203441  0.543632  1
  Th  Th6  1  0.316507  0.316507  0.019837  1
  Th  Th7  1  0.683493  0.683493  0.980163  1
  Mg  Mg8  1  0.000000  0.000000  0.000000  1
  Se  Se9  1  0.177702  0.568596  0.468371  1
  Se  Se10  1  0.568596  0.177702  0.468371  1
  Se  Se11  1  0.822298  0.431404  0.531629  1
  Se  Se12  1  0.431404  0.822298  0.531629  1
  Se  Se13  1  0.055565  0.672074  0.964157  1
  Se  Se14  1  0.672074  0.055565  0.964157  1
  Se  Se15  1  0.944435  0.327926  0.035843  1
  Se  Se16  1  0.327926  0.944435  0.035843  1
  Se  Se17  1  0.789269  0.789269  0.720575  1
  Se  Se18  1  0.210731  0.210731  0.279425  1
  Se  Se19  1  0.941657  0.941657  0.231095  1
  Se  Se20  1  0.058343  0.058343  0.768905  1
  Se  Se21  1  0.697857  0.697857  0.246872  1
  Se  Se22  1  0.302143  0.302143  0.753128  1
  Se  Se23  1  0.480813  0.480813  0.168973  1
  Se  Se24  1  0.519187  0.519187  0.831027  1
  Se  Se25  1  0.000000  0.000000  0.500000  1
