# generated using pymatgen
data_Mo2Os3Ru2Rh
_symmetry_space_group_name_H-M   'P 1'
_cell_length_a   5.54549231
_cell_length_b   5.54549194
_cell_length_c   4.37386400
_cell_angle_alpha   90.00000000
_cell_angle_beta   90.00000000
_cell_angle_gamma   120.10100757
_symmetry_Int_Tables_number   1
_chemical_formula_structural   Mo2Os3Ru2Rh
_chemical_formula_sum   'Mo2 Os3 Ru2 Rh1'
_cell_volume   116.36788968
_cell_formula_units_Z   1
loop_
 _symmetry_equiv_pos_site_id
 _symmetry_equiv_pos_as_xyz
  1  'x, y, z'
loop_
 _atom_site_type_symbol
 _atom_site_label
 _atom_site_symmetry_multiplicity
 _atom_site_fract_x
 _atom_site_fract_y
 _atom_site_fract_z
 _atom_site_occupancy
  Mo  Mo0  1  0.665893  0.334107  0.250000  1
  Mo  Mo1  1  0.337252  0.662748  0.750000  1
  Os  Os2  1  0.333015  0.172964  0.750000  1
  Os  Os3  1  0.827036  0.666985  0.750000  1
  Os  Os4  1  0.167497  0.832503  0.250000  1
  Ru  Ru5  1  0.667240  0.833074  0.250000  1
  Ru  Ru6  1  0.166926  0.332760  0.250000  1
  Rh  Rh7  1  0.835143  0.164857  0.750000  1
