# generated using pymatgen
data_Y2TaMoO8
_symmetry_space_group_name_H-M   'P 1'
_cell_length_a   5.52008400
_cell_length_b   5.17364415
_cell_length_c   5.34552028
_cell_angle_alpha   83.38006928
_cell_angle_beta   90.00000000
_cell_angle_gamma   90.00000000
_symmetry_Int_Tables_number   1
_chemical_formula_structural   Y2TaMoO8
_chemical_formula_sum   'Y2 Ta1 Mo1 O8'
_cell_volume   151.64460526
_cell_formula_units_Z   1
loop_
 _symmetry_equiv_pos_site_id
 _symmetry_equiv_pos_as_xyz
  1  'x, y, z'
loop_
 _atom_site_type_symbol
 _atom_site_label
 _atom_site_symmetry_multiplicity
 _atom_site_fract_x
 _atom_site_fract_y
 _atom_site_fract_z
 _atom_site_occupancy
  Y  Y0  1  0.765239  0.000000  0.750000  1
  Y  Y1  1  0.237135  0.000000  0.250000  1
  Ta  Ta2  1  0.307646  0.500000  0.750000  1
  Mo  Mo3  1  0.695436  0.500000  0.250000  1
  O  O4  1  0.564332  0.266318  0.010465  1
  O  O5  1  0.564332  0.733682  0.489535  1
  O  O6  1  0.435270  0.731716  0.992102  1
  O  O7  1  0.435270  0.268284  0.507898  1
  O  O8  1  0.086085  0.749018  0.601690  1
  O  O9  1  0.086085  0.250982  0.898310  1
  O  O10  1  0.911584  0.244755  0.396159  1
  O  O11  1  0.911584  0.755245  0.103841  1
