# generated using pymatgen
data_Tm5ThTcPt
_symmetry_space_group_name_H-M   'P 1'
_cell_length_a   6.28655900
_cell_length_b   7.26576800
_cell_length_c   9.23110500
_cell_angle_alpha   90.00000000
_cell_angle_beta   90.00000000
_cell_angle_gamma   90.00000000
_symmetry_Int_Tables_number   1
_chemical_formula_structural   Tm5ThTcPt
_chemical_formula_sum   'Tm10 Th2 Tc2 Pt2'
_cell_volume   421.64622186
_cell_formula_units_Z   2
loop_
 _symmetry_equiv_pos_site_id
 _symmetry_equiv_pos_as_xyz
  1  'x, y, z'
loop_
 _atom_site_type_symbol
 _atom_site_label
 _atom_site_symmetry_multiplicity
 _atom_site_fract_x
 _atom_site_fract_y
 _atom_site_fract_z
 _atom_site_occupancy
  Tm  Tm0  1  0.331070  0.677379  0.064171  1
  Tm  Tm1  1  0.168930  0.177379  0.435829  1
  Tm  Tm2  1  0.666094  0.321292  0.563137  1
  Tm  Tm3  1  0.833906  0.821292  0.936863  1
  Tm  Tm4  1  0.666094  0.321292  0.936863  1
  Tm  Tm5  1  0.833906  0.821292  0.563137  1
  Tm  Tm6  1  0.331070  0.677379  0.435829  1
  Tm  Tm7  1  0.168930  0.177379  0.064171  1
  Tm  Tm8  1  0.132555  0.466440  0.750000  1
  Tm  Tm9  1  0.367445  0.966440  0.750000  1
  Th  Th10  1  0.865038  0.547249  0.250000  1
  Th  Th11  1  0.634962  0.047249  0.250000  1
  Tc  Tc12  1  0.023892  0.872599  0.250000  1
  Tc  Tc13  1  0.476108  0.372599  0.250000  1
  Pt  Pt14  1  0.951727  0.116369  0.750000  1
  Pt  Pt15  1  0.548273  0.616369  0.750000  1
