# generated using pymatgen
data_Ca21Al10CdSb4
_symmetry_space_group_name_H-M   'P 1'
_cell_length_a   11.34068503
_cell_length_b   11.40771312
_cell_length_c   11.40771400
_cell_angle_alpha   59.71853997
_cell_angle_beta   60.19417863
_cell_angle_gamma   60.19417290
_symmetry_Int_Tables_number   1
_chemical_formula_structural   Ca21Al10CdSb4
_chemical_formula_sum   'Ca21 Al10 Cd1 Sb4'
_cell_volume   1044.36487051
_cell_formula_units_Z   1
loop_
 _symmetry_equiv_pos_site_id
 _symmetry_equiv_pos_as_xyz
  1  'x, y, z'
loop_
 _atom_site_type_symbol
 _atom_site_label
 _atom_site_symmetry_multiplicity
 _atom_site_fract_x
 _atom_site_fract_y
 _atom_site_fract_z
 _atom_site_occupancy
  Ca  Ca0  1  0.000000  0.005135  0.994865  1
  Ca  Ca1  1  0.132111  0.131613  0.121334  1
  Ca  Ca2  1  0.385058  0.878666  0.868387  1
  Ca  Ca3  1  0.874927  0.383727  0.866418  1
  Ca  Ca4  1  0.870597  0.870384  0.388423  1
  Ca  Ca5  1  0.129403  0.611577  0.129616  1
  Ca  Ca6  1  0.125073  0.133582  0.616273  1
  Ca  Ca7  1  0.614942  0.131613  0.121334  1
  Ca  Ca8  1  0.867889  0.878666  0.868387  1
  Ca  Ca9  1  0.497353  0.818976  0.503029  1
  Ca  Ca10  1  0.817954  0.493627  0.506373  1
  Ca  Ca11  1  0.500000  0.818054  0.181946  1
  Ca  Ca12  1  0.180965  0.495836  0.819147  1
  Ca  Ca13  1  0.819358  0.496971  0.181024  1
  Ca  Ca14  1  0.504051  0.495836  0.819147  1
  Ca  Ca15  1  0.180642  0.818976  0.503029  1
  Ca  Ca16  1  0.500000  0.180876  0.819124  1
  Ca  Ca17  1  0.502647  0.496971  0.181024  1
  Ca  Ca18  1  0.819035  0.180853  0.504164  1
  Ca  Ca19  1  0.182046  0.493627  0.506373  1
  Ca  Ca20  1  0.495949  0.180853  0.504164  1
  Al  Al21  1  0.213402  0.211786  0.788214  1
  Al  Al22  1  0.786598  0.211786  0.788214  1
  Al  Al23  1  0.309912  0.309483  0.306856  1
  Al  Al24  1  0.926250  0.693144  0.690517  1
  Al  Al25  1  0.691761  0.927869  0.688609  1
  Al  Al26  1  0.691720  0.692066  0.924495  1
  Al  Al27  1  0.308280  0.075505  0.307934  1
  Al  Al28  1  0.308239  0.311391  0.072131  1
  Al  Al29  1  0.073750  0.309483  0.306856  1
  Al  Al30  1  0.690089  0.693144  0.690516  1
  Cd  Cd31  1  0.500000  0.503834  0.496166  1
  Sb  Sb32  1  0.209191  0.786298  0.213702  1
  Sb  Sb33  1  0.209762  0.785985  0.794490  1
  Sb  Sb34  1  0.790238  0.205510  0.214015  1
  Sb  Sb35  1  0.790809  0.786298  0.213702  1
