# generated using pymatgen
data_Dy4Se2SN2
_symmetry_space_group_name_H-M   'P 1'
_cell_length_a   6.93369137
_cell_length_b   6.93369227
_cell_length_c   10.11225560
_cell_angle_alpha   52.13624404
_cell_angle_beta   52.13623759
_cell_angle_gamma   32.78998364
_symmetry_Int_Tables_number   1
_chemical_formula_structural   Dy4Se2SN2
_chemical_formula_sum   'Dy4 Se2 S1 N2'
_cell_volume   202.34452221
_cell_formula_units_Z   1
loop_
 _symmetry_equiv_pos_site_id
 _symmetry_equiv_pos_as_xyz
  1  'x, y, z'
loop_
 _atom_site_type_symbol
 _atom_site_label
 _atom_site_symmetry_multiplicity
 _atom_site_fract_x
 _atom_site_fract_y
 _atom_site_fract_z
 _atom_site_occupancy
  Dy  Dy0  1  0.242074  0.242074  0.643535  1
  Dy  Dy1  1  0.757926  0.757926  0.356465  1
  Dy  Dy2  1  0.557712  0.557712  0.143756  1
  Dy  Dy3  1  0.442288  0.442288  0.856244  1
  Se  Se4  1  0.836315  0.836315  0.772599  1
  Se  Se5  1  0.163685  0.163685  0.227401  1
  S  S6  1  0.000000  0.000000  0.000000  1
  N  N7  1  0.351457  0.351457  0.359888  1
  N  N8  1  0.648543  0.648543  0.640112  1
