# generated using pymatgen
data_TbHoGaNiI2
_symmetry_space_group_name_H-M   'P 1'
_cell_length_a   4.16308400
_cell_length_b   4.16308357
_cell_length_c   11.71582300
_cell_angle_alpha   90.00000000
_cell_angle_beta   90.00000000
_cell_angle_gamma   120.00000346
_symmetry_Int_Tables_number   1
_chemical_formula_structural   TbHoGaNiI2
_chemical_formula_sum   'Tb1 Ho1 Ga1 Ni1 I2'
_cell_volume   175.84649683
_cell_formula_units_Z   1
loop_
 _symmetry_equiv_pos_site_id
 _symmetry_equiv_pos_as_xyz
  1  'x, y, z'
loop_
 _atom_site_type_symbol
 _atom_site_label
 _atom_site_symmetry_multiplicity
 _atom_site_fract_x
 _atom_site_fract_y
 _atom_site_fract_z
 _atom_site_occupancy
  Tb  Tb0  1  0.000000  0.000000  0.842473  1
  Ho  Ho1  1  0.000000  0.000000  0.155899  1
  Ga  Ga2  1  0.666667  0.333333  0.997706  1
  Ni  Ni3  1  0.333333  0.666667  0.005747  1
  I  I4  1  0.333333  0.666667  0.663863  1
  I  I5  1  0.666667  0.333333  0.334312  1
