# generated using pymatgen
data_Ta3Nb3SnCl18
_symmetry_space_group_name_H-M   'P 1'
_cell_length_a   10.33028135
_cell_length_b   10.33026694
_cell_length_c   10.33052230
_cell_angle_alpha   55.80547710
_cell_angle_beta   55.80944430
_cell_angle_gamma   55.80547826
_symmetry_Int_Tables_number   1
_chemical_formula_structural   Ta3Nb3SnCl18
_chemical_formula_sum   'Ta3 Nb3 Sn1 Cl18'
_cell_volume   703.73471427
_cell_formula_units_Z   1
loop_
 _symmetry_equiv_pos_site_id
 _symmetry_equiv_pos_as_xyz
  1  'x, y, z'
loop_
 _atom_site_type_symbol
 _atom_site_label
 _atom_site_symmetry_multiplicity
 _atom_site_fract_x
 _atom_site_fract_y
 _atom_site_fract_z
 _atom_site_occupancy
  Ta  Ta0  1  0.410754  0.298807  0.648668  1
  Ta  Ta1  1  0.350498  0.589871  0.700834  1
  Ta  Ta2  1  0.701702  0.351039  0.588438  1
  Nb  Nb3  1  0.298000  0.650652  0.409065  1
  Nb  Nb4  1  0.650113  0.410507  0.297067  1
  Nb  Nb5  1  0.590099  0.702588  0.349037  1
  Sn  Sn6  1  0.997650  0.000431  0.003168  1
  Cl  Cl7  1  0.568049  0.166898  0.442565  1
  Cl  Cl8  1  0.228749  0.371027  0.900283  1
  Cl  Cl9  1  0.901389  0.227125  0.372908  1
  Cl  Cl10  1  0.370629  0.902556  0.227635  1
  Cl  Cl11  1  0.773072  0.628872  0.097807  1
  Cl  Cl12  1  0.099013  0.771450  0.630653  1
  Cl  Cl13  1  0.688980  0.954831  0.169611  1
  Cl  Cl14  1  0.948251  0.171736  0.687673  1
  Cl  Cl15  1  0.173272  0.683766  0.950378  1
  Cl  Cl16  1  0.314589  0.050399  0.828981  1
  Cl  Cl17  1  0.044040  0.830973  0.313052  1
  Cl  Cl18  1  0.832382  0.309517  0.045967  1
  Cl  Cl19  1  0.559638  0.430503  0.831484  1
  Cl  Cl20  1  0.168262  0.438489  0.571011  1
  Cl  Cl21  1  0.440206  0.568858  0.167193  1
  Cl  Cl22  1  0.429637  0.831235  0.561910  1
  Cl  Cl23  1  0.832553  0.557869  0.432621  1
  Cl  Cl24  1  0.628474  0.100001  0.771992  1
