# generated using pymatgen
data_Zr6Al6Ru11Au
_symmetry_space_group_name_H-M   'P 1'
_cell_length_a   4.47823700
_cell_length_b   6.38106900
_cell_length_c   13.39028000
_cell_angle_alpha   90.00005261
_cell_angle_beta   90.00178565
_cell_angle_gamma   90.00000000
_symmetry_Int_Tables_number   1
_chemical_formula_structural   Zr6Al6Ru11Au
_chemical_formula_sum   'Zr6 Al6 Ru11 Au1'
_cell_volume   382.63982833
_cell_formula_units_Z   1
loop_
 _symmetry_equiv_pos_site_id
 _symmetry_equiv_pos_as_xyz
  1  'x, y, z'
loop_
 _atom_site_type_symbol
 _atom_site_label
 _atom_site_symmetry_multiplicity
 _atom_site_fract_x
 _atom_site_fract_y
 _atom_site_fract_z
 _atom_site_occupancy
  Zr  Zr0  1  0.999999  0.515310  0.000000  1
  Zr  Zr1  1  0.499987  0.994038  0.172466  1
  Zr  Zr2  1  0.999988  0.498442  0.334411  1
  Zr  Zr3  1  0.500000  0.001093  0.500000  1
  Zr  Zr4  1  0.000011  0.498443  0.665589  1
  Zr  Zr5  1  0.500013  0.994038  0.827534  1
  Al  Al6  1  0.000000  0.988640  0.000000  1
  Al  Al7  1  0.499986  0.506536  0.171855  1
  Al  Al8  1  0.999987  0.999608  0.333943  1
  Al  Al9  1  0.500000  0.499905  0.500000  1
  Al  Al10  1  0.000013  0.999608  0.666056  1
  Al  Al11  1  0.500014  0.506536  0.828145  1
  Ru  Ru12  1  0.500000  0.750700  0.000000  1
  Ru  Ru13  1  0.999984  0.249058  0.164509  1
  Ru  Ru14  1  0.999986  0.751033  0.166079  1
  Ru  Ru15  1  0.499981  0.250560  0.332727  1
  Ru  Ru16  1  0.499995  0.748396  0.334525  1
  Ru  Ru17  1  0.000001  0.248137  0.500000  1
  Ru  Ru18  1  0.000001  0.751230  0.500000  1
  Ru  Ru19  1  0.500019  0.250558  0.667273  1
  Ru  Ru20  1  0.500005  0.748397  0.665475  1
  Ru  Ru21  1  0.000016  0.249058  0.835490  1
  Ru  Ru22  1  0.000013  0.751034  0.833923  1
  Au  Au23  1  0.500000  0.249646  0.000000  1
