# generated using pymatgen
data_Ta12Ga5Pd3N4
_symmetry_space_group_name_H-M   'P 1'
_cell_length_a   7.03159557
_cell_length_b   7.03159591
_cell_length_c   7.03159595
_cell_angle_alpha   90.34177633
_cell_angle_beta   90.34177494
_cell_angle_gamma   90.34177730
_symmetry_Int_Tables_number   1
_chemical_formula_structural   Ta12Ga5Pd3N4
_chemical_formula_sum   'Ta12 Ga5 Pd3 N4'
_cell_volume   347.64694977
_cell_formula_units_Z   1
loop_
 _symmetry_equiv_pos_site_id
 _symmetry_equiv_pos_as_xyz
  1  'x, y, z'
loop_
 _atom_site_type_symbol
 _atom_site_label
 _atom_site_symmetry_multiplicity
 _atom_site_fract_x
 _atom_site_fract_y
 _atom_site_fract_z
 _atom_site_occupancy
  Ta  Ta0  1  0.789240  0.956672  0.379259  1
  Ta  Ta1  1  0.709102  0.042779  0.873162  1
  Ta  Ta2  1  0.210590  0.455138  0.123246  1
  Ta  Ta3  1  0.290789  0.544921  0.622930  1
  Ta  Ta4  1  0.956672  0.379259  0.789240  1
  Ta  Ta5  1  0.042779  0.873162  0.709102  1
  Ta  Ta6  1  0.455138  0.123246  0.210590  1
  Ta  Ta7  1  0.544921  0.622930  0.290789  1
  Ta  Ta8  1  0.379259  0.789240  0.956672  1
  Ta  Ta9  1  0.873162  0.709102  0.042779  1
  Ta  Ta10  1  0.123246  0.210590  0.455138  1
  Ta  Ta11  1  0.622930  0.290789  0.544921  1
  Ga  Ga12  1  0.677859  0.677859  0.677859  1
  Ga  Ga13  1  0.569966  0.423032  0.934327  1
  Ga  Ga14  1  0.423032  0.934327  0.569966  1
  Ga  Ga15  1  0.934327  0.569966  0.423032  1
  Ga  Ga16  1  0.071455  0.071455  0.071455  1
  Pd  Pd17  1  0.179022  0.821988  0.317367  1
  Pd  Pd18  1  0.317367  0.179022  0.821988  1
  Pd  Pd19  1  0.821988  0.317367  0.179022  1
  N  N20  1  0.878979  0.127211  0.625859  1
  N  N21  1  0.625859  0.878979  0.127211  1
  N  N22  1  0.127211  0.625859  0.878979  1
  N  N23  1  0.375111  0.375111  0.375111  1
