# generated using pymatgen
data_K3NiP6Os5
_symmetry_space_group_name_H-M   'P 1'
_cell_length_a   9.07938172
_cell_length_b   9.07755252
_cell_length_c   9.07755404
_cell_angle_alpha   154.73049493
_cell_angle_beta   86.61389627
_cell_angle_gamma   98.90143676
_symmetry_Int_Tables_number   1
_chemical_formula_structural   K3NiP6Os5
_chemical_formula_sum   'K3 Ni1 P6 Os5'
_cell_volume   309.67061765
_cell_formula_units_Z   1
loop_
 _symmetry_equiv_pos_site_id
 _symmetry_equiv_pos_as_xyz
  1  'x, y, z'
loop_
 _atom_site_type_symbol
 _atom_site_label
 _atom_site_symmetry_multiplicity
 _atom_site_fract_x
 _atom_site_fract_y
 _atom_site_fract_z
 _atom_site_occupancy
  K  K0  1  0.333596  0.332910  0.000686  1
  K  K1  1  0.663582  0.667240  0.996342  1
  K  K2  1  0.000400  0.999622  0.000779  1
  Ni  Ni3  1  0.923726  0.166667  0.757059  1
  P  P4  1  0.322380  0.666479  0.655901  1
  P  P5  1  0.680097  0.337153  0.342944  1
  P  P6  1  0.985842  0.329291  0.656551  1
  P  P7  1  0.340012  0.996408  0.343604  1
  P  P8  1  0.013478  0.666358  0.347120  1
  P  P9  1  0.660189  0.004349  0.655840  1
  Os  Os10  1  0.586209  0.837813  0.748395  1
  Os  Os11  1  0.244738  0.495578  0.749159  1
  Os  Os12  1  0.756905  0.509183  0.247720  1
  Os  Os13  1  0.072742  0.824290  0.248452  1
  Os  Os14  1  0.416103  0.166659  0.249446  1
