# generated using pymatgen
data_Lu2Cr3Fe9P7
_symmetry_space_group_name_H-M   'P 1'
_cell_length_a   9.00016009
_cell_length_b   8.99861619
_cell_length_c   3.61118500
_cell_angle_alpha   90.00000000
_cell_angle_beta   90.00000000
_cell_angle_gamma   119.99126845
_symmetry_Int_Tables_number   1
_chemical_formula_structural   Lu2Cr3Fe9P7
_chemical_formula_sum   'Lu2 Cr3 Fe9 P7'
_cell_volume   253.30545202
_cell_formula_units_Z   1
loop_
 _symmetry_equiv_pos_site_id
 _symmetry_equiv_pos_as_xyz
  1  'x, y, z'
loop_
 _atom_site_type_symbol
 _atom_site_label
 _atom_site_symmetry_multiplicity
 _atom_site_fract_x
 _atom_site_fract_y
 _atom_site_fract_z
 _atom_site_occupancy
  Lu  Lu0  1  0.666640  0.332924  0.000000  1
  Lu  Lu1  1  0.999986  0.000215  0.500000  1
  Cr  Cr2  1  0.550103  0.766751  0.500000  1
  Cr  Cr3  1  0.233405  0.783392  0.500000  1
  Cr  Cr4  1  0.216689  0.450092  0.500000  1
  Fe  Fe5  1  0.762026  0.721470  0.000000  1
  Fe  Fe6  1  0.278557  0.040661  0.000000  1
  Fe  Fe7  1  0.959475  0.237955  0.000000  1
  Fe  Fe8  1  0.489530  0.943174  0.000000  1
  Fe  Fe9  1  0.056798  0.546264  0.000000  1
  Fe  Fe10  1  0.453659  0.510428  0.000000  1
  Fe  Fe11  1  0.719388  0.101231  0.500000  1
  Fe  Fe12  1  0.898812  0.618264  0.500000  1
  Fe  Fe13  1  0.381613  0.280477  0.500000  1
  P  P14  1  0.452017  0.073970  0.500000  1
  P  P15  1  0.925836  0.377448  0.500000  1
  P  P16  1  0.622082  0.548021  0.500000  1
  P  P17  1  0.745214  0.963096  0.000000  1
  P  P18  1  0.037370  0.782644  0.000000  1
  P  P19  1  0.217361  0.254804  0.000000  1
  P  P20  1  0.333438  0.666721  0.000000  1
