# generated using pymatgen
data_Y8Nb11Si16Tc
_symmetry_space_group_name_H-M   'P 1'
_cell_length_a   6.85086410
_cell_length_b   7.07889402
_cell_length_c   13.40057000
_cell_angle_alpha   90.00000000
_cell_angle_beta   90.00000000
_cell_angle_gamma   90.01446521
_symmetry_Int_Tables_number   1
_chemical_formula_structural   Y8Nb11Si16Tc
_chemical_formula_sum   'Y8 Nb11 Si16 Tc1'
_cell_volume   649.88127088
_cell_formula_units_Z   1
loop_
 _symmetry_equiv_pos_site_id
 _symmetry_equiv_pos_as_xyz
  1  'x, y, z'
loop_
 _atom_site_type_symbol
 _atom_site_label
 _atom_site_symmetry_multiplicity
 _atom_site_fract_x
 _atom_site_fract_y
 _atom_site_fract_z
 _atom_site_occupancy
  Y  Y0  1  0.501578  0.671812  0.595504  1
  Y  Y1  1  0.002051  0.828569  0.904467  1
  Y  Y2  1  0.496580  0.328417  0.095557  1
  Y  Y3  1  0.997023  0.171832  0.404351  1
  Y  Y4  1  0.496580  0.328417  0.404443  1
  Y  Y5  1  0.997023  0.171832  0.095649  1
  Y  Y6  1  0.501578  0.671812  0.904496  1
  Y  Y7  1  0.002051  0.828569  0.595533  1
  Nb  Nb8  1  0.664364  0.171913  0.626599  1
  Nb  Nb9  1  0.165329  0.328170  0.873077  1
  Nb  Nb10  1  0.336695  0.826097  0.125665  1
  Nb  Nb11  1  0.836574  0.673699  0.375232  1
  Nb  Nb12  1  0.336695  0.826097  0.374335  1
  Nb  Nb13  1  0.836574  0.673699  0.124768  1
  Nb  Nb14  1  0.664364  0.171913  0.873401  1
  Nb  Nb15  1  0.165329  0.328170  0.626923  1
  Nb  Nb16  1  0.337472  0.008942  0.750000  1
  Nb  Nb17  1  0.162223  0.509083  0.250000  1
  Nb  Nb18  1  0.662401  0.991522  0.250000  1
  Si  Si19  1  0.662788  0.962070  0.458716  1
  Si  Si20  1  0.163191  0.538403  0.040720  1
  Si  Si21  1  0.337291  0.038039  0.958533  1
  Si  Si22  1  0.837917  0.460523  0.543523  1
  Si  Si23  1  0.337291  0.038039  0.541467  1
  Si  Si24  1  0.837917  0.460523  0.956477  1
  Si  Si25  1  0.662788  0.962070  0.041284  1
  Si  Si26  1  0.163191  0.538403  0.459280  1
  Si  Si27  1  0.467516  0.378928  0.750000  1
  Si  Si28  1  0.958520  0.126123  0.750000  1
  Si  Si29  1  0.540177  0.622849  0.250000  1
  Si  Si30  1  0.039217  0.877839  0.250000  1
  Si  Si31  1  0.702899  0.869272  0.750000  1
  Si  Si32  1  0.197289  0.624979  0.750000  1
  Si  Si33  1  0.295241  0.126527  0.250000  1
  Si  Si34  1  0.795342  0.373694  0.250000  1
  Tc  Tc35  1  0.838945  0.491151  0.750000  1
