# generated using pymatgen
data_Tb16MgHg3Pt3Rh
_symmetry_space_group_name_H-M   'P 1'
_cell_length_a   9.72087737
_cell_length_b   9.70462035
_cell_length_c   9.70462100
_cell_angle_alpha   60.00000121
_cell_angle_beta   60.05530775
_cell_angle_gamma   60.05530484
_symmetry_Int_Tables_number   1
_chemical_formula_structural   Tb16MgHg3Pt3Rh
_chemical_formula_sum   'Tb16 Mg1 Hg3 Pt3 Rh1'
_cell_volume   647.90323081
_cell_formula_units_Z   1
loop_
 _symmetry_equiv_pos_site_id
 _symmetry_equiv_pos_as_xyz
  1  'x, y, z'
loop_
 _atom_site_type_symbol
 _atom_site_label
 _atom_site_symmetry_multiplicity
 _atom_site_fract_x
 _atom_site_fract_y
 _atom_site_fract_z
 _atom_site_occupancy
  Tb  Tb0  1  0.353736  0.348038  0.348038  1
  Tb  Tb1  1  0.353736  0.348038  0.950189  1
  Tb  Tb2  1  0.353736  0.950189  0.348038  1
  Tb  Tb3  1  0.937730  0.354090  0.354090  1
  Tb  Tb4  1  0.805877  0.190717  0.190717  1
  Tb  Tb5  1  0.187176  0.811610  0.811610  1
  Tb  Tb6  1  0.187176  0.811610  0.189603  1
  Tb  Tb7  1  0.805877  0.190717  0.812690  1
  Tb  Tb8  1  0.187176  0.189603  0.811610  1
  Tb  Tb9  1  0.805877  0.812690  0.190717  1
  Tb  Tb10  1  0.933357  0.565420  0.565420  1
  Tb  Tb11  1  0.564664  0.935393  0.935393  1
  Tb  Tb12  1  0.564664  0.935393  0.564551  1
  Tb  Tb13  1  0.933357  0.565420  0.935803  1
  Tb  Tb14  1  0.564664  0.564551  0.935393  1
  Tb  Tb15  1  0.933357  0.935803  0.565420  1
  Mg  Mg16  1  0.283872  0.572043  0.572043  1
  Hg  Hg17  1  0.582862  0.587490  0.587490  1
  Hg  Hg18  1  0.582862  0.587490  0.242158  1
  Hg  Hg19  1  0.582862  0.242158  0.587490  1
  Pt  Pt20  1  0.140540  0.144062  0.144062  1
  Pt  Pt21  1  0.140540  0.144062  0.571335  1
  Pt  Pt22  1  0.140540  0.571335  0.144062  1
  Rh  Rh23  1  0.573759  0.142080  0.142080  1
