# generated using pymatgen
data_Sc4Ti2B4Ir9Ru
_symmetry_space_group_name_H-M   'P 1'
_cell_length_a   9.43633938
_cell_length_b   9.43633938
_cell_length_c   3.09340100
_cell_angle_alpha   90.00000000
_cell_angle_beta   90.00000000
_cell_angle_gamma   90.37815380
_symmetry_Int_Tables_number   1
_chemical_formula_structural   Sc4Ti2B4Ir9Ru
_chemical_formula_sum   'Sc4 Ti2 B4 Ir9 Ru1'
_cell_volume   275.44434885
_cell_formula_units_Z   1
loop_
 _symmetry_equiv_pos_site_id
 _symmetry_equiv_pos_as_xyz
  1  'x, y, z'
loop_
 _atom_site_type_symbol
 _atom_site_label
 _atom_site_symmetry_multiplicity
 _atom_site_fract_x
 _atom_site_fract_y
 _atom_site_fract_z
 _atom_site_occupancy
  Sc  Sc0  1  0.672990  0.172990  0.000000  1
  Sc  Sc1  1  0.175931  0.324069  0.000000  1
  Sc  Sc2  1  0.824069  0.675931  0.000000  1
  Sc  Sc3  1  0.327010  0.827010  0.000000  1
  Ti  Ti4  1  0.000000  0.000000  0.000000  1
  Ti  Ti5  1  0.500000  0.500000  0.000000  1
  B  B6  1  0.379605  0.120395  0.000000  1
  B  B7  1  0.877964  0.377964  0.000000  1
  B  B8  1  0.122036  0.622036  0.000000  1
  B  B9  1  0.620395  0.879605  0.000000  1
  Ir  Ir10  1  0.216237  0.071356  0.500000  1
  Ir  Ir11  1  0.928848  0.217114  0.500000  1
  Ir  Ir12  1  0.428643  0.283763  0.500000  1
  Ir  Ir13  1  0.717114  0.428847  0.500000  1
  Ir  Ir14  1  0.000000  0.500000  0.500000  1
  Ir  Ir15  1  0.282886  0.571153  0.500000  1
  Ir  Ir16  1  0.571357  0.716237  0.500000  1
  Ir  Ir17  1  0.071152  0.782886  0.500000  1
  Ir  Ir18  1  0.783763  0.928644  0.500000  1
  Ru  Ru19  1  0.500000  0.000000  0.500000  1
