# generated using pymatgen
data_Cs(NpTe3)2
_symmetry_space_group_name_H-M   'P 1'
_cell_length_a   12.65340987
_cell_length_b   12.65340971
_cell_length_c   6.10122000
_cell_angle_alpha   90.00000000
_cell_angle_beta   90.00000000
_cell_angle_gamma   159.65693606
_symmetry_Int_Tables_number   1
_chemical_formula_structural   Cs(NpTe3)2
_chemical_formula_sum   'Cs1 Np2 Te6'
_cell_volume   339.59569004
_cell_formula_units_Z   1
loop_
 _symmetry_equiv_pos_site_id
 _symmetry_equiv_pos_as_xyz
  1  'x, y, z'
loop_
 _atom_site_type_symbol
 _atom_site_label
 _atom_site_symmetry_multiplicity
 _atom_site_fract_x
 _atom_site_fract_y
 _atom_site_fract_z
 _atom_site_occupancy
  Cs  Cs0  1  0.496534  0.503466  0.000000  1
  Np  Np1  1  0.685945  0.314055  0.000000  1
  Np  Np2  1  0.313441  0.686559  0.500000  1
  Te  Te3  1  0.275418  0.724582  0.000000  1
  Te  Te4  1  0.724264  0.275736  0.500000  1
  Te  Te5  1  0.117140  0.882860  0.242140  1
  Te  Te6  1  0.883409  0.116591  0.262782  1
  Te  Te7  1  0.117140  0.882860  0.757860  1
  Te  Te8  1  0.883409  0.116591  0.737218  1
