# generated using pymatgen
data_TbDyHf(SnRh)3
_symmetry_space_group_name_H-M   'P 1'
_cell_length_a   7.53412424
_cell_length_b   7.46852587
_cell_length_c   7.59661800
_cell_angle_alpha   90.00000000
_cell_angle_beta   90.00000000
_cell_angle_gamma   119.74253185
_symmetry_Int_Tables_number   1
_chemical_formula_structural   TbDyHf(SnRh)3
_chemical_formula_sum   'Tb2 Dy2 Hf2 Sn6 Rh6'
_cell_volume   371.14147815
_cell_formula_units_Z   2
loop_
 _symmetry_equiv_pos_site_id
 _symmetry_equiv_pos_as_xyz
  1  'x, y, z'
loop_
 _atom_site_type_symbol
 _atom_site_label
 _atom_site_symmetry_multiplicity
 _atom_site_fract_x
 _atom_site_fract_y
 _atom_site_fract_z
 _atom_site_occupancy
  Tb  Tb0  1  0.000026  0.403353  0.250000  1
  Tb  Tb1  1  0.589461  0.592874  0.250000  1
  Dy  Dy2  1  0.002406  0.405190  0.750000  1
  Dy  Dy3  1  0.410833  0.003134  0.250000  1
  Hf  Hf4  1  0.604105  0.601085  0.750000  1
  Hf  Hf5  1  0.394415  0.994670  0.750000  1
  Sn  Sn6  1  0.263270  0.262368  0.508742  1
  Sn  Sn7  1  0.999169  0.734568  0.497223  1
  Sn  Sn8  1  0.999169  0.734568  0.002777  1
  Sn  Sn9  1  0.737434  0.001046  0.509514  1
  Sn  Sn10  1  0.737434  0.001046  0.990486  1
  Sn  Sn11  1  0.263270  0.262368  0.991258  1
  Rh  Rh12  1  0.343781  0.675752  0.527456  1
  Rh  Rh13  1  0.655760  0.331333  0.532030  1
  Rh  Rh14  1  0.343781  0.675752  0.972544  1
  Rh  Rh15  1  0.000252  0.986583  0.750000  1
  Rh  Rh16  1  0.999679  0.002978  0.250000  1
  Rh  Rh17  1  0.655760  0.331333  0.967970  1
