# generated using pymatgen
data_Sr4GaPt4Pb
_symmetry_space_group_name_H-M   'P 1'
_cell_length_a   5.91298701
_cell_length_b   5.91298615
_cell_length_c   8.45970428
_cell_angle_alpha   79.03643094
_cell_angle_beta   79.03643415
_cell_angle_gamma   61.24984568
_symmetry_Int_Tables_number   1
_chemical_formula_structural   Sr4GaPt4Pb
_chemical_formula_sum   'Sr4 Ga1 Pt4 Pb1'
_cell_volume   252.90534393
_cell_formula_units_Z   1
loop_
 _symmetry_equiv_pos_site_id
 _symmetry_equiv_pos_as_xyz
  1  'x, y, z'
loop_
 _atom_site_type_symbol
 _atom_site_label
 _atom_site_symmetry_multiplicity
 _atom_site_fract_x
 _atom_site_fract_y
 _atom_site_fract_z
 _atom_site_occupancy
  Sr  Sr0  1  0.791418  0.507127  0.852451  1
  Sr  Sr1  1  0.492873  0.208582  0.647549  1
  Sr  Sr2  1  0.206871  0.495990  0.149648  1
  Sr  Sr3  1  0.504010  0.793129  0.350352  1
  Ga  Ga4  1  0.884318  0.115682  0.250000  1
  Pt  Pt5  1  0.989405  0.730509  0.485727  1
  Pt  Pt6  1  0.269491  0.010595  0.014273  1
  Pt  Pt7  1  0.984816  0.270083  0.483114  1
  Pt  Pt8  1  0.729917  0.015184  0.016886  1
  Pb  Pb9  1  0.146883  0.853117  0.750000  1
