# generated using pymatgen
data_CeHo3(Al8Pd3)3
_symmetry_space_group_name_H-M   'P 1'
_cell_length_a   7.52872028
_cell_length_b   7.58542336
_cell_length_c   13.28609445
_cell_angle_alpha   84.64924654
_cell_angle_beta   79.29724816
_cell_angle_gamma   60.09535941
_symmetry_Int_Tables_number   1
_chemical_formula_structural   CeHo3(Al8Pd3)3
_chemical_formula_sum   'Ce1 Ho3 Al24 Pd9'
_cell_volume   646.28460370
_cell_formula_units_Z   1
loop_
 _symmetry_equiv_pos_site_id
 _symmetry_equiv_pos_as_xyz
  1  'x, y, z'
loop_
 _atom_site_type_symbol
 _atom_site_label
 _atom_site_symmetry_multiplicity
 _atom_site_fract_x
 _atom_site_fract_y
 _atom_site_fract_z
 _atom_site_occupancy
  Ce  Ce0  1  0.393404  0.169477  0.807670  1
  Ho  Ho1  1  0.606238  0.830682  0.191601  1
  Ho  Ho2  1  0.733304  0.497510  0.808650  1
  Ho  Ho3  1  0.265956  0.502533  0.191488  1
  Al  Al4  1  0.685360  0.832927  0.945537  1
  Al  Al5  1  0.314313  0.166291  0.055488  1
  Al  Al6  1  0.144911  0.833830  0.559363  1
  Al  Al7  1  0.855959  0.166163  0.439221  1
  Al  Al8  1  0.477838  0.166860  0.558214  1
  Al  Al9  1  0.522296  0.832334  0.441006  1
  Al  Al10  1  0.217097  0.165241  0.329217  1
  Al  Al11  1  0.783944  0.834111  0.670044  1
  Al  Al12  1  0.436706  0.507226  0.669855  1
  Al  Al13  1  0.563943  0.493598  0.329103  1
  Al  Al14  1  0.107996  0.159887  0.668069  1
  Al  Al15  1  0.891915  0.839905  0.330543  1
  Al  Al16  1  0.352088  0.500808  0.946080  1
  Al  Al17  1  0.647831  0.499416  0.054863  1
  Al  Al18  1  0.015124  0.167374  0.954916  1
  Al  Al19  1  0.983925  0.833292  0.046727  1
  Al  Al20  1  0.187589  0.500593  0.440472  1
  Al  Al21  1  0.812155  0.500079  0.558599  1
  Al  Al22  1  0.732893  0.163664  0.183707  1
  Al  Al23  1  0.266653  0.835278  0.817165  1
  Al  Al24  1  0.060695  0.632311  0.815615  1
  Al  Al25  1  0.937908  0.369352  0.184976  1
  Al  Al26  1  0.857453  0.040430  0.816668  1
  Al  Al27  1  0.144157  0.958567  0.184231  1
  Pd  Pd28  1  0.117872  0.494952  0.637684  1
  Pd  Pd29  1  0.881555  0.506458  0.361775  1
  Pd  Pd30  1  0.657311  0.170846  0.000132  1
  Pd  Pd31  1  0.342876  0.828184  0.001039  1
  Pd  Pd32  1  0.539272  0.166411  0.361943  1
  Pd  Pd33  1  0.460252  0.832452  0.638035  1
  Pd  Pd34  1  0.779255  0.173837  0.637470  1
  Pd  Pd35  1  0.222687  0.825990  0.362200  1
  Pd  Pd36  1  0.999269  0.501131  0.000636  1
