# generated using pymatgen
data_Sc12Si16Ni5IrPt2
_symmetry_space_group_name_H-M   'P 1'
_cell_length_a   4.03882400
_cell_length_b   11.72287362
_cell_length_c   12.27368399
_cell_angle_alpha   89.76066361
_cell_angle_beta   90.00000000
_cell_angle_gamma   90.00000000
_symmetry_Int_Tables_number   1
_chemical_formula_structural   Sc12Si16Ni5IrPt2
_chemical_formula_sum   'Sc12 Si16 Ni5 Ir1 Pt2'
_cell_volume   581.11242263
_cell_formula_units_Z   1
loop_
 _symmetry_equiv_pos_site_id
 _symmetry_equiv_pos_as_xyz
  1  'x, y, z'
loop_
 _atom_site_type_symbol
 _atom_site_label
 _atom_site_symmetry_multiplicity
 _atom_site_fract_x
 _atom_site_fract_y
 _atom_site_fract_z
 _atom_site_occupancy
  Sc  Sc0  1  0.750000  0.978385  0.816365  1
  Sc  Sc1  1  0.250000  0.020795  0.176162  1
  Sc  Sc2  1  0.750000  0.478796  0.679641  1
  Sc  Sc3  1  0.250000  0.520961  0.322060  1
  Sc  Sc4  1  0.750000  0.750709  0.650358  1
  Sc  Sc5  1  0.250000  0.245080  0.349826  1
  Sc  Sc6  1  0.750000  0.252551  0.847982  1
  Sc  Sc7  1  0.250000  0.747281  0.151245  1
  Sc  Sc8  1  0.750000  0.693673  0.912889  1
  Sc  Sc9  1  0.250000  0.303817  0.084121  1
  Sc  Sc10  1  0.750000  0.197015  0.584474  1
  Sc  Sc11  1  0.250000  0.812293  0.418689  1
  Si  Si12  1  0.750000  0.939950  0.540603  1
  Si  Si13  1  0.250000  0.063039  0.481355  1
  Si  Si14  1  0.750000  0.435290  0.970042  1
  Si  Si15  1  0.250000  0.566829  0.025574  1
  Si  Si16  1  0.750000  0.896307  0.057444  1
  Si  Si17  1  0.250000  0.101201  0.938041  1
  Si  Si18  1  0.750000  0.393664  0.439315  1
  Si  Si19  1  0.250000  0.607187  0.560146  1
  Si  Si20  1  0.750000  0.877291  0.256758  1
  Si  Si21  1  0.250000  0.119715  0.737565  1
  Si  Si22  1  0.750000  0.376146  0.242135  1
  Si  Si23  1  0.250000  0.621370  0.757866  1
  Si  Si24  1  0.750000  0.678450  0.303804  1
  Si  Si25  1  0.250000  0.324156  0.700317  1
  Si  Si26  1  0.750000  0.176020  0.199255  1
  Si  Si27  1  0.250000  0.824515  0.794607  1
  Ni  Ni28  1  0.250000  0.949895  0.637825  1
  Ni  Ni29  1  0.750000  0.594491  0.472607  1
  Ni  Ni30  1  0.250000  0.404445  0.527651  1
  Ni  Ni31  1  0.750000  0.099029  0.027137  1
  Ni  Ni32  1  0.250000  0.898194  0.968662  1
  Ir  Ir33  1  0.250000  0.448299  0.864590  1
  Pt  Pt34  1  0.750000  0.553415  0.137358  1
  Pt  Pt35  1  0.750000  0.049746  0.365529  1
