# generated using pymatgen
data_CaCeErAs3
_symmetry_space_group_name_H-M   'P 1'
_cell_length_a   7.24186788
_cell_length_b   7.24186758
_cell_length_c   7.24186729
_cell_angle_alpha   146.25120287
_cell_angle_beta   132.06703026
_cell_angle_gamma   59.90197528
_symmetry_Int_Tables_number   1
_chemical_formula_structural   CaCeErAs3
_chemical_formula_sum   'Ca1 Ce1 Er1 As3'
_cell_volume   155.20581539
_cell_formula_units_Z   1
loop_
 _symmetry_equiv_pos_site_id
 _symmetry_equiv_pos_as_xyz
  1  'x, y, z'
loop_
 _atom_site_type_symbol
 _atom_site_label
 _atom_site_symmetry_multiplicity
 _atom_site_fract_x
 _atom_site_fract_y
 _atom_site_fract_z
 _atom_site_occupancy
  Ca  Ca0  1  0.667145  0.667145  0.000000  1
  Ce  Ce1  1  0.002108  0.002108  0.000000  1
  Er  Er2  1  0.332649  0.332649  0.000000  1
  As  As3  1  0.490161  0.990161  0.500000  1
  As  As4  1  0.166437  0.666437  0.500000  1
  As  As5  1  0.841499  0.341499  0.500000  1
