# generated using pymatgen
data_Er6Co11Si6Rh
_symmetry_space_group_name_H-M   'P 1'
_cell_length_a   5.23856151
_cell_length_b   5.19365101
_cell_length_c   14.76216706
_cell_angle_alpha   89.99999984
_cell_angle_beta   89.80750989
_cell_angle_gamma   119.71679984
_symmetry_Int_Tables_number   1
_chemical_formula_structural   Er6Co11Si6Rh
_chemical_formula_sum   'Er6 Co11 Si6 Rh1'
_cell_volume   348.81455659
_cell_formula_units_Z   1
loop_
 _symmetry_equiv_pos_site_id
 _symmetry_equiv_pos_as_xyz
  1  'x, y, z'
loop_
 _atom_site_type_symbol
 _atom_site_label
 _atom_site_symmetry_multiplicity
 _atom_site_fract_x
 _atom_site_fract_y
 _atom_site_fract_z
 _atom_site_occupancy
  Er  Er0  1  0.331531  0.665766  0.041126  1
  Er  Er1  1  0.333392  0.666697  0.251261  1
  Er  Er2  1  0.332926  0.666464  0.461528  1
  Er  Er3  1  0.666612  0.333306  0.537625  1
  Er  Er4  1  0.665951  0.332976  0.749319  1
  Er  Er5  1  0.668742  0.334371  0.964033  1
  Co  Co6  1  0.335383  0.167693  0.132514  1
  Co  Co7  1  0.832759  0.166034  0.131743  1
  Co  Co8  1  0.832759  0.666726  0.131743  1
  Co  Co9  1  0.332967  0.166484  0.368744  1
  Co  Co10  1  0.832201  0.165824  0.369389  1
  Co  Co11  1  0.832201  0.666378  0.369389  1
  Co  Co12  1  0.166719  0.333383  0.627543  1
  Co  Co13  1  0.166719  0.833336  0.627543  1
  Co  Co14  1  0.667464  0.833733  0.631871  1
  Co  Co15  1  0.163807  0.331540  0.869860  1
  Co  Co16  1  0.163807  0.832267  0.869860  1
  Si  Si17  1  0.012507  0.006254  0.003476  1
  Si  Si18  1  0.000525  0.000263  0.250324  1
  Si  Si19  1  0.665973  0.332987  0.250630  1
  Si  Si20  1  0.002560  0.001280  0.498797  1
  Si  Si21  1  0.017015  0.008508  0.746874  1
  Si  Si22  1  0.313042  0.656522  0.746496  1
  Rh  Rh23  1  0.662444  0.831223  0.868311  1
