# generated using pymatgen
data_Li2Tm5P12Ru17
_symmetry_space_group_name_H-M   'P 1'
_cell_length_a   12.70436900
_cell_length_b   12.49003236
_cell_length_c   3.94592100
_cell_angle_alpha   90.00000000
_cell_angle_beta   90.00000000
_cell_angle_gamma   120.56930827
_symmetry_Int_Tables_number   1
_chemical_formula_structural   Li2Tm5P12Ru17
_chemical_formula_sum   'Li2 Tm5 P12 Ru17'
_cell_volume   539.10772640
_cell_formula_units_Z   1
loop_
 _symmetry_equiv_pos_site_id
 _symmetry_equiv_pos_as_xyz
  1  'x, y, z'
loop_
 _atom_site_type_symbol
 _atom_site_label
 _atom_site_symmetry_multiplicity
 _atom_site_fract_x
 _atom_site_fract_y
 _atom_site_fract_z
 _atom_site_occupancy
  Li  Li0  1  0.000622  0.562352  0.000000  1
  Li  Li1  1  0.438270  0.437648  0.000000  1
  Tm  Tm2  1  0.000604  0.181289  0.500000  1
  Tm  Tm3  1  0.819314  0.818711  0.500000  1
  Tm  Tm4  1  0.181721  0.000000  0.500000  1
  Tm  Tm5  1  0.663153  0.325012  0.000000  1
  Tm  Tm6  1  0.338140  0.674988  0.000000  1
  P  P7  1  0.998016  0.809900  0.000000  1
  P  P8  1  0.188116  0.190100  0.000000  1
  P  P9  1  0.820061  0.000000  0.000000  1
  P  P10  1  0.691575  0.169389  0.500000  1
  P  P11  1  0.816068  0.514132  0.500000  1
  P  P12  1  0.477665  0.301578  0.500000  1
  P  P13  1  0.176088  0.698422  0.500000  1
  P  P14  1  0.522186  0.830611  0.500000  1
  P  P15  1  0.301935  0.485868  0.500000  1
  P  P16  1  0.002458  0.370309  0.000000  1
  P  P17  1  0.632150  0.629691  0.000000  1
  P  P18  1  0.376060  0.000000  0.000000  1
  Ru  Ru19  1  0.557351  0.000000  0.000000  1
  Ru  Ru20  1  0.997789  0.712691  0.500000  1
  Ru  Ru21  1  0.285096  0.287309  0.500000  1
  Ru  Ru22  1  0.719603  0.000000  0.500000  1
  Ru  Ru23  1  0.810254  0.185766  0.000000  1
  Ru  Ru24  1  0.811616  0.614936  0.000000  1
  Ru  Ru25  1  0.376056  0.190348  0.000000  1
  Ru  Ru26  1  0.185708  0.809652  0.000000  1
  Ru  Ru27  1  0.624488  0.814234  0.000000  1
  Ru  Ru28  1  0.196682  0.385064  0.000000  1
  Ru  Ru29  1  0.872711  0.365904  0.500000  1
  Ru  Ru30  1  0.628938  0.509629  0.500000  1
  Ru  Ru31  1  0.492176  0.124781  0.500000  1
  Ru  Ru32  1  0.367395  0.875219  0.500000  1
  Ru  Ru33  1  0.506807  0.634096  0.500000  1
  Ru  Ru34  1  0.119309  0.490371  0.500000  1
  Ru  Ru35  1  0.003818  0.000000  0.000000  1
