# generated using pymatgen
data_Tb16Cd3AgIr4
_symmetry_space_group_name_H-M   'P 1'
_cell_length_a   9.66345539
_cell_length_b   9.66345557
_cell_length_c   9.66345500
_cell_angle_alpha   60.00173990
_cell_angle_beta   60.00173897
_cell_angle_gamma   60.00173932
_symmetry_Int_Tables_number   1
_chemical_formula_structural   Tb16Cd3AgIr4
_chemical_formula_sum   'Tb16 Cd3 Ag1 Ir4'
_cell_volume   638.11574065
_cell_formula_units_Z   1
loop_
 _symmetry_equiv_pos_site_id
 _symmetry_equiv_pos_as_xyz
  1  'x, y, z'
loop_
 _atom_site_type_symbol
 _atom_site_label
 _atom_site_symmetry_multiplicity
 _atom_site_fract_x
 _atom_site_fract_y
 _atom_site_fract_z
 _atom_site_occupancy
  Tb  Tb0  1  0.598137  0.598137  0.598137  1
  Tb  Tb1  1  0.600152  0.600152  0.201903  1
  Tb  Tb2  1  0.600152  0.201903  0.600152  1
  Tb  Tb3  1  0.201903  0.600152  0.600152  1
  Tb  Tb4  1  0.059629  0.439571  0.439571  1
  Tb  Tb5  1  0.438352  0.059869  0.059869  1
  Tb  Tb6  1  0.439571  0.059629  0.439571  1
  Tb  Tb7  1  0.059869  0.438352  0.059869  1
  Tb  Tb8  1  0.439571  0.439571  0.059629  1
  Tb  Tb9  1  0.059869  0.059869  0.438352  1
  Tb  Tb10  1  0.186451  0.811821  0.811821  1
  Tb  Tb11  1  0.811875  0.187477  0.187477  1
  Tb  Tb12  1  0.811821  0.186451  0.811821  1
  Tb  Tb13  1  0.187477  0.811875  0.187477  1
  Tb  Tb14  1  0.811821  0.811821  0.186451  1
  Tb  Tb15  1  0.187477  0.187477  0.811875  1
  Cd  Cd16  1  0.831307  0.831307  0.507617  1
  Cd  Cd17  1  0.831307  0.507617  0.831307  1
  Cd  Cd18  1  0.507617  0.831307  0.831307  1
  Ag  Ag19  1  0.832513  0.832513  0.832513  1
  Ir  Ir20  1  0.391634  0.391634  0.391634  1
  Ir  Ir21  1  0.392769  0.392769  0.825960  1
  Ir  Ir22  1  0.392769  0.825960  0.392769  1
  Ir  Ir23  1  0.825960  0.392769  0.392769  1
