# generated using pymatgen
data_Th8Si12Pd3Ru
_symmetry_space_group_name_H-M   'P 1'
_cell_length_a   8.26570100
_cell_length_b   8.26569984
_cell_length_c   8.45357700
_cell_angle_alpha   90.00000000
_cell_angle_beta   90.00000000
_cell_angle_gamma   120.00000062
_symmetry_Int_Tables_number   1
_chemical_formula_structural   Th8Si12Pd3Ru
_chemical_formula_sum   'Th8 Si12 Pd3 Ru1'
_cell_volume   500.18476961
_cell_formula_units_Z   1
loop_
 _symmetry_equiv_pos_site_id
 _symmetry_equiv_pos_as_xyz
  1  'x, y, z'
loop_
 _atom_site_type_symbol
 _atom_site_label
 _atom_site_symmetry_multiplicity
 _atom_site_fract_x
 _atom_site_fract_y
 _atom_site_fract_z
 _atom_site_occupancy
  Th  Th0  1  0.497169  0.994338  0.245512  1
  Th  Th1  1  0.496511  0.993023  0.754647  1
  Th  Th2  1  0.005662  0.502831  0.245512  1
  Th  Th3  1  0.006977  0.503489  0.754647  1
  Th  Th4  1  0.497169  0.502831  0.245512  1
  Th  Th5  1  0.496511  0.503489  0.754647  1
  Th  Th6  1  0.000000  0.000000  0.249474  1
  Th  Th7  1  0.000000  0.000000  0.749868  1
  Si  Si8  1  0.166507  0.333012  0.001245  1
  Si  Si9  1  0.835288  0.670575  0.998532  1
  Si  Si10  1  0.666988  0.833493  0.001245  1
  Si  Si11  1  0.833497  0.666995  0.500271  1
  Si  Si12  1  0.329425  0.164712  0.998532  1
  Si  Si13  1  0.165133  0.330265  0.499403  1
  Si  Si14  1  0.166507  0.833493  0.001245  1
  Si  Si15  1  0.333005  0.166503  0.500271  1
  Si  Si16  1  0.835288  0.164712  0.998532  1
  Si  Si17  1  0.669735  0.834867  0.499403  1
  Si  Si18  1  0.833497  0.166503  0.500271  1
  Si  Si19  1  0.165133  0.834867  0.499403  1
  Pd  Pd20  1  0.666667  0.333333  0.000888  1
  Pd  Pd21  1  0.666667  0.333333  0.501794  1
  Pd  Pd22  1  0.333333  0.666667  0.500504  1
  Ru  Ru23  1  0.333333  0.666667  0.998644  1
