# generated using pymatgen
data_CsHo2LuS5
_symmetry_space_group_name_H-M   'P 1'
_cell_length_a   3.99312200
_cell_length_b   12.02489000
_cell_length_c   21.31690100
_cell_angle_alpha   90.00000000
_cell_angle_beta   90.00000000
_cell_angle_gamma   90.00000000
_symmetry_Int_Tables_number   1
_chemical_formula_structural   CsHo2LuS5
_chemical_formula_sum   'Cs4 Ho8 Lu4 S20'
_cell_volume   1023.57049761
_cell_formula_units_Z   4
loop_
 _symmetry_equiv_pos_site_id
 _symmetry_equiv_pos_as_xyz
  1  'x, y, z'
loop_
 _atom_site_type_symbol
 _atom_site_label
 _atom_site_symmetry_multiplicity
 _atom_site_fract_x
 _atom_site_fract_y
 _atom_site_fract_z
 _atom_site_occupancy
  Cs  Cs0  1  0.250000  0.854165  0.092109  1
  Cs  Cs1  1  0.750000  0.145835  0.907891  1
  Cs  Cs2  1  0.750000  0.354165  0.407891  1
  Cs  Cs3  1  0.250000  0.645835  0.592109  1
  Ho  Ho4  1  0.750000  0.796994  0.825986  1
  Ho  Ho5  1  0.250000  0.203006  0.174014  1
  Ho  Ho6  1  0.250000  0.296994  0.674014  1
  Ho  Ho7  1  0.750000  0.703006  0.325986  1
  Ho  Ho8  1  0.250000  0.957146  0.696702  1
  Ho  Ho9  1  0.750000  0.042854  0.303298  1
  Ho  Ho10  1  0.750000  0.457146  0.803298  1
  Ho  Ho11  1  0.250000  0.542854  0.196702  1
  Lu  Lu12  1  0.750000  0.392666  0.052810  1
  Lu  Lu13  1  0.250000  0.607334  0.947190  1
  Lu  Lu14  1  0.250000  0.892666  0.447190  1
  Lu  Lu15  1  0.750000  0.107334  0.552810  1
  S  S16  1  0.250000  0.953590  0.567468  1
  S  S17  1  0.750000  0.046410  0.432532  1
  S  S18  1  0.750000  0.453590  0.932532  1
  S  S19  1  0.250000  0.546410  0.067468  1
  S  S20  1  0.750000  0.756449  0.952015  1
  S  S21  1  0.250000  0.243551  0.047985  1
  S  S22  1  0.250000  0.256449  0.547985  1
  S  S23  1  0.750000  0.743551  0.452015  1
  S  S24  1  0.250000  0.945874  0.824330  1
  S  S25  1  0.750000  0.054126  0.175670  1
  S  S26  1  0.750000  0.445874  0.675670  1
  S  S27  1  0.250000  0.554126  0.324330  1
  S  S28  1  0.750000  0.125410  0.681126  1
  S  S29  1  0.250000  0.874590  0.318874  1
  S  S30  1  0.250000  0.625410  0.818874  1
  S  S31  1  0.750000  0.374590  0.181126  1
  S  S32  1  0.750000  0.689875  0.198558  1
  S  S33  1  0.250000  0.310125  0.801442  1
  S  S34  1  0.250000  0.189875  0.301442  1
  S  S35  1  0.750000  0.810125  0.698558  1
