# generated using pymatgen
data_YHo2B6Ir7Os
_symmetry_space_group_name_H-M   'P 1'
_cell_length_a   9.98780882
_cell_length_b   9.16803798
_cell_length_c   5.57257505
_cell_angle_alpha   81.35985449
_cell_angle_beta   65.16289464
_cell_angle_gamma   33.45833717
_symmetry_Int_Tables_number   1
_chemical_formula_structural   YHo2B6Ir7Os
_chemical_formula_sum   'Y1 Ho2 B6 Ir7 Os1'
_cell_volume   233.97743563
_cell_formula_units_Z   1
loop_
 _symmetry_equiv_pos_site_id
 _symmetry_equiv_pos_as_xyz
  1  'x, y, z'
loop_
 _atom_site_type_symbol
 _atom_site_label
 _atom_site_symmetry_multiplicity
 _atom_site_fract_x
 _atom_site_fract_y
 _atom_site_fract_z
 _atom_site_occupancy
  Y  Y0  1  0.821102  0.821102  0.178898  1
  Ho  Ho1  1  0.000022  0.000022  0.999978  1
  Ho  Ho2  1  0.178900  0.178900  0.821100  1
  B  B3  1  0.821328  0.529084  0.482842  1
  B  B4  1  0.166814  0.482754  0.529033  1
  B  B5  1  0.482754  0.166814  0.821398  1
  B  B6  1  0.670160  0.329824  0.670363  1
  B  B7  1  0.529084  0.821328  0.166746  1
  B  B8  1  0.329824  0.670160  0.329653  1
  Ir  Ir9  1  0.414211  0.414211  0.585789  1
  Ir  Ir10  1  0.585651  0.585651  0.914349  1
  Ir  Ir11  1  0.085957  0.085957  0.414043  1
  Ir  Ir12  1  0.914349  0.914349  0.585651  1
  Ir  Ir13  1  0.585843  0.585843  0.414157  1
  Ir  Ir14  1  0.249949  0.249949  0.250051  1
  Ir  Ir15  1  0.414097  0.414097  0.085903  1
  Os  Os16  1  0.749954  0.749954  0.750046  1
