# generated using pymatgen
data_Tb8Ho2In8Pd3Rh
_symmetry_space_group_name_H-M   'P 1'
_cell_length_a   3.65057800
_cell_length_b   8.16277684
_cell_length_c   18.32130007
_cell_angle_alpha   90.03107514
_cell_angle_beta   90.00000000
_cell_angle_gamma   90.00000000
_symmetry_Int_Tables_number   1
_chemical_formula_structural   Tb8Ho2In8Pd3Rh
_chemical_formula_sum   'Tb8 Ho2 In8 Pd3 Rh1'
_cell_volume   545.95365765
_cell_formula_units_Z   1
loop_
 _symmetry_equiv_pos_site_id
 _symmetry_equiv_pos_as_xyz
  1  'x, y, z'
loop_
 _atom_site_type_symbol
 _atom_site_label
 _atom_site_symmetry_multiplicity
 _atom_site_fract_x
 _atom_site_fract_y
 _atom_site_fract_z
 _atom_site_occupancy
  Tb  Tb0  1  0.000000  0.500200  0.499870  1
  Tb  Tb1  1  0.000000  0.999643  0.000494  1
  Tb  Tb2  1  0.000000  0.731587  0.279060  1
  Tb  Tb3  1  0.000000  0.261066  0.718260  1
  Tb  Tb4  1  0.000000  0.760237  0.780412  1
  Tb  Tb5  1  0.000000  0.252148  0.219996  1
  Tb  Tb6  1  0.000000  0.614161  0.086989  1
  Tb  Tb7  1  0.000000  0.383027  0.916789  1
  Ho  Ho8  1  0.000000  0.883082  0.583488  1
  Ho  Ho9  1  0.000000  0.116451  0.414902  1
  In  In10  1  0.500000  0.708183  0.932561  1
  In  In11  1  0.500000  0.291178  0.068932  1
  In  In12  1  0.500000  0.792798  0.432658  1
  In  In13  1  0.500000  0.205922  0.566176  1
  In  In14  1  0.500000  0.580942  0.649450  1
  In  In15  1  0.500000  0.421911  0.350849  1
  In  In16  1  0.500000  0.922593  0.150798  1
  In  In17  1  0.500000  0.079549  0.849487  1
  Pd  Pd18  1  0.500000  0.476926  0.803714  1
  Pd  Pd19  1  0.500000  0.977042  0.694950  1
  Pd  Pd20  1  0.500000  0.020631  0.304326  1
  Rh  Rh21  1  0.500000  0.520723  0.195839  1
