# generated using pymatgen
data_Tb3Ho9CoTc3
_symmetry_space_group_name_H-M   'P 1'
_cell_length_a   6.28572956
_cell_length_b   7.32252046
_cell_length_c   9.18529900
_cell_angle_alpha   90.00000000
_cell_angle_beta   90.00000000
_cell_angle_gamma   90.09728519
_symmetry_Int_Tables_number   1
_chemical_formula_structural   Tb3Ho9CoTc3
_chemical_formula_sum   'Tb3 Ho9 Co1 Tc3'
_cell_volume   422.77466834
_cell_formula_units_Z   1
loop_
 _symmetry_equiv_pos_site_id
 _symmetry_equiv_pos_as_xyz
  1  'x, y, z'
loop_
 _atom_site_type_symbol
 _atom_site_label
 _atom_site_symmetry_multiplicity
 _atom_site_fract_x
 _atom_site_fract_y
 _atom_site_fract_z
 _atom_site_occupancy
  Tb  Tb0  1  0.372507  0.541221  0.250000  1
  Tb  Tb1  1  0.874097  0.951235  0.750000  1
  Tb  Tb2  1  0.641228  0.457781  0.750000  1
  Ho  Ho3  1  0.663163  0.176216  0.062543  1
  Ho  Ho4  1  0.126277  0.041177  0.250000  1
  Ho  Ho5  1  0.831766  0.677757  0.434656  1
  Ho  Ho6  1  0.333030  0.822184  0.936588  1
  Ho  Ho7  1  0.164332  0.326490  0.564657  1
  Ho  Ho8  1  0.663163  0.176216  0.437457  1
  Ho  Ho9  1  0.164332  0.326490  0.935343  1
  Ho  Ho10  1  0.333030  0.822184  0.563412  1
  Ho  Ho11  1  0.831766  0.677757  0.065344  1
  Co  Co12  1  0.040414  0.615439  0.750000  1
  Tc  Tc13  1  0.959512  0.388347  0.250000  1
  Tc  Tc14  1  0.463105  0.113044  0.750000  1
  Tc  Tc15  1  0.538278  0.886466  0.250000  1
