# generated using pymatgen
data_Dy7Ho(Ta3Ge4)4
_symmetry_space_group_name_H-M   'P 1'
_cell_length_a   7.00583913
_cell_length_b   7.16658001
_cell_length_c   13.55954529
_cell_angle_alpha   89.99712000
_cell_angle_beta   90.01840594
_cell_angle_gamma   89.99411301
_symmetry_Int_Tables_number   1
_chemical_formula_structural   Dy7Ho(Ta3Ge4)4
_chemical_formula_sum   'Dy7 Ho1 Ta12 Ge16'
_cell_volume   680.79634551
_cell_formula_units_Z   1
loop_
 _symmetry_equiv_pos_site_id
 _symmetry_equiv_pos_as_xyz
  1  'x, y, z'
loop_
 _atom_site_type_symbol
 _atom_site_label
 _atom_site_symmetry_multiplicity
 _atom_site_fract_x
 _atom_site_fract_y
 _atom_site_fract_z
 _atom_site_occupancy
  Dy  Dy0  1  0.495437  0.326512  0.094177  1
  Dy  Dy1  1  0.995489  0.173644  0.405772  1
  Dy  Dy2  1  0.504583  0.673515  0.594304  1
  Dy  Dy3  1  0.004528  0.826465  0.905868  1
  Dy  Dy4  1  0.504488  0.673552  0.905883  1
  Dy  Dy5  1  0.004536  0.826412  0.594275  1
  Dy  Dy6  1  0.495377  0.326358  0.405599  1
  Ho  Ho7  1  0.995068  0.173608  0.094171  1
  Ta  Ta8  1  0.664425  0.014656  0.750112  1
  Ta  Ta9  1  0.164430  0.485224  0.750101  1
  Ta  Ta10  1  0.335723  0.985323  0.249883  1
  Ta  Ta11  1  0.835822  0.514858  0.249942  1
  Ta  Ta12  1  0.840270  0.330284  0.626235  1
  Ta  Ta13  1  0.340177  0.169779  0.873904  1
  Ta  Ta14  1  0.159811  0.669950  0.126184  1
  Ta  Ta15  1  0.659910  0.830466  0.373690  1
  Ta  Ta16  1  0.159595  0.669705  0.373626  1
  Ta  Ta17  1  0.659786  0.830233  0.126123  1
  Ta  Ta18  1  0.840433  0.329961  0.873966  1
  Ta  Ta19  1  0.340283  0.169734  0.626203  1
  Ge  Ge20  1  0.805534  0.640174  0.750133  1
  Ge  Ge21  1  0.305502  0.859742  0.750097  1
  Ge  Ge22  1  0.194238  0.359144  0.249597  1
  Ge  Ge23  1  0.694858  0.140626  0.249754  1
  Ge  Ge24  1  0.540092  0.378651  0.750103  1
  Ge  Ge25  1  0.040039  0.121241  0.750011  1
  Ge  Ge26  1  0.460013  0.621082  0.249985  1
  Ge  Ge27  1  0.960129  0.879258  0.249826  1
  Ge  Ge28  1  0.676190  0.038778  0.541935  1
  Ge  Ge29  1  0.176133  0.461060  0.958245  1
  Ge  Ge30  1  0.323107  0.961799  0.042063  1
  Ge  Ge31  1  0.823660  0.538796  0.458018  1
  Ge  Ge32  1  0.323798  0.961134  0.457999  1
  Ge  Ge33  1  0.823999  0.538292  0.042074  1
  Ge  Ge34  1  0.676337  0.038700  0.958226  1
  Ge  Ge35  1  0.176200  0.461285  0.541915  1
