# generated using pymatgen
data_Dy2HoMgIr8
_symmetry_space_group_name_H-M   'P 1'
_cell_length_a   5.32329000
_cell_length_b   5.32328868
_cell_length_c   8.65315800
_cell_angle_alpha   90.00000000
_cell_angle_beta   90.00000000
_cell_angle_gamma   119.99998336
_symmetry_Int_Tables_number   1
_chemical_formula_structural   Dy2HoMgIr8
_chemical_formula_sum   'Dy2 Ho1 Mg1 Ir8'
_cell_volume   212.35646274
_cell_formula_units_Z   1
loop_
 _symmetry_equiv_pos_site_id
 _symmetry_equiv_pos_as_xyz
  1  'x, y, z'
loop_
 _atom_site_type_symbol
 _atom_site_label
 _atom_site_symmetry_multiplicity
 _atom_site_fract_x
 _atom_site_fract_y
 _atom_site_fract_z
 _atom_site_occupancy
  Dy  Dy0  1  0.333333  0.666667  0.078257  1
  Dy  Dy1  1  0.666667  0.333333  0.559169  1
  Ho  Ho2  1  0.666667  0.333333  0.930351  1
  Mg  Mg3  1  0.333333  0.666667  0.438312  1
  Ir  Ir4  1  0.000000  0.000000  0.997508  1
  Ir  Ir5  1  0.000000  0.000000  0.497913  1
  Ir  Ir6  1  0.830435  0.660870  0.251009  1
  Ir  Ir7  1  0.170575  0.829425  0.748488  1
  Ir  Ir8  1  0.658851  0.829425  0.748488  1
  Ir  Ir9  1  0.339130  0.169565  0.251009  1
  Ir  Ir10  1  0.830435  0.169565  0.251009  1
  Ir  Ir11  1  0.170575  0.341149  0.748488  1
