# generated using pymatgen
data_Nb4AlSb2
_symmetry_space_group_name_H-M   'P 1'
_cell_length_a   7.83617992
_cell_length_b   7.83618019
_cell_length_c   7.83617900
_cell_angle_alpha   95.79113419
_cell_angle_beta   95.79842485
_cell_angle_gamma   142.94607424
_symmetry_Int_Tables_number   1
_chemical_formula_structural   Nb4AlSb2
_chemical_formula_sum   'Nb8 Al2 Sb4'
_cell_volume   274.91992836
_cell_formula_units_Z   2
loop_
 _symmetry_equiv_pos_site_id
 _symmetry_equiv_pos_as_xyz
  1  'x, y, z'
loop_
 _atom_site_type_symbol
 _atom_site_label
 _atom_site_symmetry_multiplicity
 _atom_site_fract_x
 _atom_site_fract_y
 _atom_site_fract_z
 _atom_site_occupancy
  Nb  Nb0  1  0.913526  0.789940  0.704006  1
  Nb  Nb1  1  0.789921  0.085947  0.876422  1
  Nb  Nb2  1  0.414066  0.710060  0.123586  1
  Nb  Nb3  1  0.586495  0.290526  0.876476  1
  Nb  Nb4  1  0.710068  0.586461  0.296001  1
  Nb  Nb5  1  0.290472  0.414053  0.703974  1
  Nb  Nb6  1  0.209540  0.913539  0.123606  1
  Nb  Nb7  1  0.085950  0.209474  0.295969  1
  Al  Al8  1  0.249997  0.250000  0.999997  1
  Al  Al9  1  0.749997  0.750000  0.999997  1
  Sb  Sb10  1  0.641634  0.858406  0.500038  1
  Sb  Sb11  1  0.141632  0.641594  0.783228  1
  Sb  Sb12  1  0.858349  0.358406  0.216758  1
  Sb  Sb13  1  0.358352  0.141594  0.499941  1
