# generated using pymatgen
data_Pr2Dy4TcBi2
_symmetry_space_group_name_H-M   'P 1'
_cell_length_a   8.39709099
_cell_length_b   8.39709118
_cell_length_c   4.34767100
_cell_angle_alpha   90.00000000
_cell_angle_beta   90.00000000
_cell_angle_gamma   119.43246509
_symmetry_Int_Tables_number   1
_chemical_formula_structural   Pr2Dy4TcBi2
_chemical_formula_sum   'Pr2 Dy4 Tc1 Bi2'
_cell_volume   266.99332307
_cell_formula_units_Z   1
loop_
 _symmetry_equiv_pos_site_id
 _symmetry_equiv_pos_as_xyz
  1  'x, y, z'
loop_
 _atom_site_type_symbol
 _atom_site_label
 _atom_site_symmetry_multiplicity
 _atom_site_fract_x
 _atom_site_fract_y
 _atom_site_fract_z
 _atom_site_occupancy
  Pr  Pr0  1  0.601485  0.997100  0.000000  1
  Pr  Pr1  1  0.997100  0.601485  0.000000  1
  Dy  Dy2  1  0.232354  0.999703  0.500000  1
  Dy  Dy3  1  0.999703  0.232354  0.500000  1
  Dy  Dy4  1  0.775256  0.775256  0.500000  1
  Dy  Dy5  1  0.389606  0.389606  0.000000  1
  Tc  Tc6  1  0.010684  0.010684  0.000000  1
  Bi  Bi7  1  0.334942  0.658871  0.500000  1
  Bi  Bi8  1  0.658871  0.334942  0.500000  1
