# generated using pymatgen
data_Cs2KTmSb2
_symmetry_space_group_name_H-M   'P 1'
_cell_length_a   10.45819169
_cell_length_b   10.45818576
_cell_length_c   10.45812980
_cell_angle_alpha   132.67509045
_cell_angle_beta   65.93937704
_cell_angle_gamma   136.87523389
_symmetry_Int_Tables_number   1
_chemical_formula_structural   Cs2KTmSb2
_chemical_formula_sum   'Cs4 K2 Tm2 Sb4'
_cell_volume   566.18996392
_cell_formula_units_Z   2
loop_
 _symmetry_equiv_pos_site_id
 _symmetry_equiv_pos_as_xyz
  1  'x, y, z'
loop_
 _atom_site_type_symbol
 _atom_site_label
 _atom_site_symmetry_multiplicity
 _atom_site_fract_x
 _atom_site_fract_y
 _atom_site_fract_z
 _atom_site_occupancy
  Cs  Cs0  1  0.319987  0.765681  0.085673  1
  Cs  Cs1  1  0.180007  0.265678  0.445689  1
  Cs  Cs2  1  0.819993  0.734322  0.554310  1
  Cs  Cs3  1  0.680013  0.234320  0.914327  1
  K  K4  1  0.250003  0.250007  0.000002  1
  K  K5  1  0.749997  0.749993  0.999998  1
  Tm  Tm6  1  0.749998  0.250002  0.500002  1
  Tm  Tm7  1  0.250001  0.749998  0.499998  1
  Sb  Sb8  1  0.906163  0.299186  0.205349  1
  Sb  Sb9  1  0.593839  0.799187  0.393024  1
  Sb  Sb10  1  0.406162  0.200813  0.606977  1
  Sb  Sb11  1  0.093838  0.700814  0.794651  1
