# generated using pymatgen
data_Ca3Tb2Y(Si3Ru)8
_symmetry_space_group_name_H-M   'P 1'
_cell_length_a   10.15983730
_cell_length_b   10.15983760
_cell_length_c   8.14830901
_cell_angle_alpha   89.98979530
_cell_angle_beta   89.98979439
_cell_angle_gamma   132.70368880
_symmetry_Int_Tables_number   1
_chemical_formula_structural   Ca3Tb2Y(Si3Ru)8
_chemical_formula_sum   'Ca3 Tb2 Y1 Si24 Ru8'
_cell_volume   618.09045378
_cell_formula_units_Z   1
loop_
 _symmetry_equiv_pos_site_id
 _symmetry_equiv_pos_as_xyz
  1  'x, y, z'
loop_
 _atom_site_type_symbol
 _atom_site_label
 _atom_site_symmetry_multiplicity
 _atom_site_fract_x
 _atom_site_fract_y
 _atom_site_fract_z
 _atom_site_occupancy
  Ca  Ca0  1  0.500069  0.499931  0.500000  1
  Ca  Ca1  1  0.500822  0.000703  0.749833  1
  Ca  Ca2  1  0.999297  0.499178  0.250167  1
  Tb  Tb3  1  0.498460  0.998475  0.250118  1
  Tb  Tb4  1  0.001525  0.501540  0.749882  1
  Y  Y5  1  0.999957  0.000043  0.000000  1
  Si  Si6  1  0.795050  0.204950  0.500000  1
  Si  Si7  1  0.294283  0.705717  0.000000  1
  Si  Si8  1  0.205476  0.794524  0.500000  1
  Si  Si9  1  0.705236  0.294764  0.000000  1
  Si  Si10  1  0.332132  0.337015  0.831829  1
  Si  Si11  1  0.662985  0.667868  0.168171  1
  Si  Si12  1  0.170053  0.165476  0.334324  1
  Si  Si13  1  0.834524  0.829947  0.665676  1
  Si  Si14  1  0.122864  0.889335  0.728051  1
  Si  Si15  1  0.110665  0.877136  0.271949  1
  Si  Si16  1  0.608721  0.375939  0.229320  1
  Si  Si17  1  0.624061  0.391279  0.770680  1
  Si  Si18  1  0.875334  0.108742  0.271933  1
  Si  Si19  1  0.891258  0.124666  0.728067  1
  Si  Si20  1  0.389551  0.622582  0.770565  1
  Si  Si21  1  0.377418  0.610449  0.229435  1
  Si  Si22  1  0.346121  0.112870  0.505306  1
  Si  Si23  1  0.887130  0.653879  0.494694  1
  Si  Si24  1  0.388817  0.155574  0.006625  1
  Si  Si25  1  0.844426  0.611183  0.993375  1
  Si  Si26  1  0.653931  0.886470  0.492489  1
  Si  Si27  1  0.113530  0.346069  0.507511  1
  Si  Si28  1  0.610568  0.844373  0.996232  1
  Si  Si29  1  0.155627  0.389432  0.003768  1
  Ru  Ru30  1  0.670540  0.329460  0.500000  1
  Ru  Ru31  1  0.168780  0.831220  0.000000  1
  Ru  Ru32  1  0.330230  0.669770  0.500000  1
  Ru  Ru33  1  0.830426  0.169574  0.000000  1
  Ru  Ru34  1  0.124588  0.125065  0.627266  1
  Ru  Ru35  1  0.874935  0.875412  0.372734  1
  Ru  Ru36  1  0.372651  0.372040  0.124638  1
  Ru  Ru37  1  0.627960  0.627349  0.875362  1
