# generated using pymatgen
data_CeTh7SbSe17
_symmetry_space_group_name_H-M   'P 1'
_cell_length_a   8.49014847
_cell_length_b   8.49808130
_cell_length_c   11.47428100
_cell_angle_alpha   80.08557552
_cell_angle_beta   79.49014854
_cell_angle_gamma   64.93876597
_symmetry_Int_Tables_number   1
_chemical_formula_structural   CeTh7SbSe17
_chemical_formula_sum   'Ce1 Th7 Sb1 Se17'
_cell_volume   733.15001637
_cell_formula_units_Z   1
loop_
 _symmetry_equiv_pos_site_id
 _symmetry_equiv_pos_as_xyz
  1  'x, y, z'
loop_
 _atom_site_type_symbol
 _atom_site_label
 _atom_site_symmetry_multiplicity
 _atom_site_fract_x
 _atom_site_fract_y
 _atom_site_fract_z
 _atom_site_occupancy
  Ce  Ce0  1  0.815592  0.306912  0.302012  1
  Th  Th1  1  0.306210  0.818378  0.301013  1
  Th  Th2  1  0.181883  0.694055  0.697491  1
  Th  Th3  1  0.695883  0.182385  0.697761  1
  Th  Th4  1  0.206390  0.203851  0.539718  1
  Th  Th5  1  0.795876  0.790350  0.458472  1
  Th  Th6  1  0.674458  0.676357  0.979866  1
  Th  Th7  1  0.320639  0.327548  0.021905  1
  Sb  Sb8  1  0.998551  0.002579  0.002511  1
  Se  Se9  1  0.824301  0.429688  0.537112  1
  Se  Se10  1  0.431995  0.819508  0.533836  1
  Se  Se11  1  0.180624  0.566097  0.466704  1
  Se  Se12  1  0.571437  0.171310  0.470705  1
  Se  Se13  1  0.949402  0.336026  0.037433  1
  Se  Se14  1  0.332550  0.953994  0.039294  1
  Se  Se15  1  0.048032  0.667812  0.957489  1
  Se  Se16  1  0.664252  0.053333  0.958818  1
  Se  Se17  1  0.220945  0.207822  0.279882  1
  Se  Se18  1  0.786586  0.787352  0.720752  1
  Se  Se19  1  0.058984  0.056165  0.760909  1
  Se  Se20  1  0.947865  0.936604  0.241489  1
  Se  Se21  1  0.302363  0.302737  0.752058  1
  Se  Se22  1  0.693926  0.703916  0.245589  1
  Se  Se23  1  0.517335  0.520237  0.831125  1
  Se  Se24  1  0.471568  0.491113  0.162875  1
  Se  Se25  1  0.002353  0.993872  0.503179  1
