# generated using pymatgen
data_Dy9Er(Pb3Cl)2
_symmetry_space_group_name_H-M   'P 1'
_cell_length_a   9.19661230
_cell_length_b   9.19661156
_cell_length_c   6.62820500
_cell_angle_alpha   90.00000000
_cell_angle_beta   90.00000000
_cell_angle_gamma   119.98828208
_symmetry_Int_Tables_number   1
_chemical_formula_structural   Dy9Er(Pb3Cl)2
_chemical_formula_sum   'Dy9 Er1 Pb6 Cl2'
_cell_volume   485.54954769
_cell_formula_units_Z   1
loop_
 _symmetry_equiv_pos_site_id
 _symmetry_equiv_pos_as_xyz
  1  'x, y, z'
loop_
 _atom_site_type_symbol
 _atom_site_label
 _atom_site_symmetry_multiplicity
 _atom_site_fract_x
 _atom_site_fract_y
 _atom_site_fract_z
 _atom_site_occupancy
  Dy  Dy0  1  0.260923  0.999732  0.250000  1
  Dy  Dy1  1  0.739524  0.000618  0.750000  1
  Dy  Dy2  1  0.999732  0.260923  0.250000  1
  Dy  Dy3  1  0.000618  0.739524  0.750000  1
  Dy  Dy4  1  0.738355  0.738355  0.250000  1
  Dy  Dy5  1  0.333461  0.666504  0.999929  1
  Dy  Dy6  1  0.666504  0.333461  0.999929  1
  Dy  Dy7  1  0.666504  0.333461  0.500071  1
  Dy  Dy8  1  0.333461  0.666504  0.500071  1
  Er  Er9  1  0.261913  0.261913  0.750000  1
  Pb  Pb10  1  0.611115  0.999910  0.250000  1
  Pb  Pb11  1  0.389060  0.000370  0.750000  1
  Pb  Pb12  1  0.999910  0.611115  0.250000  1
  Pb  Pb13  1  0.000370  0.389060  0.750000  1
  Pb  Pb14  1  0.388300  0.388300  0.250000  1
  Pb  Pb15  1  0.611323  0.611323  0.750000  1
  Cl  Cl16  1  0.999464  0.999464  0.000168  1
  Cl  Cl17  1  0.999464  0.999464  0.499832  1
