# generated using pymatgen
data_BaYbVH9
_symmetry_space_group_name_H-M   'P 1'
_cell_length_a   8.81875800
_cell_length_b   8.81875724
_cell_length_c   5.16512300
_cell_angle_alpha   90.00000000
_cell_angle_beta   90.00000000
_cell_angle_gamma   120.00001036
_symmetry_Int_Tables_number   1
_chemical_formula_structural   BaYbVH9
_chemical_formula_sum   'Ba3 Yb3 V3 H27'
_cell_volume   347.87728103
_cell_formula_units_Z   3
loop_
 _symmetry_equiv_pos_site_id
 _symmetry_equiv_pos_as_xyz
  1  'x, y, z'
loop_
 _atom_site_type_symbol
 _atom_site_label
 _atom_site_symmetry_multiplicity
 _atom_site_fract_x
 _atom_site_fract_y
 _atom_site_fract_z
 _atom_site_occupancy
  Ba  Ba0  1  0.000000  0.594156  0.000000  1
  Ba  Ba1  1  0.405844  0.405844  0.000000  1
  Ba  Ba2  1  0.594156  0.000000  0.000000  1
  Yb  Yb3  1  0.000000  0.264875  0.500000  1
  Yb  Yb4  1  0.735125  0.735125  0.500000  1
  Yb  Yb5  1  0.264875  0.000000  0.500000  1
  V  V6  1  0.666667  0.333333  0.500000  1
  V  V7  1  0.333333  0.666667  0.500000  1
  V  V8  1  0.000000  0.000000  0.000000  1
  H  H9  1  0.793261  0.306841  0.734588  1
  H  H10  1  0.693159  0.486419  0.734588  1
  H  H11  1  0.513581  0.206739  0.734588  1
  H  H12  1  0.206739  0.513581  0.265412  1
  H  H13  1  0.513581  0.206739  0.265412  1
  H  H14  1  0.793261  0.306841  0.265412  1
  H  H15  1  0.693159  0.486419  0.265412  1
  H  H16  1  0.306841  0.793261  0.734588  1
  H  H17  1  0.486419  0.693159  0.734588  1
  H  H18  1  0.195836  0.000000  0.000000  1
  H  H19  1  0.804164  0.804164  0.000000  1
  H  H20  1  0.000000  0.195836  0.000000  1
  H  H21  1  0.863243  0.000000  0.243329  1
  H  H22  1  0.136757  0.136757  0.756671  1
  H  H23  1  0.000000  0.863243  0.756671  1
  H  H24  1  0.000000  0.863243  0.243329  1
  H  H25  1  0.136757  0.136757  0.243329  1
  H  H26  1  0.863243  0.000000  0.756671  1
  H  H27  1  0.129180  0.637098  0.500000  1
  H  H28  1  0.507918  0.870820  0.500000  1
  H  H29  1  0.362902  0.492082  0.500000  1
  H  H30  1  0.492082  0.362902  0.500000  1
  H  H31  1  0.870820  0.507918  0.500000  1
  H  H32  1  0.637098  0.129180  0.500000  1
  H  H33  1  0.206739  0.513581  0.734588  1
  H  H34  1  0.306841  0.793261  0.265412  1
  H  H35  1  0.486419  0.693159  0.265412  1
