# generated using pymatgen
data_Yb2Co2BCN2
_symmetry_space_group_name_H-M   'P 1'
_cell_length_a   3.46527500
_cell_length_b   3.46527500
_cell_length_c   7.37841600
_cell_angle_alpha   90.00000000
_cell_angle_beta   90.00000000
_cell_angle_gamma   90.00000000
_symmetry_Int_Tables_number   1
_chemical_formula_structural   Yb2Co2BCN2
_chemical_formula_sum   'Yb2 Co2 B1 C1 N2'
_cell_volume   88.60098461
_cell_formula_units_Z   1
loop_
 _symmetry_equiv_pos_site_id
 _symmetry_equiv_pos_as_xyz
  1  'x, y, z'
loop_
 _atom_site_type_symbol
 _atom_site_label
 _atom_site_symmetry_multiplicity
 _atom_site_fract_x
 _atom_site_fract_y
 _atom_site_fract_z
 _atom_site_occupancy
  Yb  Yb0  1  0.500000  0.000000  0.164189  1
  Yb  Yb1  1  0.000000  0.500000  0.839331  1
  Co  Co2  1  0.000000  0.000000  0.490010  1
  Co  Co3  1  0.500000  0.500000  0.490010  1
  B  B4  1  0.500000  0.000000  0.653888  1
  C  C5  1  0.000000  0.500000  0.350825  1
  N  N6  1  0.000000  0.500000  0.167793  1
  N  N7  1  0.500000  0.000000  0.843957  1
