# generated using pymatgen
data_Ho10GaCo4Os
_symmetry_space_group_name_H-M   'P 1'
_cell_length_a   8.65074797
_cell_length_b   8.65074806
_cell_length_c   8.65074742
_cell_angle_alpha   130.54923920
_cell_angle_beta   130.54923343
_cell_angle_gamma   72.53023093
_symmetry_Int_Tables_number   1
_chemical_formula_structural   Ho10GaCo4Os
_chemical_formula_sum   'Ho10 Ga1 Co4 Os1'
_cell_volume   365.27827865
_cell_formula_units_Z   1
loop_
 _symmetry_equiv_pos_site_id
 _symmetry_equiv_pos_as_xyz
  1  'x, y, z'
loop_
 _atom_site_type_symbol
 _atom_site_label
 _atom_site_symmetry_multiplicity
 _atom_site_fract_x
 _atom_site_fract_y
 _atom_site_fract_z
 _atom_site_occupancy
  Ho  Ho0  1  0.696869  0.547680  0.525171  1
  Ho  Ho1  1  0.477491  0.952320  0.149190  1
  Ho  Ho2  1  0.803131  0.328301  0.850810  1
  Ho  Ho3  1  0.547680  0.022509  0.850810  1
  Ho  Ho4  1  0.012599  0.012599  0.000000  1
  Ho  Ho5  1  0.022509  0.171699  0.474829  1
  Ho  Ho6  1  0.328301  0.477491  0.525171  1
  Ho  Ho7  1  0.171699  0.696869  0.149190  1
  Ho  Ho8  1  0.952320  0.803131  0.474829  1
  Ho  Ho9  1  0.487401  0.487401  0.000000  1
  Ga  Ga10  1  0.250000  0.250000  0.000000  1
  Co  Co11  1  0.110905  0.610905  0.721810  1
  Co  Co12  1  0.889095  0.389095  0.278190  1
  Co  Co13  1  0.610905  0.889095  0.500000  1
  Co  Co14  1  0.389095  0.110905  0.500000  1
  Os  Os15  1  0.750000  0.750000  0.000000  1
