# generated using pymatgen
data_La2Co2NiN3
_symmetry_space_group_name_H-M   'P 1'
_cell_length_a   6.35461197
_cell_length_b   6.35461161
_cell_length_c   6.14374500
_cell_angle_alpha   88.44605676
_cell_angle_beta   88.44606587
_cell_angle_gamma   118.20690204
_symmetry_Int_Tables_number   1
_chemical_formula_structural   La2Co2NiN3
_chemical_formula_sum   'La4 Co4 Ni2 N6'
_cell_volume   218.32434690
_cell_formula_units_Z   2
loop_
 _symmetry_equiv_pos_site_id
 _symmetry_equiv_pos_as_xyz
  1  'x, y, z'
loop_
 _atom_site_type_symbol
 _atom_site_label
 _atom_site_symmetry_multiplicity
 _atom_site_fract_x
 _atom_site_fract_y
 _atom_site_fract_z
 _atom_site_occupancy
  La  La0  1  0.823915  0.665038  0.907176  1
  La  La1  1  0.334962  0.176085  0.592824  1
  La  La2  1  0.176085  0.334962  0.092824  1
  La  La3  1  0.665038  0.823915  0.407176  1
  Co  Co4  1  0.576937  0.169357  0.100453  1
  Co  Co5  1  0.423063  0.830643  0.899547  1
  Co  Co6  1  0.830643  0.423063  0.399547  1
  Co  Co7  1  0.169357  0.576937  0.600453  1
  Ni  Ni8  1  0.817793  0.182207  0.750000  1
  Ni  Ni9  1  0.182207  0.817793  0.250000  1
  N  N10  1  0.429144  0.570856  0.750000  1
  N  N11  1  0.570856  0.429144  0.250000  1
  N  N12  1  0.999333  0.732422  0.509769  1
  N  N13  1  0.732422  0.999333  0.009769  1
  N  N14  1  0.000667  0.267578  0.490231  1
  N  N15  1  0.267578  0.000667  0.990231  1
