# generated using pymatgen
data_Hf16CdNi4Mo3
_symmetry_space_group_name_H-M   'P 1'
_cell_length_a   8.68884339
_cell_length_b   8.68884346
_cell_length_c   8.68884403
_cell_angle_alpha   60.00955930
_cell_angle_beta   60.00955230
_cell_angle_gamma   60.00955709
_symmetry_Int_Tables_number   1
_chemical_formula_structural   Hf16CdNi4Mo3
_chemical_formula_sum   'Hf16 Cd1 Ni4 Mo3'
_cell_volume   463.94342661
_cell_formula_units_Z   1
loop_
 _symmetry_equiv_pos_site_id
 _symmetry_equiv_pos_as_xyz
  1  'x, y, z'
loop_
 _atom_site_type_symbol
 _atom_site_label
 _atom_site_symmetry_multiplicity
 _atom_site_fract_x
 _atom_site_fract_y
 _atom_site_fract_z
 _atom_site_occupancy
  Hf  Hf0  1  0.696168  0.099212  0.099212  1
  Hf  Hf1  1  0.099212  0.696168  0.099212  1
  Hf  Hf2  1  0.099212  0.099212  0.696168  1
  Hf  Hf3  1  0.103441  0.103441  0.103441  1
  Hf  Hf4  1  0.316060  0.316060  0.695042  1
  Hf  Hf5  1  0.685696  0.685696  0.315042  1
  Hf  Hf6  1  0.316060  0.695042  0.316060  1
  Hf  Hf7  1  0.685696  0.315042  0.685696  1
  Hf  Hf8  1  0.695042  0.316060  0.316060  1
  Hf  Hf9  1  0.315042  0.685696  0.685696  1
  Hf  Hf10  1  0.953035  0.953035  0.545345  1
  Hf  Hf11  1  0.555358  0.555358  0.939671  1
  Hf  Hf12  1  0.953035  0.545345  0.953035  1
  Hf  Hf13  1  0.555358  0.939671  0.555358  1
  Hf  Hf14  1  0.545345  0.953035  0.953035  1
  Hf  Hf15  1  0.939671  0.555358  0.555358  1
  Cd  Cd16  1  0.331103  0.331103  0.331103  1
  Ni  Ni17  1  0.323259  0.890777  0.890777  1
  Ni  Ni18  1  0.890777  0.323259  0.890777  1
  Ni  Ni19  1  0.890777  0.890777  0.323259  1
  Ni  Ni20  1  0.890942  0.890942  0.890942  1
  Mo  Mo21  1  0.993980  0.332864  0.332864  1
  Mo  Mo22  1  0.332864  0.993980  0.332864  1
  Mo  Mo23  1  0.332864  0.332864  0.993980  1
