# generated using pymatgen
data_Ac2LaSm(Zn5Sn)2
_symmetry_space_group_name_H-M   'P 1'
_cell_length_a   8.71727419
_cell_length_b   8.71727323
_cell_length_c   9.24107000
_cell_angle_alpha   90.00000000
_cell_angle_beta   90.00000000
_cell_angle_gamma   149.27009598
_symmetry_Int_Tables_number   1
_chemical_formula_structural   Ac2LaSm(Zn5Sn)2
_chemical_formula_sum   'Ac2 La1 Sm1 Zn10 Sn2'
_cell_volume   358.83715746
_cell_formula_units_Z   1
loop_
 _symmetry_equiv_pos_site_id
 _symmetry_equiv_pos_as_xyz
  1  'x, y, z'
loop_
 _atom_site_type_symbol
 _atom_site_label
 _atom_site_symmetry_multiplicity
 _atom_site_fract_x
 _atom_site_fract_y
 _atom_site_fract_z
 _atom_site_occupancy
  Ac  Ac0  1  0.000343  0.999657  0.499529  1
  Ac  Ac1  1  0.000343  0.999657  0.000471  1
  La  La2  1  0.791659  0.208341  0.750000  1
  Sm  Sm3  1  0.208899  0.791101  0.250000  1
  Zn  Zn4  1  0.811773  0.188227  0.388349  1
  Zn  Zn5  1  0.187477  0.812523  0.608406  1
  Zn  Zn6  1  0.811773  0.188227  0.111651  1
  Zn  Zn7  1  0.187477  0.812523  0.891594  1
  Zn  Zn8  1  0.659345  0.340655  0.484640  1
  Zn  Zn9  1  0.340340  0.659660  0.512264  1
  Zn  Zn10  1  0.659345  0.340655  0.015360  1
  Zn  Zn11  1  0.340340  0.659660  0.987736  1
  Zn  Zn12  1  0.397133  0.602867  0.250000  1
  Zn  Zn13  1  0.602335  0.397665  0.750000  1
  Sn  Sn14  1  0.562623  0.437377  0.250000  1
  Sn  Sn15  1  0.438795  0.561205  0.750000  1
