# generated using pymatgen
data_Li3La16CdTc4
_symmetry_space_group_name_H-M   'P 1'
_cell_length_a   10.13563218
_cell_length_b   10.08725161
_cell_length_c   10.13563300
_cell_angle_alpha   59.84121604
_cell_angle_beta   60.00000058
_cell_angle_gamma   59.84121585
_symmetry_Int_Tables_number   1
_chemical_formula_structural   Li3La16CdTc4
_chemical_formula_sum   'Li3 La16 Cd1 Tc4'
_cell_volume   730.99276887
_cell_formula_units_Z   1
loop_
 _symmetry_equiv_pos_site_id
 _symmetry_equiv_pos_as_xyz
  1  'x, y, z'
loop_
 _atom_site_type_symbol
 _atom_site_label
 _atom_site_symmetry_multiplicity
 _atom_site_fract_x
 _atom_site_fract_y
 _atom_site_fract_z
 _atom_site_occupancy
  Li  Li0  1  0.225936  0.929173  0.922445  1
  Li  Li1  1  0.922445  0.929173  0.922445  1
  Li  Li2  1  0.922445  0.929173  0.225936  1
  La  La3  1  0.944633  0.944335  0.555516  1
  La  La4  1  0.555516  0.944335  0.555516  1
  La  La5  1  0.555516  0.944335  0.944633  1
  La  La6  1  0.684949  0.684695  0.315178  1
  La  La7  1  0.155125  0.157235  0.532515  1
  La  La8  1  0.315178  0.684695  0.684949  1
  La  La9  1  0.155125  0.157235  0.155125  1
  La  La10  1  0.532515  0.157235  0.155125  1
  La  La11  1  0.315178  0.684695  0.315178  1
  La  La12  1  0.311488  0.313244  0.687634  1
  La  La13  1  0.687634  0.313244  0.687634  1
  La  La14  1  0.943495  0.554340  0.558670  1
  La  La15  1  0.558670  0.554340  0.943495  1
  La  La16  1  0.157627  0.527117  0.157627  1
  La  La17  1  0.687634  0.313244  0.311488  1
  La  La18  1  0.943495  0.554340  0.943495  1
  Cd  Cd19  1  0.921842  0.234473  0.921842  1
  Tc  Tc20  1  0.908117  0.363087  0.364397  1
  Tc  Tc21  1  0.364397  0.363087  0.908117  1
  Tc  Tc22  1  0.366640  0.900079  0.366640  1
  Tc  Tc23  1  0.364397  0.363087  0.364397  1
