# generated using pymatgen
data_KGa9CoIr
_symmetry_space_group_name_H-M   'P 1'
_cell_length_a   8.13794300
_cell_length_b   8.13794329
_cell_length_c   3.92129000
_cell_angle_alpha   90.00000000
_cell_angle_beta   90.00000000
_cell_angle_gamma   119.99999474
_symmetry_Int_Tables_number   1
_chemical_formula_structural   KGa9CoIr
_chemical_formula_sum   'K1 Ga9 Co1 Ir1'
_cell_volume   224.89972245
_cell_formula_units_Z   1
loop_
 _symmetry_equiv_pos_site_id
 _symmetry_equiv_pos_as_xyz
  1  'x, y, z'
loop_
 _atom_site_type_symbol
 _atom_site_label
 _atom_site_symmetry_multiplicity
 _atom_site_fract_x
 _atom_site_fract_y
 _atom_site_fract_z
 _atom_site_occupancy
  K  K0  1  0.000000  0.000000  0.000000  1
  Ga  Ga1  1  0.796134  0.592267  0.500000  1
  Ga  Ga2  1  0.494107  0.505893  0.000000  1
  Ga  Ga3  1  0.494107  0.988214  0.000000  1
  Ga  Ga4  1  0.407733  0.203866  0.500000  1
  Ga  Ga5  1  0.208705  0.417412  0.500000  1
  Ga  Ga6  1  0.208705  0.791295  0.500000  1
  Ga  Ga7  1  0.582588  0.791295  0.500000  1
  Ga  Ga8  1  0.011786  0.505893  0.000000  1
  Ga  Ga9  1  0.796134  0.203866  0.500000  1
  Co  Co10  1  0.333333  0.666667  0.000000  1
  Ir  Ir11  1  0.666667  0.333333  0.000000  1
