# generated using pymatgen
data_Nd16MgIn3Ru4
_symmetry_space_group_name_H-M   'P 1'
_cell_length_a   9.93026208
_cell_length_b   9.93686520
_cell_length_c   9.93686400
_cell_angle_alpha   59.99999734
_cell_angle_beta   59.97799857
_cell_angle_gamma   59.97801040
_symmetry_Int_Tables_number   1
_chemical_formula_structural   Nd16MgIn3Ru4
_chemical_formula_sum   'Nd16 Mg1 In3 Ru4'
_cell_volume   693.10651651
_cell_formula_units_Z   1
loop_
 _symmetry_equiv_pos_site_id
 _symmetry_equiv_pos_as_xyz
  1  'x, y, z'
loop_
 _atom_site_type_symbol
 _atom_site_label
 _atom_site_symmetry_multiplicity
 _atom_site_fract_x
 _atom_site_fract_y
 _atom_site_fract_z
 _atom_site_occupancy
  Nd  Nd0  1  0.596214  0.595934  0.595934  1
  Nd  Nd1  1  0.596214  0.595934  0.211918  1
  Nd  Nd2  1  0.596214  0.211918  0.595934  1
  Nd  Nd3  1  0.209698  0.596768  0.596768  1
  Nd  Nd4  1  0.056924  0.442644  0.442644  1
  Nd  Nd5  1  0.440106  0.060060  0.060060  1
  Nd  Nd6  1  0.440106  0.060060  0.439776  1
  Nd  Nd7  1  0.056924  0.442644  0.057789  1
  Nd  Nd8  1  0.440106  0.439776  0.060060  1
  Nd  Nd9  1  0.056924  0.057789  0.442644  1
  Nd  Nd10  1  0.189519  0.810321  0.810321  1
  Nd  Nd11  1  0.810490  0.189639  0.189639  1
  Nd  Nd12  1  0.810490  0.189639  0.810235  1
  Nd  Nd13  1  0.189519  0.810321  0.189839  1
  Nd  Nd14  1  0.810490  0.810235  0.189639  1
  Nd  Nd15  1  0.189519  0.189839  0.810321  1
  Mg  Mg16  1  0.523474  0.825508  0.825508  1
  In  In17  1  0.829184  0.830422  0.830422  1
  In  In18  1  0.829184  0.830422  0.509971  1
  In  In19  1  0.829184  0.509971  0.830422  1
  Ru  Ru20  1  0.388175  0.388304  0.388304  1
  Ru  Ru21  1  0.388175  0.388304  0.835216  1
  Ru  Ru22  1  0.388175  0.835216  0.388304  1
  Ru  Ru23  1  0.834991  0.388337  0.388337  1
