# generated using pymatgen
data_ErSi4P2(Pd10Pb)2
_symmetry_space_group_name_H-M   'P 1'
_cell_length_a   8.70445188
_cell_length_b   8.72104524
_cell_length_c   8.72104576
_cell_angle_alpha   59.87416078
_cell_angle_beta   60.06292682
_cell_angle_gamma   60.06292294
_symmetry_Int_Tables_number   1
_chemical_formula_structural   ErSi4P2(Pd10Pb)2
_chemical_formula_sum   'Er1 Si4 P2 Pd20 Pb2'
_cell_volume   468.12348734
_cell_formula_units_Z   1
loop_
 _symmetry_equiv_pos_site_id
 _symmetry_equiv_pos_as_xyz
  1  'x, y, z'
loop_
 _atom_site_type_symbol
 _atom_site_label
 _atom_site_symmetry_multiplicity
 _atom_site_fract_x
 _atom_site_fract_y
 _atom_site_fract_z
 _atom_site_occupancy
  Er  Er0  1  0.000000  0.000000  0.000000  1
  Si  Si1  1  0.268535  0.731465  0.268535  1
  Si  Si2  1  0.731465  0.268535  0.731465  1
  Si  Si3  1  0.268535  0.268535  0.731465  1
  Si  Si4  1  0.731465  0.731465  0.268535  1
  P  P5  1  0.732603  0.267397  0.267397  1
  P  P6  1  0.267397  0.732603  0.732603  1
  Pd  Pd7  1  0.343695  0.000000  0.000000  1
  Pd  Pd8  1  0.656305  0.000000  0.000000  1
  Pd  Pd9  1  0.000000  0.343695  0.656305  1
  Pd  Pd10  1  0.000000  0.656305  0.343695  1
  Pd  Pd11  1  0.999278  0.342422  0.000722  1
  Pd  Pd12  1  0.657578  0.000722  0.342422  1
  Pd  Pd13  1  0.000722  0.657578  0.999278  1
  Pd  Pd14  1  0.342422  0.999278  0.657578  1
  Pd  Pd15  1  0.999278  0.000722  0.342422  1
  Pd  Pd16  1  0.000722  0.999278  0.657578  1
  Pd  Pd17  1  0.657578  0.342422  0.000722  1
  Pd  Pd18  1  0.342422  0.657578  0.999278  1
  Pd  Pd19  1  0.385119  0.383091  0.383091  1
  Pd  Pd20  1  0.614881  0.616909  0.616909  1
  Pd  Pd21  1  0.383091  0.385119  0.848700  1
  Pd  Pd22  1  0.383091  0.848700  0.385119  1
  Pd  Pd23  1  0.616909  0.614881  0.151300  1
  Pd  Pd24  1  0.616909  0.151300  0.614881  1
  Pd  Pd25  1  0.848700  0.383091  0.383091  1
  Pd  Pd26  1  0.151300  0.616909  0.616909  1
  Pb  Pb27  1  0.250000  0.250000  0.250000  1
  Pb  Pb28  1  0.750000  0.750000  0.750000  1
