# generated using pymatgen
data_LiHo5(Rh2Pb)6
_symmetry_space_group_name_H-M   'P 1'
_cell_length_a   4.57699612
_cell_length_b   7.11887604
_cell_length_c   13.69273383
_cell_angle_alpha   90.05779428
_cell_angle_beta   90.01087853
_cell_angle_gamma   89.97659839
_symmetry_Int_Tables_number   1
_chemical_formula_structural   LiHo5(Rh2Pb)6
_chemical_formula_sum   'Li1 Ho5 Rh12 Pb6'
_cell_volume   446.15100509
_cell_formula_units_Z   1
loop_
 _symmetry_equiv_pos_site_id
 _symmetry_equiv_pos_as_xyz
  1  'x, y, z'
loop_
 _atom_site_type_symbol
 _atom_site_label
 _atom_site_symmetry_multiplicity
 _atom_site_fract_x
 _atom_site_fract_y
 _atom_site_fract_z
 _atom_site_occupancy
  Li  Li0  1  0.499863  0.500004  0.833273  1
  Ho  Ho1  1  0.999948  0.000002  0.997749  1
  Ho  Ho2  1  0.500049  0.499818  0.162876  1
  Ho  Ho3  1  0.999993  0.000051  0.333308  1
  Ho  Ho4  1  0.499928  0.499994  0.503765  1
  Ho  Ho5  1  0.999876  0.999981  0.668900  1
  Rh  Rh6  1  0.500179  0.254542  0.995904  1
  Rh  Rh7  1  0.500003  0.745426  0.995925  1
  Rh  Rh8  1  0.999999  0.251391  0.165151  1
  Rh  Rh9  1  0.999971  0.748378  0.165102  1
  Rh  Rh10  1  0.499948  0.251265  0.333284  1
  Rh  Rh11  1  0.499972  0.748682  0.333312  1
  Rh  Rh12  1  0.000028  0.251547  0.501467  1
  Rh  Rh13  1  0.999789  0.748488  0.501442  1
  Rh  Rh14  1  0.499804  0.254562  0.670709  1
  Rh  Rh15  1  0.499802  0.745326  0.670728  1
  Rh  Rh16  1  0.999814  0.247561  0.833322  1
  Rh  Rh17  1  0.999734  0.752415  0.833264  1
  Pb  Pb18  1  0.000620  0.500463  0.989811  1
  Pb  Pb19  1  0.500120  0.999779  0.163344  1
  Pb  Pb20  1  0.000347  0.500176  0.333430  1
  Pb  Pb21  1  0.500341  0.999949  0.503413  1
  Pb  Pb22  1  0.000044  0.500417  0.676969  1
  Pb  Pb23  1  0.499830  0.999781  0.833555  1
