# generated using pymatgen
data_Li3Ti2MoIr6
_symmetry_space_group_name_H-M   'P 1'
_cell_length_a   4.28067200
_cell_length_b   6.04298100
_cell_length_c   12.84098500
_cell_angle_alpha   90.00017011
_cell_angle_beta   90.00110206
_cell_angle_gamma   90.00005521
_symmetry_Int_Tables_number   1
_chemical_formula_structural   Li3Ti2MoIr6
_chemical_formula_sum   'Li6 Ti4 Mo2 Ir12'
_cell_volume   332.17085116
_cell_formula_units_Z   2
loop_
 _symmetry_equiv_pos_site_id
 _symmetry_equiv_pos_as_xyz
  1  'x, y, z'
loop_
 _atom_site_type_symbol
 _atom_site_label
 _atom_site_symmetry_multiplicity
 _atom_site_fract_x
 _atom_site_fract_y
 _atom_site_fract_z
 _atom_site_occupancy
  Li  Li0  1  0.999998  0.500000  0.999837  1
  Li  Li1  1  0.499870  0.999999  0.166847  1
  Li  Li2  1  0.999827  0.500000  0.334408  1
  Li  Li3  1  0.499996  0.999999  0.500978  1
  Li  Li4  1  0.000173  0.499999  0.665685  1
  Li  Li5  1  0.500165  0.000000  0.832242  1
  Ti  Ti6  1  0.999854  0.999999  0.337293  1
  Ti  Ti7  1  0.499999  0.499999  0.501289  1
  Ti  Ti8  1  0.000141  0.000000  0.665385  1
  Ti  Ti9  1  0.500146  0.500001  0.829379  1
  Mo  Mo10  1  0.000009  0.000000  0.996440  1
  Mo  Mo11  1  0.499835  0.500001  0.170200  1
  Ir  Ir12  1  0.500001  0.250324  0.000882  1
  Ir  Ir13  1  0.499999  0.749677  0.000881  1
  Ir  Ir14  1  0.999848  0.249653  0.165764  1
  Ir  Ir15  1  0.999847  0.750349  0.165765  1
  Ir  Ir16  1  0.499851  0.248752  0.333039  1
  Ir  Ir17  1  0.499850  0.751249  0.333041  1
  Ir  Ir18  1  0.000000  0.250042  0.500115  1
  Ir  Ir19  1  0.000000  0.749957  0.500115  1
  Ir  Ir20  1  0.500153  0.249958  0.666580  1
  Ir  Ir21  1  0.500152  0.750043  0.666580  1
  Ir  Ir22  1  0.000145  0.251258  0.833630  1
  Ir  Ir23  1  0.000145  0.748742  0.833628  1
