# generated using pymatgen
data_Tb2AsSe
_symmetry_space_group_name_H-M   'P 1'
_cell_length_a   7.15987004
_cell_length_b   7.15987017
_cell_length_c   7.15986944
_cell_angle_alpha   33.45528796
_cell_angle_beta   33.45528711
_cell_angle_gamma   33.45529384
_symmetry_Int_Tables_number   1
_chemical_formula_structural   Tb2AsSe
_chemical_formula_sum   'Tb2 As1 Se1'
_cell_volume   99.34354333
_cell_formula_units_Z   1
loop_
 _symmetry_equiv_pos_site_id
 _symmetry_equiv_pos_as_xyz
  1  'x, y, z'
loop_
 _atom_site_type_symbol
 _atom_site_label
 _atom_site_symmetry_multiplicity
 _atom_site_fract_x
 _atom_site_fract_y
 _atom_site_fract_z
 _atom_site_occupancy
  Tb  Tb0  1  0.253989  0.253989  0.253989  1
  Tb  Tb1  1  0.746011  0.746011  0.746011  1
  As  As2  1  0.000000  0.000000  0.000000  1
  Se  Se3  1  0.500000  0.500000  0.500000  1
