# generated using pymatgen
data_BeNb5Fe2(BRu2)4
_symmetry_space_group_name_H-M   'P 1'
_cell_length_a   9.16187000
_cell_length_b   9.16187000
_cell_length_c   3.00695000
_cell_angle_alpha   90.00000000
_cell_angle_beta   90.00000000
_cell_angle_gamma   90.00000000
_symmetry_Int_Tables_number   1
_chemical_formula_structural   BeNb5Fe2(BRu2)4
_chemical_formula_sum   'Be1 Nb5 Fe2 B4 Ru8'
_cell_volume   252.40296773
_cell_formula_units_Z   1
loop_
 _symmetry_equiv_pos_site_id
 _symmetry_equiv_pos_as_xyz
  1  'x, y, z'
loop_
 _atom_site_type_symbol
 _atom_site_label
 _atom_site_symmetry_multiplicity
 _atom_site_fract_x
 _atom_site_fract_y
 _atom_site_fract_z
 _atom_site_occupancy
  Be  Be0  1  0.500000  0.500000  0.000000  1
  Nb  Nb1  1  0.822922  0.670083  0.000000  1
  Nb  Nb2  1  0.177078  0.329917  0.000000  1
  Nb  Nb3  1  0.329917  0.822922  0.000000  1
  Nb  Nb4  1  0.670083  0.177078  0.000000  1
  Nb  Nb5  1  0.000000  0.000000  0.000000  1
  Fe  Fe6  1  0.500000  0.000000  0.500000  1
  Fe  Fe7  1  0.000000  0.500000  0.500000  1
  B  B8  1  0.606793  0.874732  0.000000  1
  B  B9  1  0.393207  0.125268  0.000000  1
  B  B10  1  0.125268  0.606793  0.000000  1
  B  B11  1  0.874732  0.393207  0.000000  1
  Ru  Ru12  1  0.563220  0.710516  0.500000  1
  Ru  Ru13  1  0.436780  0.289484  0.500000  1
  Ru  Ru14  1  0.070028  0.775294  0.500000  1
  Ru  Ru15  1  0.929972  0.224706  0.500000  1
  Ru  Ru16  1  0.289484  0.563220  0.500000  1
  Ru  Ru17  1  0.710516  0.436780  0.500000  1
  Ru  Ru18  1  0.224706  0.070028  0.500000  1
  Ru  Ru19  1  0.775294  0.929972  0.500000  1
