# generated using pymatgen
data_Gd6Sn6Ir4RuRh
_symmetry_space_group_name_H-M   'P 1'
_cell_length_a   7.60165200
_cell_length_b   7.60165086
_cell_length_c   7.38010700
_cell_angle_alpha   90.00000000
_cell_angle_beta   90.00000000
_cell_angle_gamma   119.99999627
_symmetry_Int_Tables_number   1
_chemical_formula_structural   Gd6Sn6Ir4RuRh
_chemical_formula_sum   'Gd6 Sn6 Ir4 Ru1 Rh1'
_cell_volume   369.32542734
_cell_formula_units_Z   1
loop_
 _symmetry_equiv_pos_site_id
 _symmetry_equiv_pos_as_xyz
  1  'x, y, z'
loop_
 _atom_site_type_symbol
 _atom_site_label
 _atom_site_symmetry_multiplicity
 _atom_site_fract_x
 _atom_site_fract_y
 _atom_site_fract_z
 _atom_site_occupancy
  Gd  Gd0  1  0.000426  0.403882  0.750000  1
  Gd  Gd1  1  0.596118  0.596545  0.750000  1
  Gd  Gd2  1  0.403455  0.999574  0.750000  1
  Gd  Gd3  1  0.998668  0.405802  0.250000  1
  Gd  Gd4  1  0.594198  0.592867  0.250000  1
  Gd  Gd5  1  0.407133  0.001332  0.250000  1
  Sn  Sn6  1  0.263116  0.263312  0.500267  1
  Sn  Sn7  1  0.000195  0.736884  0.500267  1
  Sn  Sn8  1  0.000195  0.736884  0.999733  1
  Sn  Sn9  1  0.736688  0.999805  0.500267  1
  Sn  Sn10  1  0.736688  0.999805  0.999733  1
  Sn  Sn11  1  0.263116  0.263312  0.999733  1
  Ir  Ir12  1  0.333333  0.666667  0.496928  1
  Ir  Ir13  1  0.666667  0.333333  0.499193  1
  Ir  Ir14  1  0.333333  0.666667  0.003072  1
  Ir  Ir15  1  0.666667  0.333333  0.000807  1
  Ru  Ru16  1  0.000000  0.000000  0.750000  1
  Rh  Rh17  1  0.000000  0.000000  0.250000  1
