# generated using pymatgen
data_Yb2PaSn3IrPt2
_symmetry_space_group_name_H-M   'P 1'
_cell_length_a   7.47513974
_cell_length_b   7.47513882
_cell_length_c   4.07448000
_cell_angle_alpha   90.00000000
_cell_angle_beta   90.00000000
_cell_angle_gamma   119.99202195
_symmetry_Int_Tables_number   1
_chemical_formula_structural   Yb2PaSn3IrPt2
_chemical_formula_sum   'Yb2 Pa1 Sn3 Ir1 Pt2'
_cell_volume   197.18610472
_cell_formula_units_Z   1
loop_
 _symmetry_equiv_pos_site_id
 _symmetry_equiv_pos_as_xyz
  1  'x, y, z'
loop_
 _atom_site_type_symbol
 _atom_site_label
 _atom_site_symmetry_multiplicity
 _atom_site_fract_x
 _atom_site_fract_y
 _atom_site_fract_z
 _atom_site_occupancy
  Yb  Yb0  1  0.591026  0.996605  0.000000  1
  Yb  Yb1  1  0.996605  0.591026  0.000000  1
  Pa  Pa2  1  0.407969  0.407969  0.000000  1
  Sn  Sn3  1  0.982209  0.252789  0.500000  1
  Sn  Sn4  1  0.760057  0.760057  0.500000  1
  Sn  Sn5  1  0.252789  0.982209  0.500000  1
  Ir  Ir6  1  0.029250  0.029250  0.000000  1
  Pt  Pt7  1  0.644586  0.335509  0.500000  1
  Pt  Pt8  1  0.335509  0.644586  0.500000  1
