# generated using pymatgen
data_Zr2Nb(MoP)3
_symmetry_space_group_name_H-M   'P 1'
_cell_length_a   6.90727868
_cell_length_b   6.90727879
_cell_length_c   3.41948500
_cell_angle_alpha   90.00000000
_cell_angle_beta   90.00000000
_cell_angle_gamma   119.80813718
_symmetry_Int_Tables_number   1
_chemical_formula_structural   Zr2Nb(MoP)3
_chemical_formula_sum   'Zr2 Nb1 Mo3 P3'
_cell_volume   141.56037143
_cell_formula_units_Z   1
loop_
 _symmetry_equiv_pos_site_id
 _symmetry_equiv_pos_as_xyz
  1  'x, y, z'
loop_
 _atom_site_type_symbol
 _atom_site_label
 _atom_site_symmetry_multiplicity
 _atom_site_fract_x
 _atom_site_fract_y
 _atom_site_fract_z
 _atom_site_occupancy
  Zr  Zr0  1  0.594971  0.998265  0.500000  1
  Zr  Zr1  1  0.998265  0.594971  0.500000  1
  Nb  Nb2  1  0.403328  0.403328  0.500000  1
  Mo  Mo3  1  0.005684  0.254424  0.000000  1
  Mo  Mo4  1  0.254424  0.005684  0.000000  1
  Mo  Mo5  1  0.745112  0.745112  0.000000  1
  P  P6  1  0.662870  0.334192  0.000000  1
  P  P7  1  0.334192  0.662870  0.000000  1
  P  P8  1  0.001154  0.001154  0.500000  1
