# generated using pymatgen
data_Np2NCl2O
_symmetry_space_group_name_H-M   'P 1'
_cell_length_a   10.47708702
_cell_length_b   10.47708687
_cell_length_c   10.47708719
_cell_angle_alpha   21.23878092
_cell_angle_beta   21.23878145
_cell_angle_gamma   21.23877591
_symmetry_Int_Tables_number   1
_chemical_formula_structural   Np2NCl2O
_chemical_formula_sum   'Np2 N1 Cl2 O1'
_cell_volume   132.19811827
_cell_formula_units_Z   1
loop_
 _symmetry_equiv_pos_site_id
 _symmetry_equiv_pos_as_xyz
  1  'x, y, z'
loop_
 _atom_site_type_symbol
 _atom_site_label
 _atom_site_symmetry_multiplicity
 _atom_site_fract_x
 _atom_site_fract_y
 _atom_site_fract_z
 _atom_site_occupancy
  Np  Np0  1  0.880714  0.880714  0.880714  1
  Np  Np1  1  0.121485  0.121485  0.121485  1
  N  N2  1  0.193398  0.193398  0.193398  1
  Cl  Cl3  1  0.605370  0.605370  0.605370  1
  Cl  Cl4  1  0.394606  0.394606  0.394606  1
  O  O5  1  0.804426  0.804426  0.804426  1
