# generated using pymatgen
data_Eu2Y2H9
_symmetry_space_group_name_H-M   'P 1'
_cell_length_a   6.60816496
_cell_length_b   6.60816505
_cell_length_c   6.60816532
_cell_angle_alpha   132.15247909
_cell_angle_beta   132.15248500
_cell_angle_gamma   69.98830563
_symmetry_Int_Tables_number   1
_chemical_formula_structural   Eu2Y2H9
_chemical_formula_sum   'Eu2 Y2 H9'
_cell_volume   155.49777693
_cell_formula_units_Z   1
loop_
 _symmetry_equiv_pos_site_id
 _symmetry_equiv_pos_as_xyz
  1  'x, y, z'
loop_
 _atom_site_type_symbol
 _atom_site_label
 _atom_site_symmetry_multiplicity
 _atom_site_fract_x
 _atom_site_fract_y
 _atom_site_fract_z
 _atom_site_occupancy
  Eu  Eu0  1  0.500000  0.000000  0.500000  1
  Eu  Eu1  1  0.000000  0.500000  0.500000  1
  Y  Y2  1  0.736588  0.736588  0.000000  1
  Y  Y3  1  0.263412  0.263412  0.000000  1
  H  H4  1  0.899574  0.374766  0.000000  1
  H  H5  1  0.374766  0.899574  0.000000  1
  H  H6  1  0.625234  0.100426  0.000000  1
  H  H7  1  0.100426  0.100426  0.475192  1
  H  H8  1  0.374766  0.374766  0.475192  1
  H  H9  1  0.500000  0.500000  0.000000  1
  H  H10  1  0.100426  0.625234  0.000000  1
  H  H11  1  0.625234  0.625234  0.524808  1
  H  H12  1  0.899574  0.899574  0.524808  1
