# generated using pymatgen
data_LiCe8Zn7Ir7Rh
_symmetry_space_group_name_H-M   'P 1'
_cell_length_a   3.93826200
_cell_length_b   7.37492233
_cell_length_c   16.28961501
_cell_angle_alpha   90.14241492
_cell_angle_beta   90.00000000
_cell_angle_gamma   90.00000000
_symmetry_Int_Tables_number   1
_chemical_formula_structural   LiCe8Zn7Ir7Rh
_chemical_formula_sum   'Li1 Ce8 Zn7 Ir7 Rh1'
_cell_volume   473.12024763
_cell_formula_units_Z   1
loop_
 _symmetry_equiv_pos_site_id
 _symmetry_equiv_pos_as_xyz
  1  'x, y, z'
loop_
 _atom_site_type_symbol
 _atom_site_label
 _atom_site_symmetry_multiplicity
 _atom_site_fract_x
 _atom_site_fract_y
 _atom_site_fract_z
 _atom_site_occupancy
  Li  Li0  1  0.750000  0.505039  0.940570  1
  Ce  Ce1  1  0.250000  0.673719  0.559249  1
  Ce  Ce2  1  0.750000  0.824170  0.058361  1
  Ce  Ce3  1  0.250000  0.056033  0.717271  1
  Ce  Ce4  1  0.250000  0.174134  0.942086  1
  Ce  Ce5  1  0.750000  0.941661  0.282940  1
  Ce  Ce6  1  0.250000  0.556026  0.783854  1
  Ce  Ce7  1  0.750000  0.444844  0.215662  1
  Ce  Ce8  1  0.750000  0.326792  0.441361  1
  Zn  Zn9  1  0.250000  0.112959  0.151463  1
  Zn  Zn10  1  0.750000  0.002704  0.561006  1
  Zn  Zn11  1  0.750000  0.386603  0.652068  1
  Zn  Zn12  1  0.750000  0.883363  0.848687  1
  Zn  Zn13  1  0.250000  0.498193  0.058036  1
  Zn  Zn14  1  0.250000  0.613901  0.347809  1
  Zn  Zn15  1  0.250000  0.997507  0.439202  1
  Ir  Ir16  1  0.750000  0.749085  0.437166  1
  Ir  Ir17  1  0.750000  0.255122  0.812985  1
  Ir  Ir18  1  0.750000  0.757517  0.686395  1
  Ir  Ir19  1  0.250000  0.742883  0.186701  1
  Ir  Ir20  1  0.250000  0.755183  0.938432  1
  Ir  Ir21  1  0.250000  0.252254  0.562028  1
  Ir  Ir22  1  0.750000  0.248291  0.062739  1
  Rh  Rh23  1  0.250000  0.242017  0.313928  1
