# generated using pymatgen
data_Sr10Mn5Cr(O12F)2
_symmetry_space_group_name_H-M   'P 1'
_cell_length_a   10.07030680
_cell_length_b   10.08913690
_cell_length_c   7.51002400
_cell_angle_alpha   89.99887659
_cell_angle_beta   89.99950451
_cell_angle_gamma   120.07265943
_symmetry_Int_Tables_number   1
_chemical_formula_structural   Sr10Mn5Cr(O12F)2
_chemical_formula_sum   'Sr10 Mn5 Cr1 O24 F2'
_cell_volume   660.31358524
_cell_formula_units_Z   1
loop_
 _symmetry_equiv_pos_site_id
 _symmetry_equiv_pos_as_xyz
  1  'x, y, z'
loop_
 _atom_site_type_symbol
 _atom_site_label
 _atom_site_symmetry_multiplicity
 _atom_site_fract_x
 _atom_site_fract_y
 _atom_site_fract_z
 _atom_site_occupancy
  Sr  Sr0  1  0.666508  0.333827  0.001701  1
  Sr  Sr1  1  0.333323  0.665879  0.998050  1
  Sr  Sr2  1  0.007838  0.249384  0.250003  1
  Sr  Sr3  1  0.750856  0.758256  0.249999  1
  Sr  Sr4  1  0.240882  0.991221  0.249982  1
  Sr  Sr5  1  0.333320  0.665871  0.501938  1
  Sr  Sr6  1  0.666503  0.333825  0.498330  1
  Sr  Sr7  1  0.758485  0.007079  0.749989  1
  Sr  Sr8  1  0.249708  0.242140  0.750012  1
  Sr  Sr9  1  0.992502  0.751081  0.750001  1
  Mn  Mn10  1  0.630948  0.028672  0.250007  1
  Mn  Mn11  1  0.397416  0.368471  0.250004  1
  Mn  Mn12  1  0.971299  0.602303  0.250008  1
  Mn  Mn13  1  0.028616  0.397737  0.750000  1
  Mn  Mn14  1  0.602670  0.631287  0.750002  1
  Cr  Cr15  1  0.369615  0.971173  0.749944  1
  O  O16  1  0.342771  0.249871  0.068760  1
  O  O17  1  0.907007  0.656940  0.068832  1
  O  O18  1  0.749870  0.092711  0.068596  1
  O  O19  1  0.530147  0.125093  0.250017  1
  O  O20  1  0.874852  0.405017  0.250015  1
  O  O21  1  0.595055  0.469849  0.250009  1
  O  O22  1  0.314062  0.481022  0.249999  1
  O  O23  1  0.167402  0.685441  0.249996  1
  O  O24  1  0.518473  0.832690  0.250005  1
  O  O25  1  0.749872  0.092712  0.431411  1
  O  O26  1  0.907004  0.656943  0.431176  1
  O  O27  1  0.342763  0.249864  0.431244  1
  O  O28  1  0.657311  0.750096  0.568784  1
  O  O29  1  0.092992  0.343177  0.568920  1
  O  O30  1  0.251801  0.908858  0.566337  1
  O  O31  1  0.478098  0.168665  0.750069  1
  O  O32  1  0.832361  0.313824  0.750005  1
  O  O33  1  0.686708  0.519554  0.750008  1
  O  O34  1  0.405054  0.529875  0.749998  1
  O  O35  1  0.124970  0.595222  0.749999  1
  O  O36  1  0.468515  0.872084  0.749926  1
  O  O37  1  0.092993  0.343180  0.931080  1
  O  O38  1  0.251825  0.908992  0.933619  1
  O  O39  1  0.657296  0.750097  0.931216  1
  F  F40  1  0.999872  0.000068  0.250005  1
  F  F41  1  0.000436  0.999948  0.749993  1
