# generated using pymatgen
data_NdTh3(B10Ru)2
_symmetry_space_group_name_H-M   'P 1'
_cell_length_a   4.20700500
_cell_length_b   5.74548991
_cell_length_c   11.45685773
_cell_angle_alpha   90.02057021
_cell_angle_beta   90.00000000
_cell_angle_gamma   90.00000000
_symmetry_Int_Tables_number   1
_chemical_formula_structural   NdTh3(B10Ru)2
_chemical_formula_sum   'Nd1 Th3 B20 Ru2'
_cell_volume   276.92718193
_cell_formula_units_Z   1
loop_
 _symmetry_equiv_pos_site_id
 _symmetry_equiv_pos_as_xyz
  1  'x, y, z'
loop_
 _atom_site_type_symbol
 _atom_site_label
 _atom_site_symmetry_multiplicity
 _atom_site_fract_x
 _atom_site_fract_y
 _atom_site_fract_z
 _atom_site_occupancy
  Nd  Nd0  1  0.500000  0.285174  0.867395  1
  Th  Th1  1  0.500000  0.718412  0.129941  1
  Th  Th2  1  0.500000  0.785780  0.631917  1
  Th  Th3  1  0.500000  0.215834  0.368285  1
  B  B4  1  0.000000  0.118607  0.542271  1
  B  B5  1  0.000000  0.881612  0.457721  1
  B  B6  1  0.000000  0.616797  0.956720  1
  B  B7  1  0.000000  0.379671  0.042991  1
  B  B8  1  0.000000  0.132468  0.697417  1
  B  B9  1  0.000000  0.868521  0.303194  1
  B  B10  1  0.300481  0.220240  0.119247  1
  B  B11  1  0.300138  0.777310  0.881673  1
  B  B12  1  0.699277  0.721301  0.381193  1
  B  B13  1  0.699780  0.278333  0.618861  1
  B  B14  1  0.699862  0.777310  0.881673  1
  B  B15  1  0.699519  0.220240  0.119247  1
  B  B16  1  0.300220  0.278333  0.618861  1
  B  B17  1  0.300723  0.721301  0.381193  1
  B  B18  1  0.000000  0.060109  0.193527  1
  B  B19  1  0.000000  0.940731  0.807941  1
  B  B20  1  0.000000  0.560014  0.306748  1
  B  B21  1  0.000000  0.442221  0.691983  1
  B  B22  1  0.000000  0.368921  0.196782  1
  B  B23  1  0.000000  0.633625  0.802365  1
  Ru  Ru24  1  0.000000  0.499873  0.499988  1
  Ru  Ru25  1  0.000000  0.997265  0.000866  1
