# generated using pymatgen
data_Sr5TcWN7
_symmetry_space_group_name_H-M   'P 1'
_cell_length_a   6.45443774
_cell_length_b   9.37356386
_cell_length_c   9.36696540
_cell_angle_alpha   115.22598233
_cell_angle_beta   97.60976866
_cell_angle_gamma   89.14984541
_symmetry_Int_Tables_number   1
_chemical_formula_structural   Sr5TcWN7
_chemical_formula_sum   'Sr10 Tc2 W2 N14'
_cell_volume   507.60422194
_cell_formula_units_Z   2
loop_
 _symmetry_equiv_pos_site_id
 _symmetry_equiv_pos_as_xyz
  1  'x, y, z'
loop_
 _atom_site_type_symbol
 _atom_site_label
 _atom_site_symmetry_multiplicity
 _atom_site_fract_x
 _atom_site_fract_y
 _atom_site_fract_z
 _atom_site_occupancy
  Sr  Sr0  1  0.849437  0.597340  0.326757  1
  Sr  Sr1  1  0.267505  0.985411  0.561779  1
  Sr  Sr2  1  0.702409  0.411538  0.850836  1
  Sr  Sr3  1  0.297591  0.588462  0.149164  1
  Sr  Sr4  1  0.395986  0.790158  0.914679  1
  Sr  Sr5  1  0.604014  0.209842  0.085321  1
  Sr  Sr6  1  0.150563  0.402660  0.673243  1
  Sr  Sr7  1  0.891386  0.852529  0.759793  1
  Sr  Sr8  1  0.108614  0.147471  0.240207  1
  Sr  Sr9  1  0.732495  0.014589  0.438221  1
  Tc  Tc10  1  0.576968  0.359145  0.474955  1
  Tc  Tc11  1  0.423032  0.640855  0.525045  1
  W  W12  1  0.121759  0.217437  0.917788  1
  W  W13  1  0.878241  0.782563  0.082212  1
  N  N14  1  0.520195  0.545005  0.670201  1
  N  N15  1  0.479805  0.454995  0.329799  1
  N  N16  1  0.159692  0.713441  0.563213  1
  N  N17  1  0.840308  0.286559  0.436787  1
  N  N18  1  0.416307  0.193833  0.473419  1
  N  N19  1  0.583693  0.806167  0.526581  1
  N  N20  1  0.950507  0.137349  0.717245  1
  N  N21  1  0.049493  0.862651  0.282755  1
  N  N22  1  0.233952  0.053008  0.964628  1
  N  N23  1  0.766048  0.946992  0.035372  1
  N  N24  1  0.354035  0.329874  0.905029  1
  N  N25  1  0.967301  0.349773  0.081546  1
  N  N26  1  0.032699  0.650227  0.918454  1
  N  N27  1  0.645965  0.670126  0.094971  1
