# generated using pymatgen
data_Pu3CuCl12
_symmetry_space_group_name_H-M   'P 1'
_cell_length_a   12.80519832
_cell_length_b   12.20635787
_cell_length_c   6.40316800
_cell_angle_alpha   80.41726627
_cell_angle_beta   70.04036708
_cell_angle_gamma   32.20200815
_symmetry_Int_Tables_number   1
_chemical_formula_structural   Pu3CuCl12
_chemical_formula_sum   'Pu3 Cu1 Cl12'
_cell_volume   486.12773293
_cell_formula_units_Z   1
loop_
 _symmetry_equiv_pos_site_id
 _symmetry_equiv_pos_as_xyz
  1  'x, y, z'
loop_
 _atom_site_type_symbol
 _atom_site_label
 _atom_site_symmetry_multiplicity
 _atom_site_fract_x
 _atom_site_fract_y
 _atom_site_fract_z
 _atom_site_occupancy
  Pu  Pu0  1  0.428704  0.428704  0.571296  1
  Pu  Pu1  1  0.832529  0.832529  0.667471  1
  Pu  Pu2  1  0.655508  0.655508  0.844492  1
  Cu  Cu3  1  0.583400  0.583400  0.416600  1
  Cl  Cl4  1  0.735064  0.277076  0.248663  1
  Cl  Cl5  1  0.877862  0.437837  0.097027  1
  Cl  Cl6  1  0.352935  0.810163  0.189821  1
  Cl  Cl7  1  0.437837  0.877862  0.587273  1
  Cl  Cl8  1  0.165602  0.662417  0.344299  1
  Cl  Cl9  1  0.277076  0.735064  0.739196  1
  Cl  Cl10  1  0.520468  0.973213  0.983612  1
  Cl  Cl11  1  0.973213  0.520468  0.522708  1
  Cl  Cl12  1  0.093763  0.593461  0.894245  1
  Cl  Cl13  1  0.810163  0.352935  0.647083  1
  Cl  Cl14  1  0.662417  0.165602  0.827683  1
  Cl  Cl15  1  0.593461  0.093763  0.418529  1
