# generated using pymatgen
data_CaYb5DyTmSb6
_symmetry_space_group_name_H-M   'P 1'
_cell_length_a   8.17343493
_cell_length_b   7.99396615
_cell_length_c   8.16884701
_cell_angle_alpha   70.98228242
_cell_angle_beta   70.08506732
_cell_angle_gamma   109.04939923
_symmetry_Int_Tables_number   1
_chemical_formula_structural   CaYb5DyTmSb6
_chemical_formula_sum   'Ca1 Yb5 Dy1 Tm1 Sb6'
_cell_volume   413.02080051
_cell_formula_units_Z   1
loop_
 _symmetry_equiv_pos_site_id
 _symmetry_equiv_pos_as_xyz
  1  'x, y, z'
loop_
 _atom_site_type_symbol
 _atom_site_label
 _atom_site_symmetry_multiplicity
 _atom_site_fract_x
 _atom_site_fract_y
 _atom_site_fract_z
 _atom_site_occupancy
  Ca  Ca0  1  0.851998  0.998814  0.001267  1
  Yb  Yb1  1  0.501113  0.498847  0.146463  1
  Yb  Yb2  1  0.645724  0.146363  0.353311  1
  Yb  Yb3  1  0.357763  0.001343  0.995833  1
  Yb  Yb4  1  0.495707  0.496884  0.647134  1
  Yb  Yb5  1  0.146943  0.644130  0.857398  1
  Dy  Dy6  1  0.000121  0.856921  0.499880  1
  Tm  Tm7  1  0.000608  0.358999  0.498799  1
  Sb  Sb8  1  0.634705  0.880136  0.741839  1
  Sb  Sb9  1  0.877573  0.622513  0.258514  1
  Sb  Sb10  1  0.242100  0.122928  0.622839  1
  Sb  Sb11  1  0.758868  0.381545  0.863365  1
  Sb  Sb12  1  0.363606  0.744755  0.378208  1
  Sb  Sb13  1  0.123172  0.245823  0.135151  1
