# generated using pymatgen
data_LuNb2Fe9
_symmetry_space_group_name_H-M   'P 1'
_cell_length_a   8.31639187
_cell_length_b   8.31639204
_cell_length_c   8.31639106
_cell_angle_alpha   34.28904731
_cell_angle_beta   34.28906209
_cell_angle_gamma   34.28904741
_symmetry_Int_Tables_number   1
_chemical_formula_structural   LuNb2Fe9
_chemical_formula_sum   'Lu1 Nb2 Fe9'
_cell_volume   162.80216624
_cell_formula_units_Z   1
loop_
 _symmetry_equiv_pos_site_id
 _symmetry_equiv_pos_as_xyz
  1  'x, y, z'
loop_
 _atom_site_type_symbol
 _atom_site_label
 _atom_site_symmetry_multiplicity
 _atom_site_fract_x
 _atom_site_fract_y
 _atom_site_fract_z
 _atom_site_occupancy
  Lu  Lu0  1  0.000000  0.000000  0.000000  1
  Nb  Nb1  1  0.143259  0.143259  0.143259  1
  Nb  Nb2  1  0.856741  0.856741  0.856741  1
  Fe  Fe3  1  0.412835  0.412835  0.916911  1
  Fe  Fe4  1  0.916911  0.412835  0.412835  1
  Fe  Fe5  1  0.587165  0.083089  0.587165  1
  Fe  Fe6  1  0.587165  0.587165  0.083089  1
  Fe  Fe7  1  0.412835  0.916911  0.412835  1
  Fe  Fe8  1  0.083089  0.587165  0.587165  1
  Fe  Fe9  1  0.333287  0.333287  0.333287  1
  Fe  Fe10  1  0.666713  0.666713  0.666713  1
  Fe  Fe11  1  0.500000  0.500000  0.500000  1
