# generated using pymatgen
data_TbEr7(InNi)2
_symmetry_space_group_name_H-M   'P 1'
_cell_length_a   9.50884995
_cell_length_b   9.50885027
_cell_length_c   9.52301700
_cell_angle_alpha   59.95070751
_cell_angle_beta   59.95070639
_cell_angle_gamma   59.92636481
_symmetry_Int_Tables_number   1
_chemical_formula_structural   TbEr7(InNi)2
_chemical_formula_sum   'Tb2 Er14 In4 Ni4'
_cell_volume   608.06454216
_cell_formula_units_Z   2
loop_
 _symmetry_equiv_pos_site_id
 _symmetry_equiv_pos_as_xyz
  1  'x, y, z'
loop_
 _atom_site_type_symbol
 _atom_site_label
 _atom_site_symmetry_multiplicity
 _atom_site_fract_x
 _atom_site_fract_y
 _atom_site_fract_z
 _atom_site_occupancy
  Tb  Tb0  1  0.346630  0.346630  0.349584  1
  Tb  Tb1  1  0.346630  0.346630  0.957158  1
  Er  Er2  1  0.347411  0.954309  0.349141  1
  Er  Er3  1  0.954309  0.347411  0.349141  1
  Er  Er4  1  0.813173  0.188682  0.186991  1
  Er  Er5  1  0.188682  0.813173  0.811155  1
  Er  Er6  1  0.188682  0.813173  0.186991  1
  Er  Er7  1  0.813173  0.188682  0.811155  1
  Er  Er8  1  0.187470  0.187470  0.812530  1
  Er  Er9  1  0.811554  0.811554  0.188446  1
  Er  Er10  1  0.936862  0.563336  0.562536  1
  Er  Er11  1  0.563336  0.936862  0.937266  1
  Er  Er12  1  0.563336  0.936862  0.562536  1
  Er  Er13  1  0.936862  0.563336  0.937266  1
  Er  Er14  1  0.562996  0.562996  0.937004  1
  Er  Er15  1  0.938220  0.938220  0.561780  1
  In  In16  1  0.583749  0.583749  0.581897  1
  In  In17  1  0.583749  0.583749  0.250604  1
  In  In18  1  0.583055  0.252275  0.582334  1
  In  In19  1  0.252275  0.583055  0.582334  1
  Ni  Ni20  1  0.141866  0.141866  0.144280  1
  Ni  Ni21  1  0.141866  0.141866  0.571986  1
  Ni  Ni22  1  0.138405  0.575711  0.142942  1
  Ni  Ni23  1  0.575711  0.138405  0.142942  1
