# generated using pymatgen
data_Eu6MoO12
_symmetry_space_group_name_H-M   'P 1'
_cell_length_a   6.64221044
_cell_length_b   6.64221218
_cell_length_c   6.64221200
_cell_angle_alpha   98.21812226
_cell_angle_beta   98.21812443
_cell_angle_gamma   98.21810861
_symmetry_Int_Tables_number   1
_chemical_formula_structural   Eu6MoO12
_chemical_formula_sum   'Eu6 Mo1 O12'
_cell_volume   283.03927324
_cell_formula_units_Z   1
loop_
 _symmetry_equiv_pos_site_id
 _symmetry_equiv_pos_as_xyz
  1  'x, y, z'
loop_
 _atom_site_type_symbol
 _atom_site_label
 _atom_site_symmetry_multiplicity
 _atom_site_fract_x
 _atom_site_fract_y
 _atom_site_fract_z
 _atom_site_occupancy
  Eu  Eu0  1  0.139603  0.303303  0.606618  1
  Eu  Eu1  1  0.393382  0.860397  0.696697  1
  Eu  Eu2  1  0.696697  0.393382  0.860397  1
  Eu  Eu3  1  0.303303  0.606618  0.139603  1
  Eu  Eu4  1  0.606618  0.139603  0.303303  1
  Eu  Eu5  1  0.860397  0.696697  0.393382  1
  Mo  Mo6  1  0.000000  0.000000  0.000000  1
  O  O7  1  0.070485  0.290556  0.968148  1
  O  O8  1  0.031852  0.929515  0.709444  1
  O  O9  1  0.406185  0.565688  0.823471  1
  O  O10  1  0.176529  0.593815  0.434312  1
  O  O11  1  0.709444  0.031852  0.929515  1
  O  O12  1  0.434312  0.176529  0.593815  1
  O  O13  1  0.565688  0.823471  0.406185  1
  O  O14  1  0.290556  0.968148  0.070485  1
  O  O15  1  0.823471  0.406185  0.565688  1
  O  O16  1  0.593815  0.434312  0.176529  1
  O  O17  1  0.968148  0.070485  0.290556  1
  O  O18  1  0.929515  0.709444  0.031852  1
