# generated using pymatgen
data_LiZn9Pd10
_symmetry_space_group_name_H-M   'P 1'
_cell_length_a   7.38892695
_cell_length_b   7.38895549
_cell_length_c   7.38897601
_cell_angle_alpha   101.52305306
_cell_angle_beta   101.52312111
_cell_angle_gamma   126.90407271
_symmetry_Int_Tables_number   1
_chemical_formula_structural   LiZn9Pd10
_chemical_formula_sum   'Li1 Zn9 Pd10'
_cell_volume   288.57139847
_cell_formula_units_Z   1
loop_
 _symmetry_equiv_pos_site_id
 _symmetry_equiv_pos_as_xyz
  1  'x, y, z'
loop_
 _atom_site_type_symbol
 _atom_site_label
 _atom_site_symmetry_multiplicity
 _atom_site_fract_x
 _atom_site_fract_y
 _atom_site_fract_z
 _atom_site_occupancy
  Li  Li0  1  0.500000  0.500000  0.000000  1
  Zn  Zn1  1  0.206297  0.403045  0.609351  1
  Zn  Zn2  1  0.793703  0.596955  0.390649  1
  Zn  Zn3  1  0.596955  0.206306  0.803254  1
  Zn  Zn4  1  0.403045  0.793694  0.196746  1
  Zn  Zn5  1  0.302845  0.101950  0.404801  1
  Zn  Zn6  1  0.697155  0.898050  0.595199  1
  Zn  Zn7  1  0.898049  0.302852  0.200894  1
  Zn  Zn8  1  0.101951  0.697148  0.799106  1
  Zn  Zn9  1  0.000000  0.000000  0.000000  1
  Pd  Pd10  1  0.344578  0.445376  0.301103  1
  Pd  Pd11  1  0.655422  0.554624  0.698897  1
  Pd  Pd12  1  0.144277  0.043475  0.698903  1
  Pd  Pd13  1  0.043473  0.344571  0.899200  1
  Pd  Pd14  1  0.855723  0.956525  0.301097  1
  Pd  Pd15  1  0.956527  0.655429  0.100800  1
  Pd  Pd16  1  0.445373  0.144272  0.100800  1
  Pd  Pd17  1  0.554627  0.855728  0.899200  1
  Pd  Pd18  1  0.250002  0.750001  0.500003  1
  Pd  Pd19  1  0.749998  0.249999  0.499997  1
