# generated using pymatgen
data_Dy5Ir2Ru
_symmetry_space_group_name_H-M   'P 1'
_cell_length_a   10.82657700
_cell_length_b   10.82657700
_cell_length_c   6.42344700
_cell_angle_alpha   90.00000000
_cell_angle_beta   90.00000000
_cell_angle_gamma   90.00000000
_symmetry_Int_Tables_number   1
_chemical_formula_structural   Dy5Ir2Ru
_chemical_formula_sum   'Dy20 Ir8 Ru4'
_cell_volume   752.92285974
_cell_formula_units_Z   4
loop_
 _symmetry_equiv_pos_site_id
 _symmetry_equiv_pos_as_xyz
  1  'x, y, z'
loop_
 _atom_site_type_symbol
 _atom_site_label
 _atom_site_symmetry_multiplicity
 _atom_site_fract_x
 _atom_site_fract_y
 _atom_site_fract_z
 _atom_site_occupancy
  Dy  Dy0  1  0.293461  0.087017  0.378452  1
  Dy  Dy1  1  0.293461  0.912983  0.878452  1
  Dy  Dy2  1  0.706539  0.087017  0.878452  1
  Dy  Dy3  1  0.706539  0.912983  0.378452  1
  Dy  Dy4  1  0.587017  0.793461  0.878452  1
  Dy  Dy5  1  0.587017  0.206539  0.378452  1
  Dy  Dy6  1  0.412983  0.793461  0.378452  1
  Dy  Dy7  1  0.412983  0.206539  0.878452  1
  Dy  Dy8  1  0.206539  0.412983  0.621548  1
  Dy  Dy9  1  0.206539  0.587017  0.121548  1
  Dy  Dy10  1  0.793461  0.412983  0.121548  1
  Dy  Dy11  1  0.793461  0.587017  0.621548  1
  Dy  Dy12  1  0.912983  0.706539  0.121548  1
  Dy  Dy13  1  0.912983  0.293461  0.621548  1
  Dy  Dy14  1  0.087017  0.706539  0.621548  1
  Dy  Dy15  1  0.087017  0.293461  0.121548  1
  Dy  Dy16  1  0.000000  0.000000  0.500000  1
  Dy  Dy17  1  0.000000  0.000000  0.000000  1
  Dy  Dy18  1  0.500000  0.500000  0.000000  1
  Dy  Dy19  1  0.500000  0.500000  0.500000  1
  Ir  Ir20  1  0.847439  0.152561  0.250000  1
  Ir  Ir21  1  0.847439  0.847439  0.750000  1
  Ir  Ir22  1  0.152561  0.152561  0.750000  1
  Ir  Ir23  1  0.152561  0.847439  0.250000  1
  Ir  Ir24  1  0.652561  0.347439  0.750000  1
  Ir  Ir25  1  0.652561  0.652561  0.250000  1
  Ir  Ir26  1  0.347439  0.347439  0.250000  1
  Ir  Ir27  1  0.347439  0.652561  0.750000  1
  Ru  Ru28  1  0.500000  0.000000  0.123517  1
  Ru  Ru29  1  0.500000  0.000000  0.623517  1
  Ru  Ru30  1  0.000000  0.500000  0.876483  1
  Ru  Ru31  1  0.000000  0.500000  0.376483  1
