# generated using pymatgen
data_Pr20Ir7Ru3Au2
_symmetry_space_group_name_H-M   'P 1'
_cell_length_a   11.41552228
_cell_length_b   11.39754709
_cell_length_c   6.69243674
_cell_angle_alpha   90.04895167
_cell_angle_beta   90.02274688
_cell_angle_gamma   90.01078962
_symmetry_Int_Tables_number   1
_chemical_formula_structural   Pr20Ir7Ru3Au2
_chemical_formula_sum   'Pr20 Ir7 Ru3 Au2'
_cell_volume   870.74553367
_cell_formula_units_Z   1
loop_
 _symmetry_equiv_pos_site_id
 _symmetry_equiv_pos_as_xyz
  1  'x, y, z'
loop_
 _atom_site_type_symbol
 _atom_site_label
 _atom_site_symmetry_multiplicity
 _atom_site_fract_x
 _atom_site_fract_y
 _atom_site_fract_z
 _atom_site_occupancy
  Pr  Pr0  1  0.294692  0.088980  0.380360  1
  Pr  Pr1  1  0.294892  0.911582  0.880891  1
  Pr  Pr2  1  0.697383  0.091522  0.868726  1
  Pr  Pr3  1  0.697428  0.907997  0.368536  1
  Pr  Pr4  1  0.579661  0.791262  0.884004  1
  Pr  Pr5  1  0.580168  0.208871  0.383855  1
  Pr  Pr6  1  0.408132  0.793090  0.383348  1
  Pr  Pr7  1  0.408643  0.206776  0.883453  1
  Pr  Pr8  1  0.208617  0.409248  0.617466  1
  Pr  Pr9  1  0.208389  0.590739  0.115614  1
  Pr  Pr10  1  0.790878  0.418030  0.116220  1
  Pr  Pr11  1  0.790694  0.581752  0.618213  1
  Pr  Pr12  1  0.914340  0.703843  0.132516  1
  Pr  Pr13  1  0.914447  0.295798  0.636032  1
  Pr  Pr14  1  0.097006  0.702921  0.619959  1
  Pr  Pr15  1  0.096957  0.297410  0.118433  1
  Pr  Pr16  1  0.009029  0.999499  0.499067  1
  Pr  Pr17  1  0.009265  0.000446  0.998961  1
  Pr  Pr18  1  0.498913  0.498839  0.998601  1
  Pr  Pr19  1  0.498930  0.501203  0.498578  1
  Ir  Ir20  1  0.152791  0.153252  0.749761  1
  Ir  Ir21  1  0.152645  0.847097  0.250348  1
  Ir  Ir22  1  0.654471  0.347639  0.748582  1
  Ir  Ir23  1  0.654309  0.652160  0.248873  1
  Ir  Ir24  1  0.347433  0.346936  0.249813  1
  Ir  Ir25  1  0.347050  0.653283  0.749507  1
  Ir  Ir26  1  0.999331  0.498575  0.383398  1
  Ru  Ru27  1  0.502391  0.999651  0.116954  1
  Ru  Ru28  1  0.502344  0.000237  0.616772  1
  Ru  Ru29  1  0.998958  0.501187  0.884473  1
  Au  Au30  1  0.845076  0.155165  0.249552  1
  Au  Au31  1  0.844737  0.845008  0.749134  1
