# generated using pymatgen
data_Li5Hg13
_symmetry_space_group_name_H-M   'P 1'
_cell_length_a   15.56767441
_cell_length_b   15.56767328
_cell_length_c   6.54661600
_cell_angle_alpha   98.99612972
_cell_angle_beta   98.99612906
_cell_angle_gamma   14.67163290
_symmetry_Int_Tables_number   1
_chemical_formula_structural   Li5Hg13
_chemical_formula_sum   'Li5 Hg13'
_cell_volume   396.82395876
_cell_formula_units_Z   1
loop_
 _symmetry_equiv_pos_site_id
 _symmetry_equiv_pos_as_xyz
  1  'x, y, z'
loop_
 _atom_site_type_symbol
 _atom_site_label
 _atom_site_symmetry_multiplicity
 _atom_site_fract_x
 _atom_site_fract_y
 _atom_site_fract_z
 _atom_site_occupancy
  Li  Li0  1  0.000000  0.000000  0.000000  1
  Li  Li1  1  0.669359  0.669359  0.328091  1
  Li  Li2  1  0.895775  0.895775  0.428119  1
  Li  Li3  1  0.104225  0.104225  0.571882  1
  Li  Li4  1  0.330641  0.330641  0.671909  1
  Hg  Hg5  1  0.114363  0.114363  0.074916  1
  Hg  Hg6  1  0.219549  0.219549  0.106744  1
  Hg  Hg7  1  0.343217  0.343217  0.220665  1
  Hg  Hg8  1  0.451198  0.451198  0.203368  1
  Hg  Hg9  1  0.565067  0.565067  0.295358  1
  Hg  Hg10  1  0.781623  0.781623  0.397099  1
  Hg  Hg11  1  0.000000  0.000000  0.500000  1
  Hg  Hg12  1  0.218377  0.218377  0.602902  1
  Hg  Hg13  1  0.434933  0.434933  0.704642  1
  Hg  Hg14  1  0.548802  0.548802  0.796631  1
  Hg  Hg15  1  0.656782  0.656782  0.779335  1
  Hg  Hg16  1  0.780450  0.780450  0.893255  1
  Hg  Hg17  1  0.885638  0.885638  0.925085  1
