# generated using pymatgen
data_InCu5F18
_symmetry_space_group_name_H-M   'P 1'
_cell_length_a   4.99082568
_cell_length_b   4.99282276
_cell_length_c   13.52127990
_cell_angle_alpha   89.93600554
_cell_angle_beta   89.88843943
_cell_angle_gamma   59.99002704
_symmetry_Int_Tables_number   1
_chemical_formula_structural   InCu5F18
_chemical_formula_sum   'In1 Cu5 F18'
_cell_volume   291.75781836
_cell_formula_units_Z   1
loop_
 _symmetry_equiv_pos_site_id
 _symmetry_equiv_pos_as_xyz
  1  'x, y, z'
loop_
 _atom_site_type_symbol
 _atom_site_label
 _atom_site_symmetry_multiplicity
 _atom_site_fract_x
 _atom_site_fract_y
 _atom_site_fract_z
 _atom_site_occupancy
  In  In0  1  0.333453  0.333352  0.833341  1
  Cu  Cu1  1  0.000118  0.999808  0.010728  1
  Cu  Cu2  1  0.666455  0.666798  0.169043  1
  Cu  Cu3  1  0.333375  0.333365  0.333474  1
  Cu  Cu4  1  0.000120  0.999917  0.497508  1
  Cu  Cu5  1  0.666943  0.666488  0.655915  1
  F  F6  1  0.330762  0.978184  0.090652  1
  F  F7  1  0.690115  0.331090  0.090749  1
  F  F8  1  0.978256  0.690474  0.090490  1
  F  F9  1  0.997637  0.383176  0.252319  1
  F  F10  1  0.619064  0.998058  0.252158  1
  F  F11  1  0.382288  0.619601  0.252342  1
  F  F12  1  0.284088  0.047347  0.414235  1
  F  F13  1  0.668455  0.283566  0.414232  1
  F  F14  1  0.047349  0.668683  0.414459  1
  F  F15  1  0.336066  0.688571  0.576029  1
  F  F16  1  0.688350  0.976198  0.576172  1
  F  F17  1  0.976471  0.335631  0.575956  1
  F  F18  1  0.362645  0.980232  0.741016  1
  F  F19  1  0.657506  0.362337  0.740845  1
  F  F20  1  0.980603  0.656651  0.740944  1
  F  F21  1  0.009338  0.304278  0.925760  1
  F  F22  1  0.686358  0.009833  0.925779  1
  F  F23  1  0.304029  0.686385  0.925719  1
