# generated using pymatgen
data_TbEr3Al18(Ni2Rh)2
_symmetry_space_group_name_H-M   'P 1'
_cell_length_a   7.44010606
_cell_length_b   7.44155916
_cell_length_c   9.30767000
_cell_angle_alpha   90.00000000
_cell_angle_beta   90.00000000
_cell_angle_gamma   119.08297945
_symmetry_Int_Tables_number   1
_chemical_formula_structural   TbEr3Al18(Ni2Rh)2
_chemical_formula_sum   'Tb1 Er3 Al18 Ni4 Rh2'
_cell_volume   450.35403687
_cell_formula_units_Z   1
loop_
 _symmetry_equiv_pos_site_id
 _symmetry_equiv_pos_as_xyz
  1  'x, y, z'
loop_
 _atom_site_type_symbol
 _atom_site_label
 _atom_site_symmetry_multiplicity
 _atom_site_fract_x
 _atom_site_fract_y
 _atom_site_fract_z
 _atom_site_occupancy
  Tb  Tb0  1  0.994339  0.672405  0.750000  1
  Er  Er1  1  0.005586  0.326662  0.250000  1
  Er  Er2  1  0.672928  0.994510  0.750000  1
  Er  Er3  1  0.326967  0.005914  0.250000  1
  Al  Al4  1  0.133431  0.133852  0.750000  1
  Al  Al5  1  0.866957  0.867140  0.250000  1
  Al  Al6  1  0.997629  0.337280  0.573337  1
  Al  Al7  1  0.002380  0.661922  0.425094  1
  Al  Al8  1  0.002380  0.661922  0.074906  1
  Al  Al9  1  0.338697  0.998392  0.926611  1
  Al  Al10  1  0.997629  0.337280  0.926663  1
  Al  Al11  1  0.661938  0.002377  0.074319  1
  Al  Al12  1  0.661938  0.002377  0.425681  1
  Al  Al13  1  0.338697  0.998392  0.573389  1
  Al  Al14  1  0.334972  0.334971  0.050496  1
  Al  Al15  1  0.664504  0.665155  0.950467  1
  Al  Al16  1  0.664504  0.665155  0.549533  1
  Al  Al17  1  0.334972  0.334971  0.449504  1
  Al  Al18  1  0.341563  0.556102  0.750000  1
  Al  Al19  1  0.658907  0.443343  0.250000  1
  Al  Al20  1  0.555351  0.340216  0.750000  1
  Al  Al21  1  0.443435  0.659103  0.250000  1
  Ni  Ni22  1  0.670995  0.328681  0.499854  1
  Ni  Ni23  1  0.329057  0.671194  0.499853  1
  Ni  Ni24  1  0.329057  0.671194  0.000147  1
  Ni  Ni25  1  0.670995  0.328681  0.000146  1
  Rh  Rh26  1  0.000096  0.000404  0.499706  1
  Rh  Rh27  1  0.000096  0.000404  0.000294  1
