# generated using pymatgen
data_B3Ir3PtAu2
_symmetry_space_group_name_H-M   'P 1'
_cell_length_a   14.18957700
_cell_length_b   14.18957859
_cell_length_c   2.79227200
_cell_angle_alpha   90.00000000
_cell_angle_beta   90.00000000
_cell_angle_gamma   168.15253223
_symmetry_Int_Tables_number   1
_chemical_formula_structural   B3Ir3PtAu2
_chemical_formula_sum   'B3 Ir3 Pt1 Au2'
_cell_volume   115.42511189
_cell_formula_units_Z   1
loop_
 _symmetry_equiv_pos_site_id
 _symmetry_equiv_pos_as_xyz
  1  'x, y, z'
loop_
 _atom_site_type_symbol
 _atom_site_label
 _atom_site_symmetry_multiplicity
 _atom_site_fract_x
 _atom_site_fract_y
 _atom_site_fract_z
 _atom_site_occupancy
  B  B0  1  0.393473  0.606527  0.500000  1
  B  B1  1  0.600362  0.399638  0.000000  1
  B  B2  1  0.990096  0.009904  0.500000  1
  Ir  Ir3  1  0.864775  0.135225  0.000000  1
  Ir  Ir4  1  0.544148  0.455852  0.500000  1
  Ir  Ir5  1  0.455497  0.544503  0.000000  1
  Pt  Pt6  1  0.135240  0.864760  0.500000  1
  Au  Au7  1  0.287881  0.712119  0.500000  1
  Au  Au8  1  0.712528  0.287472  0.000000  1
