# generated using pymatgen
data_Tb2Fe5Co4Ni3P7
_symmetry_space_group_name_H-M   'P 1'
_cell_length_a   3.64516800
_cell_length_b   9.02668371
_cell_length_c   8.99997012
_cell_angle_alpha   119.67449062
_cell_angle_beta   90.00000000
_cell_angle_gamma   90.00000000
_symmetry_Int_Tables_number   1
_chemical_formula_structural   Tb2Fe5Co4Ni3P7
_chemical_formula_sum   'Tb2 Fe5 Co4 Ni3 P7'
_cell_volume   257.29577572
_cell_formula_units_Z   1
loop_
 _symmetry_equiv_pos_site_id
 _symmetry_equiv_pos_as_xyz
  1  'x, y, z'
loop_
 _atom_site_type_symbol
 _atom_site_label
 _atom_site_symmetry_multiplicity
 _atom_site_fract_x
 _atom_site_fract_y
 _atom_site_fract_z
 _atom_site_occupancy
  Tb  Tb0  1  0.000000  0.665104  0.333062  1
  Tb  Tb1  1  0.500000  0.335177  0.667617  1
  Fe  Fe2  1  0.000000  0.274197  0.155597  1
  Fe  Fe3  1  0.000000  0.845126  0.118196  1
  Fe  Fe4  1  0.500000  0.124162  0.904481  1
  Fe  Fe5  1  0.500000  0.095727  0.216026  1
  Fe  Fe6  1  0.500000  0.781085  0.876779  1
  Co  Co7  1  0.000000  0.568914  0.628836  1
  Co  Co8  1  0.000000  0.881542  0.726037  1
  Co  Co9  1  0.500000  0.433643  0.385657  1
  Co  Co10  1  0.500000  0.613172  0.048711  1
  Ni  Ni11  1  0.000000  0.373283  0.939731  1
  Ni  Ni12  1  0.000000  0.061497  0.433511  1
  Ni  Ni13  1  0.500000  0.948374  0.563767  1
  P  P14  1  0.000000  0.112251  0.707453  1
  P  P15  1  0.000000  0.300334  0.408513  1
  P  P16  1  0.000000  0.596040  0.889271  1
  P  P17  1  0.500000  0.705956  0.599643  1
  P  P18  1  0.500000  0.400832  0.116312  1
  P  P19  1  0.500000  0.882075  0.279699  1
  P  P20  1  0.000000  0.001510  0.001097  1
