# generated using pymatgen
data_MnAl3(IrRu)2
_symmetry_space_group_name_H-M   'P 1'
_cell_length_a   6.03290700
_cell_length_b   4.25184600
_cell_length_c   8.49230800
_cell_angle_alpha   90.00000000
_cell_angle_beta   89.99996751
_cell_angle_gamma   90.00000000
_symmetry_Int_Tables_number   1
_chemical_formula_structural   MnAl3(IrRu)2
_chemical_formula_sum   'Mn2 Al6 Ir4 Ru4'
_cell_volume   217.83612029
_cell_formula_units_Z   2
loop_
 _symmetry_equiv_pos_site_id
 _symmetry_equiv_pos_as_xyz
  1  'x, y, z'
loop_
 _atom_site_type_symbol
 _atom_site_label
 _atom_site_symmetry_multiplicity
 _atom_site_fract_x
 _atom_site_fract_y
 _atom_site_fract_z
 _atom_site_occupancy
  Mn  Mn0  1  0.999502  0.749999  0.124996  1
  Mn  Mn1  1  0.500504  0.749999  0.125010  1
  Al  Al2  1  0.000269  0.250001  0.375189  1
  Al  Al3  1  0.499717  0.250001  0.375196  1
  Al  Al4  1  0.498916  0.749999  0.625001  1
  Al  Al5  1  0.001093  0.749999  0.625009  1
  Al  Al6  1  0.499724  0.250001  0.874794  1
  Al  Al7  1  0.000274  0.250001  0.874801  1
  Ir  Ir8  1  0.749999  0.250001  0.124996  1
  Ir  Ir9  1  0.249994  0.749999  0.373190  1
  Ir  Ir10  1  0.750003  0.250001  0.624997  1
  Ir  Ir11  1  0.250007  0.749999  0.876818  1
  Ru  Ru12  1  0.249992  0.250001  0.124995  1
  Ru  Ru13  1  0.750001  0.749999  0.369919  1
  Ru  Ru14  1  0.250001  0.250001  0.624999  1
  Ru  Ru15  1  0.750002  0.749999  0.880089  1
