# generated using pymatgen
data_Nd2Mg(Si3Pd10)2
_symmetry_space_group_name_H-M   'P 1'
_cell_length_a   8.72681506
_cell_length_b   8.72724636
_cell_length_c   8.72711700
_cell_angle_alpha   59.99710381
_cell_angle_beta   59.99687465
_cell_angle_gamma   59.99398445
_symmetry_Int_Tables_number   1
_chemical_formula_structural   Nd2Mg(Si3Pd10)2
_chemical_formula_sum   'Nd2 Mg1 Si6 Pd20'
_cell_volume   469.94744999
_cell_formula_units_Z   1
loop_
 _symmetry_equiv_pos_site_id
 _symmetry_equiv_pos_as_xyz
  1  'x, y, z'
loop_
 _atom_site_type_symbol
 _atom_site_label
 _atom_site_symmetry_multiplicity
 _atom_site_fract_x
 _atom_site_fract_y
 _atom_site_fract_z
 _atom_site_occupancy
  Nd  Nd0  1  0.249987  0.249996  0.250003  1
  Nd  Nd1  1  0.750013  0.750004  0.749997  1
  Mg  Mg2  1  0.000000  0.000000  0.000000  1
  Si  Si3  1  0.734061  0.265935  0.265942  1
  Si  Si4  1  0.265939  0.734065  0.734058  1
  Si  Si5  1  0.265939  0.734056  0.265947  1
  Si  Si6  1  0.734061  0.265944  0.734053  1
  Si  Si7  1  0.265939  0.265941  0.734055  1
  Si  Si8  1  0.734061  0.734059  0.265945  1
  Pd  Pd9  1  0.343599  0.000041  0.000046  1
  Pd  Pd10  1  0.656401  0.999959  0.999954  1
  Pd  Pd11  1  0.999999  0.343647  0.656350  1
  Pd  Pd12  1  0.000001  0.656353  0.343650  1
  Pd  Pd13  1  0.000024  0.343614  0.000027  1
  Pd  Pd14  1  0.656380  0.999981  0.343661  1
  Pd  Pd15  1  0.999976  0.656386  0.999973  1
  Pd  Pd16  1  0.343620  0.000019  0.656339  1
  Pd  Pd17  1  0.000030  0.000018  0.343622  1
  Pd  Pd18  1  0.999970  0.999982  0.656378  1
  Pd  Pd19  1  0.656378  0.343660  0.999976  1
  Pd  Pd20  1  0.343622  0.656340  0.000024  1
  Pd  Pd21  1  0.385050  0.385048  0.385065  1
  Pd  Pd22  1  0.614950  0.614952  0.614935  1
  Pd  Pd23  1  0.385039  0.385055  0.844836  1
  Pd  Pd24  1  0.385051  0.844819  0.385066  1
  Pd  Pd25  1  0.614961  0.614945  0.155164  1
  Pd  Pd26  1  0.614949  0.155181  0.614934  1
  Pd  Pd27  1  0.844834  0.385050  0.385050  1
  Pd  Pd28  1  0.155166  0.614950  0.614950  1
