# generated using pymatgen
data_Er3(FeCo3)2
_symmetry_space_group_name_H-M   'P 1'
_cell_length_a   7.55158725
_cell_length_b   7.55158669
_cell_length_c   7.55158700
_cell_angle_alpha   109.47121611
_cell_angle_beta   109.47121461
_cell_angle_gamma   109.47122437
_symmetry_Int_Tables_number   1
_chemical_formula_structural   Er3(FeCo3)2
_chemical_formula_sum   'Er6 Fe4 Co12'
_cell_volume   331.50709865
_cell_formula_units_Z   2
loop_
 _symmetry_equiv_pos_site_id
 _symmetry_equiv_pos_as_xyz
  1  'x, y, z'
loop_
 _atom_site_type_symbol
 _atom_site_label
 _atom_site_symmetry_multiplicity
 _atom_site_fract_x
 _atom_site_fract_y
 _atom_site_fract_z
 _atom_site_occupancy
  Er  Er0  1  0.716670  0.716670  0.000000  1
  Er  Er1  1  0.283330  0.000000  0.283330  1
  Er  Er2  1  0.000000  0.283330  0.283330  1
  Er  Er3  1  0.283330  0.283330  0.000000  1
  Er  Er4  1  0.716670  0.000000  0.716670  1
  Er  Er5  1  0.000000  0.716670  0.716670  1
  Fe  Fe6  1  0.000000  0.000000  0.500000  1
  Fe  Fe7  1  0.000000  0.500000  0.000000  1
  Fe  Fe8  1  0.500000  0.000000  0.000000  1
  Fe  Fe9  1  0.500000  0.500000  0.500000  1
  Co  Co10  1  0.335813  0.335813  0.671624  1
  Co  Co11  1  0.664187  0.000000  0.335813  1
  Co  Co12  1  0.000000  0.664187  0.335813  1
  Co  Co13  1  0.664187  0.335813  0.000000  1
  Co  Co14  1  0.335813  0.671624  0.335813  1
  Co  Co15  1  0.000000  0.335813  0.664187  1
  Co  Co16  1  0.335813  0.664187  0.000000  1
  Co  Co17  1  0.335813  0.000000  0.664187  1
  Co  Co18  1  0.671624  0.335813  0.335813  1
  Co  Co19  1  0.664187  0.664187  0.328376  1
  Co  Co20  1  0.664187  0.328376  0.664187  1
  Co  Co21  1  0.328376  0.664187  0.664187  1
