# generated using pymatgen
data_Hf2MgSi5Ru8
_symmetry_space_group_name_H-M   'P 1'
_cell_length_a   6.05345100
_cell_length_b   6.07769900
_cell_length_c   6.07769900
_cell_angle_alpha   90.00000000
_cell_angle_beta   90.00000000
_cell_angle_gamma   90.00000000
_symmetry_Int_Tables_number   1
_chemical_formula_structural   Hf2MgSi5Ru8
_chemical_formula_sum   'Hf2 Mg1 Si5 Ru8'
_cell_volume   223.60494657
_cell_formula_units_Z   1
loop_
 _symmetry_equiv_pos_site_id
 _symmetry_equiv_pos_as_xyz
  1  'x, y, z'
loop_
 _atom_site_type_symbol
 _atom_site_label
 _atom_site_symmetry_multiplicity
 _atom_site_fract_x
 _atom_site_fract_y
 _atom_site_fract_z
 _atom_site_occupancy
  Hf  Hf0  1  0.000000  0.000000  0.500000  1
  Hf  Hf1  1  0.000000  0.500000  0.000000  1
  Mg  Mg2  1  0.500000  0.000000  0.000000  1
  Si  Si3  1  0.500000  0.500000  0.500000  1
  Si  Si4  1  0.000000  0.500000  0.500000  1
  Si  Si5  1  0.500000  0.000000  0.500000  1
  Si  Si6  1  0.500000  0.500000  0.000000  1
  Si  Si7  1  0.000000  0.000000  0.000000  1
  Ru  Ru8  1  0.262423  0.741924  0.741924  1
  Ru  Ru9  1  0.737577  0.258076  0.741924  1
  Ru  Ru10  1  0.737577  0.741924  0.741924  1
  Ru  Ru11  1  0.737577  0.741924  0.258076  1
  Ru  Ru12  1  0.737577  0.258076  0.258076  1
  Ru  Ru13  1  0.262423  0.258076  0.741924  1
  Ru  Ru14  1  0.262423  0.741924  0.258076  1
  Ru  Ru15  1  0.262423  0.258076  0.258076  1
