# generated using pymatgen
data_Y16Cd3InPd4
_symmetry_space_group_name_H-M   'P 1'
_cell_length_a   9.73782358
_cell_length_b   9.73782299
_cell_length_c   9.73782313
_cell_angle_alpha   60.09602808
_cell_angle_beta   60.09602843
_cell_angle_gamma   60.09603066
_symmetry_Int_Tables_number   1
_chemical_formula_structural   Y16Cd3InPd4
_chemical_formula_sum   'Y16 Cd3 In1 Pd4'
_cell_volume   654.35679378
_cell_formula_units_Z   1
loop_
 _symmetry_equiv_pos_site_id
 _symmetry_equiv_pos_as_xyz
  1  'x, y, z'
loop_
 _atom_site_type_symbol
 _atom_site_label
 _atom_site_symmetry_multiplicity
 _atom_site_fract_x
 _atom_site_fract_y
 _atom_site_fract_z
 _atom_site_occupancy
  Y  Y0  1  0.351856  0.351856  0.351856  1
  Y  Y1  1  0.355893  0.355893  0.936832  1
  Y  Y2  1  0.355893  0.936832  0.355893  1
  Y  Y3  1  0.936832  0.355893  0.355893  1
  Y  Y4  1  0.810383  0.189928  0.189928  1
  Y  Y5  1  0.190619  0.809297  0.809297  1
  Y  Y6  1  0.189928  0.810383  0.189928  1
  Y  Y7  1  0.809297  0.190619  0.809297  1
  Y  Y8  1  0.189928  0.189928  0.810383  1
  Y  Y9  1  0.809297  0.809297  0.190619  1
  Y  Y10  1  0.935881  0.566397  0.566397  1
  Y  Y11  1  0.564365  0.935633  0.935633  1
  Y  Y12  1  0.566397  0.935881  0.566397  1
  Y  Y13  1  0.935633  0.564365  0.935633  1
  Y  Y14  1  0.566397  0.566397  0.935881  1
  Y  Y15  1  0.935633  0.935633  0.564365  1
  Cd  Cd16  1  0.581089  0.581089  0.252171  1
  Cd  Cd17  1  0.581089  0.252171  0.581089  1
  Cd  Cd18  1  0.252171  0.581089  0.581089  1
  In  In19  1  0.582319  0.582319  0.582319  1
  Pd  Pd20  1  0.145380  0.145380  0.145380  1
  Pd  Pd21  1  0.142900  0.142900  0.567919  1
  Pd  Pd22  1  0.142900  0.567919  0.142900  1
  Pd  Pd23  1  0.567919  0.142900  0.142900  1
