# generated using pymatgen
data_Be6Al9SiIr16
_symmetry_space_group_name_H-M   'P 1'
_cell_length_a   8.85184534
_cell_length_b   8.85180511
_cell_length_c   8.85180500
_cell_angle_alpha   141.26716483
_cell_angle_beta   96.29165712
_cell_angle_gamma   96.33477957
_symmetry_Int_Tables_number   1
_chemical_formula_structural   Be6Al9SiIr16
_chemical_formula_sum   'Be6 Al9 Si1 Ir16'
_cell_volume   409.41195482
_cell_formula_units_Z   1
loop_
 _symmetry_equiv_pos_site_id
 _symmetry_equiv_pos_as_xyz
  1  'x, y, z'
loop_
 _atom_site_type_symbol
 _atom_site_label
 _atom_site_symmetry_multiplicity
 _atom_site_fract_x
 _atom_site_fract_y
 _atom_site_fract_z
 _atom_site_occupancy
  Be  Be0  1  0.878845  0.003826  0.875018  1
  Be  Be1  1  0.126215  0.000575  0.125639  1
  Be  Be2  1  0.624881  0.000552  0.624328  1
  Be  Be3  1  0.381985  0.006966  0.375019  1
  Be  Be4  1  0.867484  0.745515  0.121969  1
  Be  Be5  1  0.373533  0.745512  0.628020  1
  Al  Al6  1  0.127899  0.252900  0.874999  1
  Al  Al7  1  0.377629  0.253054  0.124575  1
  Al  Al8  1  0.878441  0.253048  0.625393  1
  Al  Al9  1  0.628037  0.253028  0.375010  1
  Al  Al10  1  0.372307  0.497304  0.875004  1
  Al  Al11  1  0.624202  0.499604  0.124599  1
  Al  Al12  1  0.125071  0.499607  0.625464  1
  Al  Al13  1  0.869824  0.494817  0.375006  1
  Al  Al14  1  0.621460  0.746440  0.875017  1
  Si  Si15  1  0.121182  0.746196  0.374987  1
  Ir  Ir16  1  0.124771  0.374839  0.249091  1
  Ir  Ir17  1  0.124771  0.875680  0.749931  1
  Ir  Ir18  1  0.875741  0.374814  0.000041  1
  Ir  Ir19  1  0.370791  0.877272  0.002560  1
  Ir  Ir20  1  0.875741  0.875700  0.500926  1
  Ir  Ir21  1  0.370791  0.368232  0.493519  1
  Ir  Ir22  1  0.624691  0.877242  0.256463  1
  Ir  Ir23  1  0.624691  0.368230  0.747448  1
  Ir  Ir24  1  0.879851  0.115320  0.240589  1
  Ir  Ir25  1  0.879851  0.639265  0.764531  1
  Ir  Ir26  1  0.624725  0.115308  0.985463  1
  Ir  Ir27  1  0.125221  0.639398  0.014670  1
  Ir  Ir28  1  0.624725  0.639263  0.509417  1
  Ir  Ir29  1  0.125221  0.110552  0.485824  1
  Ir  Ir30  1  0.374711  0.639384  0.264155  1
  Ir  Ir31  1  0.374711  0.110556  0.735325  1
