# generated using pymatgen
data_TbYTm2(B6Os)2
_symmetry_space_group_name_H-M   'P 1'
_cell_length_a   3.63870800
_cell_length_b   9.10786304
_cell_length_c   11.49831205
_cell_angle_alpha   90.01022066
_cell_angle_beta   90.00000000
_cell_angle_gamma   90.00000000
_symmetry_Int_Tables_number   1
_chemical_formula_structural   TbYTm2(B6Os)2
_chemical_formula_sum   'Tb2 Y2 Tm4 B24 Os4'
_cell_volume   381.06387576
_cell_formula_units_Z   2
loop_
 _symmetry_equiv_pos_site_id
 _symmetry_equiv_pos_as_xyz
  1  'x, y, z'
loop_
 _atom_site_type_symbol
 _atom_site_label
 _atom_site_symmetry_multiplicity
 _atom_site_fract_x
 _atom_site_fract_y
 _atom_site_fract_z
 _atom_site_occupancy
  Tb  Tb0  1  0.000000  0.321573  0.413962  1
  Tb  Tb1  1  0.000000  0.678427  0.586038  1
  Y  Y2  1  0.000000  0.821374  0.085965  1
  Y  Y3  1  0.000000  0.178626  0.914035  1
  Tm  Tm4  1  0.000000  0.944070  0.373036  1
  Tm  Tm5  1  0.000000  0.055930  0.626965  1
  Tm  Tm6  1  0.000000  0.444077  0.126913  1
  Tm  Tm7  1  0.000000  0.555923  0.873086  1
  B  B8  1  0.500000  0.554315  0.432605  1
  B  B9  1  0.500000  0.445685  0.567395  1
  B  B10  1  0.500000  0.054234  0.067274  1
  B  B11  1  0.500000  0.945766  0.932726  1
  B  B12  1  0.500000  0.749241  0.419367  1
  B  B13  1  0.500000  0.250759  0.580633  1
  B  B14  1  0.500000  0.249224  0.080571  1
  B  B15  1  0.500000  0.750776  0.919429  1
  B  B16  1  0.500000  0.791415  0.266425  1
  B  B17  1  0.500000  0.208585  0.733575  1
  B  B18  1  0.500000  0.291351  0.233516  1
  B  B19  1  0.500000  0.708648  0.766484  1
  B  B20  1  0.500000  0.630941  0.184787  1
  B  B21  1  0.500000  0.369059  0.815213  1
  B  B22  1  0.500000  0.130924  0.315168  1
  B  B23  1  0.500000  0.869076  0.684832  1
  B  B24  1  0.500000  0.983013  0.213577  1
  B  B25  1  0.500000  0.016987  0.786423  1
  B  B26  1  0.500000  0.483113  0.286393  1
  B  B27  1  0.500000  0.516887  0.713607  1
  B  B28  1  0.500000  0.605359  0.029030  1
  B  B29  1  0.500000  0.394641  0.970970  1
  B  B30  1  0.500000  0.105175  0.471028  1
  B  B31  1  0.500000  0.894825  0.528972  1
  Os  Os32  1  0.000000  0.638122  0.320506  1
  Os  Os33  1  0.000000  0.361878  0.679494  1
  Os  Os34  1  0.000000  0.138034  0.179427  1
  Os  Os35  1  0.000000  0.861966  0.820573  1
