# generated using pymatgen
data_Y17Er3IrRh11
_symmetry_space_group_name_H-M   'P 1'
_cell_length_a   10.94505303
_cell_length_b   10.94551431
_cell_length_c   6.37132300
_cell_angle_alpha   89.99299082
_cell_angle_beta   89.99569171
_cell_angle_gamma   90.06112956
_symmetry_Int_Tables_number   1
_chemical_formula_structural   Y17Er3IrRh11
_chemical_formula_sum   'Y17 Er3 Ir1 Rh11'
_cell_volume   763.27917644
_cell_formula_units_Z   1
loop_
 _symmetry_equiv_pos_site_id
 _symmetry_equiv_pos_as_xyz
  1  'x, y, z'
loop_
 _atom_site_type_symbol
 _atom_site_label
 _atom_site_symmetry_multiplicity
 _atom_site_fract_x
 _atom_site_fract_y
 _atom_site_fract_z
 _atom_site_occupancy
  Y  Y0  1  0.290776  0.088521  0.378625  1
  Y  Y1  1  0.290932  0.910012  0.878609  1
  Y  Y2  1  0.709336  0.088120  0.878567  1
  Y  Y3  1  0.708947  0.911340  0.378234  1
  Y  Y4  1  0.586561  0.789848  0.878272  1
  Y  Y5  1  0.588540  0.209568  0.378978  1
  Y  Y6  1  0.411154  0.789906  0.379712  1
  Y  Y7  1  0.411466  0.209257  0.878258  1
  Y  Y8  1  0.210188  0.413287  0.621804  1
  Y  Y9  1  0.210058  0.588705  0.120274  1
  Y  Y10  1  0.790459  0.411588  0.120979  1
  Y  Y11  1  0.790703  0.588665  0.621805  1
  Y  Y12  1  0.911708  0.709543  0.121237  1
  Y  Y13  1  0.911621  0.290970  0.621596  1
  Y  Y14  1  0.090222  0.708775  0.621538  1
  Y  Y15  1  0.088419  0.290745  0.121654  1
  Y  Y16  1  0.999780  0.999929  0.500121  1
  Er  Er17  1  0.000165  0.000288  0.999782  1
  Er  Er18  1  0.499673  0.499943  0.000143  1
  Er  Er19  1  0.500051  0.500317  0.499882  1
  Ir  Ir20  1  0.348111  0.651676  0.749910  1
  Rh  Rh21  1  0.846826  0.153314  0.248182  1
  Rh  Rh22  1  0.846216  0.846942  0.752106  1
  Rh  Rh23  1  0.153252  0.153625  0.751649  1
  Rh  Rh24  1  0.152493  0.847423  0.248068  1
  Rh  Rh25  1  0.652316  0.347838  0.749904  1
  Rh  Rh26  1  0.653264  0.652406  0.249996  1
  Rh  Rh27  1  0.347678  0.346615  0.250019  1
  Rh  Rh28  1  0.500048  0.000529  0.125100  1
  Rh  Rh29  1  0.500267  0.000677  0.624236  1
  Rh  Rh30  1  0.999317  0.499708  0.875659  1
  Rh  Rh31  1  0.999451  0.499920  0.375104  1
