# generated using pymatgen
data_Hf16Co4Re3Ru
_symmetry_space_group_name_H-M   'P 1'
_cell_length_a   8.62282597
_cell_length_b   8.62101500
_cell_length_c   8.62816601
_cell_angle_alpha   59.96065462
_cell_angle_beta   59.97324012
_cell_angle_gamma   59.94659208
_symmetry_Int_Tables_number   1
_chemical_formula_structural   Hf16Co4Re3Ru
_chemical_formula_sum   'Hf16 Co4 Re3 Ru1'
_cell_volume   453.12594568
_cell_formula_units_Z   1
loop_
 _symmetry_equiv_pos_site_id
 _symmetry_equiv_pos_as_xyz
  1  'x, y, z'
loop_
 _atom_site_type_symbol
 _atom_site_label
 _atom_site_symmetry_multiplicity
 _atom_site_fract_x
 _atom_site_fract_y
 _atom_site_fract_z
 _atom_site_occupancy
  Hf  Hf0  1  0.052898  0.649489  0.649240  1
  Hf  Hf1  1  0.649426  0.052823  0.649295  1
  Hf  Hf2  1  0.649225  0.649410  0.053108  1
  Hf  Hf3  1  0.649022  0.649140  0.648909  1
  Hf  Hf4  1  0.796027  0.796024  0.204134  1
  Hf  Hf5  1  0.203296  0.203071  0.797831  1
  Hf  Hf6  1  0.795956  0.204007  0.795868  1
  Hf  Hf7  1  0.202972  0.797961  0.203194  1
  Hf  Hf8  1  0.204123  0.795984  0.795899  1
  Hf  Hf9  1  0.797936  0.202940  0.203278  1
  Hf  Hf10  1  0.435456  0.435411  0.063165  1
  Hf  Hf11  1  0.064700  0.064688  0.435038  1
  Hf  Hf12  1  0.435379  0.063282  0.435323  1
  Hf  Hf13  1  0.064631  0.435116  0.064621  1
  Hf  Hf14  1  0.063269  0.435348  0.435385  1
  Hf  Hf15  1  0.435105  0.064666  0.064630  1
  Co  Co16  1  0.420724  0.860111  0.860250  1
  Co  Co17  1  0.860143  0.420642  0.860266  1
  Co  Co18  1  0.860125  0.860167  0.420783  1
  Co  Co19  1  0.859617  0.859607  0.859738  1
  Re  Re20  1  0.748303  0.417778  0.417625  1
  Re  Re21  1  0.417749  0.748271  0.417653  1
  Re  Re22  1  0.417648  0.417697  0.748425  1
  Ru  Ru23  1  0.416268  0.416368  0.416345  1
