# generated using pymatgen
data_Ca3PrFe2(RuO6)2
_symmetry_space_group_name_H-M   'P 1'
_cell_length_a   5.46909152
_cell_length_b   5.61211934
_cell_length_c   7.80530347
_cell_angle_alpha   90.02807446
_cell_angle_beta   89.93582118
_cell_angle_gamma   90.01901985
_symmetry_Int_Tables_number   1
_chemical_formula_structural   Ca3PrFe2(RuO6)2
_chemical_formula_sum   'Ca3 Pr1 Fe2 Ru2 O12'
_cell_volume   239.56950360
_cell_formula_units_Z   1
loop_
 _symmetry_equiv_pos_site_id
 _symmetry_equiv_pos_as_xyz
  1  'x, y, z'
loop_
 _atom_site_type_symbol
 _atom_site_label
 _atom_site_symmetry_multiplicity
 _atom_site_fract_x
 _atom_site_fract_y
 _atom_site_fract_z
 _atom_site_occupancy
  Ca  Ca0  1  0.488691  0.447215  0.250547  1
  Ca  Ca1  1  0.988541  0.052098  0.750511  1
  Ca  Ca2  1  0.011171  0.948973  0.249526  1
  Pr  Pr3  1  0.511974  0.552585  0.749359  1
  Fe  Fe4  1  0.001232  0.499312  0.004581  1
  Fe  Fe5  1  0.499150  0.002272  0.495812  1
  Ru  Ru6  1  0.000851  0.499472  0.496799  1
  Ru  Ru7  1  0.499396  0.001411  0.002902  1
  O  O8  1  0.412094  0.980938  0.751204  1
  O  O9  1  0.912601  0.527714  0.252378  1
  O  O10  1  0.081367  0.474840  0.749088  1
  O  O11  1  0.588941  0.024875  0.247613  1
  O  O12  1  0.206068  0.202801  0.045914  1
  O  O13  1  0.200093  0.208041  0.453009  1
  O  O14  1  0.701401  0.292885  0.956543  1
  O  O15  1  0.796975  0.789977  0.548985  1
  O  O16  1  0.299091  0.699782  0.457483  1
  O  O17  1  0.791830  0.794841  0.951587  1
  O  O18  1  0.705243  0.295838  0.542485  1
  O  O19  1  0.303290  0.704126  0.043667  1
