# generated using pymatgen
data_Yb2Si14Ir5Os
_symmetry_space_group_name_H-M   'P 1'
_cell_length_a   8.00414824
_cell_length_b   8.00414877
_cell_length_c   8.05626581
_cell_angle_alpha   56.90794322
_cell_angle_beta   56.90793940
_cell_angle_gamma   56.89861733
_symmetry_Int_Tables_number   1
_chemical_formula_structural   Yb2Si14Ir5Os
_chemical_formula_sum   'Yb2 Si14 Ir5 Os1'
_cell_volume   338.90447907
_cell_formula_units_Z   1
loop_
 _symmetry_equiv_pos_site_id
 _symmetry_equiv_pos_as_xyz
  1  'x, y, z'
loop_
 _atom_site_type_symbol
 _atom_site_label
 _atom_site_symmetry_multiplicity
 _atom_site_fract_x
 _atom_site_fract_y
 _atom_site_fract_z
 _atom_site_occupancy
  Yb  Yb0  1  0.000104  0.001378  0.998625  1
  Yb  Yb1  1  0.498622  0.499896  0.501375  1
  Si  Si2  1  0.752255  0.747745  0.750000  1
  Si  Si3  1  0.249937  0.250063  0.250000  1
  Si  Si4  1  0.848685  0.066040  0.673043  1
  Si  Si5  1  0.672330  0.850731  0.065591  1
  Si  Si6  1  0.065219  0.671266  0.849866  1
  Si  Si7  1  0.649269  0.827670  0.434409  1
  Si  Si8  1  0.433960  0.651315  0.826957  1
  Si  Si9  1  0.828734  0.434781  0.650134  1
  Si  Si10  1  0.171421  0.566163  0.352628  1
  Si  Si11  1  0.566375  0.349443  0.172703  1
  Si  Si12  1  0.350458  0.173884  0.565060  1
  Si  Si13  1  0.933837  0.328579  0.147372  1
  Si  Si14  1  0.326116  0.149542  0.934940  1
  Si  Si15  1  0.150557  0.933625  0.327297  1
  Ir  Ir16  1  0.249755  0.928849  0.570327  1
  Ir  Ir17  1  0.571151  0.250245  0.929673  1
  Ir  Ir18  1  0.927442  0.572558  0.250000  1
  Ir  Ir19  1  0.429095  0.750780  0.070169  1
  Ir  Ir20  1  0.749220  0.070905  0.429831  1
  Os  Os21  1  0.075458  0.424542  0.750000  1
