# generated using pymatgen
data_Tm5Ni16(MoAs4)3
_symmetry_space_group_name_H-M   'P 1'
_cell_length_a   12.61367800
_cell_length_b   12.61367799
_cell_length_c   3.83171100
_cell_angle_alpha   90.00000000
_cell_angle_beta   90.00000000
_cell_angle_gamma   120.00000526
_symmetry_Int_Tables_number   1
_chemical_formula_structural   Tm5Ni16(MoAs4)3
_chemical_formula_sum   'Tm5 Ni16 Mo3 As12'
_cell_volume   527.96706854
_cell_formula_units_Z   1
loop_
 _symmetry_equiv_pos_site_id
 _symmetry_equiv_pos_as_xyz
  1  'x, y, z'
loop_
 _atom_site_type_symbol
 _atom_site_label
 _atom_site_symmetry_multiplicity
 _atom_site_fract_x
 _atom_site_fract_y
 _atom_site_fract_z
 _atom_site_occupancy
  Tm  Tm0  1  0.184365  0.184365  0.500000  1
  Tm  Tm1  1  0.815635  0.000000  0.500000  1
  Tm  Tm2  1  0.000000  0.815635  0.500000  1
  Tm  Tm3  1  0.333333  0.666667  0.000000  1
  Tm  Tm4  1  0.666667  0.333333  0.000000  1
  Ni  Ni5  1  0.718004  0.718004  0.500000  1
  Ni  Ni6  1  0.281996  0.000000  0.500000  1
  Ni  Ni7  1  0.000000  0.281996  0.500000  1
  Ni  Ni8  1  0.182197  0.375250  0.000000  1
  Ni  Ni9  1  0.624750  0.806947  0.000000  1
  Ni  Ni10  1  0.193053  0.817803  0.000000  1
  Ni  Ni11  1  0.806947  0.624750  0.000000  1
  Ni  Ni12  1  0.817803  0.193053  0.000000  1
  Ni  Ni13  1  0.375250  0.182197  0.000000  1
  Ni  Ni14  1  0.357601  0.482281  0.500000  1
  Ni  Ni15  1  0.517719  0.875322  0.500000  1
  Ni  Ni16  1  0.124678  0.642399  0.500000  1
  Ni  Ni17  1  0.875322  0.517719  0.500000  1
  Ni  Ni18  1  0.642399  0.124678  0.500000  1
  Ni  Ni19  1  0.482281  0.357601  0.500000  1
  Ni  Ni20  1  0.000000  0.000000  0.000000  1
  Mo  Mo21  1  0.560355  0.560355  0.000000  1
  Mo  Mo22  1  0.439645  0.000000  0.000000  1
  Mo  Mo23  1  0.000000  0.439645  0.000000  1
  As  As24  1  0.822354  0.822354  0.000000  1
  As  As25  1  0.177646  0.000000  0.000000  1
  As  As26  1  0.000000  0.177646  0.000000  1
  As  As27  1  0.167898  0.482792  0.500000  1
  As  As28  1  0.517208  0.685105  0.500000  1
  As  As29  1  0.314895  0.832102  0.500000  1
  As  As30  1  0.685105  0.517208  0.500000  1
  As  As31  1  0.832102  0.314895  0.500000  1
  As  As32  1  0.482792  0.167898  0.500000  1
  As  As33  1  0.362649  0.362649  0.000000  1
  As  As34  1  0.637351  0.000000  0.000000  1
  As  As35  1  0.000000  0.637351  0.000000  1
