# generated using pymatgen
data_EuTm3(Co7P4)2
_symmetry_space_group_name_H-M   'P 1'
_cell_length_a   3.64463600
_cell_length_b   9.06781112
_cell_length_c   10.22103930
_cell_angle_alpha   90.06768648
_cell_angle_beta   90.00000000
_cell_angle_gamma   90.00000000
_symmetry_Int_Tables_number   1
_chemical_formula_structural   EuTm3(Co7P4)2
_chemical_formula_sum   'Eu1 Tm3 Co14 P8'
_cell_volume   337.79357224
_cell_formula_units_Z   1
loop_
 _symmetry_equiv_pos_site_id
 _symmetry_equiv_pos_as_xyz
  1  'x, y, z'
loop_
 _atom_site_type_symbol
 _atom_site_label
 _atom_site_symmetry_multiplicity
 _atom_site_fract_x
 _atom_site_fract_y
 _atom_site_fract_z
 _atom_site_occupancy
  Eu  Eu0  1  0.500000  0.942886  0.238238  1
  Tm  Tm1  1  0.000000  0.441134  0.520042  1
  Tm  Tm2  1  0.500000  0.559936  0.019093  1
  Tm  Tm3  1  0.000000  0.057121  0.740536  1
  Co  Co4  1  0.000000  0.770615  0.408182  1
  Co  Co5  1  0.500000  0.227839  0.904000  1
  Co  Co6  1  0.000000  0.746588  0.641840  1
  Co  Co7  1  0.500000  0.254145  0.139459  1
  Co  Co8  1  0.000000  0.810851  0.996748  1
  Co  Co9  1  0.500000  0.187671  0.504289  1
  Co  Co10  1  0.000000  0.437851  0.213043  1
  Co  Co11  1  0.500000  0.561535  0.713888  1
  Co  Co12  1  0.000000  0.401515  0.816438  1
  Co  Co13  1  0.500000  0.595195  0.317434  1
  Co  Co14  1  0.000000  0.196623  0.317337  1
  Co  Co15  1  0.500000  0.812045  0.804923  1
  Co  Co16  1  0.000000  0.086435  0.036551  1
  Co  Co17  1  0.500000  0.913856  0.550808  1
  P  P18  1  0.000000  0.684781  0.201490  1
  P  P19  1  0.500000  0.312287  0.700556  1
  P  P20  1  0.000000  0.024532  0.466048  1
  P  P21  1  0.500000  0.977994  0.956001  1
  P  P22  1  0.000000  0.321082  0.020393  1
  P  P23  1  0.500000  0.679691  0.520536  1
  P  P24  1  0.000000  0.650890  0.830219  1
  P  P25  1  0.500000  0.344904  0.331506  1
