# generated using pymatgen
data_K4CuAu3Se4
_symmetry_space_group_name_H-M   'P 1'
_cell_length_a   6.02639486
_cell_length_b   6.31493273
_cell_length_c   11.13476044
_cell_angle_alpha   90.23220470
_cell_angle_beta   89.05341316
_cell_angle_gamma   88.93820886
_symmetry_Int_Tables_number   1
_chemical_formula_structural   K4CuAu3Se4
_chemical_formula_sum   'K4 Cu1 Au3 Se4'
_cell_volume   423.61293370
_cell_formula_units_Z   1
loop_
 _symmetry_equiv_pos_site_id
 _symmetry_equiv_pos_as_xyz
  1  'x, y, z'
loop_
 _atom_site_type_symbol
 _atom_site_label
 _atom_site_symmetry_multiplicity
 _atom_site_fract_x
 _atom_site_fract_y
 _atom_site_fract_z
 _atom_site_occupancy
  K  K0  1  0.743163  0.540085  0.850165  1
  K  K1  1  0.251546  0.033742  0.651373  1
  K  K2  1  0.748454  0.966258  0.348627  1
  K  K3  1  0.256837  0.459915  0.149835  1
  Cu  Cu4  1  0.000000  0.000000  0.000000  1
  Au  Au5  1  0.500000  0.000000  0.000000  1
  Au  Au6  1  0.500000  0.500000  0.500000  1
  Au  Au7  1  0.000000  0.500000  0.500000  1
  Se  Se8  1  0.766568  0.239547  0.095150  1
  Se  Se9  1  0.751404  0.248282  0.603129  1
  Se  Se10  1  0.233432  0.760453  0.904850  1
  Se  Se11  1  0.248596  0.751718  0.396871  1
