# generated using pymatgen
data_Er3Tm(Ga3Ir)6
_symmetry_space_group_name_H-M   'P 1'
_cell_length_a   7.57865719
_cell_length_b   7.57885914
_cell_length_c   9.45842200
_cell_angle_alpha   90.00000000
_cell_angle_beta   90.00000000
_cell_angle_gamma   120.06132641
_symmetry_Int_Tables_number   1
_chemical_formula_structural   Er3Tm(Ga3Ir)6
_chemical_formula_sum   'Er3 Tm1 Ga18 Ir6'
_cell_volume   470.19359176
_cell_formula_units_Z   1
loop_
 _symmetry_equiv_pos_site_id
 _symmetry_equiv_pos_as_xyz
  1  'x, y, z'
loop_
 _atom_site_type_symbol
 _atom_site_label
 _atom_site_symmetry_multiplicity
 _atom_site_fract_x
 _atom_site_fract_y
 _atom_site_fract_z
 _atom_site_occupancy
  Er  Er0  1  0.997003  0.667682  0.750000  1
  Er  Er1  1  0.003096  0.332396  0.250000  1
  Er  Er2  1  0.667685  0.996975  0.750000  1
  Tm  Tm3  1  0.332364  0.003005  0.250000  1
  Ga  Ga4  1  0.126999  0.127004  0.750000  1
  Ga  Ga5  1  0.873036  0.873001  0.250000  1
  Ga  Ga6  1  0.998458  0.333607  0.581341  1
  Ga  Ga7  1  0.001595  0.666459  0.418697  1
  Ga  Ga8  1  0.001595  0.666459  0.081303  1
  Ga  Ga9  1  0.333601  0.998457  0.918712  1
  Ga  Ga10  1  0.998458  0.333607  0.918659  1
  Ga  Ga11  1  0.666285  0.001515  0.081303  1
  Ga  Ga12  1  0.666285  0.001515  0.418697  1
  Ga  Ga13  1  0.333601  0.998457  0.581288  1
  Ga  Ga14  1  0.332436  0.332364  0.065744  1
  Ga  Ga15  1  0.667552  0.667560  0.934247  1
  Ga  Ga16  1  0.667552  0.667560  0.565753  1
  Ga  Ga17  1  0.332436  0.332364  0.434256  1
  Ga  Ga18  1  0.339014  0.546314  0.750000  1
  Ga  Ga19  1  0.660961  0.453663  0.250000  1
  Ga  Ga20  1  0.546302  0.339008  0.750000  1
  Ga  Ga21  1  0.453713  0.661050  0.250000  1
  Ir  Ir22  1  0.671688  0.328227  0.499947  1
  Ir  Ir23  1  0.328241  0.671739  0.499946  1
  Ir  Ir24  1  0.328241  0.671739  0.000054  1
  Ir  Ir25  1  0.671688  0.328227  0.000053  1
  Ir  Ir26  1  0.000057  0.000021  0.499948  1
  Ir  Ir27  1  0.000057  0.000021  0.000052  1
