# generated using pymatgen
data_Ca3Tb(Si3Ni5)4
_symmetry_space_group_name_H-M   'P 1'
_cell_length_a   18.72389781
_cell_length_b   3.77359100
_cell_length_c   6.67183078
_cell_angle_alpha   90.00000000
_cell_angle_beta   89.94137764
_cell_angle_gamma   90.00000000
_symmetry_Int_Tables_number   1
_chemical_formula_structural   Ca3Tb(Si3Ni5)4
_chemical_formula_sum   'Ca3 Tb1 Si12 Ni20'
_cell_volume   471.40684529
_cell_formula_units_Z   1
loop_
 _symmetry_equiv_pos_site_id
 _symmetry_equiv_pos_as_xyz
  1  'x, y, z'
loop_
 _atom_site_type_symbol
 _atom_site_label
 _atom_site_symmetry_multiplicity
 _atom_site_fract_x
 _atom_site_fract_y
 _atom_site_fract_z
 _atom_site_occupancy
  Ca  Ca0  1  0.643141  0.250000  0.622821  1
  Ca  Ca1  1  0.142458  0.250000  0.877168  1
  Ca  Ca2  1  0.357257  0.750000  0.377213  1
  Tb  Tb3  1  0.856952  0.750000  0.123216  1
  Si  Si4  1  0.914261  0.250000  0.417625  1
  Si  Si5  1  0.414332  0.250000  0.081026  1
  Si  Si6  1  0.085293  0.750000  0.580830  1
  Si  Si7  1  0.586074  0.750000  0.918977  1
  Si  Si8  1  0.737996  0.250000  0.122231  1
  Si  Si9  1  0.237768  0.250000  0.378067  1
  Si  Si10  1  0.262057  0.750000  0.877994  1
  Si  Si11  1  0.762548  0.750000  0.621440  1
  Si  Si12  1  0.925556  0.250000  0.844944  1
  Si  Si13  1  0.425404  0.250000  0.655739  1
  Si  Si14  1  0.074371  0.750000  0.156038  1
  Si  Si15  1  0.574774  0.750000  0.343957  1
  Ni  Ni16  1  0.800762  0.250000  0.814286  1
  Ni  Ni17  1  0.300075  0.250000  0.686903  1
  Ni  Ni18  1  0.199960  0.750000  0.186890  1
  Ni  Ni19  1  0.700094  0.750000  0.312682  1
  Ni  Ni20  1  0.994835  0.250000  0.133307  1
  Ni  Ni21  1  0.495868  0.250000  0.366876  1
  Ni  Ni22  1  0.004010  0.750000  0.867333  1
  Ni  Ni23  1  0.504119  0.750000  0.633098  1
  Ni  Ni24  1  0.514658  0.250000  0.884428  1
  Ni  Ni25  1  0.014182  0.250000  0.615754  1
  Ni  Ni26  1  0.485448  0.750000  0.115770  1
  Ni  Ni27  1  0.985093  0.750000  0.383742  1
  Ni  Ni28  1  0.615525  0.250000  0.140880  1
  Ni  Ni29  1  0.115163  0.250000  0.359256  1
  Ni  Ni30  1  0.384607  0.750000  0.859666  1
  Ni  Ni31  1  0.885052  0.750000  0.641608  1
  Ni  Ni32  1  0.793339  0.250000  0.431488  1
  Ni  Ni33  1  0.293219  0.250000  0.067398  1
  Ni  Ni34  1  0.206605  0.750000  0.567578  1
  Ni  Ni35  1  0.707144  0.750000  0.931770  1
