# generated using pymatgen
data_TbYbTh2(Al3Re)2
_symmetry_space_group_name_H-M   'P 1'
_cell_length_a   5.56795900
_cell_length_b   5.56795967
_cell_length_c   9.02263700
_cell_angle_alpha   90.00000000
_cell_angle_beta   90.00000000
_cell_angle_gamma   119.99999010
_symmetry_Int_Tables_number   1
_chemical_formula_structural   TbYbTh2(Al3Re)2
_chemical_formula_sum   'Tb1 Yb1 Th2 Al6 Re2'
_cell_volume   242.24580748
_cell_formula_units_Z   1
loop_
 _symmetry_equiv_pos_site_id
 _symmetry_equiv_pos_as_xyz
  1  'x, y, z'
loop_
 _atom_site_type_symbol
 _atom_site_label
 _atom_site_symmetry_multiplicity
 _atom_site_fract_x
 _atom_site_fract_y
 _atom_site_fract_z
 _atom_site_occupancy
  Tb  Tb0  1  0.333333  0.666667  0.552245  1
  Yb  Yb1  1  0.666667  0.333333  0.443869  1
  Th  Th2  1  0.333333  0.666667  0.956922  1
  Th  Th3  1  0.666667  0.333333  0.043317  1
  Al  Al4  1  0.677767  0.838883  0.255550  1
  Al  Al5  1  0.161117  0.838883  0.255550  1
  Al  Al6  1  0.161117  0.322233  0.255550  1
  Al  Al7  1  0.320810  0.160406  0.745127  1
  Al  Al8  1  0.839594  0.160406  0.745127  1
  Al  Al9  1  0.839594  0.679190  0.745127  1
  Re  Re10  1  0.000000  0.000000  0.499995  1
  Re  Re11  1  0.000000  0.000000  0.001618  1
