# generated using pymatgen
data_Lu3Zn(InRh2)4
_symmetry_space_group_name_H-M   'P 1'
_cell_length_a   6.33152701
_cell_length_b   6.33277400
_cell_length_c   6.85448700
_cell_angle_alpha   89.99977931
_cell_angle_beta   89.99760672
_cell_angle_gamma   89.99722197
_symmetry_Int_Tables_number   1
_chemical_formula_structural   Lu3Zn(InRh2)4
_chemical_formula_sum   'Lu3 Zn1 In4 Rh8'
_cell_volume   274.83839864
_cell_formula_units_Z   1
loop_
 _symmetry_equiv_pos_site_id
 _symmetry_equiv_pos_as_xyz
  1  'x, y, z'
loop_
 _atom_site_type_symbol
 _atom_site_label
 _atom_site_symmetry_multiplicity
 _atom_site_fract_x
 _atom_site_fract_y
 _atom_site_fract_z
 _atom_site_occupancy
  Lu  Lu0  1  0.750059  0.250012  0.999997  1
  Lu  Lu1  1  0.250024  0.749989  0.499965  1
  Lu  Lu2  1  0.749977  0.250002  0.499997  1
  Zn  Zn3  1  0.249942  0.749979  0.999972  1
  In  In4  1  0.249954  0.250038  0.999944  1
  In  In5  1  0.750034  0.749966  0.000084  1
  In  In6  1  0.750086  0.749972  0.500000  1
  In  In7  1  0.250017  0.250068  0.500122  1
  Rh  Rh8  1  0.495543  0.504517  0.242393  1
  Rh  Rh9  1  0.495502  0.995485  0.242395  1
  Rh  Rh10  1  0.004487  0.504466  0.242407  1
  Rh  Rh11  1  0.004487  0.995552  0.242415  1
  Rh  Rh12  1  0.004444  0.504486  0.757512  1
  Rh  Rh13  1  0.004459  0.995501  0.757588  1
  Rh  Rh14  1  0.495514  0.504489  0.757586  1
  Rh  Rh15  1  0.495476  0.995479  0.757625  1
