# generated using pymatgen
data_Ca6CeSmBi6
_symmetry_space_group_name_H-M   'P 1'
_cell_length_a   8.45193429
_cell_length_b   8.39223374
_cell_length_c   8.45353296
_cell_angle_alpha   109.53503121
_cell_angle_beta   109.75995503
_cell_angle_gamma   109.48113943
_symmetry_Int_Tables_number   1
_chemical_formula_structural   Ca6CeSmBi6
_chemical_formula_sum   'Ca6 Ce1 Sm1 Bi6'
_cell_volume   459.50456586
_cell_formula_units_Z   1
loop_
 _symmetry_equiv_pos_site_id
 _symmetry_equiv_pos_as_xyz
  1  'x, y, z'
loop_
 _atom_site_type_symbol
 _atom_site_label
 _atom_site_symmetry_multiplicity
 _atom_site_fract_x
 _atom_site_fract_y
 _atom_site_fract_z
 _atom_site_occupancy
  Ca  Ca0  1  0.641693  0.642853  0.645056  1
  Ca  Ca1  1  0.853804  0.498194  0.996658  1
  Ca  Ca2  1  0.503853  0.001576  0.857670  1
  Ca  Ca3  1  0.501707  0.998988  0.355740  1
  Ca  Ca4  1  0.355657  0.501781  0.999296  1
  Ca  Ca5  1  0.999323  0.357005  0.502122  1
  Ce  Ce6  1  0.000378  0.854392  0.499845  1
  Sm  Sm7  1  0.144012  0.143727  0.143486  1
  Bi  Bi8  1  0.753463  0.876904  0.126151  1
  Bi  Bi9  1  0.373523  0.247628  0.620755  1
  Bi  Bi10  1  0.246301  0.621485  0.373330  1
  Bi  Bi11  1  0.877628  0.124984  0.753068  1
  Bi  Bi12  1  0.622177  0.376022  0.250718  1
  Bi  Bi13  1  0.126482  0.754462  0.876106  1
