# generated using pymatgen
data_Sc2NbGa5
_symmetry_space_group_name_H-M   'P 1'
_cell_length_a   5.66673600
_cell_length_b   9.12294800
_cell_length_c   10.85383700
_cell_angle_alpha   90.00000000
_cell_angle_beta   90.00000000
_cell_angle_gamma   90.00000000
_symmetry_Int_Tables_number   1
_chemical_formula_structural   Sc2NbGa5
_chemical_formula_sum   'Sc8 Nb4 Ga20'
_cell_volume   561.11447844
_cell_formula_units_Z   4
loop_
 _symmetry_equiv_pos_site_id
 _symmetry_equiv_pos_as_xyz
  1  'x, y, z'
loop_
 _atom_site_type_symbol
 _atom_site_label
 _atom_site_symmetry_multiplicity
 _atom_site_fract_x
 _atom_site_fract_y
 _atom_site_fract_z
 _atom_site_occupancy
  Sc  Sc0  1  0.886109  0.506013  0.356091  1
  Sc  Sc1  1  0.613891  0.993987  0.856091  1
  Sc  Sc2  1  0.113891  0.006013  0.643909  1
  Sc  Sc3  1  0.386109  0.493987  0.143909  1
  Sc  Sc4  1  0.113891  0.493987  0.643909  1
  Sc  Sc5  1  0.386109  0.006013  0.143909  1
  Sc  Sc6  1  0.886109  0.993987  0.356091  1
  Sc  Sc7  1  0.613891  0.506013  0.856091  1
  Nb  Nb8  1  0.859615  0.750000  0.065858  1
  Nb  Nb9  1  0.640385  0.750000  0.565858  1
  Nb  Nb10  1  0.140385  0.250000  0.934142  1
  Nb  Nb11  1  0.359615  0.250000  0.434142  1
  Ga  Ga12  1  0.876250  0.050629  0.092431  1
  Ga  Ga13  1  0.623750  0.449371  0.592431  1
  Ga  Ga14  1  0.123750  0.550629  0.907569  1
  Ga  Ga15  1  0.376250  0.949371  0.407569  1
  Ga  Ga16  1  0.123750  0.949371  0.907569  1
  Ga  Ga17  1  0.376250  0.550629  0.407569  1
  Ga  Ga18  1  0.876250  0.449371  0.092431  1
  Ga  Ga19  1  0.623750  0.050629  0.592431  1
  Ga  Ga20  1  0.152538  0.750000  0.251682  1
  Ga  Ga21  1  0.347462  0.750000  0.751682  1
  Ga  Ga22  1  0.847462  0.250000  0.748318  1
  Ga  Ga23  1  0.652538  0.250000  0.248318  1
  Ga  Ga24  1  0.394878  0.750000  0.004512  1
  Ga  Ga25  1  0.105122  0.750000  0.504512  1
  Ga  Ga26  1  0.605122  0.250000  0.995488  1
  Ga  Ga27  1  0.894878  0.250000  0.495488  1
  Ga  Ga28  1  0.624429  0.750000  0.288671  1
  Ga  Ga29  1  0.875571  0.750000  0.788671  1
  Ga  Ga30  1  0.375571  0.250000  0.711329  1
  Ga  Ga31  1  0.124429  0.250000  0.211329  1
