# generated using pymatgen
data_LiPr9Si5Ge
_symmetry_space_group_name_H-M   'P 1'
_cell_length_a   7.75960555
_cell_length_b   7.75960426
_cell_length_c   8.98294115
_cell_angle_alpha   115.58869874
_cell_angle_beta   115.58869253
_cell_angle_gamma   90.00000502
_symmetry_Int_Tables_number   1
_chemical_formula_structural   LiPr9Si5Ge
_chemical_formula_sum   'Li1 Pr9 Si5 Ge1'
_cell_volume   428.25338581
_cell_formula_units_Z   1
loop_
 _symmetry_equiv_pos_site_id
 _symmetry_equiv_pos_as_xyz
  1  'x, y, z'
loop_
 _atom_site_type_symbol
 _atom_site_label
 _atom_site_symmetry_multiplicity
 _atom_site_fract_x
 _atom_site_fract_y
 _atom_site_fract_z
 _atom_site_occupancy
  Li  Li0  1  0.499956  0.499956  0.999913  1
  Pr  Pr1  1  0.000609  0.000609  0.001217  1
  Pr  Pr2  1  0.958041  0.816619  0.286668  1
  Pr  Pr3  1  0.328626  0.470049  0.286668  1
  Pr  Pr4  1  0.816619  0.328626  0.286668  1
  Pr  Pr5  1  0.470049  0.958041  0.286668  1
  Pr  Pr6  1  0.043112  0.184535  0.713228  1
  Pr  Pr7  1  0.670117  0.528693  0.713228  1
  Pr  Pr8  1  0.184535  0.670117  0.713228  1
  Pr  Pr9  1  0.528693  0.043112  0.713228  1
  Si  Si10  1  0.236389  0.236389  0.472777  1
  Si  Si11  1  0.613467  0.887757  0.999968  1
  Si  Si12  1  0.386501  0.112211  0.999968  1
  Si  Si13  1  0.887757  0.386501  0.999968  1
  Si  Si14  1  0.112211  0.613467  0.999968  1
  Ge  Ge15  1  0.763316  0.763316  0.526632  1
