# generated using pymatgen
data_NdAg3Ir3RhO14
_symmetry_space_group_name_H-M   'P 1'
_cell_length_a   7.28905075
_cell_length_b   7.29412186
_cell_length_c   7.29412302
_cell_angle_alpha   59.41920090
_cell_angle_beta   59.36346154
_cell_angle_gamma   59.36345574
_symmetry_Int_Tables_number   1
_chemical_formula_structural   NdAg3Ir3RhO14
_chemical_formula_sum   'Nd1 Ag3 Ir3 Rh1 O14'
_cell_volume   270.36500423
_cell_formula_units_Z   1
loop_
 _symmetry_equiv_pos_site_id
 _symmetry_equiv_pos_as_xyz
  1  'x, y, z'
loop_
 _atom_site_type_symbol
 _atom_site_label
 _atom_site_symmetry_multiplicity
 _atom_site_fract_x
 _atom_site_fract_y
 _atom_site_fract_z
 _atom_site_occupancy
  Nd  Nd0  1  0.125000  0.125000  0.125000  1
  Ag  Ag1  1  0.625000  0.125000  0.125000  1
  Ag  Ag2  1  0.125000  0.625000  0.125000  1
  Ag  Ag3  1  0.125000  0.125000  0.625000  1
  Ir  Ir4  1  0.625000  0.125000  0.625000  1
  Ir  Ir5  1  0.625000  0.625000  0.125000  1
  Ir  Ir6  1  0.625000  0.625000  0.625000  1
  Rh  Rh7  1  0.125000  0.625000  0.625000  1
  O  O8  1  0.686052  0.697837  0.306341  1
  O  O9  1  0.296718  0.291193  0.706748  1
  O  O10  1  0.686052  0.306341  0.697837  1
  O  O11  1  0.296718  0.706748  0.291193  1
  O  O12  1  0.305155  0.697957  0.697957  1
  O  O13  1  0.700261  0.298138  0.298138  1
  O  O14  1  0.563948  0.552163  0.943659  1
  O  O15  1  0.953282  0.958807  0.543252  1
  O  O16  1  0.563948  0.943659  0.552163  1
  O  O17  1  0.953282  0.543252  0.958807  1
  O  O18  1  0.944845  0.552043  0.552043  1
  O  O19  1  0.549739  0.951862  0.951862  1
  O  O20  1  0.260111  0.258728  0.258728  1
  O  O21  1  0.989889  0.991272  0.991272  1
