# generated using pymatgen
data_Tb4Y2Al24Pd3Ru5
_symmetry_space_group_name_H-M   'P 1'
_cell_length_a   8.84809416
_cell_length_b   8.83035334
_cell_length_c   9.55712181
_cell_angle_alpha   90.16483273
_cell_angle_beta   89.93850746
_cell_angle_gamma   119.52132064
_symmetry_Int_Tables_number   1
_chemical_formula_structural   Tb4Y2Al24Pd3Ru5
_chemical_formula_sum   'Tb4 Y2 Al24 Pd3 Ru5'
_cell_volume   649.76813662
_cell_formula_units_Z   1
loop_
 _symmetry_equiv_pos_site_id
 _symmetry_equiv_pos_as_xyz
  1  'x, y, z'
loop_
 _atom_site_type_symbol
 _atom_site_label
 _atom_site_symmetry_multiplicity
 _atom_site_fract_x
 _atom_site_fract_y
 _atom_site_fract_z
 _atom_site_occupancy
  Tb  Tb0  1  0.811897  0.615247  0.247867  1
  Tb  Tb1  1  0.617376  0.810985  0.749885  1
  Tb  Tb2  1  0.190828  0.807472  0.750309  1
  Tb  Tb3  1  0.188030  0.384643  0.752121  1
  Y  Y4  1  0.383018  0.189165  0.250105  1
  Y  Y5  1  0.808927  0.192749  0.249680  1
  Al  Al6  1  0.438143  0.874929  0.246553  1
  Al  Al7  1  0.122668  0.559795  0.250064  1
  Al  Al8  1  0.436205  0.562996  0.250213  1
  Al  Al9  1  0.562015  0.125324  0.753449  1
  Al  Al10  1  0.877199  0.440024  0.749940  1
  Al  Al11  1  0.563752  0.436924  0.749787  1
  Al  Al12  1  0.157537  0.831423  0.420534  1
  Al  Al13  1  0.157532  0.324708  0.423056  1
  Al  Al14  1  0.677124  0.837270  0.421374  1
  Al  Al15  1  0.842481  0.168600  0.579409  1
  Al  Al16  1  0.842434  0.675299  0.576924  1
  Al  Al17  1  0.322879  0.162760  0.578570  1
  Al  Al18  1  0.835773  0.163612  0.922939  1
  Al  Al19  1  0.842043  0.674489  0.923770  1
  Al  Al20  1  0.324881  0.157346  0.925125  1
  Al  Al21  1  0.164269  0.836453  0.077144  1
  Al  Al22  1  0.157897  0.325507  0.076260  1
  Al  Al23  1  0.675125  0.842692  0.074984  1
  Al  Al24  1  0.327360  0.664217  0.526565  1
  Al  Al25  1  0.672611  0.335688  0.473219  1
  Al  Al26  1  0.669417  0.329852  0.026690  1
  Al  Al27  1  0.330558  0.670082  0.973534  1
  Al  Al28  1  0.002845  0.998328  0.249731  1
  Al  Al29  1  0.996990  0.001548  0.750289  1
  Pd  Pd30  1  0.500081  0.000078  0.499913  1
  Pd  Pd31  1  0.499975  0.499820  0.499929  1
  Pd  Pd32  1  0.500014  0.499877  0.000060  1
  Ru  Ru33  1  0.000062  0.000056  0.499920  1
  Ru  Ru34  1  0.000100  0.000089  0.000102  1
  Ru  Ru35  1  0.999919  0.499907  0.499974  1
  Ru  Ru36  1  0.500075  0.000076  0.000029  1
  Ru  Ru37  1  0.999960  0.499970  0.999984  1
