# generated using pymatgen
data_LaPrSbI2
_symmetry_space_group_name_H-M   'P 1'
_cell_length_a   4.55604200
_cell_length_b   4.55604190
_cell_length_c   11.34736600
_cell_angle_alpha   90.00000000
_cell_angle_beta   90.00000000
_cell_angle_gamma   120.00000071
_symmetry_Int_Tables_number   1
_chemical_formula_structural   LaPrSbI2
_chemical_formula_sum   'La1 Pr1 Sb1 I2'
_cell_volume   203.98635616
_cell_formula_units_Z   1
loop_
 _symmetry_equiv_pos_site_id
 _symmetry_equiv_pos_as_xyz
  1  'x, y, z'
loop_
 _atom_site_type_symbol
 _atom_site_label
 _atom_site_symmetry_multiplicity
 _atom_site_fract_x
 _atom_site_fract_y
 _atom_site_fract_z
 _atom_site_occupancy
  La  La0  1  0.666667  0.333333  0.843290  1
  Pr  Pr1  1  0.333333  0.666667  0.157374  1
  Sb  Sb2  1  0.000000  0.000000  0.001746  1
  I  I3  1  0.333333  0.666667  0.665230  1
  I  I4  1  0.666667  0.333333  0.332360  1
