# generated using pymatgen
data_Hf12Zr8Si15Sn
_symmetry_space_group_name_H-M   'P 1'
_cell_length_a   7.13329241
_cell_length_b   7.16097722
_cell_length_c   13.00985419
_cell_angle_alpha   89.79440572
_cell_angle_beta   90.06657501
_cell_angle_gamma   89.79065697
_symmetry_Int_Tables_number   1
_chemical_formula_structural   Hf12Zr8Si15Sn
_chemical_formula_sum   'Hf12 Zr8 Si15 Sn1'
_cell_volume   664.55167053
_cell_formula_units_Z   1
loop_
 _symmetry_equiv_pos_site_id
 _symmetry_equiv_pos_as_xyz
  1  'x, y, z'
loop_
 _atom_site_type_symbol
 _atom_site_label
 _atom_site_symmetry_multiplicity
 _atom_site_fract_x
 _atom_site_fract_y
 _atom_site_fract_z
 _atom_site_occupancy
  Hf  Hf0  1  0.174430  0.175405  0.999031  1
  Hf  Hf1  1  0.825246  0.825870  0.501087  1
  Hf  Hf2  1  0.326783  0.680749  0.248244  1
  Hf  Hf3  1  0.674555  0.324650  0.750449  1
  Hf  Hf4  1  0.139132  0.989271  0.375052  1
  Hf  Hf5  1  0.853220  0.000492  0.875688  1
  Hf  Hf6  1  0.500534  0.649141  0.626829  1
  Hf  Hf7  1  0.352305  0.499028  0.874051  1
  Hf  Hf8  1  0.500087  0.353155  0.121041  1
  Hf  Hf9  1  0.659417  0.512303  0.376712  1
  Hf  Hf10  1  0.998630  0.148170  0.624902  1
  Hf  Hf11  1  0.000074  0.851397  0.121865  1
  Zr  Zr12  1  0.988715  0.349181  0.212370  1
  Zr  Zr13  1  0.002355  0.652575  0.716502  1
  Zr  Zr14  1  0.143782  0.509000  0.472537  1
  Zr  Zr15  1  0.504307  0.845226  0.032251  1
  Zr  Zr16  1  0.848478  0.502386  0.964869  1
  Zr  Zr17  1  0.500455  0.149247  0.539315  1
  Zr  Zr18  1  0.348140  0.997825  0.784346  1
  Zr  Zr19  1  0.658920  0.994862  0.282005  1
  Si  Si20  1  0.643540  0.705042  0.822327  1
  Si  Si21  1  0.204551  0.858417  0.573117  1
  Si  Si22  1  0.144521  0.794822  0.926982  1
  Si  Si23  1  0.794651  0.142569  0.070382  1
  Si  Si24  1  0.854637  0.204935  0.428662  1
  Si  Si25  1  0.294903  0.357238  0.678666  1
  Si  Si26  1  0.704326  0.642187  0.177409  1
  Si  Si27  1  0.301383  0.042205  0.180998  1
  Si  Si28  1  0.701018  0.949892  0.687230  1
  Si  Si29  1  0.450568  0.802846  0.436051  1
  Si  Si30  1  0.198711  0.547797  0.064039  1
  Si  Si31  1  0.547859  0.197771  0.934297  1
  Si  Si32  1  0.798654  0.450816  0.566391  1
  Si  Si33  1  0.048721  0.300333  0.813847  1
  Si  Si34  1  0.953872  0.697553  0.311857  1
  Sn  Sn35  1  0.358517  0.295644  0.328601  1
