# generated using pymatgen
data_Tb15YCd4Pd3Pt
_symmetry_space_group_name_H-M   'P 1'
_cell_length_a   9.74686165
_cell_length_b   9.73565598
_cell_length_c   9.73125800
_cell_angle_alpha   60.01494230
_cell_angle_beta   60.05294287
_cell_angle_gamma   60.09417663
_symmetry_Int_Tables_number   1
_chemical_formula_structural   Tb15YCd4Pd3Pt
_chemical_formula_sum   'Tb15 Y1 Cd4 Pd3 Pt1'
_cell_volume   653.75497115
_cell_formula_units_Z   1
loop_
 _symmetry_equiv_pos_site_id
 _symmetry_equiv_pos_as_xyz
  1  'x, y, z'
loop_
 _atom_site_type_symbol
 _atom_site_label
 _atom_site_symmetry_multiplicity
 _atom_site_fract_x
 _atom_site_fract_y
 _atom_site_fract_z
 _atom_site_occupancy
  Tb  Tb0  1  0.354222  0.352127  0.350756  1
  Tb  Tb1  1  0.354222  0.352127  0.942894  1
  Tb  Tb2  1  0.356101  0.938828  0.352535  1
  Tb  Tb3  1  0.936840  0.355558  0.353801  1
  Tb  Tb4  1  0.809745  0.189570  0.189919  1
  Tb  Tb5  1  0.189808  0.810666  0.809482  1
  Tb  Tb6  1  0.189808  0.810666  0.190044  1
  Tb  Tb7  1  0.809745  0.189570  0.810768  1
  Tb  Tb8  1  0.190552  0.190421  0.809514  1
  Tb  Tb9  1  0.809672  0.811827  0.189251  1
  Tb  Tb10  1  0.935285  0.564933  0.565912  1
  Tb  Tb11  1  0.565212  0.935488  0.934539  1
  Tb  Tb12  1  0.565212  0.935488  0.564761  1
  Tb  Tb13  1  0.935285  0.564933  0.933869  1
  Tb  Tb14  1  0.566508  0.565134  0.934179  1
  Y  Y15  1  0.935148  0.935037  0.564907  1
  Cd  Cd16  1  0.581237  0.581676  0.582719  1
  Cd  Cd17  1  0.581237  0.581676  0.254370  1
  Cd  Cd18  1  0.581257  0.253629  0.582558  1
  Cd  Cd19  1  0.254119  0.581450  0.582216  1
  Pd  Pd20  1  0.143557  0.144323  0.146157  1
  Pd  Pd21  1  0.143557  0.144323  0.565962  1
  Pd  Pd22  1  0.142742  0.567603  0.144827  1
  Pt  Pt23  1  0.568931  0.142946  0.144061  1
