# generated using pymatgen
data_Hf(SeO3)2
_symmetry_space_group_name_H-M   'P 1'
_cell_length_a   8.86787900
_cell_length_b   5.07574540
_cell_length_c   7.29755572
_cell_angle_alpha   67.35983770
_cell_angle_beta   90.00000000
_cell_angle_gamma   90.00000000
_symmetry_Int_Tables_number   1
_chemical_formula_structural   Hf(SeO3)2
_chemical_formula_sum   'Hf2 Se4 O12'
_cell_volume   303.15920927
_cell_formula_units_Z   2
loop_
 _symmetry_equiv_pos_site_id
 _symmetry_equiv_pos_as_xyz
  1  'x, y, z'
loop_
 _atom_site_type_symbol
 _atom_site_label
 _atom_site_symmetry_multiplicity
 _atom_site_fract_x
 _atom_site_fract_y
 _atom_site_fract_z
 _atom_site_occupancy
  Hf  Hf0  1  0.500000  0.500000  0.500000  1
  Hf  Hf1  1  0.000000  0.500000  0.000000  1
  Se  Se2  1  0.147297  0.848750  0.315245  1
  Se  Se3  1  0.352703  0.848750  0.815245  1
  Se  Se4  1  0.852703  0.151250  0.684755  1
  Se  Se5  1  0.647297  0.151250  0.184755  1
  O  O6  1  0.064052  0.602382  0.238974  1
  O  O7  1  0.664763  0.243814  0.682953  1
  O  O8  1  0.851610  0.847186  0.900013  1
  O  O9  1  0.351610  0.152814  0.599987  1
  O  O10  1  0.935948  0.397618  0.761026  1
  O  O11  1  0.435948  0.602382  0.738974  1
  O  O12  1  0.148390  0.152814  0.099987  1
  O  O13  1  0.164763  0.756186  0.817047  1
  O  O14  1  0.835237  0.243814  0.182953  1
  O  O15  1  0.564052  0.397618  0.261026  1
  O  O16  1  0.335237  0.756186  0.317047  1
  O  O17  1  0.648390  0.847186  0.400013  1
