# generated using pymatgen
data_Pr3Mg2ScGe2Pt
_symmetry_space_group_name_H-M   'P 1'
_cell_length_a   7.61058292
_cell_length_b   7.49908738
_cell_length_c   4.41458500
_cell_angle_alpha   90.00000000
_cell_angle_beta   90.00000000
_cell_angle_gamma   119.51655100
_symmetry_Int_Tables_number   1
_chemical_formula_structural   Pr3Mg2ScGe2Pt
_chemical_formula_sum   'Pr3 Mg2 Sc1 Ge2 Pt1'
_cell_volume   219.25120708
_cell_formula_units_Z   1
loop_
 _symmetry_equiv_pos_site_id
 _symmetry_equiv_pos_as_xyz
  1  'x, y, z'
loop_
 _atom_site_type_symbol
 _atom_site_label
 _atom_site_symmetry_multiplicity
 _atom_site_fract_x
 _atom_site_fract_y
 _atom_site_fract_z
 _atom_site_occupancy
  Pr  Pr0  1  0.414558  0.408859  0.000000  1
  Pr  Pr1  1  0.585442  0.994301  0.000000  1
  Pr  Pr2  1  0.000000  0.596318  0.000000  1
  Mg  Mg3  1  0.760127  0.758477  0.500000  1
  Mg  Mg4  1  0.239873  0.998351  0.500000  1
  Sc  Sc5  1  0.000000  0.233699  0.500000  1
  Ge  Ge6  1  0.672867  0.332834  0.500000  1
  Ge  Ge7  1  0.327133  0.659968  0.500000  1
  Pt  Pt8  1  0.000000  0.017193  0.000000  1
