# generated using pymatgen
data_Zr6Fe9Co7Ni4P13
_symmetry_space_group_name_H-M   'P 1'
_cell_length_a   12.40320758
_cell_length_b   12.38667484
_cell_length_c   3.62978600
_cell_angle_alpha   90.00000000
_cell_angle_beta   90.00000000
_cell_angle_gamma   120.07917492
_symmetry_Int_Tables_number   1
_chemical_formula_structural   Zr6Fe9Co7Ni4P13
_chemical_formula_sum   'Zr6 Fe9 Co7 Ni4 P13'
_cell_volume   482.56226769
_cell_formula_units_Z   1
loop_
 _symmetry_equiv_pos_site_id
 _symmetry_equiv_pos_as_xyz
  1  'x, y, z'
loop_
 _atom_site_type_symbol
 _atom_site_label
 _atom_site_symmetry_multiplicity
 _atom_site_fract_x
 _atom_site_fract_y
 _atom_site_fract_z
 _atom_site_occupancy
  Zr  Zr0  1  0.810635  0.285802  0.500000  1
  Zr  Zr1  1  0.714906  0.524725  0.500000  1
  Zr  Zr2  1  0.475504  0.188400  0.500000  1
  Zr  Zr3  1  0.192887  0.719652  0.000000  1
  Zr  Zr4  1  0.280164  0.475373  0.000000  1
  Zr  Zr5  1  0.525857  0.807374  0.000000  1
  Fe  Fe6  1  0.419849  0.976997  0.000000  1
  Fe  Fe7  1  0.023856  0.442736  0.000000  1
  Fe  Fe8  1  0.589508  0.022350  0.500000  1
  Fe  Fe9  1  0.556033  0.578869  0.000000  1
  Fe  Fe10  1  0.977915  0.567225  0.500000  1
  Fe  Fe11  1  0.924078  0.078510  0.500000  1
  Fe  Fe12  1  0.156231  0.076471  0.500000  1
  Fe  Fe13  1  0.919028  0.843682  0.500000  1
  Fe  Fe14  1  0.097400  0.898507  0.000000  1
  Co  Co15  1  0.799665  0.901991  0.000000  1
  Co  Co16  1  0.102603  0.199056  0.000000  1
  Co  Co17  1  0.332994  0.666344  0.500000  1
  Co  Co18  1  0.676056  0.745843  0.500000  1
  Co  Co19  1  0.253877  0.930438  0.500000  1
  Co  Co20  1  0.433216  0.411840  0.500000  1
  Co  Co21  1  0.069391  0.322686  0.500000  1
  Ni  Ni22  1  0.667119  0.333015  0.000000  1
  Ni  Ni23  1  0.918314  0.678444  0.000000  1
  Ni  Ni24  1  0.322809  0.242429  0.000000  1
  Ni  Ni25  1  0.759953  0.080644  0.000000  1
  P  P26  1  0.999473  0.998501  0.000000  1
  P  P27  1  0.228198  0.284606  0.500000  1
  P  P28  1  0.715436  0.944689  0.500000  1
  P  P29  1  0.055059  0.772095  0.500000  1
  P  P30  1  0.759531  0.710269  0.000000  1
  P  P31  1  0.289141  0.049040  0.000000  1
  P  P32  1  0.473099  0.610743  0.500000  1
  P  P33  1  0.391032  0.863952  0.500000  1
  P  P34  1  0.863978  0.477028  0.000000  1
  P  P35  1  0.524762  0.386068  0.000000  1
  P  P36  1  0.613758  0.136288  0.000000  1
  P  P37  1  0.951090  0.240000  0.000000  1
  P  P38  1  0.135600  0.527316  0.500000  1
