# generated using pymatgen
data_Tb2Dy3Co16(P4W)3
_symmetry_space_group_name_H-M   'P 1'
_cell_length_a   12.08646000
_cell_length_b   12.08645865
_cell_length_c   3.71309300
_cell_angle_alpha   90.00000000
_cell_angle_beta   90.00000000
_cell_angle_gamma   119.99999274
_symmetry_Int_Tables_number   1
_chemical_formula_structural   Tb2Dy3Co16(P4W)3
_chemical_formula_sum   'Tb2 Dy3 Co16 P12 W3'
_cell_volume   469.74771921
_cell_formula_units_Z   1
loop_
 _symmetry_equiv_pos_site_id
 _symmetry_equiv_pos_as_xyz
  1  'x, y, z'
loop_
 _atom_site_type_symbol
 _atom_site_label
 _atom_site_symmetry_multiplicity
 _atom_site_fract_x
 _atom_site_fract_y
 _atom_site_fract_z
 _atom_site_occupancy
  Tb  Tb0  1  0.666667  0.333333  0.000000  1
  Tb  Tb1  1  0.333333  0.666667  0.000000  1
  Dy  Dy2  1  0.184841  0.184841  0.500000  1
  Dy  Dy3  1  0.815159  0.000000  0.500000  1
  Dy  Dy4  1  0.000000  0.815159  0.500000  1
  Co  Co5  1  0.823455  0.198551  0.000000  1
  Co  Co6  1  0.801449  0.624904  0.000000  1
  Co  Co7  1  0.375096  0.176545  0.000000  1
  Co  Co8  1  0.198551  0.823455  0.000000  1
  Co  Co9  1  0.624904  0.801449  0.000000  1
  Co  Co10  1  0.176545  0.375096  0.000000  1
  Co  Co11  1  0.644132  0.126536  0.500000  1
  Co  Co12  1  0.873464  0.517596  0.500000  1
  Co  Co13  1  0.482404  0.355868  0.500000  1
  Co  Co14  1  0.126536  0.644132  0.500000  1
  Co  Co15  1  0.517596  0.873464  0.500000  1
  Co  Co16  1  0.355868  0.482404  0.500000  1
  Co  Co17  1  0.718926  0.718926  0.500000  1
  Co  Co18  1  0.281074  0.000000  0.500000  1
  Co  Co19  1  0.000000  0.281074  0.500000  1
  Co  Co20  1  0.000000  0.000000  0.000000  1
  P  P21  1  0.359949  0.359949  0.000000  1
  P  P22  1  0.640051  0.000000  0.000000  1
  P  P23  1  0.000000  0.640051  0.000000  1
  P  P24  1  0.834684  0.313743  0.500000  1
  P  P25  1  0.686257  0.520941  0.500000  1
  P  P26  1  0.479059  0.165316  0.500000  1
  P  P27  1  0.313743  0.834684  0.500000  1
  P  P28  1  0.520941  0.686257  0.500000  1
  P  P29  1  0.165316  0.479059  0.500000  1
  P  P30  1  0.822134  0.822134  0.000000  1
  P  P31  1  0.177866  0.000000  0.000000  1
  P  P32  1  0.000000  0.177866  0.000000  1
  W  W33  1  0.553633  0.553633  0.000000  1
  W  W34  1  0.446367  0.000000  0.000000  1
  W  W35  1  0.000000  0.446367  0.000000  1
