# generated using pymatgen
data_DyHo2Zr(NiP)4
_symmetry_space_group_name_H-M   'P 1'
_cell_length_a   3.88593900
_cell_length_b   3.88593884
_cell_length_c   14.98220700
_cell_angle_alpha   90.00000000
_cell_angle_beta   90.00000000
_cell_angle_gamma   119.99999282
_symmetry_Int_Tables_number   1
_chemical_formula_structural   DyHo2Zr(NiP)4
_chemical_formula_sum   'Dy1 Ho2 Zr1 Ni4 P4'
_cell_volume   195.92885329
_cell_formula_units_Z   1
loop_
 _symmetry_equiv_pos_site_id
 _symmetry_equiv_pos_as_xyz
  1  'x, y, z'
loop_
 _atom_site_type_symbol
 _atom_site_label
 _atom_site_symmetry_multiplicity
 _atom_site_fract_x
 _atom_site_fract_y
 _atom_site_fract_z
 _atom_site_occupancy
  Dy  Dy0  1  0.000000  0.000000  0.005569  1
  Ho  Ho1  1  0.000000  0.000000  0.494661  1
  Ho  Ho2  1  0.000000  0.000000  0.749275  1
  Zr  Zr3  1  0.000000  0.000000  0.250434  1
  Ni  Ni4  1  0.333333  0.666667  0.349240  1
  Ni  Ni5  1  0.666667  0.333333  0.624607  1
  Ni  Ni6  1  0.666667  0.333333  0.875293  1
  Ni  Ni7  1  0.333333  0.666667  0.151181  1
  P  P8  1  0.333333  0.666667  0.879154  1
  P  P9  1  0.666667  0.333333  0.127105  1
  P  P10  1  0.666667  0.333333  0.374067  1
  P  P11  1  0.333333  0.666667  0.619412  1
