# generated using pymatgen
data_Lu4Tc3MoOs4
_symmetry_space_group_name_H-M   'P 1'
_cell_length_a   5.38237000
_cell_length_b   5.22835614
_cell_length_c   8.91471100
_cell_angle_alpha   90.00000000
_cell_angle_beta   90.00000000
_cell_angle_gamma   120.97931040
_symmetry_Int_Tables_number   1
_chemical_formula_structural   Lu4Tc3MoOs4
_chemical_formula_sum   'Lu4 Tc3 Mo1 Os4'
_cell_volume   215.08284207
_cell_formula_units_Z   1
loop_
 _symmetry_equiv_pos_site_id
 _symmetry_equiv_pos_as_xyz
  1  'x, y, z'
loop_
 _atom_site_type_symbol
 _atom_site_label
 _atom_site_symmetry_multiplicity
 _atom_site_fract_x
 _atom_site_fract_y
 _atom_site_fract_z
 _atom_site_occupancy
  Lu  Lu0  1  0.332103  0.664206  0.436372  1
  Lu  Lu1  1  0.669612  0.339223  0.564383  1
  Lu  Lu2  1  0.669612  0.339223  0.935617  1
  Lu  Lu3  1  0.332103  0.664206  0.063628  1
  Tc  Tc4  1  0.340949  0.170234  0.250000  1
  Tc  Tc5  1  0.825802  0.651603  0.250000  1
  Tc  Tc6  1  0.829285  0.170234  0.250000  1
  Mo  Mo7  1  0.166658  0.333318  0.750000  1
  Os  Os8  1  0.174536  0.828674  0.750000  1
  Os  Os9  1  0.654137  0.828674  0.750000  1
  Os  Os10  1  0.002601  0.005203  0.001090  1
  Os  Os11  1  0.002601  0.005203  0.498910  1
