# generated using pymatgen
data_Ca2Si2AsPt3
_symmetry_space_group_name_H-M   'P 1'
_cell_length_a   4.26611958
_cell_length_b   4.21158100
_cell_length_c   8.73877300
_cell_angle_alpha   90.00000000
_cell_angle_beta   104.12814328
_cell_angle_gamma   90.00000000
_symmetry_Int_Tables_number   1
_chemical_formula_structural   Ca2Si2AsPt3
_chemical_formula_sum   'Ca2 Si2 As1 Pt3'
_cell_volume   152.26126374
_cell_formula_units_Z   1
loop_
 _symmetry_equiv_pos_site_id
 _symmetry_equiv_pos_as_xyz
  1  'x, y, z'
loop_
 _atom_site_type_symbol
 _atom_site_label
 _atom_site_symmetry_multiplicity
 _atom_site_fract_x
 _atom_site_fract_y
 _atom_site_fract_z
 _atom_site_occupancy
  Ca  Ca0  1  0.599864  0.250000  0.199726  1
  Ca  Ca1  1  0.399246  0.750000  0.798492  1
  Si  Si2  1  0.821363  0.250000  0.642724  1
  Si  Si3  1  0.175788  0.750000  0.351575  1
  As  As4  1  0.962091  0.250000  0.924183  1
  Pt  Pt5  1  0.039966  0.750000  0.079930  1
  Pt  Pt6  1  0.251271  0.250000  0.502541  1
  Pt  Pt7  1  0.750413  0.750000  0.500828  1
