# generated using pymatgen
data_InBi7Au8
_symmetry_space_group_name_H-M   'P 1'
_cell_length_a   15.35647604
_cell_length_b   4.34741800
_cell_length_c   5.89870834
_cell_angle_alpha   90.00000000
_cell_angle_beta   89.42699449
_cell_angle_gamma   90.00000000
_symmetry_Int_Tables_number   1
_chemical_formula_structural   InBi7Au8
_chemical_formula_sum   'In1 Bi7 Au8'
_cell_volume   393.78409443
_cell_formula_units_Z   1
loop_
 _symmetry_equiv_pos_site_id
 _symmetry_equiv_pos_as_xyz
  1  'x, y, z'
loop_
 _atom_site_type_symbol
 _atom_site_label
 _atom_site_symmetry_multiplicity
 _atom_site_fract_x
 _atom_site_fract_y
 _atom_site_fract_z
 _atom_site_occupancy
  In  In0  1  0.210782  0.250000  0.005929  1
  Bi  Bi1  1  0.965931  0.250000  0.252515  1
  Bi  Bi2  1  0.457040  0.250000  0.243969  1
  Bi  Bi3  1  0.712321  0.250000  0.490969  1
  Bi  Bi4  1  0.288385  0.749999  0.513067  1
  Bi  Bi5  1  0.535740  0.749999  0.758205  1
  Bi  Bi6  1  0.040883  0.749999  0.742245  1
  Bi  Bi7  1  0.790799  0.749999  0.994237  1
  Au  Au8  1  0.339633  0.749999  0.031991  1
  Au  Au9  1  0.109441  0.749999  0.207993  1
  Au  Au10  1  0.595515  0.749999  0.278985  1
  Au  Au11  1  0.851574  0.749999  0.465007  1
  Au  Au12  1  0.151558  0.250000  0.532565  1
  Au  Au13  1  0.398527  0.250000  0.734311  1
  Au  Au14  1  0.901696  0.250000  0.776632  1
  Au  Au15  1  0.650177  0.250000  0.971385  1
