# generated using pymatgen
data_LuPa3CuTe12
_symmetry_space_group_name_H-M   'P 1'
_cell_length_a   7.45057343
_cell_length_b   7.44908351
_cell_length_c   11.16599851
_cell_angle_alpha   70.73637501
_cell_angle_beta   70.72595755
_cell_angle_gamma   69.06137035
_symmetry_Int_Tables_number   1
_chemical_formula_structural   LuPa3CuTe12
_chemical_formula_sum   'Lu1 Pa3 Cu1 Te12'
_cell_volume   530.32388937
_cell_formula_units_Z   1
loop_
 _symmetry_equiv_pos_site_id
 _symmetry_equiv_pos_as_xyz
  1  'x, y, z'
loop_
 _atom_site_type_symbol
 _atom_site_label
 _atom_site_symmetry_multiplicity
 _atom_site_fract_x
 _atom_site_fract_y
 _atom_site_fract_z
 _atom_site_occupancy
  Lu  Lu0  1  0.192445  0.686978  0.167063  1
  Pa  Pa1  1  0.811151  0.811378  0.831876  1
  Pa  Pa2  1  0.312847  0.312821  0.833000  1
  Pa  Pa3  1  0.689050  0.194047  0.161877  1
  Cu  Cu4  1  0.811799  0.815085  0.534651  1
  Te  Te5  1  0.010312  0.010103  0.325679  1
  Te  Te6  1  0.502118  0.498669  0.333100  1
  Te  Te7  1  0.484543  0.991958  0.674070  1
  Te  Te8  1  0.993308  0.485892  0.671292  1
  Te  Te9  1  0.259347  0.256806  0.335547  1
  Te  Te10  1  0.754369  0.755152  0.330528  1
  Te  Te11  1  0.243608  0.742580  0.672259  1
  Te  Te12  1  0.743130  0.244354  0.669686  1
  Te  Te13  1  0.022402  0.020756  0.942958  1
  Te  Te14  1  0.519350  0.522963  0.942361  1
  Te  Te15  1  0.482111  0.982084  0.054265  1
  Te  Te16  1  0.979405  0.479671  0.054187  1
