# generated using pymatgen
data_Dy3Tm3(Zn3C)2
_symmetry_space_group_name_H-M   'P 1'
_cell_length_a   9.09973193
_cell_length_b   9.09973184
_cell_length_c   9.09973300
_cell_angle_alpha   59.99999943
_cell_angle_beta   59.99999975
_cell_angle_gamma   60.00000161
_symmetry_Int_Tables_number   1
_chemical_formula_structural   Dy3Tm3(Zn3C)2
_chemical_formula_sum   'Dy6 Tm6 Zn12 C4'
_cell_volume   532.80813544
_cell_formula_units_Z   2
loop_
 _symmetry_equiv_pos_site_id
 _symmetry_equiv_pos_as_xyz
  1  'x, y, z'
loop_
 _atom_site_type_symbol
 _atom_site_label
 _atom_site_symmetry_multiplicity
 _atom_site_fract_x
 _atom_site_fract_y
 _atom_site_fract_z
 _atom_site_occupancy
  Dy  Dy0  1  0.447732  0.447732  0.052268  1
  Dy  Dy1  1  0.052268  0.447732  0.052268  1
  Dy  Dy2  1  0.447732  0.052268  0.052268  1
  Dy  Dy3  1  0.052268  0.052268  0.447732  1
  Dy  Dy4  1  0.447732  0.052268  0.447732  1
  Dy  Dy5  1  0.052268  0.447732  0.447732  1
  Tm  Tm6  1  0.804166  0.804166  0.195834  1
  Tm  Tm7  1  0.195834  0.804166  0.195834  1
  Tm  Tm8  1  0.804166  0.195834  0.195834  1
  Tm  Tm9  1  0.195834  0.195834  0.804166  1
  Tm  Tm10  1  0.804166  0.195834  0.804166  1
  Tm  Tm11  1  0.195834  0.804166  0.804166  1
  Zn  Zn12  1  0.826996  0.826996  0.519013  1
  Zn  Zn13  1  0.826996  0.519013  0.826996  1
  Zn  Zn14  1  0.519013  0.826996  0.826996  1
  Zn  Zn15  1  0.826996  0.826996  0.826996  1
  Zn  Zn16  1  0.423617  0.423617  0.729147  1
  Zn  Zn17  1  0.423617  0.729147  0.423617  1
  Zn  Zn18  1  0.729147  0.423617  0.423617  1
  Zn  Zn19  1  0.423617  0.423617  0.423617  1
  Zn  Zn20  1  0.625039  0.625039  0.124883  1
  Zn  Zn21  1  0.625039  0.124883  0.625039  1
  Zn  Zn22  1  0.124883  0.625039  0.625039  1
  Zn  Zn23  1  0.625039  0.625039  0.625039  1
  C  C24  1  0.122453  0.122453  0.632642  1
  C  C25  1  0.122453  0.632642  0.122453  1
  C  C26  1  0.632642  0.122453  0.122453  1
  C  C27  1  0.122453  0.122453  0.122453  1
