# generated using pymatgen
data_Ca6Tc2N7
_symmetry_space_group_name_H-M   'P 1'
_cell_length_a   6.14005034
_cell_length_b   6.14005035
_cell_length_c   6.14005163
_cell_angle_alpha   94.98660483
_cell_angle_beta   94.98661084
_cell_angle_gamma   94.98662117
_symmetry_Int_Tables_number   1
_chemical_formula_structural   Ca6Tc2N7
_chemical_formula_sum   'Ca6 Tc2 N7'
_cell_volume   228.68894713
_cell_formula_units_Z   1
loop_
 _symmetry_equiv_pos_site_id
 _symmetry_equiv_pos_as_xyz
  1  'x, y, z'
loop_
 _atom_site_type_symbol
 _atom_site_label
 _atom_site_symmetry_multiplicity
 _atom_site_fract_x
 _atom_site_fract_y
 _atom_site_fract_z
 _atom_site_occupancy
  Ca  Ca0  1  0.664034  0.107799  0.807659  1
  Ca  Ca1  1  0.107799  0.807659  0.664034  1
  Ca  Ca2  1  0.807659  0.664034  0.107799  1
  Ca  Ca3  1  0.335966  0.892201  0.192341  1
  Ca  Ca4  1  0.892201  0.192341  0.335966  1
  Ca  Ca5  1  0.192341  0.335966  0.892201  1
  Tc  Tc6  1  0.623370  0.623370  0.623370  1
  Tc  Tc7  1  0.376630  0.376630  0.376630  1
  N  N8  1  0.000000  0.000000  0.000000  1
  N  N9  1  0.726809  0.851810  0.465466  1
  N  N10  1  0.851810  0.465466  0.726809  1
  N  N11  1  0.465466  0.726809  0.851810  1
  N  N12  1  0.273191  0.148190  0.534534  1
  N  N13  1  0.148190  0.534534  0.273191  1
  N  N14  1  0.534534  0.273191  0.148190  1
