# generated using pymatgen
data_Dy4Y3IrI12
_symmetry_space_group_name_H-M   'P 1'
_cell_length_a   9.79814994
_cell_length_b   9.79663440
_cell_length_c   9.79976433
_cell_angle_alpha   106.87718181
_cell_angle_beta   106.89563640
_cell_angle_gamma   106.88905838
_symmetry_Int_Tables_number   1
_chemical_formula_structural   Dy4Y3IrI12
_chemical_formula_sum   'Dy4 Y3 Ir1 I12'
_cell_volume   785.79388431
_cell_formula_units_Z   1
loop_
 _symmetry_equiv_pos_site_id
 _symmetry_equiv_pos_as_xyz
  1  'x, y, z'
loop_
 _atom_site_type_symbol
 _atom_site_label
 _atom_site_symmetry_multiplicity
 _atom_site_fract_x
 _atom_site_fract_y
 _atom_site_fract_z
 _atom_site_occupancy
  Dy  Dy0  1  0.022675  0.295632  0.093868  1
  Dy  Dy1  1  0.905539  0.977349  0.704228  1
  Dy  Dy2  1  0.704329  0.905762  0.977241  1
  Dy  Dy3  1  0.977153  0.704372  0.905700  1
  Y  Y4  1  0.094239  0.022642  0.297119  1
  Y  Y5  1  0.297108  0.094532  0.022755  1
  Y  Y6  1  0.499830  0.499857  0.499850  1
  Ir  Ir7  1  0.000176  0.000131  0.000094  1
  I  I8  1  0.069396  0.674526  0.223549  1
  I  I9  1  0.223833  0.069502  0.674595  1
  I  I10  1  0.675180  0.224373  0.069622  1
  I  I11  1  0.930664  0.325188  0.776058  1
  I  I12  1  0.775210  0.930407  0.324927  1
  I  I13  1  0.324731  0.775217  0.930385  1
  I  I14  1  0.463787  0.161609  0.387173  1
  I  I15  1  0.386713  0.463875  0.161975  1
  I  I16  1  0.161786  0.387425  0.463196  1
  I  I17  1  0.536544  0.838008  0.613031  1
  I  I18  1  0.613173  0.536601  0.837944  1
  I  I19  1  0.837936  0.612995  0.536690  1
