# generated using pymatgen
data_Yb3YAl15(SiIr2)3
_symmetry_space_group_name_H-M   'P 1'
_cell_length_a   7.54095157
_cell_length_b   7.52844796
_cell_length_c   9.37970960
_cell_angle_alpha   89.96927954
_cell_angle_beta   89.97875008
_cell_angle_gamma   119.72781767
_symmetry_Int_Tables_number   1
_chemical_formula_structural   Yb3YAl15(SiIr2)3
_chemical_formula_sum   'Yb3 Y1 Al15 Si3 Ir6'
_cell_volume   462.41941800
_cell_formula_units_Z   1
loop_
 _symmetry_equiv_pos_site_id
 _symmetry_equiv_pos_as_xyz
  1  'x, y, z'
loop_
 _atom_site_type_symbol
 _atom_site_label
 _atom_site_symmetry_multiplicity
 _atom_site_fract_x
 _atom_site_fract_y
 _atom_site_fract_z
 _atom_site_occupancy
  Yb  Yb0  1  0.994058  0.668163  0.247780  1
  Yb  Yb1  1  0.003653  0.324772  0.753866  1
  Yb  Yb2  1  0.681367  0.002275  0.247693  1
  Y  Y3  1  0.324451  0.003058  0.749807  1
  Al  Al4  1  0.997249  0.667103  0.923652  1
  Al  Al5  1  0.998444  0.663061  0.573870  1
  Al  Al6  1  0.335815  0.999251  0.423680  1
  Al  Al7  1  0.001030  0.336225  0.429704  1
  Al  Al8  1  0.664554  0.999507  0.574109  1
  Al  Al9  1  0.660821  0.995239  0.923909  1
  Al  Al10  1  0.335502  0.999495  0.076505  1
  Al  Al11  1  0.335707  0.335867  0.555441  1
  Al  Al12  1  0.665278  0.666003  0.445546  1
  Al  Al13  1  0.664692  0.665689  0.055647  1
  Al  Al14  1  0.338166  0.335903  0.944855  1
  Al  Al15  1  0.332480  0.545688  0.249959  1
  Al  Al16  1  0.665473  0.452057  0.750650  1
  Al  Al17  1  0.545326  0.335066  0.250003  1
  Al  Al18  1  0.451877  0.664395  0.749442  1
  Si  Si19  1  0.133222  0.129803  0.250243  1
  Si  Si20  1  0.869944  0.871109  0.750276  1
  Si  Si21  1  0.001844  0.338146  0.072412  1
  Ir  Ir22  1  0.677658  0.328723  0.001360  1
  Ir  Ir23  1  0.321275  0.664032  0.999078  1
  Ir  Ir24  1  0.328974  0.671057  0.499801  1
  Ir  Ir25  1  0.670341  0.328869  0.499872  1
  Ir  Ir26  1  0.000249  0.008559  0.000647  1
  Ir  Ir27  1  0.000550  0.000883  0.500196  1
