# generated using pymatgen
data_Sr8Cd3Si12Au
_symmetry_space_group_name_H-M   'P 1'
_cell_length_a   11.97987991
_cell_length_b   10.30083167
_cell_length_c   8.56763643
_cell_angle_alpha   78.23352937
_cell_angle_beta   57.34932596
_cell_angle_gamma   44.43829874
_symmetry_Int_Tables_number   1
_chemical_formula_structural   Sr8Cd3Si12Au
_chemical_formula_sum   'Sr8 Cd3 Si12 Au1'
_cell_volume   593.05625154
_cell_formula_units_Z   1
loop_
 _symmetry_equiv_pos_site_id
 _symmetry_equiv_pos_as_xyz
  1  'x, y, z'
loop_
 _atom_site_type_symbol
 _atom_site_label
 _atom_site_symmetry_multiplicity
 _atom_site_fract_x
 _atom_site_fract_y
 _atom_site_fract_z
 _atom_site_occupancy
  Sr  Sr0  1  0.123178  0.126620  0.878504  1
  Sr  Sr1  1  0.878505  0.871700  0.123177  1
  Sr  Sr2  1  0.125556  0.129690  0.371049  1
  Sr  Sr3  1  0.371050  0.373706  0.125555  1
  Sr  Sr4  1  0.627428  0.619997  0.374378  1
  Sr  Sr5  1  0.374378  0.378199  0.627428  1
  Sr  Sr6  1  0.627206  0.628645  0.872743  1
  Sr  Sr7  1  0.872744  0.871408  0.627205  1
  Cd  Cd8  1  0.832369  0.167631  0.832369  1
  Cd  Cd9  1  0.167830  0.832170  0.167830  1
  Cd  Cd10  1  0.417859  0.082141  0.417859  1
  Si  Si11  1  0.917925  0.590623  0.417989  1
  Si  Si12  1  0.061518  0.430380  0.596099  1
  Si  Si13  1  0.417989  0.073463  0.917925  1
  Si  Si14  1  0.596099  0.912003  0.061518  1
  Si  Si15  1  0.337098  0.656188  0.821979  1
  Si  Si16  1  0.655192  0.336363  0.185480  1
  Si  Si17  1  0.821979  0.184735  0.337098  1
  Si  Si18  1  0.185480  0.822965  0.655192  1
  Si  Si19  1  0.914670  0.585331  0.914669  1
  Si  Si20  1  0.591336  0.908665  0.591335  1
  Si  Si21  1  0.339643  0.660358  0.339643  1
  Si  Si22  1  0.660501  0.339499  0.660501  1
  Au  Au23  1  0.082473  0.417527  0.082473  1
