# generated using pymatgen
data_YHoZn5Sn
_symmetry_space_group_name_H-M   'P 1'
_cell_length_a   8.36505018
_cell_length_b   8.36505003
_cell_length_c   8.99065700
_cell_angle_alpha   90.00000000
_cell_angle_beta   90.00000000
_cell_angle_gamma   149.75136427
_symmetry_Int_Tables_number   1
_chemical_formula_structural   YHoZn5Sn
_chemical_formula_sum   'Y2 Ho2 Zn10 Sn2'
_cell_volume   316.91771780
_cell_formula_units_Z   2
loop_
 _symmetry_equiv_pos_site_id
 _symmetry_equiv_pos_as_xyz
  1  'x, y, z'
loop_
 _atom_site_type_symbol
 _atom_site_label
 _atom_site_symmetry_multiplicity
 _atom_site_fract_x
 _atom_site_fract_y
 _atom_site_fract_z
 _atom_site_occupancy
  Y  Y0  1  0.000000  0.000000  0.500000  1
  Y  Y1  1  0.000000  0.000000  0.000000  1
  Ho  Ho2  1  0.204006  0.795994  0.250000  1
  Ho  Ho3  1  0.795994  0.204006  0.750000  1
  Zn  Zn4  1  0.813502  0.186498  0.390645  1
  Zn  Zn5  1  0.186498  0.813502  0.609355  1
  Zn  Zn6  1  0.813502  0.186498  0.109355  1
  Zn  Zn7  1  0.186498  0.813502  0.890645  1
  Zn  Zn8  1  0.657066  0.342934  0.482054  1
  Zn  Zn9  1  0.342934  0.657066  0.517946  1
  Zn  Zn10  1  0.657066  0.342934  0.017946  1
  Zn  Zn11  1  0.342934  0.657066  0.982054  1
  Zn  Zn12  1  0.393512  0.606488  0.250000  1
  Zn  Zn13  1  0.606488  0.393512  0.750000  1
  Sn  Sn14  1  0.555115  0.444885  0.250000  1
  Sn  Sn15  1  0.444885  0.555115  0.750000  1
