# generated using pymatgen
data_Ca3Cd(SnO4)2
_symmetry_space_group_name_H-M   'P 1'
_cell_length_a   3.29441900
_cell_length_b   5.76550066
_cell_length_c   9.89990797
_cell_angle_alpha   89.78292413
_cell_angle_beta   90.00000000
_cell_angle_gamma   90.00000000
_symmetry_Int_Tables_number   1
_chemical_formula_structural   Ca3Cd(SnO4)2
_chemical_formula_sum   'Ca3 Cd1 Sn2 O8'
_cell_volume   188.03725428
_cell_formula_units_Z   1
loop_
 _symmetry_equiv_pos_site_id
 _symmetry_equiv_pos_as_xyz
  1  'x, y, z'
loop_
 _atom_site_type_symbol
 _atom_site_label
 _atom_site_symmetry_multiplicity
 _atom_site_fract_x
 _atom_site_fract_y
 _atom_site_fract_z
 _atom_site_occupancy
  Ca  Ca0  1  0.500000  0.068206  0.317647  1
  Ca  Ca1  1  0.500000  0.930717  0.680717  1
  Ca  Ca2  1  0.500000  0.430512  0.820180  1
  Cd  Cd3  1  0.500000  0.565953  0.177607  1
  Sn  Sn4  1  0.000000  0.997965  0.999688  1
  Sn  Sn5  1  0.000000  0.503105  0.499977  1
  O  O6  1  0.000000  0.135360  0.807269  1
  O  O7  1  0.000000  0.862525  0.192860  1
  O  O8  1  0.000000  0.633950  0.694435  1
  O  O9  1  0.000000  0.365548  0.307046  1
  O  O10  1  0.500000  0.270543  0.545195  1
  O  O11  1  0.500000  0.735932  0.458382  1
  O  O12  1  0.500000  0.228430  0.046884  1
  O  O13  1  0.500000  0.771253  0.952113  1
