# generated using pymatgen
data_Dy5LuSi10
_symmetry_space_group_name_H-M   'P 1'
_cell_length_a   6.65420603
_cell_length_b   6.65420592
_cell_length_c   8.26349738
_cell_angle_alpha   90.12279869
_cell_angle_beta   89.87720504
_cell_angle_gamma   120.33400551
_symmetry_Int_Tables_number   1
_chemical_formula_structural   Dy5LuSi10
_chemical_formula_sum   'Dy5 Lu1 Si10'
_cell_volume   315.80145836
_cell_formula_units_Z   1
loop_
 _symmetry_equiv_pos_site_id
 _symmetry_equiv_pos_as_xyz
  1  'x, y, z'
loop_
 _atom_site_type_symbol
 _atom_site_label
 _atom_site_symmetry_multiplicity
 _atom_site_fract_x
 _atom_site_fract_y
 _atom_site_fract_z
 _atom_site_occupancy
  Dy  Dy0  1  0.331023  0.000810  0.000423  1
  Dy  Dy1  1  0.330316  0.999746  0.499395  1
  Dy  Dy2  1  0.999746  0.330316  0.500605  1
  Dy  Dy3  1  0.000810  0.331023  0.999577  1
  Dy  Dy4  1  0.670795  0.670795  0.000000  1
  Lu  Lu5  1  0.670328  0.670328  0.500000  1
  Si  Si6  1  0.386369  0.334285  0.252501  1
  Si  Si7  1  0.669366  0.051403  0.250640  1
  Si  Si8  1  0.944864  0.615377  0.252964  1
  Si  Si9  1  0.615377  0.944864  0.747036  1
  Si  Si10  1  0.999084  0.999201  0.252547  1
  Si  Si11  1  0.665326  0.331706  0.748162  1
  Si  Si12  1  0.051403  0.669366  0.749360  1
  Si  Si13  1  0.334285  0.386369  0.747499  1
  Si  Si14  1  0.331706  0.665326  0.251838  1
  Si  Si15  1  0.999201  0.999084  0.747453  1
