# generated using pymatgen
data_Ac6OsRu
_symmetry_space_group_name_H-M   'P 1'
_cell_length_a   6.92870300
_cell_length_b   7.78085000
_cell_length_c   10.53197900
_cell_angle_alpha   90.00000000
_cell_angle_beta   90.00000000
_cell_angle_gamma   90.00000000
_symmetry_Int_Tables_number   1
_chemical_formula_structural   Ac6OsRu
_chemical_formula_sum   'Ac12 Os2 Ru2'
_cell_volume   567.79161297
_cell_formula_units_Z   2
loop_
 _symmetry_equiv_pos_site_id
 _symmetry_equiv_pos_as_xyz
  1  'x, y, z'
loop_
 _atom_site_type_symbol
 _atom_site_label
 _atom_site_symmetry_multiplicity
 _atom_site_fract_x
 _atom_site_fract_y
 _atom_site_fract_z
 _atom_site_occupancy
  Ac  Ac0  1  0.322860  0.673695  0.073031  1
  Ac  Ac1  1  0.177140  0.173695  0.426969  1
  Ac  Ac2  1  0.673949  0.328129  0.572040  1
  Ac  Ac3  1  0.826051  0.828129  0.927960  1
  Ac  Ac4  1  0.673949  0.328129  0.927960  1
  Ac  Ac5  1  0.826051  0.828129  0.572040  1
  Ac  Ac6  1  0.322860  0.673695  0.426969  1
  Ac  Ac7  1  0.177140  0.173695  0.073031  1
  Ac  Ac8  1  0.841702  0.546235  0.250000  1
  Ac  Ac9  1  0.658298  0.046235  0.250000  1
  Ac  Ac10  1  0.158477  0.451009  0.750000  1
  Ac  Ac11  1  0.341523  0.951008  0.750000  1
  Os  Os12  1  0.053594  0.883782  0.250000  1
  Os  Os13  1  0.446406  0.383782  0.250000  1
  Ru  Ru14  1  0.951541  0.115325  0.750000  1
  Ru  Ru15  1  0.548459  0.615325  0.750000  1
