# generated using pymatgen
data_Pr2Ho4RuI10
_symmetry_space_group_name_H-M   'P 1'
_cell_length_a   7.82672758
_cell_length_b   9.90181956
_cell_length_c   9.81977817
_cell_angle_alpha   106.49958285
_cell_angle_beta   95.90420832
_cell_angle_gamma   105.31672819
_symmetry_Int_Tables_number   1
_chemical_formula_structural   Pr2Ho4RuI10
_chemical_formula_sum   'Pr2 Ho4 Ru1 I10'
_cell_volume   690.62261170
_cell_formula_units_Z   1
loop_
 _symmetry_equiv_pos_site_id
 _symmetry_equiv_pos_as_xyz
  1  'x, y, z'
loop_
 _atom_site_type_symbol
 _atom_site_label
 _atom_site_symmetry_multiplicity
 _atom_site_fract_x
 _atom_site_fract_y
 _atom_site_fract_z
 _atom_site_occupancy
  Pr  Pr0  1  0.114405  0.043188  0.768414  1
  Pr  Pr1  1  0.885595  0.956812  0.231586  1
  Ho  Ho2  1  0.970087  0.286192  0.085427  1
  Ho  Ho3  1  0.650652  0.873854  0.834001  1
  Ho  Ho4  1  0.349348  0.126146  0.165999  1
  Ho  Ho5  1  0.029913  0.713808  0.914573  1
  Ru  Ru6  1  0.000000  0.000000  0.000000  1
  I  I7  1  0.346120  0.445711  0.268702  1
  I  I8  1  0.653880  0.554289  0.731298  1
  I  I9  1  0.733147  0.910842  0.545220  1
  I  I10  1  0.083782  0.378383  0.825543  1
  I  I11  1  0.916218  0.621617  0.174457  1
  I  I12  1  0.449096  0.818033  0.088368  1
  I  I13  1  0.550904  0.181967  0.911632  1
  I  I14  1  0.775797  0.261085  0.340508  1
  I  I15  1  0.224203  0.738915  0.659492  1
  I  I16  1  0.266853  0.089158  0.454780  1
