# generated using pymatgen
data_Tm3Hg5Rh
_symmetry_space_group_name_H-M   'P 1'
_cell_length_a   8.05485300
_cell_length_b   8.05485470
_cell_length_c   3.81317300
_cell_angle_alpha   90.00000000
_cell_angle_beta   90.00000000
_cell_angle_gamma   119.99999711
_symmetry_Int_Tables_number   1
_chemical_formula_structural   Tm3Hg5Rh
_chemical_formula_sum   'Tm3 Hg5 Rh1'
_cell_volume   214.25574877
_cell_formula_units_Z   1
loop_
 _symmetry_equiv_pos_site_id
 _symmetry_equiv_pos_as_xyz
  1  'x, y, z'
loop_
 _atom_site_type_symbol
 _atom_site_label
 _atom_site_symmetry_multiplicity
 _atom_site_fract_x
 _atom_site_fract_y
 _atom_site_fract_z
 _atom_site_occupancy
  Tm  Tm0  1  0.425328  0.384550  0.500000  1
  Tm  Tm1  1  0.615450  0.040780  0.500000  1
  Tm  Tm2  1  0.959220  0.574672  0.500000  1
  Hg  Hg3  1  0.717799  0.713697  0.000000  1
  Hg  Hg4  1  0.286303  0.004102  0.000000  1
  Hg  Hg5  1  0.995898  0.282201  0.000000  1
  Hg  Hg6  1  0.333333  0.666667  0.000000  1
  Hg  Hg7  1  0.000000  0.000000  0.500000  1
  Rh  Rh8  1  0.666667  0.333333  0.000000  1
