# generated using pymatgen
data_NaO6
_symmetry_space_group_name_H-M   'P 1'
_cell_length_a   3.70198147
_cell_length_b   4.21851186
_cell_length_c   9.46278512
_cell_angle_alpha   58.94759383
_cell_angle_beta   77.97727710
_cell_angle_gamma   89.13224937
_symmetry_Int_Tables_number   1
_chemical_formula_structural   NaO6
_chemical_formula_sum   'Na1 O6'
_cell_volume   123.07102198
_cell_formula_units_Z   1
loop_
 _symmetry_equiv_pos_site_id
 _symmetry_equiv_pos_as_xyz
  1  'x, y, z'
loop_
 _atom_site_type_symbol
 _atom_site_label
 _atom_site_symmetry_multiplicity
 _atom_site_fract_x
 _atom_site_fract_y
 _atom_site_fract_z
 _atom_site_occupancy
  Na  Na0  1  0.296578  0.520235  0.727545  1
  O  O1  1  0.096926  0.423601  0.119512  1
  O  O2  1  0.982735  0.456495  0.530627  1
  O  O3  1  0.756770  0.094272  0.798937  1
  O  O4  1  0.891811  0.143075  0.166030  1
  O  O5  1  0.766590  0.819838  0.772610  1
  O  O6  1  0.986177  0.174596  0.516661  1
