# generated using pymatgen
data_Ba14Sr10MoW7N32
_symmetry_space_group_name_H-M   'P 1'
_cell_length_a   10.72977003
_cell_length_b   10.12084786
_cell_length_c   12.15247841
_cell_angle_alpha   89.94477477
_cell_angle_beta   90.00338281
_cell_angle_gamma   90.00801507
_symmetry_Int_Tables_number   1
_chemical_formula_structural   Ba14Sr10MoW7N32
_chemical_formula_sum   'Ba14 Sr10 Mo1 W7 N32'
_cell_volume   1319.69010860
_cell_formula_units_Z   1
loop_
 _symmetry_equiv_pos_site_id
 _symmetry_equiv_pos_as_xyz
  1  'x, y, z'
loop_
 _atom_site_type_symbol
 _atom_site_label
 _atom_site_symmetry_multiplicity
 _atom_site_fract_x
 _atom_site_fract_y
 _atom_site_fract_z
 _atom_site_occupancy
  Ba  Ba0  1  0.773564  0.560153  0.382631  1
  Ba  Ba1  1  0.273875  0.440053  0.616989  1
  Ba  Ba2  1  0.226335  0.051151  0.120972  1
  Ba  Ba3  1  0.726262  0.949423  0.878922  1
  Ba  Ba4  1  0.228496  0.946844  0.617891  1
  Ba  Ba5  1  0.728514  0.053117  0.382023  1
  Ba  Ba6  1  0.773437  0.444379  0.884172  1
  Ba  Ba7  1  0.275047  0.555386  0.116129  1
  Ba  Ba8  1  0.971034  0.374802  0.146688  1
  Ba  Ba9  1  0.471009  0.625060  0.853940  1
  Ba  Ba10  1  0.970727  0.623480  0.646076  1
  Ba  Ba11  1  0.471129  0.376670  0.353590  1
  Ba  Ba12  1  0.030008  0.123653  0.856137  1
  Ba  Ba13  1  0.530386  0.875509  0.143710  1
  Sr  Sr14  1  0.123604  0.216864  0.395689  1
  Sr  Sr15  1  0.623505  0.783106  0.604390  1
  Sr  Sr16  1  0.877463  0.717620  0.105180  1
  Sr  Sr17  1  0.377704  0.281933  0.894816  1
  Sr  Sr18  1  0.876816  0.283100  0.602601  1
  Sr  Sr19  1  0.376721  0.717011  0.397514  1
  Sr  Sr20  1  0.122674  0.783250  0.895186  1
  Sr  Sr21  1  0.622445  0.217436  0.104934  1
  Sr  Sr22  1  0.036094  0.871545  0.363772  1
  Sr  Sr23  1  0.536144  0.128510  0.636070  1
  Mo  Mo24  1  0.596760  0.546289  0.115876  1
  W  W25  1  0.095955  0.550702  0.383988  1
  W  W26  1  0.596022  0.449355  0.615956  1
  W  W27  1  0.903609  0.043994  0.117951  1
  W  W28  1  0.403765  0.955918  0.882124  1
  W  W29  1  0.902369  0.953301  0.612066  1
  W  W30  1  0.402404  0.046750  0.387847  1
  W  W31  1  0.096595  0.453636  0.884136  1
  N  N32  1  0.223516  0.450569  0.316465  1
  N  N33  1  0.723366  0.549571  0.683669  1
  N  N34  1  0.773971  0.944998  0.182452  1
  N  N35  1  0.273904  0.054599  0.817642  1
  N  N36  1  0.769217  0.051204  0.674131  1
  N  N37  1  0.269161  0.948882  0.325886  1
  N  N38  1  0.224493  0.553024  0.816490  1
  N  N39  1  0.724292  0.447290  0.183103  1
  N  N40  1  0.160396  0.679484  0.481767  1
  N  N41  1  0.660444  0.320627  0.518128  1
  N  N42  1  0.840134  0.176212  0.022037  1
  N  N43  1  0.340392  0.823824  0.978168  1
  N  N44  1  0.841801  0.821832  0.514669  1
  N  N45  1  0.341913  0.178185  0.485297  1
  N  N46  1  0.160900  0.323972  0.981355  1
  N  N47  1  0.660342  0.675815  0.019051  1
  N  N48  1  0.992988  0.432618  0.464515  1
  N  N49  1  0.493061  0.567358  0.535322  1
  N  N50  1  0.005544  0.928928  0.034198  1
  N  N51  1  0.505700  0.071212  0.965730  1
  N  N52  1  0.005889  0.068751  0.529926  1
  N  N53  1  0.505850  0.931243  0.470028  1
  N  N54  1  0.994715  0.570347  0.966455  1
  N  N55  1  0.494987  0.429872  0.033640  1
  N  N56  1  0.994290  0.637312  0.279405  1
  N  N57  1  0.494589  0.362650  0.720672  1
  N  N58  1  0.005665  0.122103  0.226911  1
  N  N59  1  0.505854  0.877801  0.773223  1
  N  N60  1  0.002160  0.874696  0.722429  1
  N  N61  1  0.502187  0.125377  0.277466  1
  N  N62  1  0.993653  0.372199  0.777417  1
  N  N63  1  0.494156  0.627446  0.222386  1
