# generated using pymatgen
data_TaTlS5
_symmetry_space_group_name_H-M   'P 1'
_cell_length_a   15.26427220
_cell_length_b   6.47118800
_cell_length_c   15.36534000
_cell_angle_alpha   90.00000000
_cell_angle_beta   118.11346176
_cell_angle_gamma   90.00000000
_symmetry_Int_Tables_number   1
_chemical_formula_structural   TaTlS5
_chemical_formula_sum   'Ta8 Tl8 S40'
_cell_volume   1338.68637720
_cell_formula_units_Z   8
loop_
 _symmetry_equiv_pos_site_id
 _symmetry_equiv_pos_as_xyz
  1  'x, y, z'
loop_
 _atom_site_type_symbol
 _atom_site_label
 _atom_site_symmetry_multiplicity
 _atom_site_fract_x
 _atom_site_fract_y
 _atom_site_fract_z
 _atom_site_occupancy
  Ta  Ta0  1  0.244782  0.581862  0.209648  1
  Ta  Ta1  1  0.709139  0.052168  0.244394  1
  Ta  Ta2  1  0.790862  0.552168  0.255606  1
  Ta  Ta3  1  0.255218  0.081861  0.290352  1
  Ta  Ta4  1  0.744782  0.918139  0.709648  1
  Ta  Ta5  1  0.209139  0.447831  0.744394  1
  Ta  Ta6  1  0.290861  0.947830  0.755605  1
  Ta  Ta7  1  0.755218  0.418138  0.790352  1
  Tl  Tl8  1  0.915028  0.145871  0.060200  1
  Tl  Tl9  1  0.443899  0.353473  0.088815  1
  Tl  Tl10  1  0.056101  0.853474  0.411185  1
  Tl  Tl11  1  0.584972  0.645871  0.439800  1
  Tl  Tl12  1  0.415029  0.354130  0.560201  1
  Tl  Tl13  1  0.943899  0.146527  0.588816  1
  Tl  Tl14  1  0.556101  0.646528  0.911184  1
  Tl  Tl15  1  0.084971  0.854129  0.939800  1
  S  S16  1  0.109581  0.418052  0.056045  1
  S  S17  1  0.310269  0.738051  0.105068  1
  S  S18  1  0.554864  0.892577  0.108382  1
  S  S19  1  0.664321  0.335590  0.121382  1
  S  S20  1  0.239036  0.246643  0.126330  1
  S  S21  1  0.752992  0.825130  0.126724  1
  S  S22  1  0.121263  0.865947  0.162537  1
  S  S23  1  0.896158  0.701235  0.190250  1
  S  S24  1  0.624577  0.716886  0.235956  1
  S  S25  1  0.374459  0.856171  0.248172  1
  S  S26  1  0.125540  0.356172  0.251827  1
  S  S27  1  0.875423  0.216885  0.264044  1
  S  S28  1  0.603841  0.201234  0.309750  1
  S  S29  1  0.378737  0.365948  0.337463  1
  S  S30  1  0.747008  0.325129  0.373276  1
  S  S31  1  0.260964  0.746641  0.373670  1
  S  S32  1  0.835679  0.835589  0.378618  1
  S  S33  1  0.945136  0.392576  0.391618  1
  S  S34  1  0.189731  0.238052  0.394932  1
  S  S35  1  0.390420  0.918051  0.443955  1
  S  S36  1  0.609580  0.081949  0.556045  1
  S  S37  1  0.810269  0.761948  0.605068  1
  S  S38  1  0.054864  0.607423  0.608382  1
  S  S39  1  0.164322  0.164411  0.621383  1
  S  S40  1  0.739036  0.253358  0.626330  1
  S  S41  1  0.252992  0.674872  0.626723  1
  S  S42  1  0.621263  0.634052  0.662537  1
  S  S43  1  0.396159  0.798767  0.690250  1
  S  S44  1  0.124577  0.783115  0.735956  1
  S  S45  1  0.874459  0.643828  0.748172  1
  S  S46  1  0.625541  0.143829  0.751828  1
  S  S47  1  0.375423  0.283114  0.764044  1
  S  S48  1  0.103841  0.298766  0.809750  1
  S  S49  1  0.878737  0.134053  0.837464  1
  S  S50  1  0.247008  0.174871  0.873277  1
  S  S51  1  0.760963  0.753357  0.873670  1
  S  S52  1  0.335679  0.664411  0.878618  1
  S  S53  1  0.445135  0.107424  0.891618  1
  S  S54  1  0.689730  0.261949  0.894932  1
  S  S55  1  0.890419  0.581948  0.943954  1
