# generated using pymatgen
data_Li3Pr2Nd2AgAs8
_symmetry_space_group_name_H-M   'P 1'
_cell_length_a   3.99619800
_cell_length_b   4.03349800
_cell_length_c   21.46748101
_cell_angle_alpha   89.99649255
_cell_angle_beta   90.00008038
_cell_angle_gamma   89.99991437
_symmetry_Int_Tables_number   1
_chemical_formula_structural   Li3Pr2Nd2AgAs8
_chemical_formula_sum   'Li3 Pr2 Nd2 Ag1 As8'
_cell_volume   346.02695486
_cell_formula_units_Z   1
loop_
 _symmetry_equiv_pos_site_id
 _symmetry_equiv_pos_as_xyz
  1  'x, y, z'
loop_
 _atom_site_type_symbol
 _atom_site_label
 _atom_site_symmetry_multiplicity
 _atom_site_fract_x
 _atom_site_fract_y
 _atom_site_fract_z
 _atom_site_occupancy
  Li  Li0  1  0.750003  0.726627  0.249932  1
  Li  Li1  1  0.249999  0.226651  0.250140  1
  Li  Li2  1  0.749999  0.773242  0.749930  1
  Pr  Pr3  1  0.250001  0.729968  0.116371  1
  Pr  Pr4  1  0.750000  0.229891  0.383669  1
  Nd  Nd5  1  0.249999  0.770219  0.615686  1
  Nd  Nd6  1  0.750000  0.271468  0.884168  1
  Ag  Ag7  1  0.250001  0.273735  0.750300  1
  As  As8  1  0.750000  0.226509  0.171050  1
  As  As9  1  0.250001  0.726679  0.328941  1
  As  As10  1  0.750001  0.272599  0.665796  1
  As  As11  1  0.250000  0.773550  0.834075  1
  As  As12  1  0.249999  0.207118  0.000909  1
  As  As13  1  0.749999  0.708094  0.499168  1
  As  As14  1  0.249998  0.291347  0.501843  1
  As  As15  1  0.749999  0.792304  0.998020  1
