# generated using pymatgen
data_BaZrAs2Pt
_symmetry_space_group_name_H-M   'P 1'
_cell_length_a   4.32789000
_cell_length_b   4.32788977
_cell_length_c   15.32173200
_cell_angle_alpha   90.00000000
_cell_angle_beta   90.00000000
_cell_angle_gamma   119.99998645
_symmetry_Int_Tables_number   1
_chemical_formula_structural   BaZrAs2Pt
_chemical_formula_sum   'Ba2 Zr2 As4 Pt2'
_cell_volume   248.53694618
_cell_formula_units_Z   2
loop_
 _symmetry_equiv_pos_site_id
 _symmetry_equiv_pos_as_xyz
  1  'x, y, z'
loop_
 _atom_site_type_symbol
 _atom_site_label
 _atom_site_symmetry_multiplicity
 _atom_site_fract_x
 _atom_site_fract_y
 _atom_site_fract_z
 _atom_site_occupancy
  Ba  Ba0  1  0.666667  0.333333  0.387644  1
  Ba  Ba1  1  0.333333  0.666667  0.887644  1
  Zr  Zr2  1  0.333333  0.666667  0.622678  1
  Zr  Zr3  1  0.666667  0.333333  0.122678  1
  As  As4  1  0.333333  0.666667  0.251574  1
  As  As5  1  0.000000  0.000000  0.034171  1
  As  As6  1  0.000000  0.000000  0.534171  1
  As  As7  1  0.666667  0.333333  0.751574  1
  Pt  Pt8  1  0.000000  0.000000  0.703933  1
  Pt  Pt9  1  0.000000  0.000000  0.203933  1
