# generated using pymatgen
data_SrNi2(B3Ir5)2
_symmetry_space_group_name_H-M   'P 1'
_cell_length_a   6.47073822
_cell_length_b   6.51621082
_cell_length_c   6.47073833
_cell_angle_alpha   104.39251270
_cell_angle_beta   102.11514529
_cell_angle_gamma   104.39252384
_symmetry_Int_Tables_number   1
_chemical_formula_structural   SrNi2(B3Ir5)2
_chemical_formula_sum   'Sr1 Ni2 B6 Ir10'
_cell_volume   245.01436611
_cell_formula_units_Z   1
loop_
 _symmetry_equiv_pos_site_id
 _symmetry_equiv_pos_as_xyz
  1  'x, y, z'
loop_
 _atom_site_type_symbol
 _atom_site_label
 _atom_site_symmetry_multiplicity
 _atom_site_fract_x
 _atom_site_fract_y
 _atom_site_fract_z
 _atom_site_occupancy
  Sr  Sr0  1  0.000000  0.000000  0.000000  1
  Ni  Ni1  1  0.454017  0.195271  0.454017  1
  Ni  Ni2  1  0.545983  0.804729  0.545983  1
  B  B3  1  0.231677  0.676784  0.231677  1
  B  B4  1  0.767842  0.773116  0.344982  1
  B  B5  1  0.344982  0.773116  0.767842  1
  B  B6  1  0.655018  0.226884  0.232158  1
  B  B7  1  0.232158  0.226884  0.655018  1
  B  B8  1  0.768323  0.323216  0.768323  1
  Ir  Ir9  1  0.812259  0.546262  0.549382  1
  Ir  Ir10  1  0.500437  0.868465  0.138610  1
  Ir  Ir11  1  0.135436  0.500000  0.864564  1
  Ir  Ir12  1  0.138610  0.868465  0.500437  1
  Ir  Ir13  1  0.864564  0.500000  0.135436  1
  Ir  Ir14  1  0.549382  0.546262  0.812259  1
  Ir  Ir15  1  0.499563  0.131535  0.861390  1
  Ir  Ir16  1  0.450618  0.453738  0.187741  1
  Ir  Ir17  1  0.861390  0.131535  0.499563  1
  Ir  Ir18  1  0.187741  0.453738  0.450618  1
