# generated using pymatgen
data_Na7Er(PaI6)4
_symmetry_space_group_name_H-M   'P 1'
_cell_length_a   8.01617400
_cell_length_b   8.01617495
_cell_length_c   29.97940100
_cell_angle_alpha   90.00000000
_cell_angle_beta   90.00000000
_cell_angle_gamma   119.99998782
_symmetry_Int_Tables_number   1
_chemical_formula_structural   Na7Er(PaI6)4
_chemical_formula_sum   'Na7 Er1 Pa4 I24'
_cell_volume   1668.35304618
_cell_formula_units_Z   1
loop_
 _symmetry_equiv_pos_site_id
 _symmetry_equiv_pos_as_xyz
  1  'x, y, z'
loop_
 _atom_site_type_symbol
 _atom_site_label
 _atom_site_symmetry_multiplicity
 _atom_site_fract_x
 _atom_site_fract_y
 _atom_site_fract_z
 _atom_site_occupancy
  Na  Na0  1  0.000000  0.000000  0.249948  1
  Na  Na1  1  0.000000  0.000000  0.750098  1
  Na  Na2  1  0.333333  0.666667  0.000800  1
  Na  Na3  1  0.333333  0.666667  0.499293  1
  Na  Na4  1  0.333333  0.666667  0.249900  1
  Na  Na5  1  0.666667  0.333333  0.750043  1
  Na  Na6  1  0.666667  0.333333  0.999092  1
  Er  Er7  1  0.666667  0.333333  0.500618  1
  Pa  Pa8  1  0.000000  0.000000  0.999761  1
  Pa  Pa9  1  0.000000  0.000000  0.500347  1
  Pa  Pa10  1  0.333333  0.666667  0.750211  1
  Pa  Pa11  1  0.666667  0.333333  0.249783  1
  I  I12  1  0.352287  0.018211  0.309014  1
  I  I13  1  0.334033  0.981001  0.808175  1
  I  I14  1  0.998020  0.312297  0.058117  1
  I  I15  1  0.980827  0.325027  0.558338  1
  I  I16  1  0.981789  0.334076  0.309014  1
  I  I17  1  0.018999  0.353032  0.808175  1
  I  I18  1  0.352894  0.333864  0.191735  1
  I  I19  1  0.333677  0.352377  0.691038  1
  I  I20  1  0.344603  0.323281  0.442193  1
  I  I21  1  0.312215  0.314153  0.941424  1
  I  I22  1  0.676719  0.021322  0.442193  1
  I  I23  1  0.314275  0.001980  0.058117  1
  I  I24  1  0.344200  0.019173  0.558338  1
  I  I25  1  0.687703  0.685725  0.058117  1
  I  I26  1  0.674973  0.655800  0.558338  1
  I  I27  1  0.665924  0.647713  0.309014  1
  I  I28  1  0.646968  0.665967  0.808175  1
  I  I29  1  0.980969  0.647106  0.191735  1
  I  I30  1  0.018700  0.666323  0.691038  1
  I  I31  1  0.978678  0.655397  0.442193  1
  I  I32  1  0.001938  0.687785  0.941424  1
  I  I33  1  0.685847  0.998062  0.941424  1
  I  I34  1  0.666136  0.019031  0.191735  1
  I  I35  1  0.647623  0.981300  0.691038  1
