# generated using pymatgen
data_Dy4Ho5Lu11Sn16
_symmetry_space_group_name_H-M   'P 1'
_cell_length_a   7.94311701
_cell_length_b   8.06875406
_cell_length_c   15.25169901
_cell_angle_alpha   90.02969292
_cell_angle_beta   90.00309122
_cell_angle_gamma   90.07246141
_symmetry_Int_Tables_number   1
_chemical_formula_structural   Dy4Ho5Lu11Sn16
_chemical_formula_sum   'Dy4 Ho5 Lu11 Sn16'
_cell_volume   977.49660502
_cell_formula_units_Z   1
loop_
 _symmetry_equiv_pos_site_id
 _symmetry_equiv_pos_as_xyz
  1  'x, y, z'
loop_
 _atom_site_type_symbol
 _atom_site_label
 _atom_site_symmetry_multiplicity
 _atom_site_fract_x
 _atom_site_fract_y
 _atom_site_fract_z
 _atom_site_occupancy
  Dy  Dy0  1  0.480677  0.677866  0.096202  1
  Dy  Dy1  1  0.979440  0.821793  0.403471  1
  Dy  Dy2  1  0.519739  0.321156  0.595393  1
  Dy  Dy3  1  0.020421  0.178348  0.903719  1
  Ho  Ho4  1  0.866216  0.663532  0.877744  1
  Ho  Ho5  1  0.520464  0.321216  0.904165  1
  Ho  Ho6  1  0.020680  0.178680  0.595628  1
  Ho  Ho7  1  0.479178  0.678431  0.403861  1
  Ho  Ho8  1  0.978760  0.822493  0.097473  1
  Lu  Lu9  1  0.364586  0.837481  0.876205  1
  Lu  Lu10  1  0.865239  0.661950  0.623051  1
  Lu  Lu11  1  0.634934  0.161571  0.376681  1
  Lu  Lu12  1  0.134993  0.337940  0.123637  1
  Lu  Lu13  1  0.633813  0.161950  0.124607  1
  Lu  Lu14  1  0.134672  0.337473  0.376619  1
  Lu  Lu15  1  0.365995  0.838143  0.622725  1
  Lu  Lu16  1  0.196942  0.504758  0.749689  1
  Lu  Lu17  1  0.696224  0.995745  0.749255  1
  Lu  Lu18  1  0.803551  0.495020  0.250399  1
  Lu  Lu19  1  0.303154  0.004703  0.250001  1
  Sn  Sn20  1  0.296424  0.039408  0.041514  1
  Sn  Sn21  1  0.796875  0.460699  0.458132  1
  Sn  Sn22  1  0.704262  0.960294  0.541238  1
  Sn  Sn23  1  0.206811  0.538114  0.958984  1
  Sn  Sn24  1  0.700971  0.963669  0.958665  1
  Sn  Sn25  1  0.202557  0.539591  0.541434  1
  Sn  Sn26  1  0.296501  0.039103  0.458352  1
  Sn  Sn27  1  0.796611  0.458966  0.043068  1
  Sn  Sn28  1  0.561810  0.620040  0.748971  1
  Sn  Sn29  1  0.063102  0.880981  0.748963  1
  Sn  Sn30  1  0.437623  0.379853  0.250724  1
  Sn  Sn31  1  0.937564  0.120277  0.250056  1
  Sn  Sn32  1  0.330641  0.149428  0.749598  1
  Sn  Sn33  1  0.830143  0.350378  0.749339  1
  Sn  Sn34  1  0.669015  0.849861  0.250270  1
  Sn  Sn35  1  0.169410  0.649091  0.250166  1
