# generated using pymatgen
data_LiTb16ZnInHgIr4
_symmetry_space_group_name_H-M   'P 1'
_cell_length_a   9.67473959
_cell_length_b   9.65453241
_cell_length_c   9.65451900
_cell_angle_alpha   59.95221297
_cell_angle_beta   60.10940702
_cell_angle_gamma   60.10578224
_symmetry_Int_Tables_number   1
_chemical_formula_structural   LiTb16ZnInHgIr4
_chemical_formula_sum   'Li1 Tb16 Zn1 In1 Hg1 Ir4'
_cell_volume   638.45890967
_cell_formula_units_Z   1
loop_
 _symmetry_equiv_pos_site_id
 _symmetry_equiv_pos_as_xyz
  1  'x, y, z'
loop_
 _atom_site_type_symbol
 _atom_site_label
 _atom_site_symmetry_multiplicity
 _atom_site_fract_x
 _atom_site_fract_y
 _atom_site_fract_z
 _atom_site_occupancy
  Li  Li0  1  0.041664  0.318372  0.322545  1
  Tb  Tb1  1  0.101490  0.703936  0.098048  1
  Tb  Tb2  1  0.938103  0.938171  0.561297  1
  Tb  Tb3  1  0.939393  0.561055  0.938062  1
  Tb  Tb4  1  0.310448  0.687348  0.313465  1
  Tb  Tb5  1  0.933874  0.562172  0.562902  1
  Tb  Tb6  1  0.312021  0.315549  0.682437  1
  Tb  Tb7  1  0.099835  0.098850  0.097030  1
  Tb  Tb8  1  0.555022  0.557712  0.942166  1
  Tb  Tb9  1  0.102257  0.099292  0.703961  1
  Tb  Tb10  1  0.688706  0.309079  0.689304  1
  Tb  Tb11  1  0.687400  0.691079  0.309172  1
  Tb  Tb12  1  0.684955  0.311123  0.308602  1
  Tb  Tb13  1  0.309890  0.691843  0.684694  1
  Tb  Tb14  1  0.557349  0.940466  0.559778  1
  Tb  Tb15  1  0.693884  0.101824  0.102450  1
  Tb  Tb16  1  0.556871  0.943401  0.941030  1
  Zn  Zn17  1  0.333130  0.333096  0.333290  1
  In  In18  1  0.328858  0.332303  0.007273  1
  Hg  Hg19  1  0.330291  0.997719  0.338149  1
  Ir  Ir20  1  0.889116  0.894269  0.892848  1
  Ir  Ir21  1  0.890756  0.893590  0.324258  1
  Ir  Ir22  1  0.325346  0.892208  0.893048  1
  Ir  Ir23  1  0.889339  0.325541  0.894196  1
