# generated using pymatgen
data_La4DyTl3
_symmetry_space_group_name_H-M   'P 1'
_cell_length_a   9.48864122
_cell_length_b   9.48864127
_cell_length_c   9.48864200
_cell_angle_alpha   96.23433590
_cell_angle_beta   96.23433593
_cell_angle_gamma   141.51856759
_symmetry_Int_Tables_number   1
_chemical_formula_structural   La4DyTl3
_chemical_formula_sum   'La8 Dy2 Tl6'
_cell_volume   501.90576924
_cell_formula_units_Z   2
loop_
 _symmetry_equiv_pos_site_id
 _symmetry_equiv_pos_as_xyz
  1  'x, y, z'
loop_
 _atom_site_type_symbol
 _atom_site_label
 _atom_site_symmetry_multiplicity
 _atom_site_fract_x
 _atom_site_fract_y
 _atom_site_fract_z
 _atom_site_occupancy
  La  La0  1  0.911568  0.222376  0.133945  1
  La  La1  1  0.222376  0.088432  0.310808  1
  La  La2  1  0.777624  0.911568  0.689192  1
  La  La3  1  0.088432  0.777624  0.866055  1
  La  La4  1  0.722376  0.411568  0.133945  1
  La  La5  1  0.277624  0.588432  0.866055  1
  La  La6  1  0.588432  0.722376  0.310808  1
  La  La7  1  0.411568  0.277624  0.689192  1
  Dy  Dy8  1  0.750000  0.250000  0.500000  1
  Dy  Dy9  1  0.250000  0.750000  0.500000  1
  Tl  Tl10  1  0.750000  0.750000  0.000000  1
  Tl  Tl11  1  0.250000  0.250000  0.000000  1
  Tl  Tl12  1  0.844518  0.655482  0.500000  1
  Tl  Tl13  1  0.655482  0.155482  0.810963  1
  Tl  Tl14  1  0.344518  0.844518  0.189037  1
  Tl  Tl15  1  0.155482  0.344518  0.500000  1
