# generated using pymatgen
data_Er9Si16W11
_symmetry_space_group_name_H-M   'P 1'
_cell_length_a   6.91201023
_cell_length_b   6.89788148
_cell_length_c   12.84281142
_cell_angle_alpha   89.82620061
_cell_angle_beta   90.46797370
_cell_angle_gamma   89.97731359
_symmetry_Int_Tables_number   1
_chemical_formula_structural   Er9Si16W11
_chemical_formula_sum   'Er9 Si16 W11'
_cell_volume   612.29918741
_cell_formula_units_Z   1
loop_
 _symmetry_equiv_pos_site_id
 _symmetry_equiv_pos_as_xyz
  1  'x, y, z'
loop_
 _atom_site_type_symbol
 _atom_site_label
 _atom_site_symmetry_multiplicity
 _atom_site_fract_x
 _atom_site_fract_y
 _atom_site_fract_z
 _atom_site_occupancy
  Er  Er0  1  0.340610  0.998233  0.464704  1
  Er  Er1  1  0.500201  0.839866  0.719763  1
  Er  Er2  1  0.497035  0.162059  0.218957  1
  Er  Er3  1  0.837700  0.499019  0.278468  1
  Er  Er4  1  0.161168  0.497861  0.784851  1
  Er  Er5  1  0.659771  0.002318  0.971333  1
  Er  Er6  1  0.000094  0.339748  0.530799  1
  Er  Er7  1  0.001917  0.663087  0.031849  1
  Er  Er8  1  0.998982  0.841554  0.625220  1
  Si  Si9  1  0.209750  0.138705  0.686504  1
  Si  Si10  1  0.374572  0.703563  0.933802  1
  Si  Si11  1  0.630287  0.296914  0.431354  1
  Si  Si12  1  0.701677  0.372834  0.067092  1
  Si  Si13  1  0.311263  0.627751  0.560831  1
  Si  Si14  1  0.796593  0.872827  0.183416  1
  Si  Si15  1  0.124710  0.199858  0.316697  1
  Si  Si16  1  0.870373  0.795864  0.823991  1
  Si  Si17  1  0.287852  0.964759  0.064392  1
  Si  Si18  1  0.537801  0.787776  0.312707  1
  Si  Si19  1  0.462373  0.211438  0.814879  1
  Si  Si20  1  0.784131  0.529074  0.688313  1
  Si  Si21  1  0.210979  0.460518  0.185347  1
  Si  Si22  1  0.699540  0.048220  0.564020  1
  Si  Si23  1  0.962263  0.290692  0.939220  1
  Si  Si24  1  0.043568  0.705817  0.428073  1
  W  W25  1  0.332933  0.334744  0.001034  1
  W  W26  1  0.168319  0.829883  0.247043  1
  W  W27  1  0.828761  0.170235  0.753801  1
  W  W28  1  0.666839  0.661470  0.496296  1
  W  W29  1  0.163697  0.004459  0.875551  1
  W  W30  1  0.499414  0.662861  0.123292  1
  W  W31  1  0.497803  0.337837  0.622398  1
  W  W32  1  0.662041  0.495617  0.878670  1
  W  W33  1  0.341821  0.492965  0.373016  1
  W  W34  1  0.836161  0.998055  0.374897  1
  W  W35  1  0.997001  0.161519  0.127419  1
