# generated using pymatgen
data_DyPa(VB4)2
_symmetry_space_group_name_H-M   'P 1'
_cell_length_a   3.53520500
_cell_length_b   5.97265256
_cell_length_c   11.56916355
_cell_angle_alpha   89.80607602
_cell_angle_beta   90.00000000
_cell_angle_gamma   90.00000000
_symmetry_Int_Tables_number   1
_chemical_formula_structural   DyPa(VB4)2
_chemical_formula_sum   'Dy2 Pa2 V4 B16'
_cell_volume   244.27629691
_cell_formula_units_Z   2
loop_
 _symmetry_equiv_pos_site_id
 _symmetry_equiv_pos_as_xyz
  1  'x, y, z'
loop_
 _atom_site_type_symbol
 _atom_site_label
 _atom_site_symmetry_multiplicity
 _atom_site_fract_x
 _atom_site_fract_y
 _atom_site_fract_z
 _atom_site_occupancy
  Dy  Dy0  1  0.000000  0.122891  0.148885  1
  Dy  Dy1  1  0.000000  0.877109  0.851115  1
  Pa  Pa2  1  0.000000  0.625686  0.347445  1
  Pa  Pa3  1  0.000000  0.374314  0.652555  1
  V  V4  1  0.000000  0.624154  0.083182  1
  V  V5  1  0.000000  0.375846  0.916818  1
  V  V6  1  0.000000  0.127447  0.417332  1
  V  V7  1  0.000000  0.872553  0.582668  1
  B  B8  1  0.500000  0.783359  0.184881  1
  B  B9  1  0.500000  0.216641  0.815119  1
  B  B10  1  0.500000  0.283580  0.314544  1
  B  B11  1  0.500000  0.716420  0.685456  1
  B  B12  1  0.500000  0.864182  0.032688  1
  B  B13  1  0.500000  0.135818  0.967312  1
  B  B14  1  0.500000  0.363845  0.467155  1
  B  B15  1  0.500000  0.636155  0.532845  1
  B  B16  1  0.500000  0.887019  0.453205  1
  B  B17  1  0.500000  0.112981  0.546795  1
  B  B18  1  0.500000  0.385725  0.046111  1
  B  B19  1  0.500000  0.614275  0.953889  1
  B  B20  1  0.500000  0.974335  0.308121  1
  B  B21  1  0.500000  0.025665  0.691879  1
  B  B22  1  0.500000  0.476573  0.191159  1
  B  B23  1  0.500000  0.523427  0.808841  1
