# generated using pymatgen
data_Li3Eu2Er2CdPt4
_symmetry_space_group_name_H-M   'P 1'
_cell_length_a   4.09421500
_cell_length_b   7.24193481
_cell_length_c   8.71331685
_cell_angle_alpha   90.13386157
_cell_angle_beta   90.00000000
_cell_angle_gamma   90.00000000
_symmetry_Int_Tables_number   1
_chemical_formula_structural   Li3Eu2Er2CdPt4
_chemical_formula_sum   'Li3 Eu2 Er2 Cd1 Pt4'
_cell_volume   258.34947202
_cell_formula_units_Z   1
loop_
 _symmetry_equiv_pos_site_id
 _symmetry_equiv_pos_as_xyz
  1  'x, y, z'
loop_
 _atom_site_type_symbol
 _atom_site_label
 _atom_site_symmetry_multiplicity
 _atom_site_fract_x
 _atom_site_fract_y
 _atom_site_fract_z
 _atom_site_occupancy
  Li  Li0  1  0.250000  0.124049  0.938436  1
  Li  Li1  1  0.250000  0.630029  0.562595  1
  Li  Li2  1  0.750000  0.870908  0.045512  1
  Eu  Eu3  1  0.250000  0.045779  0.321807  1
  Eu  Eu4  1  0.250000  0.547063  0.174797  1
  Er  Er5  1  0.750000  0.953727  0.683550  1
  Er  Er6  1  0.750000  0.449811  0.820274  1
  Cd  Cd7  1  0.750000  0.370265  0.446446  1
  Pt  Pt8  1  0.250000  0.246888  0.649685  1
  Pt  Pt9  1  0.250000  0.746842  0.855727  1
  Pt  Pt10  1  0.750000  0.758367  0.397690  1
  Pt  Pt11  1  0.750000  0.256272  0.103483  1
