# generated using pymatgen
data_ZnSi2Mo9
_symmetry_space_group_name_H-M   'P 1'
_cell_length_a   4.94586800
_cell_length_b   4.94345400
_cell_length_c   14.75923100
_cell_angle_alpha   90.00000000
_cell_angle_beta   90.00000000
_cell_angle_gamma   90.00000000
_symmetry_Int_Tables_number   1
_chemical_formula_structural   ZnSi2Mo9
_chemical_formula_sum   'Zn2 Si4 Mo18'
_cell_volume   360.85834140
_cell_formula_units_Z   2
loop_
 _symmetry_equiv_pos_site_id
 _symmetry_equiv_pos_as_xyz
  1  'x, y, z'
loop_
 _atom_site_type_symbol
 _atom_site_label
 _atom_site_symmetry_multiplicity
 _atom_site_fract_x
 _atom_site_fract_y
 _atom_site_fract_z
 _atom_site_occupancy
  Zn  Zn0  1  0.500000  0.500000  0.833471  1
  Zn  Zn1  1  0.500000  0.500000  0.499868  1
  Si  Si2  1  0.500000  0.500000  0.166587  1
  Si  Si3  1  0.000000  0.000000  0.000188  1
  Si  Si4  1  0.000000  0.000000  0.666760  1
  Si  Si5  1  0.000000  0.000000  0.333113  1
  Mo  Mo6  1  0.500000  0.000000  0.749203  1
  Mo  Mo7  1  0.500000  0.000000  0.415413  1
  Mo  Mo8  1  0.500000  0.000000  0.083429  1
  Mo  Mo9  1  0.248643  0.500000  0.001707  1
  Mo  Mo10  1  0.247654  0.500000  0.666712  1
  Mo  Mo11  1  0.248727  0.500000  0.331545  1
  Mo  Mo12  1  0.000000  0.752320  0.834380  1
  Mo  Mo13  1  0.000000  0.752353  0.498993  1
  Mo  Mo14  1  0.000000  0.750839  0.166629  1
  Mo  Mo15  1  0.500000  0.000000  0.917926  1
  Mo  Mo16  1  0.500000  0.000000  0.584213  1
  Mo  Mo17  1  0.500000  0.000000  0.249892  1
  Mo  Mo18  1  0.751357  0.500000  0.001707  1
  Mo  Mo19  1  0.752346  0.500000  0.666712  1
  Mo  Mo20  1  0.751273  0.500000  0.331545  1
  Mo  Mo21  1  0.000000  0.247680  0.834380  1
  Mo  Mo22  1  0.000000  0.247647  0.498993  1
  Mo  Mo23  1  0.000000  0.249161  0.166629  1
