# generated using pymatgen
data_Li2Y5P12Ru17
_symmetry_space_group_name_H-M   'P 1'
_cell_length_a   12.72904200
_cell_length_b   12.52425922
_cell_length_c   3.97342700
_cell_angle_alpha   90.00000000
_cell_angle_beta   90.00000000
_cell_angle_gamma   120.54237329
_symmetry_Int_Tables_number   1
_chemical_formula_structural   Li2Y5P12Ru17
_chemical_formula_sum   'Li2 Y5 P12 Ru17'
_cell_volume   545.56191150
_cell_formula_units_Z   1
loop_
 _symmetry_equiv_pos_site_id
 _symmetry_equiv_pos_as_xyz
  1  'x, y, z'
loop_
 _atom_site_type_symbol
 _atom_site_label
 _atom_site_symmetry_multiplicity
 _atom_site_fract_x
 _atom_site_fract_y
 _atom_site_fract_z
 _atom_site_occupancy
  Li  Li0  1  0.000560  0.562325  0.000000  1
  Li  Li1  1  0.438235  0.437675  0.000000  1
  Y  Y2  1  0.000434  0.181540  0.500000  1
  Y  Y3  1  0.818893  0.818460  0.500000  1
  Y  Y4  1  0.181959  0.000000  0.500000  1
  Y  Y5  1  0.663762  0.326108  0.000000  1
  Y  Y6  1  0.337653  0.673892  0.000000  1
  P  P7  1  0.998911  0.809400  0.000000  1
  P  P8  1  0.189511  0.190600  0.000000  1
  P  P9  1  0.817814  0.000000  0.000000  1
  P  P10  1  0.691808  0.169758  0.500000  1
  P  P11  1  0.817282  0.515624  0.500000  1
  P  P12  1  0.477346  0.301196  0.500000  1
  P  P13  1  0.176150  0.698804  0.500000  1
  P  P14  1  0.522050  0.830242  0.500000  1
  P  P15  1  0.301657  0.484376  0.500000  1
  P  P16  1  0.002475  0.370617  0.000000  1
  P  P17  1  0.631859  0.629383  0.000000  1
  P  P18  1  0.376278  0.000000  0.000000  1
  Ru  Ru19  1  0.556671  0.000000  0.000000  1
  Ru  Ru20  1  0.998243  0.712009  0.500000  1
  Ru  Ru21  1  0.286233  0.287991  0.500000  1
  Ru  Ru22  1  0.717512  0.000000  0.500000  1
  Ru  Ru23  1  0.809041  0.185698  0.000000  1
  Ru  Ru24  1  0.812450  0.615355  0.000000  1
  Ru  Ru25  1  0.377284  0.191487  0.000000  1
  Ru  Ru26  1  0.185797  0.808513  0.000000  1
  Ru  Ru27  1  0.623344  0.814302  0.000000  1
  Ru  Ru28  1  0.197097  0.384645  0.000000  1
  Ru  Ru29  1  0.873850  0.366302  0.500000  1
  Ru  Ru30  1  0.629410  0.510563  0.500000  1
  Ru  Ru31  1  0.491607  0.124183  0.500000  1
  Ru  Ru32  1  0.367424  0.875817  0.500000  1
  Ru  Ru33  1  0.507548  0.633698  0.500000  1
  Ru  Ru34  1  0.118847  0.489437  0.500000  1
  Ru  Ru35  1  0.003005  0.000000  0.000000  1
