# generated using pymatgen
data_Zr12Zn8CuAu3C4
_symmetry_space_group_name_H-M   'P 1'
_cell_length_a   8.71599695
_cell_length_b   8.71421459
_cell_length_c   8.71593652
_cell_angle_alpha   59.99725515
_cell_angle_beta   59.99876171
_cell_angle_gamma   59.99492047
_symmetry_Int_Tables_number   1
_chemical_formula_structural   Zr12Zn8CuAu3C4
_chemical_formula_sum   'Zr12 Zn8 Cu1 Au3 C4'
_cell_volume   468.07412330
_cell_formula_units_Z   1
loop_
 _symmetry_equiv_pos_site_id
 _symmetry_equiv_pos_as_xyz
  1  'x, y, z'
loop_
 _atom_site_type_symbol
 _atom_site_label
 _atom_site_symmetry_multiplicity
 _atom_site_fract_x
 _atom_site_fract_y
 _atom_site_fract_z
 _atom_site_occupancy
  Zr  Zr0  1  0.438046  0.437840  0.062068  1
  Zr  Zr1  1  0.062027  0.437858  0.062042  1
  Zr  Zr2  1  0.438324  0.061472  0.061873  1
  Zr  Zr3  1  0.061847  0.061462  0.438338  1
  Zr  Zr4  1  0.438369  0.061449  0.438357  1
  Zr  Zr5  1  0.062084  0.437823  0.438015  1
  Zr  Zr6  1  0.811962  0.812142  0.187938  1
  Zr  Zr7  1  0.187977  0.812125  0.187965  1
  Zr  Zr8  1  0.811669  0.188537  0.188133  1
  Zr  Zr9  1  0.188158  0.188547  0.811656  1
  Zr  Zr10  1  0.811623  0.188560  0.811635  1
  Zr  Zr11  1  0.187920  0.812161  0.811992  1
  Zn  Zn12  1  0.827503  0.840759  0.504252  1
  Zn  Zn13  1  0.832912  0.501263  0.832900  1
  Zn  Zn14  1  0.504258  0.840770  0.827506  1
  Zn  Zn15  1  0.827464  0.840779  0.827487  1
  Zn  Zn16  1  0.422488  0.409257  0.745747  1
  Zn  Zn17  1  0.417085  0.748749  0.417094  1
  Zn  Zn18  1  0.745742  0.409245  0.422485  1
  Zn  Zn19  1  0.422529  0.409235  0.422505  1
  Cu  Cu20  1  0.624998  0.125007  0.624997  1
  Au  Au21  1  0.624997  0.625008  0.124999  1
  Au  Au22  1  0.124998  0.625009  0.624997  1
  Au  Au23  1  0.624997  0.625009  0.624997  1
  C  C24  1  0.125004  0.124986  0.625007  1
  C  C25  1  0.125009  0.624976  0.125008  1
  C  C26  1  0.625009  0.124986  0.125003  1
  C  C27  1  0.125004  0.124986  0.125005  1
