# generated using pymatgen
data_La2MnSb4Pd
_symmetry_space_group_name_H-M   'P 1'
_cell_length_a   4.44990000
_cell_length_b   4.44990000
_cell_length_c   10.54341000
_cell_angle_alpha   90.00000000
_cell_angle_beta   90.00000000
_cell_angle_gamma   90.00000000
_symmetry_Int_Tables_number   1
_chemical_formula_structural   La2MnSb4Pd
_chemical_formula_sum   'La2 Mn1 Sb4 Pd1'
_cell_volume   208.77649300
_cell_formula_units_Z   1
loop_
 _symmetry_equiv_pos_site_id
 _symmetry_equiv_pos_as_xyz
  1  'x, y, z'
loop_
 _atom_site_type_symbol
 _atom_site_label
 _atom_site_symmetry_multiplicity
 _atom_site_fract_x
 _atom_site_fract_y
 _atom_site_fract_z
 _atom_site_occupancy
  La  La0  1  0.000000  0.500000  0.756584  1
  La  La1  1  0.500000  0.000000  0.243416  1
  Mn  Mn2  1  0.500000  0.500000  0.500000  1
  Sb  Sb3  1  0.500000  0.500000  0.000000  1
  Sb  Sb4  1  0.000000  0.000000  0.000000  1
  Sb  Sb5  1  0.000000  0.500000  0.346808  1
  Sb  Sb6  1  0.500000  0.000000  0.653192  1
  Pd  Pd7  1  0.000000  0.000000  0.500000  1
