# generated using pymatgen
data_Hf18Ta4CoW4S
_symmetry_space_group_name_H-M   'P 1'
_cell_length_a   8.76540601
_cell_length_b   8.76540634
_cell_length_c   8.57092100
_cell_angle_alpha   90.00000000
_cell_angle_beta   90.00000000
_cell_angle_gamma   120.14496818
_symmetry_Int_Tables_number   1
_chemical_formula_structural   Hf18Ta4CoW4S
_chemical_formula_sum   'Hf18 Ta4 Co1 W4 S1'
_cell_volume   569.46356697
_cell_formula_units_Z   1
loop_
 _symmetry_equiv_pos_site_id
 _symmetry_equiv_pos_as_xyz
  1  'x, y, z'
loop_
 _atom_site_type_symbol
 _atom_site_label
 _atom_site_symmetry_multiplicity
 _atom_site_fract_x
 _atom_site_fract_y
 _atom_site_fract_z
 _atom_site_occupancy
  Hf  Hf0  1  0.197672  0.802328  0.447608  1
  Hf  Hf1  1  0.197547  0.394251  0.449861  1
  Hf  Hf2  1  0.605749  0.802453  0.449861  1
  Hf  Hf3  1  0.798159  0.201841  0.562733  1
  Hf  Hf4  1  0.797608  0.596052  0.561677  1
  Hf  Hf5  1  0.403948  0.202392  0.561677  1
  Hf  Hf6  1  0.798159  0.201841  0.937267  1
  Hf  Hf7  1  0.797608  0.596052  0.938323  1
  Hf  Hf8  1  0.403948  0.202392  0.938323  1
  Hf  Hf9  1  0.197672  0.802328  0.052392  1
  Hf  Hf10  1  0.197547  0.394251  0.050139  1
  Hf  Hf11  1  0.605749  0.802453  0.050139  1
  Hf  Hf12  1  0.547259  0.452741  0.250000  1
  Hf  Hf13  1  0.546580  0.093233  0.250000  1
  Hf  Hf14  1  0.906767  0.453420  0.250000  1
  Hf  Hf15  1  0.458804  0.541196  0.750000  1
  Hf  Hf16  1  0.460825  0.918001  0.750000  1
  Hf  Hf17  1  0.081999  0.539175  0.750000  1
  Ta  Ta18  1  0.887944  0.112056  0.250000  1
  Ta  Ta19  1  0.887667  0.776439  0.250000  1
  Ta  Ta20  1  0.223561  0.112333  0.250000  1
  Ta  Ta21  1  0.112390  0.887610  0.750000  1
  Co  Co22  1  0.666583  0.333417  0.750000  1
  W  W23  1  0.111406  0.225047  0.750000  1
  W  W24  1  0.774953  0.888594  0.750000  1
  W  W25  1  0.999055  0.000945  0.503347  1
  W  W26  1  0.999055  0.000945  0.996653  1
  S  S27  1  0.333783  0.666217  0.250000  1
