# generated using pymatgen
data_ErNp3Ga12Ni
_symmetry_space_group_name_H-M   'P 1'
_cell_length_a   7.42715673
_cell_length_b   7.42715584
_cell_length_c   7.49190100
_cell_angle_alpha   109.64790301
_cell_angle_beta   109.64790054
_cell_angle_gamma   109.29396290
_symmetry_Int_Tables_number   1
_chemical_formula_structural   ErNp3Ga12Ni
_chemical_formula_sum   'Er1 Np3 Ga12 Ni1'
_cell_volume   317.44145754
_cell_formula_units_Z   1
loop_
 _symmetry_equiv_pos_site_id
 _symmetry_equiv_pos_as_xyz
  1  'x, y, z'
loop_
 _atom_site_type_symbol
 _atom_site_label
 _atom_site_symmetry_multiplicity
 _atom_site_fract_x
 _atom_site_fract_y
 _atom_site_fract_z
 _atom_site_occupancy
  Er  Er0  1  0.000000  0.000000  0.500000  1
  Np  Np1  1  0.500000  0.500000  0.500000  1
  Np  Np2  1  0.000000  0.500000  0.000000  1
  Np  Np3  1  0.500000  0.000000  0.000000  1
  Ga  Ga4  1  0.500099  0.750050  0.250050  1
  Ga  Ga5  1  0.499901  0.249950  0.749950  1
  Ga  Ga6  1  0.249950  0.499901  0.749950  1
  Ga  Ga7  1  0.750050  0.500099  0.250050  1
  Ga  Ga8  1  0.750050  0.249950  0.500000  1
  Ga  Ga9  1  0.249950  0.750050  0.500000  1
  Ga  Ga10  1  0.000000  0.285410  0.285126  1
  Ga  Ga11  1  0.000000  0.714590  0.714874  1
  Ga  Ga12  1  0.285410  0.000000  0.285126  1
  Ga  Ga13  1  0.714590  0.000000  0.714874  1
  Ga  Ga14  1  0.285410  0.285410  0.000283  1
  Ga  Ga15  1  0.714590  0.714590  0.999717  1
  Ni  Ni16  1  0.000000  0.000000  0.000000  1
