# generated using pymatgen
data_KCaHo2CuSe5
_symmetry_space_group_name_H-M   'P 1'
_cell_length_a   4.14757800
_cell_length_b   7.43931636
_cell_length_c   17.97462200
_cell_angle_alpha   90.00000000
_cell_angle_beta   90.00000000
_cell_angle_gamma   73.81373892
_symmetry_Int_Tables_number   1
_chemical_formula_structural   KCaHo2CuSe5
_chemical_formula_sum   'K2 Ca2 Ho4 Cu2 Se10'
_cell_volume   532.62515128
_cell_formula_units_Z   2
loop_
 _symmetry_equiv_pos_site_id
 _symmetry_equiv_pos_as_xyz
  1  'x, y, z'
loop_
 _atom_site_type_symbol
 _atom_site_label
 _atom_site_symmetry_multiplicity
 _atom_site_fract_x
 _atom_site_fract_y
 _atom_site_fract_z
 _atom_site_occupancy
  K  K0  1  0.522658  0.954687  0.250000  1
  K  K1  1  0.477343  0.045313  0.750000  1
  Ca  Ca2  1  0.000000  0.000000  0.000000  1
  Ca  Ca3  1  0.000000  0.000000  0.500000  1
  Ho  Ho4  1  0.270671  0.458658  0.103235  1
  Ho  Ho5  1  0.270671  0.458658  0.396765  1
  Ho  Ho6  1  0.729330  0.541342  0.603235  1
  Ho  Ho7  1  0.729330  0.541342  0.896766  1
  Cu  Cu8  1  0.796556  0.406890  0.250000  1
  Cu  Cu9  1  0.203445  0.593109  0.750000  1
  Se  Se10  1  0.642819  0.714364  0.047287  1
  Se  Se11  1  0.897572  0.204858  0.138819  1
  Se  Se12  1  0.199139  0.601720  0.250000  1
  Se  Se13  1  0.897572  0.204858  0.361181  1
  Se  Se14  1  0.642819  0.714364  0.452714  1
  Se  Se15  1  0.357182  0.285636  0.547286  1
  Se  Se16  1  0.102428  0.795142  0.638819  1
  Se  Se17  1  0.800862  0.398280  0.750000  1
  Se  Se18  1  0.102428  0.795142  0.861181  1
  Se  Se19  1  0.357182  0.285636  0.952714  1
