# generated using pymatgen
data_AlNi2Mo3C
_symmetry_space_group_name_H-M   'P 1'
_cell_length_a   7.92466817
_cell_length_b   7.92466756
_cell_length_c   7.92466700
_cell_angle_alpha   59.99999816
_cell_angle_beta   60.00000071
_cell_angle_gamma   60.00000275
_symmetry_Int_Tables_number   1
_chemical_formula_structural   AlNi2Mo3C
_chemical_formula_sum   'Al4 Ni8 Mo12 C4'
_cell_volume   351.90721247
_cell_formula_units_Z   4
loop_
 _symmetry_equiv_pos_site_id
 _symmetry_equiv_pos_as_xyz
  1  'x, y, z'
loop_
 _atom_site_type_symbol
 _atom_site_label
 _atom_site_symmetry_multiplicity
 _atom_site_fract_x
 _atom_site_fract_y
 _atom_site_fract_z
 _atom_site_occupancy
  Al  Al0  1  0.125000  0.125000  0.125000  1
  Al  Al1  1  0.625000  0.125000  0.125000  1
  Al  Al2  1  0.125000  0.125000  0.625000  1
  Al  Al3  1  0.125000  0.625000  0.125000  1
  Ni  Ni4  1  0.917516  0.917516  0.247452  1
  Ni  Ni5  1  0.332484  0.332484  0.332484  1
  Ni  Ni6  1  0.247452  0.917516  0.917516  1
  Ni  Ni7  1  0.332484  0.002548  0.332484  1
  Ni  Ni8  1  0.002548  0.332484  0.332484  1
  Ni  Ni9  1  0.332484  0.332484  0.002548  1
  Ni  Ni10  1  0.917516  0.917516  0.917516  1
  Ni  Ni11  1  0.917516  0.247452  0.917516  1
  Mo  Mo12  1  0.687444  0.312556  0.312556  1
  Mo  Mo13  1  0.937444  0.937444  0.562556  1
  Mo  Mo14  1  0.687444  0.687444  0.312556  1
  Mo  Mo15  1  0.687444  0.312556  0.687444  1
  Mo  Mo16  1  0.312556  0.687444  0.312556  1
  Mo  Mo17  1  0.562556  0.937444  0.562556  1
  Mo  Mo18  1  0.562556  0.937444  0.937444  1
  Mo  Mo19  1  0.937444  0.562556  0.562556  1
  Mo  Mo20  1  0.937444  0.562556  0.937444  1
  Mo  Mo21  1  0.312556  0.312556  0.687444  1
  Mo  Mo22  1  0.562556  0.562556  0.937444  1
  Mo  Mo23  1  0.312556  0.687444  0.687444  1
  C  C24  1  0.625000  0.625000  0.625000  1
  C  C25  1  0.625000  0.625000  0.125000  1
  C  C26  1  0.125000  0.625000  0.625000  1
  C  C27  1  0.625000  0.125000  0.625000  1
