# generated using pymatgen
data_SmErTm8(In2Pt)4
_symmetry_space_group_name_H-M   'P 1'
_cell_length_a   3.58233400
_cell_length_b   8.13665610
_cell_length_c   18.18783559
_cell_angle_alpha   89.82808651
_cell_angle_beta   90.00000000
_cell_angle_gamma   90.00000000
_symmetry_Int_Tables_number   1
_chemical_formula_structural   SmErTm8(In2Pt)4
_chemical_formula_sum   'Sm1 Er1 Tm8 In8 Pt4'
_cell_volume   530.14064310
_cell_formula_units_Z   1
loop_
 _symmetry_equiv_pos_site_id
 _symmetry_equiv_pos_as_xyz
  1  'x, y, z'
loop_
 _atom_site_type_symbol
 _atom_site_label
 _atom_site_symmetry_multiplicity
 _atom_site_fract_x
 _atom_site_fract_y
 _atom_site_fract_z
 _atom_site_occupancy
  Sm  Sm0  1  0.000000  0.000000  0.000000  1
  Er  Er1  1  0.000000  0.500000  0.500000  1
  Tm  Tm2  1  0.000000  0.116722  0.414670  1
  Tm  Tm3  1  0.000000  0.883278  0.585330  1
  Tm  Tm4  1  0.000000  0.380764  0.913758  1
  Tm  Tm5  1  0.000000  0.619236  0.086242  1
  Tm  Tm6  1  0.000000  0.242676  0.220925  1
  Tm  Tm7  1  0.000000  0.757324  0.779075  1
  Tm  Tm8  1  0.000000  0.257982  0.719664  1
  Tm  Tm9  1  0.000000  0.742018  0.280336  1
  In  In10  1  0.500000  0.422730  0.351310  1
  In  In11  1  0.500000  0.577270  0.648690  1
  In  In12  1  0.500000  0.077981  0.849033  1
  In  In13  1  0.500000  0.922019  0.150967  1
  In  In14  1  0.500000  0.297650  0.067287  1
  In  In15  1  0.500000  0.702350  0.932713  1
  In  In16  1  0.500000  0.207347  0.566345  1
  In  In17  1  0.500000  0.792653  0.433655  1
  Pt  Pt18  1  0.500000  0.024862  0.303968  1
  Pt  Pt19  1  0.500000  0.975138  0.696032  1
  Pt  Pt20  1  0.500000  0.475156  0.803084  1
  Pt  Pt21  1  0.500000  0.524844  0.196916  1
