# generated using pymatgen
data_GdPu2(GaNi)3
_symmetry_space_group_name_H-M   'P 1'
_cell_length_a   6.75769800
_cell_length_b   6.92148715
_cell_length_c   3.93891500
_cell_angle_alpha   90.00000000
_cell_angle_beta   90.00000000
_cell_angle_gamma   119.22023537
_symmetry_Int_Tables_number   1
_chemical_formula_structural   GdPu2(GaNi)3
_chemical_formula_sum   'Gd1 Pu2 Ga3 Ni3'
_cell_volume   160.79203269
_cell_formula_units_Z   1
loop_
 _symmetry_equiv_pos_site_id
 _symmetry_equiv_pos_as_xyz
  1  'x, y, z'
loop_
 _atom_site_type_symbol
 _atom_site_label
 _atom_site_symmetry_multiplicity
 _atom_site_fract_x
 _atom_site_fract_y
 _atom_site_fract_z
 _atom_site_occupancy
  Gd  Gd0  1  0.418282  0.000000  0.500000  1
  Pu  Pu1  1  0.002487  0.422838  0.500000  1
  Pu  Pu2  1  0.579649  0.577162  0.500000  1
  Ga  Ga3  1  0.757944  0.000000  0.000000  1
  Ga  Ga4  1  0.002087  0.763833  0.000000  1
  Ga  Ga5  1  0.238254  0.236167  0.000000  1
  Ni  Ni6  1  0.331927  0.654918  0.000000  1
  Ni  Ni7  1  0.677010  0.345082  0.000000  1
  Ni  Ni8  1  0.992359  0.000000  0.500000  1
