# generated using pymatgen
data_Er2TmMg3Ag2Os
_symmetry_space_group_name_H-M   'P 1'
_cell_length_a   7.55237513
_cell_length_b   7.54525091
_cell_length_c   4.09099500
_cell_angle_alpha   90.00000000
_cell_angle_beta   90.00000000
_cell_angle_gamma   119.96862178
_symmetry_Int_Tables_number   1
_chemical_formula_structural   Er2TmMg3Ag2Os
_chemical_formula_sum   'Er2 Tm1 Mg3 Ag2 Os1'
_cell_volume   201.95474041
_cell_formula_units_Z   1
loop_
 _symmetry_equiv_pos_site_id
 _symmetry_equiv_pos_as_xyz
  1  'x, y, z'
loop_
 _atom_site_type_symbol
 _atom_site_label
 _atom_site_symmetry_multiplicity
 _atom_site_fract_x
 _atom_site_fract_y
 _atom_site_fract_z
 _atom_site_occupancy
  Er  Er0  1  0.567897  0.961498  0.000000  1
  Er  Er1  1  0.038454  0.606054  0.000000  1
  Tm  Tm2  1  0.393374  0.432500  0.000000  1
  Mg  Mg3  1  0.253897  0.998705  0.500000  1
  Mg  Mg4  1  0.001939  0.255766  0.500000  1
  Mg  Mg5  1  0.744000  0.745588  0.500000  1
  Ag  Ag6  1  0.666334  0.333408  0.500000  1
  Ag  Ag7  1  0.000552  0.000304  0.000000  1
  Os  Os8  1  0.333552  0.666176  0.500000  1
