# generated using pymatgen
data_Yb3SmCu2Sn5
_symmetry_space_group_name_H-M   'P 1'
_cell_length_a   4.47811700
_cell_length_b   8.82196600
_cell_length_c   14.13105900
_cell_angle_alpha   90.00000000
_cell_angle_beta   90.00000000
_cell_angle_gamma   90.00000000
_symmetry_Int_Tables_number   1
_chemical_formula_structural   Yb3SmCu2Sn5
_chemical_formula_sum   'Yb6 Sm2 Cu4 Sn10'
_cell_volume   558.25873296
_cell_formula_units_Z   2
loop_
 _symmetry_equiv_pos_site_id
 _symmetry_equiv_pos_as_xyz
  1  'x, y, z'
loop_
 _atom_site_type_symbol
 _atom_site_label
 _atom_site_symmetry_multiplicity
 _atom_site_fract_x
 _atom_site_fract_y
 _atom_site_fract_z
 _atom_site_occupancy
  Yb  Yb0  1  0.500000  0.792601  0.742537  1
  Yb  Yb1  1  0.000000  0.207399  0.757463  1
  Yb  Yb2  1  0.000000  0.207399  0.242537  1
  Yb  Yb3  1  0.500000  0.138400  0.000000  1
  Yb  Yb4  1  0.000000  0.861600  0.500000  1
  Yb  Yb5  1  0.500000  0.792601  0.257463  1
  Sm  Sm6  1  0.500000  0.699807  0.000000  1
  Sm  Sm7  1  0.000000  0.300193  0.500000  1
  Cu  Cu8  1  0.500000  0.378478  0.645917  1
  Cu  Cu9  1  0.000000  0.621522  0.854083  1
  Cu  Cu10  1  0.000000  0.621522  0.145917  1
  Cu  Cu11  1  0.500000  0.378478  0.354083  1
  Sn  Sn12  1  0.500000  0.084374  0.395932  1
  Sn  Sn13  1  0.000000  0.555001  0.664271  1
  Sn  Sn14  1  0.000000  0.406208  0.000000  1
  Sn  Sn15  1  0.500000  0.444999  0.164271  1
  Sn  Sn16  1  0.500000  0.593792  0.500000  1
  Sn  Sn17  1  0.500000  0.444999  0.835729  1
  Sn  Sn18  1  0.000000  0.915626  0.895932  1
  Sn  Sn19  1  0.000000  0.555001  0.335729  1
  Sn  Sn20  1  0.500000  0.084374  0.604068  1
  Sn  Sn21  1  0.000000  0.915626  0.104068  1
