# generated using pymatgen
data_Tm2Pa2(Al8Pt3)3
_symmetry_space_group_name_H-M   'P 1'
_cell_length_a   7.57361061
_cell_length_b   7.58297930
_cell_length_c   13.11514465
_cell_angle_alpha   84.50181311
_cell_angle_beta   78.91215243
_cell_angle_gamma   59.92283674
_symmetry_Int_Tables_number   1
_chemical_formula_structural   Tm2Pa2(Al8Pt3)3
_chemical_formula_sum   'Tm2 Pa2 Al24 Pt9'
_cell_volume   639.62416988
_cell_formula_units_Z   1
loop_
 _symmetry_equiv_pos_site_id
 _symmetry_equiv_pos_as_xyz
  1  'x, y, z'
loop_
 _atom_site_type_symbol
 _atom_site_label
 _atom_site_symmetry_multiplicity
 _atom_site_fract_x
 _atom_site_fract_y
 _atom_site_fract_z
 _atom_site_occupancy
  Tm  Tm0  1  0.734183  0.498454  0.807315  1
  Tm  Tm1  1  0.265817  0.501546  0.192685  1
  Pa  Pa2  1  0.394817  0.168363  0.805521  1
  Pa  Pa3  1  0.605183  0.831637  0.194479  1
  Al  Al4  1  0.684374  0.833087  0.944113  1
  Al  Al5  1  0.315626  0.166913  0.055887  1
  Al  Al6  1  0.145694  0.832645  0.561386  1
  Al  Al7  1  0.854306  0.167355  0.438614  1
  Al  Al8  1  0.480098  0.167410  0.558304  1
  Al  Al9  1  0.519902  0.832590  0.441696  1
  Al  Al10  1  0.215350  0.167746  0.329939  1
  Al  Al11  1  0.784650  0.832254  0.670061  1
  Al  Al12  1  0.437526  0.508612  0.670784  1
  Al  Al13  1  0.562474  0.491388  0.329216  1
  Al  Al14  1  0.107465  0.160034  0.669090  1
  Al  Al15  1  0.892535  0.839966  0.330910  1
  Al  Al16  1  0.353887  0.499480  0.943491  1
  Al  Al17  1  0.646113  0.500520  0.056509  1
  Al  Al18  1  0.015443  0.168270  0.951704  1
  Al  Al19  1  0.984557  0.831730  0.048296  1
  Al  Al20  1  0.185893  0.500109  0.441218  1
  Al  Al21  1  0.814107  0.499891  0.558782  1
  Al  Al22  1  0.735311  0.162988  0.182756  1
  Al  Al23  1  0.264689  0.837012  0.817244  1
  Al  Al24  1  0.062511  0.630829  0.816040  1
  Al  Al25  1  0.937489  0.369171  0.183960  1
  Al  Al26  1  0.854819  0.041109  0.816787  1
  Al  Al27  1  0.145181  0.958891  0.183213  1
  Pt  Pt28  1  0.119310  0.491137  0.640225  1
  Pt  Pt29  1  0.880690  0.508863  0.359775  1
  Pt  Pt30  1  0.656677  0.172720  0.999844  1
  Pt  Pt31  1  0.343323  0.827280  0.000156  1
  Pt  Pt32  1  0.537104  0.166767  0.360206  1
  Pt  Pt33  1  0.462896  0.833233  0.639794  1
  Pt  Pt34  1  0.777881  0.175708  0.638712  1
  Pt  Pt35  1  0.222119  0.824292  0.361288  1
  Pt  Pt36  1  0.000000  0.500000  0.000000  1
