# generated using pymatgen
data_Pr5ZnBi3
_symmetry_space_group_name_H-M   'P 1'
_cell_length_a   9.72914100
_cell_length_b   9.72914052
_cell_length_c   6.72061600
_cell_angle_alpha   90.00000000
_cell_angle_beta   90.00000000
_cell_angle_gamma   119.99999822
_symmetry_Int_Tables_number   1
_chemical_formula_structural   Pr5ZnBi3
_chemical_formula_sum   'Pr10 Zn2 Bi6'
_cell_volume   550.92019767
_cell_formula_units_Z   2
loop_
 _symmetry_equiv_pos_site_id
 _symmetry_equiv_pos_as_xyz
  1  'x, y, z'
loop_
 _atom_site_type_symbol
 _atom_site_label
 _atom_site_symmetry_multiplicity
 _atom_site_fract_x
 _atom_site_fract_y
 _atom_site_fract_z
 _atom_site_occupancy
  Pr  Pr0  1  0.666667  0.333333  0.000000  1
  Pr  Pr1  1  0.333333  0.666667  0.000000  1
  Pr  Pr2  1  0.333333  0.666667  0.500000  1
  Pr  Pr3  1  0.666667  0.333333  0.500000  1
  Pr  Pr4  1  0.740130  0.740130  0.750000  1
  Pr  Pr5  1  0.259870  0.000000  0.750000  1
  Pr  Pr6  1  0.000000  0.259870  0.750000  1
  Pr  Pr7  1  0.259870  0.259870  0.250000  1
  Pr  Pr8  1  0.740130  0.000000  0.250000  1
  Pr  Pr9  1  0.000000  0.740130  0.250000  1
  Zn  Zn10  1  0.000000  0.000000  0.000000  1
  Zn  Zn11  1  0.000000  0.000000  0.500000  1
  Bi  Bi12  1  0.383712  0.383712  0.750000  1
  Bi  Bi13  1  0.616288  0.000000  0.750000  1
  Bi  Bi14  1  0.000000  0.616288  0.750000  1
  Bi  Bi15  1  0.616288  0.616288  0.250000  1
  Bi  Bi16  1  0.383712  0.000000  0.250000  1
  Bi  Bi17  1  0.000000  0.383712  0.250000  1
