# generated using pymatgen
data_Dy2Fe10P7W2
_symmetry_space_group_name_H-M   'P 1'
_cell_length_a   9.10579833
_cell_length_b   9.05161816
_cell_length_c   3.66721500
_cell_angle_alpha   90.00000000
_cell_angle_beta   90.00000000
_cell_angle_gamma   119.84192692
_symmetry_Int_Tables_number   1
_chemical_formula_structural   Dy2Fe10P7W2
_chemical_formula_sum   'Dy2 Fe10 P7 W2'
_cell_volume   262.18076161
_cell_formula_units_Z   1
loop_
 _symmetry_equiv_pos_site_id
 _symmetry_equiv_pos_as_xyz
  1  'x, y, z'
loop_
 _atom_site_type_symbol
 _atom_site_label
 _atom_site_symmetry_multiplicity
 _atom_site_fract_x
 _atom_site_fract_y
 _atom_site_fract_z
 _atom_site_occupancy
  Dy  Dy0  1  0.338394  0.665176  0.000000  1
  Dy  Dy1  1  0.663080  0.333171  0.500001  1
  Fe  Fe2  1  0.878644  0.786317  0.500001  1
  Fe  Fe3  1  0.155247  0.272742  0.000000  1
  Fe  Fe4  1  0.725287  0.879662  0.000000  1
  Fe  Fe5  1  0.116959  0.837947  0.000000  1
  Fe  Fe6  1  0.388602  0.438679  0.500001  1
  Fe  Fe7  1  0.564476  0.949260  0.500001  1
  Fe  Fe8  1  0.043948  0.611600  0.500001  1
  Fe  Fe9  1  0.427307  0.052124  0.000000  1
  Fe  Fe10  1  0.946156  0.378065  0.000000  1
  Fe  Fe11  1  0.632796  0.577181  0.000000  1
  P  P12  1  0.125513  0.411054  0.500001  1
  P  P13  1  0.600200  0.711289  0.500001  1
  P  P14  1  0.289574  0.875865  0.500001  1
  P  P15  1  0.995244  0.990640  0.000000  1
  P  P16  1  0.415282  0.308468  0.000000  1
  P  P17  1  0.695452  0.111100  0.000000  1
  P  P18  1  0.881061  0.591246  0.000000  1
  W  W19  1  0.220022  0.100838  0.500001  1
  W  W20  1  0.896752  0.117577  0.500001  1
