# generated using pymatgen
data_Lu4SiRh7Au5
_symmetry_space_group_name_H-M   'P 1'
_cell_length_a   7.26105748
_cell_length_b   7.26105879
_cell_length_c   7.26105746
_cell_angle_alpha   108.57219696
_cell_angle_beta   109.92258724
_cell_angle_gamma   109.92259502
_symmetry_Int_Tables_number   1
_chemical_formula_structural   Lu4SiRh7Au5
_chemical_formula_sum   'Lu4 Si1 Rh7 Au5'
_cell_volume   294.64412967
_cell_formula_units_Z   1
loop_
 _symmetry_equiv_pos_site_id
 _symmetry_equiv_pos_as_xyz
  1  'x, y, z'
loop_
 _atom_site_type_symbol
 _atom_site_label
 _atom_site_symmetry_multiplicity
 _atom_site_fract_x
 _atom_site_fract_y
 _atom_site_fract_z
 _atom_site_occupancy
  Lu  Lu0  1  0.985490  0.992745  0.492745  1
  Lu  Lu1  1  0.014510  0.507255  0.007255  1
  Lu  Lu2  1  0.500000  0.992745  0.007255  1
  Lu  Lu3  1  0.500000  0.507255  0.492745  1
  Si  Si4  1  0.000000  0.000000  0.000000  1
  Rh  Rh5  1  0.500000  0.750000  0.250000  1
  Rh  Rh6  1  0.727885  0.727723  0.999838  1
  Rh  Rh7  1  0.272115  0.000162  0.272277  1
  Rh  Rh8  1  0.000000  0.268848  0.268848  1
  Rh  Rh9  1  0.272115  0.271953  0.999838  1
  Rh  Rh10  1  0.727885  0.000162  0.728047  1
  Rh  Rh11  1  0.000000  0.731152  0.731152  1
  Au  Au12  1  0.749418  0.250871  0.501453  1
  Au  Au13  1  0.749418  0.498547  0.247965  1
  Au  Au14  1  0.500000  0.250000  0.750000  1
  Au  Au15  1  0.250582  0.498547  0.749129  1
  Au  Au16  1  0.250582  0.752035  0.501453  1
