# generated using pymatgen
data_CeTh7(Ta3Si4)4
_symmetry_space_group_name_H-M   'P 1'
_cell_length_a   7.16099602
_cell_length_b   7.15922639
_cell_length_c   13.35737270
_cell_angle_alpha   90.03695737
_cell_angle_beta   90.00273957
_cell_angle_gamma   90.00767355
_symmetry_Int_Tables_number   1
_chemical_formula_structural   CeTh7(Ta3Si4)4
_chemical_formula_sum   'Ce1 Th7 Ta12 Si16'
_cell_volume   684.79483682
_cell_formula_units_Z   1
loop_
 _symmetry_equiv_pos_site_id
 _symmetry_equiv_pos_as_xyz
  1  'x, y, z'
loop_
 _atom_site_type_symbol
 _atom_site_label
 _atom_site_symmetry_multiplicity
 _atom_site_fract_x
 _atom_site_fract_y
 _atom_site_fract_z
 _atom_site_occupancy
  Ce  Ce0  1  0.999163  0.337502  0.218010  1
  Th  Th1  1  0.001278  0.663131  0.718491  1
  Th  Th2  1  0.162831  0.498469  0.467773  1
  Th  Th3  1  0.501333  0.836945  0.032373  1
  Th  Th4  1  0.837198  0.500847  0.968691  1
  Th  Th5  1  0.499138  0.163170  0.531422  1
  Th  Th6  1  0.336821  0.998703  0.781816  1
  Th  Th7  1  0.664343  0.002478  0.281116  1
  Ta  Ta8  1  0.167520  0.168719  0.000611  1
  Ta  Ta9  1  0.831936  0.831990  0.499717  1
  Ta  Ta10  1  0.332377  0.668775  0.249864  1
  Ta  Ta11  1  0.668087  0.331841  0.750121  1
  Ta  Ta12  1  0.160042  0.994732  0.373937  1
  Ta  Ta13  1  0.839380  0.005051  0.874032  1
  Ta  Ta14  1  0.504279  0.660698  0.624087  1
  Ta  Ta15  1  0.339090  0.495283  0.876105  1
  Ta  Ta16  1  0.495143  0.339496  0.123872  1
  Ta  Ta17  1  0.660969  0.504363  0.375732  1
  Ta  Ta18  1  0.995166  0.160700  0.625955  1
  Ta  Ta19  1  0.005312  0.838813  0.125750  1
  Si  Si20  1  0.286744  0.041927  0.186537  1
  Si  Si21  1  0.711085  0.960671  0.686058  1
  Si  Si22  1  0.460721  0.789033  0.435792  1
  Si  Si23  1  0.209285  0.537378  0.065393  1
  Si  Si24  1  0.539502  0.211204  0.936543  1
  Si  Si25  1  0.789010  0.460833  0.563645  1
  Si  Si26  1  0.039521  0.289089  0.814047  1
  Si  Si27  1  0.961278  0.707915  0.312724  1
  Si  Si28  1  0.373013  0.299647  0.312760  1
  Si  Si29  1  0.623984  0.700764  0.814221  1
  Si  Si30  1  0.200826  0.875983  0.563852  1
  Si  Si31  1  0.123951  0.799025  0.936338  1
  Si  Si32  1  0.800970  0.125665  0.065338  1
  Si  Si33  1  0.876816  0.201470  0.435190  1
  Si  Si34  1  0.298754  0.376096  0.685843  1
  Si  Si35  1  0.703136  0.621593  0.186242  1
