# generated using pymatgen
data_Ho9Tm(SiPb3)2
_symmetry_space_group_name_H-M   'P 1'
_cell_length_a   9.28039500
_cell_length_b   9.28039540
_cell_length_c   6.48935300
_cell_angle_alpha   90.00000000
_cell_angle_beta   90.00000000
_cell_angle_gamma   120.00000214
_symmetry_Int_Tables_number   1
_chemical_formula_structural   Ho9Tm(SiPb3)2
_chemical_formula_sum   'Ho9 Tm1 Si2 Pb6'
_cell_volume   484.02184514
_cell_formula_units_Z   1
loop_
 _symmetry_equiv_pos_site_id
 _symmetry_equiv_pos_as_xyz
  1  'x, y, z'
loop_
 _atom_site_type_symbol
 _atom_site_label
 _atom_site_symmetry_multiplicity
 _atom_site_fract_x
 _atom_site_fract_y
 _atom_site_fract_z
 _atom_site_occupancy
  Ho  Ho0  1  0.666667  0.333333  0.500000  1
  Ho  Ho1  1  0.333333  0.666667  0.500000  1
  Ho  Ho2  1  0.333333  0.666667  0.000000  1
  Ho  Ho3  1  0.750484  0.750412  0.250366  1
  Ho  Ho4  1  0.249588  0.000072  0.250366  1
  Ho  Ho5  1  0.999928  0.249516  0.250366  1
  Ho  Ho6  1  0.249588  0.249516  0.749634  1
  Ho  Ho7  1  0.750484  0.000072  0.749634  1
  Ho  Ho8  1  0.999928  0.750412  0.749634  1
  Tm  Tm9  1  0.666667  0.333333  0.000000  1
  Si  Si10  1  0.000000  0.000000  0.500000  1
  Si  Si11  1  0.000000  0.000000  0.000000  1
  Pb  Pb12  1  0.392886  0.392763  0.250009  1
  Pb  Pb13  1  0.607237  0.000123  0.250009  1
  Pb  Pb14  1  0.999877  0.607114  0.250009  1
  Pb  Pb15  1  0.607237  0.607114  0.749991  1
  Pb  Pb16  1  0.392886  0.000123  0.749991  1
  Pb  Pb17  1  0.999877  0.392763  0.749991  1
