# generated using pymatgen
data_YLuBe25Co
_symmetry_space_group_name_H-M   'P 1'
_cell_length_a   7.21097961
_cell_length_b   7.19115945
_cell_length_c   7.25689119
_cell_angle_alpha   59.87783077
_cell_angle_beta   59.62962893
_cell_angle_gamma   59.91576013
_symmetry_Int_Tables_number   1
_chemical_formula_structural   YLuBe25Co
_chemical_formula_sum   'Y1 Lu1 Be25 Co1'
_cell_volume   264.92494999
_cell_formula_units_Z   1
loop_
 _symmetry_equiv_pos_site_id
 _symmetry_equiv_pos_as_xyz
  1  'x, y, z'
loop_
 _atom_site_type_symbol
 _atom_site_label
 _atom_site_symmetry_multiplicity
 _atom_site_fract_x
 _atom_site_fract_y
 _atom_site_fract_z
 _atom_site_occupancy
  Y  Y0  1  0.252921  0.249793  0.245219  1
  Lu  Lu1  1  0.749983  0.745571  0.748248  1
  Be  Be2  1  0.932867  0.066286  0.712610  1
  Be  Be3  1  0.298326  0.702922  0.058748  1
  Be  Be4  1  0.064606  0.934322  0.292818  1
  Be  Be5  1  0.706470  0.939193  0.062430  1
  Be  Be6  1  0.708748  0.063242  0.293490  1
  Be  Be7  1  0.060043  0.294713  0.708752  1
  Be  Be8  1  0.935818  0.292213  0.064546  1
  Be  Be9  1  0.939989  0.705846  0.292109  1
  Be  Be10  1  0.294112  0.937757  0.704265  1
  Be  Be11  1  0.295092  0.058974  0.937101  1
  Be  Be12  1  0.061349  0.706738  0.935284  1
  Be  Be13  1  0.788788  0.436715  0.565483  1
  Be  Be14  1  0.564399  0.210340  0.790094  1
  Be  Be15  1  0.208523  0.565644  0.437063  1
  Be  Be16  1  0.435155  0.790529  0.210508  1
  Be  Be17  1  0.792692  0.206338  0.436853  1
  Be  Be18  1  0.789691  0.565793  0.214407  1
  Be  Be19  1  0.434642  0.566319  0.785390  1
  Be  Be20  1  0.564495  0.788901  0.435430  1
  Be  Be21  1  0.566650  0.434371  0.210251  1
  Be  Be22  1  0.210328  0.436352  0.788056  1
  Be  Be23  1  0.207734  0.791270  0.566043  1
  Be  Be24  1  0.434941  0.209391  0.570504  1
  Be  Be25  1  0.997095  0.002956  0.998437  1
  Be  Be26  1  0.501166  0.498884  0.497056  1
  Co  Co27  1  0.703375  0.298625  0.938802  1
