# generated using pymatgen
data_CaSb12(OsRh)2
_symmetry_space_group_name_H-M   'P 1'
_cell_length_a   8.17254403
_cell_length_b   8.15273370
_cell_length_c   8.15273327
_cell_angle_alpha   109.38613835
_cell_angle_beta   109.47137107
_cell_angle_gamma   109.45775911
_symmetry_Int_Tables_number   1
_chemical_formula_structural   CaSb12(OsRh)2
_chemical_formula_sum   'Ca1 Sb12 Os2 Rh2'
_cell_volume   418.66620750
_cell_formula_units_Z   1
loop_
 _symmetry_equiv_pos_site_id
 _symmetry_equiv_pos_as_xyz
  1  'x, y, z'
loop_
 _atom_site_type_symbol
 _atom_site_label
 _atom_site_symmetry_multiplicity
 _atom_site_fract_x
 _atom_site_fract_y
 _atom_site_fract_z
 _atom_site_occupancy
  Ca  Ca0  1  0.000000  0.000000  0.000000  1
  Sb  Sb1  1  0.844436  0.660324  0.503680  1
  Sb  Sb2  1  0.155564  0.339676  0.496320  1
  Sb  Sb3  1  0.155564  0.659244  0.815888  1
  Sb  Sb4  1  0.844436  0.340756  0.184112  1
  Sb  Sb5  1  0.660773  0.503419  0.844723  1
  Sb  Sb6  1  0.339227  0.496581  0.155277  1
  Sb  Sb7  1  0.660773  0.816049  0.157353  1
  Sb  Sb8  1  0.339227  0.183951  0.842647  1
  Sb  Sb9  1  0.503451  0.844606  0.658845  1
  Sb  Sb10  1  0.496549  0.155394  0.341155  1
  Sb  Sb11  1  0.181899  0.842944  0.338956  1
  Sb  Sb12  1  0.818101  0.157056  0.661044  1
  Os  Os13  1  0.000000  0.500000  0.000000  1
  Os  Os14  1  0.000000  0.000000  0.500000  1
  Rh  Rh15  1  0.500000  0.500000  0.500000  1
  Rh  Rh16  1  0.500000  0.000000  0.000000  1
