# generated using pymatgen
data_Dy20IrRu3Rh8
_symmetry_space_group_name_H-M   'P 1'
_cell_length_a   10.85616185
_cell_length_b   10.85633587
_cell_length_c   6.41432012
_cell_angle_alpha   90.01654772
_cell_angle_beta   90.01463645
_cell_angle_gamma   90.04291702
_symmetry_Int_Tables_number   1
_chemical_formula_structural   Dy20IrRu3Rh8
_chemical_formula_sum   'Dy20 Ir1 Ru3 Rh8'
_cell_volume   755.97956616
_cell_formula_units_Z   1
loop_
 _symmetry_equiv_pos_site_id
 _symmetry_equiv_pos_as_xyz
  1  'x, y, z'
loop_
 _atom_site_type_symbol
 _atom_site_label
 _atom_site_symmetry_multiplicity
 _atom_site_fract_x
 _atom_site_fract_y
 _atom_site_fract_z
 _atom_site_occupancy
  Dy  Dy0  1  0.294324  0.086682  0.378067  1
  Dy  Dy1  1  0.294341  0.912245  0.878057  1
  Dy  Dy2  1  0.705639  0.086165  0.878555  1
  Dy  Dy3  1  0.705552  0.913189  0.377929  1
  Dy  Dy4  1  0.585057  0.793852  0.877924  1
  Dy  Dy5  1  0.586820  0.205740  0.378236  1
  Dy  Dy6  1  0.412678  0.793764  0.379358  1
  Dy  Dy7  1  0.413461  0.205526  0.878251  1
  Dy  Dy8  1  0.208373  0.413560  0.624769  1
  Dy  Dy9  1  0.207999  0.588350  0.118251  1
  Dy  Dy10  1  0.792542  0.412065  0.118979  1
  Dy  Dy11  1  0.792275  0.587873  0.624280  1
  Dy  Dy12  1  0.912171  0.707447  0.119100  1
  Dy  Dy13  1  0.912291  0.292124  0.624433  1
  Dy  Dy14  1  0.089178  0.707876  0.624721  1
  Dy  Dy15  1  0.087904  0.292606  0.119410  1
  Dy  Dy16  1  0.000009  0.999936  0.499047  1
  Dy  Dy17  1  0.000138  0.999897  0.999159  1
  Dy  Dy18  1  0.499858  0.500249  0.999082  1
  Dy  Dy19  1  0.499703  0.500094  0.498814  1
  Ir  Ir20  1  0.346831  0.652346  0.749680  1
  Ru  Ru21  1  0.500368  0.000539  0.124372  1
  Ru  Ru22  1  0.500310  0.000634  0.623809  1
  Ru  Ru23  1  0.999306  0.499687  0.877369  1
  Rh  Rh24  1  0.848338  0.153317  0.250476  1
  Rh  Rh25  1  0.847795  0.846935  0.749527  1
  Rh  Rh26  1  0.152208  0.153139  0.750047  1
  Rh  Rh27  1  0.151294  0.847120  0.250476  1
  Rh  Rh28  1  0.653074  0.347863  0.749815  1
  Rh  Rh29  1  0.653970  0.651576  0.250436  1
  Rh  Rh30  1  0.346644  0.347758  0.250147  1
  Rh  Rh31  1  0.999549  0.499845  0.377424  1
