# generated using pymatgen
data_Li8La4Er4Si7Bi
_symmetry_space_group_name_H-M   'P 1'
_cell_length_a   8.98172707
_cell_length_b   8.98173266
_cell_length_c   7.39563303
_cell_angle_alpha   89.99948605
_cell_angle_beta   89.99936715
_cell_angle_gamma   120.00210645
_symmetry_Int_Tables_number   1
_chemical_formula_structural   Li8La4Er4Si7Bi
_chemical_formula_sum   'Li8 La4 Er4 Si7 Bi1'
_cell_volume   516.67416275
_cell_formula_units_Z   1
loop_
 _symmetry_equiv_pos_site_id
 _symmetry_equiv_pos_as_xyz
  1  'x, y, z'
loop_
 _atom_site_type_symbol
 _atom_site_label
 _atom_site_symmetry_multiplicity
 _atom_site_fract_x
 _atom_site_fract_y
 _atom_site_fract_z
 _atom_site_occupancy
  Li  Li0  1  0.160689  0.321527  0.294334  1
  Li  Li1  1  0.160721  0.839332  0.293737  1
  Li  Li2  1  0.678767  0.839424  0.294712  1
  Li  Li3  1  0.666637  0.333383  0.323031  1
  Li  Li4  1  0.834106  0.668039  0.692257  1
  Li  Li5  1  0.331947  0.165947  0.692491  1
  Li  Li6  1  0.834167  0.165913  0.692295  1
  Li  Li7  1  0.333376  0.666619  0.750577  1
  La  La8  1  0.999741  0.000002  0.999243  1
  La  La9  1  0.509846  0.019582  0.997681  1
  La  La10  1  0.509782  0.490113  0.997613  1
  La  La11  1  0.980359  0.490158  0.997741  1
  Er  Er12  1  0.000129  0.999989  0.503073  1
  Er  Er13  1  0.500057  0.000283  0.508482  1
  Er  Er14  1  0.999726  0.499910  0.508519  1
  Er  Er15  1  0.500088  0.499808  0.508502  1
  Si  Si16  1  0.832285  0.664642  0.277121  1
  Si  Si17  1  0.335367  0.167717  0.277052  1
  Si  Si18  1  0.832259  0.167732  0.277194  1
  Si  Si19  1  0.666652  0.333300  0.723370  1
  Si  Si20  1  0.166841  0.333699  0.732503  1
  Si  Si21  1  0.166837  0.833111  0.732714  1
  Si  Si22  1  0.666263  0.833112  0.732445  1
  Bi  Bi23  1  0.333358  0.666657  0.251297  1
