# generated using pymatgen
data_Dy4Zn2OsRu5
_symmetry_space_group_name_H-M   'P 1'
_cell_length_a   5.39988792
_cell_length_b   5.25684662
_cell_length_c   8.84910500
_cell_angle_alpha   90.00000000
_cell_angle_beta   90.00000000
_cell_angle_gamma   120.23666158
_symmetry_Int_Tables_number   1
_chemical_formula_structural   Dy4Zn2OsRu5
_chemical_formula_sum   'Dy4 Zn2 Os1 Ru5'
_cell_volume   217.01981843
_cell_formula_units_Z   1
loop_
 _symmetry_equiv_pos_site_id
 _symmetry_equiv_pos_as_xyz
  1  'x, y, z'
loop_
 _atom_site_type_symbol
 _atom_site_label
 _atom_site_symmetry_multiplicity
 _atom_site_fract_x
 _atom_site_fract_y
 _atom_site_fract_z
 _atom_site_occupancy
  Dy  Dy0  1  0.672490  0.337169  0.567952  1
  Dy  Dy1  1  0.340279  0.670819  0.442193  1
  Dy  Dy2  1  0.340279  0.670819  0.057807  1
  Dy  Dy3  1  0.672490  0.337169  0.932048  1
  Zn  Zn4  1  0.817694  0.657443  0.250000  1
  Zn  Zn5  1  0.819130  0.163394  0.250000  1
  Os  Os6  1  0.164392  0.327203  0.750000  1
  Ru  Ru7  1  0.019774  0.016501  0.499714  1
  Ru  Ru8  1  0.019774  0.016501  0.000286  1
  Ru  Ru9  1  0.166939  0.825943  0.750000  1
  Ru  Ru10  1  0.646153  0.817671  0.750000  1
  Ru  Ru11  1  0.320605  0.159368  0.250000  1
