# generated using pymatgen
data_CsPrDy9(C2Br9)2
_symmetry_space_group_name_H-M   'P 1'
_cell_length_a   10.73397583
_cell_length_b   10.82583393
_cell_length_c   10.95593211
_cell_angle_alpha   113.43602796
_cell_angle_beta   87.44265075
_cell_angle_gamma   118.77716417
_symmetry_Int_Tables_number   1
_chemical_formula_structural   CsPrDy9(C2Br9)2
_chemical_formula_sum   'Cs1 Pr1 Dy9 C4 Br18'
_cell_volume   1006.62316401
_cell_formula_units_Z   1
loop_
 _symmetry_equiv_pos_site_id
 _symmetry_equiv_pos_as_xyz
  1  'x, y, z'
loop_
 _atom_site_type_symbol
 _atom_site_label
 _atom_site_symmetry_multiplicity
 _atom_site_fract_x
 _atom_site_fract_y
 _atom_site_fract_z
 _atom_site_occupancy
  Cs  Cs0  1  0.500183  0.000908  0.500011  1
  Pr  Pr1  1  0.654591  0.714243  0.697796  1
  Dy  Dy2  1  0.281441  0.362951  0.012746  1
  Dy  Dy3  1  0.091928  0.404035  0.298918  1
  Dy  Dy4  1  0.960733  0.037271  0.332247  1
  Dy  Dy5  1  0.906858  0.594814  0.699956  1
  Dy  Dy6  1  0.112534  0.942560  0.001910  1
  Dy  Dy7  1  0.040927  0.963658  0.668797  1
  Dy  Dy8  1  0.336176  0.281389  0.296057  1
  Dy  Dy9  1  0.719956  0.637619  0.988534  1
  Dy  Dy10  1  0.888685  0.057801  0.998670  1
  C  C11  1  0.156620  0.226811  0.123233  1
  C  C12  1  0.847000  0.774612  0.878878  1
  C  C13  1  0.925481  0.853331  0.799053  1
  C  C14  1  0.078079  0.148021  0.203392  1
  Br  Br15  1  0.448681  0.526924  0.839101  1
  Br  Br16  1  0.382261  0.039431  0.159058  1
  Br  Br17  1  0.783790  0.862123  0.498798  1
  Br  Br18  1  0.839471  0.311291  0.154683  1
  Br  Br19  1  0.547141  0.468545  0.166405  1
  Br  Br20  1  0.221260  0.142780  0.497356  1
  Br  Br21  1  0.314167  0.099538  0.829620  1
  Br  Br22  1  0.686628  0.900755  0.170278  1
  Br  Br23  1  0.974431  0.761628  0.172602  1
  Br  Br24  1  0.934091  0.301934  0.499703  1
  Br  Br25  1  0.025920  0.238158  0.827951  1
  Br  Br26  1  0.066320  0.698188  0.500293  1
  Br  Br27  1  0.259208  0.620592  0.186598  1
  Br  Br28  1  0.740615  0.379633  0.813544  1
  Br  Br29  1  0.639376  0.422442  0.492699  1
  Br  Br30  1  0.161086  0.689676  0.846104  1
  Br  Br31  1  0.618111  0.973327  0.848457  1
  Br  Br32  1  0.356249  0.563010  0.496552  1
