# generated using pymatgen
data_Sc3MnB7
_symmetry_space_group_name_H-M   'P 1'
_cell_length_a   7.60475134
_cell_length_b   7.60475045
_cell_length_c   8.95560600
_cell_angle_alpha   90.00000000
_cell_angle_beta   90.00000000
_cell_angle_gamma   155.36897219
_symmetry_Int_Tables_number   1
_chemical_formula_structural   Sc3MnB7
_chemical_formula_sum   'Sc6 Mn2 B14'
_cell_volume   215.85626658
_cell_formula_units_Z   2
loop_
 _symmetry_equiv_pos_site_id
 _symmetry_equiv_pos_as_xyz
  1  'x, y, z'
loop_
 _atom_site_type_symbol
 _atom_site_label
 _atom_site_symmetry_multiplicity
 _atom_site_fract_x
 _atom_site_fract_y
 _atom_site_fract_z
 _atom_site_occupancy
  Sc  Sc0  1  0.893866  0.106134  0.442258  1
  Sc  Sc1  1  0.106134  0.893866  0.557742  1
  Sc  Sc2  1  0.893866  0.106134  0.057742  1
  Sc  Sc3  1  0.106134  0.893866  0.942258  1
  Sc  Sc4  1  0.244466  0.755534  0.250000  1
  Sc  Sc5  1  0.755534  0.244466  0.750000  1
  Mn  Mn6  1  0.051028  0.948972  0.250000  1
  Mn  Mn7  1  0.948972  0.051028  0.750000  1
  B  B8  1  0.728225  0.271775  0.467264  1
  B  B9  1  0.271775  0.728225  0.532736  1
  B  B10  1  0.728225  0.271775  0.032736  1
  B  B11  1  0.271775  0.728225  0.967264  1
  B  B12  1  0.632273  0.367727  0.150649  1
  B  B13  1  0.367727  0.632273  0.849351  1
  B  B14  1  0.632273  0.367727  0.349351  1
  B  B15  1  0.367727  0.632273  0.650649  1
  B  B16  1  0.517911  0.482089  0.094466  1
  B  B17  1  0.482089  0.517911  0.905534  1
  B  B18  1  0.517911  0.482089  0.405534  1
  B  B19  1  0.482089  0.517911  0.594466  1
  B  B20  1  0.448318  0.551682  0.250000  1
  B  B21  1  0.551682  0.448318  0.750000  1
