# generated using pymatgen
data_La3Pr3(OsI3)2
_symmetry_space_group_name_H-M   'P 1'
_cell_length_a   4.38256700
_cell_length_b   9.46724191
_cell_length_c   12.75958143
_cell_angle_alpha   86.89340048
_cell_angle_beta   90.00000000
_cell_angle_gamma   90.00000000
_symmetry_Int_Tables_number   1
_chemical_formula_structural   La3Pr3(OsI3)2
_chemical_formula_sum   'La3 Pr3 Os2 I6'
_cell_volume   528.62752573
_cell_formula_units_Z   1
loop_
 _symmetry_equiv_pos_site_id
 _symmetry_equiv_pos_as_xyz
  1  'x, y, z'
loop_
 _atom_site_type_symbol
 _atom_site_label
 _atom_site_symmetry_multiplicity
 _atom_site_fract_x
 _atom_site_fract_y
 _atom_site_fract_z
 _atom_site_occupancy
  La  La0  1  0.750000  0.689555  0.118320  1
  La  La1  1  0.250000  0.885024  0.329677  1
  La  La2  1  0.250000  0.308145  0.881028  1
  Pr  Pr3  1  0.250000  0.905790  0.891905  1
  Pr  Pr4  1  0.750000  0.115650  0.667661  1
  Pr  Pr5  1  0.750000  0.096679  0.108058  1
  Os  Os6  1  0.250000  0.886069  0.124559  1
  Os  Os7  1  0.750000  0.112451  0.879841  1
  I  I8  1  0.250000  0.394475  0.134732  1
  I  I9  1  0.750000  0.134416  0.381191  1
  I  I10  1  0.750000  0.605645  0.865360  1
  I  I11  1  0.250000  0.362021  0.621862  1
  I  I12  1  0.750000  0.633597  0.376588  1
  I  I13  1  0.250000  0.870482  0.619216  1
