# generated using pymatgen
data_Ti5NbCo15Si7Pd
_symmetry_space_group_name_H-M   'P 1'
_cell_length_a   7.89535873
_cell_length_b   7.90067911
_cell_length_c   7.91756616
_cell_angle_alpha   60.12680317
_cell_angle_beta   60.09257440
_cell_angle_gamma   60.02212724
_symmetry_Int_Tables_number   1
_chemical_formula_structural   Ti5NbCo15Si7Pd
_chemical_formula_sum   'Ti5 Nb1 Co15 Si7 Pd1'
_cell_volume   349.86764301
_cell_formula_units_Z   1
loop_
 _symmetry_equiv_pos_site_id
 _symmetry_equiv_pos_as_xyz
  1  'x, y, z'
loop_
 _atom_site_type_symbol
 _atom_site_label
 _atom_site_symmetry_multiplicity
 _atom_site_fract_x
 _atom_site_fract_y
 _atom_site_fract_z
 _atom_site_occupancy
  Ti  Ti0  1  0.802430  0.803656  0.200950  1
  Ti  Ti1  1  0.803141  0.193466  0.200252  1
  Ti  Ti2  1  0.201720  0.202932  0.795194  1
  Ti  Ti3  1  0.800154  0.202932  0.795194  1
  Ti  Ti4  1  0.192963  0.803657  0.200949  1
  Nb  Nb5  1  0.199767  0.802885  0.797580  1
  Co  Co6  1  0.165093  0.501030  0.168783  1
  Co  Co7  1  0.858907  0.378132  0.384632  1
  Co  Co8  1  0.496034  0.836967  0.831014  1
  Co  Co9  1  0.501535  0.164725  0.168222  1
  Co  Co10  1  0.834460  0.833838  0.497242  1
  Co  Co11  1  0.167530  0.168185  0.496754  1
  Co  Co12  1  0.141710  0.619098  0.619280  1
  Co  Co13  1  0.165518  0.164725  0.168222  1
  Co  Co14  1  0.379471  0.378751  0.862306  1
  Co  Co15  1  0.619912  0.619098  0.619280  1
  Co  Co16  1  0.378663  0.857979  0.384695  1
  Co  Co17  1  0.378328  0.378133  0.384632  1
  Co  Co18  1  0.835985  0.836968  0.831014  1
  Co  Co19  1  0.619746  0.141214  0.619294  1
  Co  Co20  1  0.837269  0.494653  0.830809  1
  Si  Si21  1  0.502612  0.001018  0.498572  1
  Si  Si22  1  0.500573  0.497003  0.993330  1
  Si  Si23  1  0.494642  0.493371  0.517345  1
  Si  Si24  1  0.997797  0.001019  0.498572  1
  Si  Si25  1  0.009094  0.497003  0.993329  1
  Si  Si26  1  0.999592  0.501018  0.499798  1
  Si  Si27  1  0.498925  0.010327  0.991822  1
  Pd  Pd28  1  0.616426  0.616216  0.150931  1
