# generated using pymatgen
data_Tb3Dy12Th(CdNi)4
_symmetry_space_group_name_H-M   'P 1'
_cell_length_a   9.56939435
_cell_length_b   9.56939427
_cell_length_c   9.56939409
_cell_angle_alpha   60.07813826
_cell_angle_beta   60.07814691
_cell_angle_gamma   60.07813591
_symmetry_Int_Tables_number   1
_chemical_formula_structural   Tb3Dy12Th(CdNi)4
_chemical_formula_sum   'Tb3 Dy12 Th1 Cd4 Ni4'
_cell_volume   620.73565958
_cell_formula_units_Z   1
loop_
 _symmetry_equiv_pos_site_id
 _symmetry_equiv_pos_as_xyz
  1  'x, y, z'
loop_
 _atom_site_type_symbol
 _atom_site_label
 _atom_site_symmetry_multiplicity
 _atom_site_fract_x
 _atom_site_fract_y
 _atom_site_fract_z
 _atom_site_occupancy
  Tb  Tb0  1  0.598717  0.598717  0.200910  1
  Tb  Tb1  1  0.598717  0.200910  0.598717  1
  Tb  Tb2  1  0.200910  0.598717  0.598717  1
  Dy  Dy3  1  0.062579  0.439035  0.439035  1
  Dy  Dy4  1  0.439475  0.062185  0.062185  1
  Dy  Dy5  1  0.439035  0.062579  0.439035  1
  Dy  Dy6  1  0.062185  0.439475  0.062185  1
  Dy  Dy7  1  0.439035  0.439035  0.062579  1
  Dy  Dy8  1  0.062185  0.062185  0.439475  1
  Dy  Dy9  1  0.187604  0.814778  0.814778  1
  Dy  Dy10  1  0.813352  0.186080  0.186080  1
  Dy  Dy11  1  0.814778  0.187604  0.814778  1
  Dy  Dy12  1  0.186080  0.813352  0.186080  1
  Dy  Dy13  1  0.814778  0.814778  0.187604  1
  Dy  Dy14  1  0.186080  0.186080  0.813352  1
  Th  Th15  1  0.594261  0.594261  0.594261  1
  Cd  Cd16  1  0.830775  0.830775  0.830775  1
  Cd  Cd17  1  0.831987  0.831987  0.505557  1
  Cd  Cd18  1  0.831987  0.505557  0.831987  1
  Cd  Cd19  1  0.505557  0.831987  0.831987  1
  Ni  Ni20  1  0.392726  0.392726  0.392726  1
  Ni  Ni21  1  0.392922  0.392922  0.821352  1
  Ni  Ni22  1  0.392922  0.821352  0.392922  1
  Ni  Ni23  1  0.821352  0.392922  0.392922  1
