# generated using pymatgen
data_Ce2Sm5Sc3Si8O3
_symmetry_space_group_name_H-M   'P 1'
_cell_length_a   10.44047033
_cell_length_b   10.44047048
_cell_length_c   4.27717600
_cell_angle_alpha   90.00000000
_cell_angle_beta   90.00000000
_cell_angle_gamma   120.20268873
_symmetry_Int_Tables_number   1
_chemical_formula_structural   Ce2Sm5Sc3Si8O3
_chemical_formula_sum   'Ce2 Sm5 Sc3 Si8 O3'
_cell_volume   402.93708822
_cell_formula_units_Z   1
loop_
 _symmetry_equiv_pos_site_id
 _symmetry_equiv_pos_as_xyz
  1  'x, y, z'
loop_
 _atom_site_type_symbol
 _atom_site_label
 _atom_site_symmetry_multiplicity
 _atom_site_fract_x
 _atom_site_fract_y
 _atom_site_fract_z
 _atom_site_occupancy
  Ce  Ce0  1  0.000067  0.999933  0.000000  1
  Ce  Ce1  1  0.785872  0.214128  0.000000  1
  Sm  Sm2  1  0.214017  0.785983  0.000000  1
  Sm  Sm3  1  0.214228  0.428125  0.000000  1
  Sm  Sm4  1  0.785578  0.572369  0.000000  1
  Sm  Sm5  1  0.427631  0.214422  0.000000  1
  Sm  Sm6  1  0.571875  0.785772  0.000000  1
  Sc  Sc7  1  0.499643  0.999564  0.500000  1
  Sc  Sc8  1  0.000436  0.500357  0.500000  1
  Sc  Sc9  1  0.499984  0.500016  0.500000  1
  Si  Si10  1  0.667602  0.332398  0.500000  1
  Si  Si11  1  0.999847  0.771611  0.500000  1
  Si  Si12  1  0.333470  0.666530  0.500000  1
  Si  Si13  1  0.227478  0.227244  0.500000  1
  Si  Si14  1  0.772756  0.772522  0.500000  1
  Si  Si15  1  0.772096  0.001600  0.500000  1
  Si  Si16  1  0.228389  0.000153  0.500000  1
  Si  Si17  1  0.998400  0.227904  0.500000  1
  O  O18  1  0.499989  0.500011  0.000000  1
  O  O19  1  0.501271  0.000631  0.000000  1
  O  O20  1  0.999369  0.498729  0.000000  1
