# generated using pymatgen
data_Ac2Al5GaPd2
_symmetry_space_group_name_H-M   'P 1'
_cell_length_a   6.28722600
_cell_length_b   6.28722665
_cell_length_c   6.03239200
_cell_angle_alpha   90.00000000
_cell_angle_beta   90.00000000
_cell_angle_gamma   117.20144194
_symmetry_Int_Tables_number   1
_chemical_formula_structural   Ac2Al5GaPd2
_chemical_formula_sum   'Ac2 Al5 Ga1 Pd2'
_cell_volume   212.08367815
_cell_formula_units_Z   1
loop_
 _symmetry_equiv_pos_site_id
 _symmetry_equiv_pos_as_xyz
  1  'x, y, z'
loop_
 _atom_site_type_symbol
 _atom_site_label
 _atom_site_symmetry_multiplicity
 _atom_site_fract_x
 _atom_site_fract_y
 _atom_site_fract_z
 _atom_site_occupancy
  Ac  Ac0  1  0.233942  0.766058  0.750000  1
  Ac  Ac1  1  0.767280  0.232720  0.250000  1
  Al  Al2  1  0.660560  0.339440  0.750000  1
  Al  Al3  1  0.721759  0.721682  0.999539  1
  Al  Al4  1  0.721759  0.721682  0.500461  1
  Al  Al5  1  0.278318  0.278241  0.999539  1
  Al  Al6  1  0.278318  0.278241  0.500461  1
  Ga  Ga7  1  0.341640  0.658360  0.250000  1
  Pd  Pd8  1  0.901118  0.098882  0.750000  1
  Pd  Pd9  1  0.095305  0.904695  0.250000  1
