# generated using pymatgen
data_Np2Al9Pd2Rh
_symmetry_space_group_name_H-M   'P 1'
_cell_length_a   7.63666857
_cell_length_b   7.63633980
_cell_length_c   9.49659315
_cell_angle_alpha   89.98411078
_cell_angle_beta   90.00314710
_cell_angle_gamma   119.59725766
_symmetry_Int_Tables_number   1
_chemical_formula_structural   Np2Al9Pd2Rh
_chemical_formula_sum   'Np4 Al18 Pd4 Rh2'
_cell_volume   481.54387508
_cell_formula_units_Z   2
loop_
 _symmetry_equiv_pos_site_id
 _symmetry_equiv_pos_as_xyz
  1  'x, y, z'
loop_
 _atom_site_type_symbol
 _atom_site_label
 _atom_site_symmetry_multiplicity
 _atom_site_fract_x
 _atom_site_fract_y
 _atom_site_fract_z
 _atom_site_occupancy
  Np  Np0  1  0.996198  0.670259  0.252447  1
  Np  Np1  1  0.006249  0.331308  0.747536  1
  Np  Np2  1  0.668891  0.993793  0.252402  1
  Np  Np3  1  0.329787  0.003776  0.747455  1
  Al  Al4  1  0.128444  0.129338  0.252244  1
  Al  Al5  1  0.870777  0.871664  0.747823  1
  Al  Al6  1  0.999696  0.335457  0.075628  1
  Al  Al7  1  0.000100  0.665018  0.923743  1
  Al  Al8  1  0.996675  0.664649  0.575084  1
  Al  Al9  1  0.335426  0.003276  0.424899  1
  Al  Al10  1  0.996673  0.331264  0.425380  1
  Al  Al11  1  0.668792  0.003330  0.574683  1
  Al  Al12  1  0.664610  0.000392  0.924216  1
  Al  Al13  1  0.335010  0.999939  0.076215  1
  Al  Al14  1  0.332817  0.329976  0.551773  1
  Al  Al15  1  0.669993  0.667116  0.448220  1
  Al  Al16  1  0.667428  0.667316  0.058311  1
  Al  Al17  1  0.332491  0.332456  0.941646  1
  Al  Al18  1  0.340328  0.547257  0.250405  1
  Al  Al19  1  0.658679  0.450935  0.747095  1
  Al  Al20  1  0.549110  0.341338  0.252995  1
  Al  Al21  1  0.452725  0.659619  0.749651  1
  Pd  Pd22  1  0.670185  0.329740  0.000003  1
  Pd  Pd23  1  0.329318  0.670635  0.999967  1
  Pd  Pd24  1  0.328708  0.671239  0.500083  1
  Pd  Pd25  1  0.999683  0.000236  0.000059  1
  Rh  Rh26  1  0.670907  0.329005  0.500064  1
  Rh  Rh27  1  0.000301  0.999671  0.499973  1
