# generated using pymatgen
data_YbLu3(B6Ru)2
_symmetry_space_group_name_H-M   'P 1'
_cell_length_a   3.59888700
_cell_length_b   9.05353126
_cell_length_c   11.43710162
_cell_angle_alpha   89.87663498
_cell_angle_beta   90.00000000
_cell_angle_gamma   90.00000000
_symmetry_Int_Tables_number   1
_chemical_formula_structural   YbLu3(B6Ru)2
_chemical_formula_sum   'Yb2 Lu6 B24 Ru4'
_cell_volume   372.65005437
_cell_formula_units_Z   2
loop_
 _symmetry_equiv_pos_site_id
 _symmetry_equiv_pos_as_xyz
  1  'x, y, z'
loop_
 _atom_site_type_symbol
 _atom_site_label
 _atom_site_symmetry_multiplicity
 _atom_site_fract_x
 _atom_site_fract_y
 _atom_site_fract_z
 _atom_site_occupancy
  Yb  Yb0  1  0.000000  0.324620  0.414333  1
  Yb  Yb1  1  0.000000  0.675380  0.585667  1
  Lu  Lu2  1  0.000000  0.822062  0.086384  1
  Lu  Lu3  1  0.000000  0.177938  0.913616  1
  Lu  Lu4  1  0.000000  0.942389  0.370091  1
  Lu  Lu5  1  0.000000  0.057611  0.629909  1
  Lu  Lu6  1  0.000000  0.443036  0.129886  1
  Lu  Lu7  1  0.000000  0.556964  0.870114  1
  B  B8  1  0.500000  0.554314  0.432236  1
  B  B9  1  0.500000  0.445686  0.567764  1
  B  B10  1  0.500000  0.053310  0.065964  1
  B  B11  1  0.500000  0.946690  0.934036  1
  B  B12  1  0.500000  0.749352  0.418049  1
  B  B13  1  0.500000  0.250648  0.581951  1
  B  B14  1  0.500000  0.249028  0.080030  1
  B  B15  1  0.500000  0.750972  0.919970  1
  B  B16  1  0.500000  0.792565  0.263904  1
  B  B17  1  0.500000  0.207435  0.736096  1
  B  B18  1  0.500000  0.291034  0.233755  1
  B  B19  1  0.500000  0.708966  0.766245  1
  B  B20  1  0.500000  0.631631  0.183965  1
  B  B21  1  0.500000  0.368369  0.816035  1
  B  B22  1  0.500000  0.130298  0.314155  1
  B  B23  1  0.500000  0.869702  0.685845  1
  B  B24  1  0.500000  0.981926  0.211462  1
  B  B25  1  0.500000  0.018074  0.788538  1
  B  B26  1  0.500000  0.483347  0.287108  1
  B  B27  1  0.500000  0.516653  0.712892  1
  B  B28  1  0.500000  0.603321  0.028353  1
  B  B29  1  0.500000  0.396679  0.971647  1
  B  B30  1  0.500000  0.098532  0.472799  1
  B  B31  1  0.500000  0.901468  0.527201  1
  Ru  Ru32  1  0.000000  0.640956  0.317778  1
  Ru  Ru33  1  0.000000  0.359044  0.682222  1
  Ru  Ru34  1  0.000000  0.136768  0.177523  1
  Ru  Ru35  1  0.000000  0.863232  0.822477  1
