# generated using pymatgen
data_CaNdCdIn3
_symmetry_space_group_name_H-M   'P 1'
_cell_length_a   4.94754000
_cell_length_b   4.94753972
_cell_length_c   7.74148700
_cell_angle_alpha   90.00000000
_cell_angle_beta   90.00000000
_cell_angle_gamma   120.00000189
_symmetry_Int_Tables_number   1
_chemical_formula_structural   CaNdCdIn3
_chemical_formula_sum   'Ca1 Nd1 Cd1 In3'
_cell_volume   164.10945970
_cell_formula_units_Z   1
loop_
 _symmetry_equiv_pos_site_id
 _symmetry_equiv_pos_as_xyz
  1  'x, y, z'
loop_
 _atom_site_type_symbol
 _atom_site_label
 _atom_site_symmetry_multiplicity
 _atom_site_fract_x
 _atom_site_fract_y
 _atom_site_fract_z
 _atom_site_occupancy
  Ca  Ca0  1  0.000000  0.000000  0.742494  1
  Nd  Nd1  1  0.000000  0.000000  0.255951  1
  Cd  Cd2  1  0.666667  0.333333  0.534730  1
  In  In3  1  0.333333  0.666667  0.468402  1
  In  In4  1  0.333333  0.666667  0.049484  1
  In  In5  1  0.666667  0.333333  0.948939  1
