# generated using pymatgen
data_Dy7HoRe(B8Os)3
_symmetry_space_group_name_H-M   'P 1'
_cell_length_a   3.66649100
_cell_length_b   9.15918912
_cell_length_c   11.54331101
_cell_angle_alpha   90.09217689
_cell_angle_beta   90.00000000
_cell_angle_gamma   90.00000000
_symmetry_Int_Tables_number   1
_chemical_formula_structural   Dy7HoRe(B8Os)3
_chemical_formula_sum   'Dy7 Ho1 Re1 B24 Os3'
_cell_volume   387.64794414
_cell_formula_units_Z   1
loop_
 _symmetry_equiv_pos_site_id
 _symmetry_equiv_pos_as_xyz
  1  'x, y, z'
loop_
 _atom_site_type_symbol
 _atom_site_label
 _atom_site_symmetry_multiplicity
 _atom_site_fract_x
 _atom_site_fract_y
 _atom_site_fract_z
 _atom_site_occupancy
  Dy  Dy0  1  0.000000  0.322517  0.414926  1
  Dy  Dy1  1  0.000000  0.679847  0.588131  1
  Dy  Dy2  1  0.000000  0.822690  0.083649  1
  Dy  Dy3  1  0.000000  0.176367  0.913202  1
  Dy  Dy4  1  0.000000  0.943309  0.371797  1
  Dy  Dy5  1  0.000000  0.055915  0.627793  1
  Dy  Dy6  1  0.000000  0.443014  0.127811  1
  Ho  Ho7  1  0.000000  0.556523  0.872619  1
  Re  Re8  1  0.000000  0.862251  0.821504  1
  B  B9  1  0.500000  0.553854  0.433091  1
  B  B10  1  0.500000  0.446233  0.567239  1
  B  B11  1  0.500000  0.053697  0.067409  1
  B  B12  1  0.500000  0.947004  0.933023  1
  B  B13  1  0.500000  0.748074  0.419313  1
  B  B14  1  0.500000  0.252028  0.580549  1
  B  B15  1  0.500000  0.247826  0.080818  1
  B  B16  1  0.500000  0.751615  0.919169  1
  B  B17  1  0.500000  0.790177  0.266165  1
  B  B18  1  0.500000  0.209443  0.733140  1
  B  B19  1  0.500000  0.290646  0.233851  1
  B  B20  1  0.500000  0.708493  0.766210  1
  B  B21  1  0.500000  0.631189  0.185621  1
  B  B22  1  0.500000  0.368566  0.814087  1
  B  B23  1  0.500000  0.131809  0.314532  1
  B  B24  1  0.500000  0.868488  0.685803  1
  B  B25  1  0.500000  0.983653  0.212547  1
  B  B26  1  0.500000  0.017390  0.787379  1
  B  B27  1  0.500000  0.483347  0.287861  1
  B  B28  1  0.500000  0.516772  0.712804  1
  B  B29  1  0.500000  0.605938  0.029799  1
  B  B30  1  0.500000  0.392789  0.970399  1
  B  B31  1  0.500000  0.107414  0.469895  1
  B  B32  1  0.500000  0.893133  0.529089  1
  Os  Os33  1  0.000000  0.637303  0.321506  1
  Os  Os34  1  0.000000  0.362892  0.678182  1
  Os  Os35  1  0.000000  0.137796  0.179087  1
