# generated using pymatgen
data_YbCeY2(B4Os)4
_symmetry_space_group_name_H-M   'P 1'
_cell_length_a   3.58516100
_cell_length_b   5.98776930
_cell_length_c   11.58549900
_cell_angle_alpha   90.11247119
_cell_angle_beta   90.00000000
_cell_angle_gamma   90.00000000
_symmetry_Int_Tables_number   1
_chemical_formula_structural   YbCeY2(B4Os)4
_chemical_formula_sum   'Yb1 Ce1 Y2 B16 Os4'
_cell_volume   248.70678309
_cell_formula_units_Z   1
loop_
 _symmetry_equiv_pos_site_id
 _symmetry_equiv_pos_as_xyz
  1  'x, y, z'
loop_
 _atom_site_type_symbol
 _atom_site_label
 _atom_site_symmetry_multiplicity
 _atom_site_fract_x
 _atom_site_fract_y
 _atom_site_fract_z
 _atom_site_occupancy
  Yb  Yb0  1  0.000000  0.370293  0.349570  1
  Ce  Ce1  1  0.000000  0.627918  0.649342  1
  Y  Y2  1  0.000000  0.127356  0.851241  1
  Y  Y3  1  0.000000  0.871788  0.150868  1
  B  B4  1  0.500000  0.974967  0.690590  1
  B  B5  1  0.500000  0.025422  0.308815  1
  B  B6  1  0.500000  0.475311  0.809677  1
  B  B7  1  0.500000  0.525103  0.191552  1
  B  B8  1  0.500000  0.787756  0.814568  1
  B  B9  1  0.500000  0.212950  0.185872  1
  B  B10  1  0.500000  0.287558  0.684856  1
  B  B11  1  0.500000  0.712525  0.314105  1
  B  B12  1  0.500000  0.862531  0.970084  1
  B  B13  1  0.500000  0.136864  0.030318  1
  B  B14  1  0.500000  0.363000  0.530030  1
  B  B15  1  0.500000  0.637156  0.468700  1
  B  B16  1  0.500000  0.889754  0.544834  1
  B  B17  1  0.500000  0.114103  0.451663  1
  B  B18  1  0.500000  0.387033  0.954306  1
  B  B19  1  0.500000  0.611463  0.047264  1
  Os  Os20  1  0.000000  0.640780  0.906938  1
  Os  Os21  1  0.000000  0.359473  0.092755  1
  Os  Os22  1  0.000000  0.139854  0.593838  1
  Os  Os23  1  0.000000  0.859043  0.408217  1
