# generated using pymatgen
data_Hf9Mo3AsW
_symmetry_space_group_name_H-M   'P 1'
_cell_length_a   8.69265600
_cell_length_b   8.69265657
_cell_length_c   8.68990100
_cell_angle_alpha   90.00000000
_cell_angle_beta   90.00000000
_cell_angle_gamma   120.00000545
_symmetry_Int_Tables_number   1
_chemical_formula_structural   Hf9Mo3AsW
_chemical_formula_sum   'Hf18 Mo6 As2 W2'
_cell_volume   568.65708130
_cell_formula_units_Z   2
loop_
 _symmetry_equiv_pos_site_id
 _symmetry_equiv_pos_as_xyz
  1  'x, y, z'
loop_
 _atom_site_type_symbol
 _atom_site_label
 _atom_site_symmetry_multiplicity
 _atom_site_fract_x
 _atom_site_fract_y
 _atom_site_fract_z
 _atom_site_occupancy
  Hf  Hf0  1  0.608263  0.804132  0.043382  1
  Hf  Hf1  1  0.804132  0.608263  0.543382  1
  Hf  Hf2  1  0.195868  0.391737  0.043382  1
  Hf  Hf3  1  0.195868  0.804132  0.043382  1
  Hf  Hf4  1  0.804132  0.195868  0.543382  1
  Hf  Hf5  1  0.391737  0.195868  0.543382  1
  Hf  Hf6  1  0.804132  0.608263  0.956618  1
  Hf  Hf7  1  0.804132  0.195868  0.956618  1
  Hf  Hf8  1  0.391737  0.195868  0.956618  1
  Hf  Hf9  1  0.608263  0.804132  0.456618  1
  Hf  Hf10  1  0.195868  0.804132  0.456618  1
  Hf  Hf11  1  0.195868  0.391737  0.456618  1
  Hf  Hf12  1  0.539839  0.079679  0.250000  1
  Hf  Hf13  1  0.460161  0.920321  0.750000  1
  Hf  Hf14  1  0.920321  0.460161  0.250000  1
  Hf  Hf15  1  0.539839  0.460161  0.250000  1
  Hf  Hf16  1  0.460161  0.539839  0.750000  1
  Hf  Hf17  1  0.079679  0.539839  0.750000  1
  Mo  Mo18  1  0.889768  0.779535  0.250000  1
  Mo  Mo19  1  0.110232  0.220465  0.750000  1
  Mo  Mo20  1  0.220465  0.110232  0.250000  1
  Mo  Mo21  1  0.889768  0.110232  0.250000  1
  Mo  Mo22  1  0.110232  0.889768  0.750000  1
  Mo  Mo23  1  0.779535  0.889768  0.750000  1
  As  As24  1  0.666667  0.333333  0.750000  1
  As  As25  1  0.333333  0.666667  0.250000  1
  W  W26  1  0.000000  0.000000  0.000000  1
  W  W27  1  0.000000  0.000000  0.500000  1
