# generated using pymatgen
data_Pr6Nd3(BiO)5
_symmetry_space_group_name_H-M   'P 1'
_cell_length_a   10.39429904
_cell_length_b   10.40863304
_cell_length_c   9.38445300
_cell_angle_alpha   90.00000000
_cell_angle_beta   90.00000000
_cell_angle_gamma   90.00951307
_symmetry_Int_Tables_number   1
_chemical_formula_structural   Pr6Nd3(BiO)5
_chemical_formula_sum   'Pr12 Nd6 Bi10 O10'
_cell_volume   1015.30812586
_cell_formula_units_Z   2
loop_
 _symmetry_equiv_pos_site_id
 _symmetry_equiv_pos_as_xyz
  1  'x, y, z'
loop_
 _atom_site_type_symbol
 _atom_site_label
 _atom_site_symmetry_multiplicity
 _atom_site_fract_x
 _atom_site_fract_y
 _atom_site_fract_z
 _atom_site_occupancy
  Pr  Pr0  1  0.500000  0.000000  0.671541  1
  Pr  Pr1  1  0.000000  0.500000  0.328268  1
  Pr  Pr2  1  0.104181  0.205153  0.659575  1
  Pr  Pr3  1  0.895819  0.794847  0.659575  1
  Pr  Pr4  1  0.294932  0.604297  0.659697  1
  Pr  Pr5  1  0.705068  0.395703  0.659697  1
  Pr  Pr6  1  0.395746  0.295035  0.340329  1
  Pr  Pr7  1  0.604254  0.704965  0.340329  1
  Pr  Pr8  1  0.205007  0.895552  0.340453  1
  Pr  Pr9  1  0.794993  0.104448  0.340453  1
  Pr  Pr10  1  0.725738  0.917787  0.001249  1
  Pr  Pr11  1  0.274262  0.082213  0.001249  1
  Nd  Nd12  1  0.582625  0.226143  0.001475  1
  Nd  Nd13  1  0.417375  0.773857  0.001475  1
  Nd  Nd14  1  0.774269  0.582257  0.998548  1
  Nd  Nd15  1  0.225731  0.417743  0.998548  1
  Nd  Nd16  1  0.917444  0.274490  0.998576  1
  Nd  Nd17  1  0.082556  0.725510  0.998576  1
  Bi  Bi18  1  0.500000  0.000000  0.312205  1
  Bi  Bi19  1  0.000000  0.500000  0.687863  1
  Bi  Bi20  1  0.403716  0.304123  0.699739  1
  Bi  Bi21  1  0.596284  0.695877  0.699739  1
  Bi  Bi22  1  0.195825  0.903542  0.699500  1
  Bi  Bi23  1  0.804175  0.096458  0.699500  1
  Bi  Bi24  1  0.096207  0.195979  0.300420  1
  Bi  Bi25  1  0.903793  0.804021  0.300420  1
  Bi  Bi26  1  0.304100  0.596281  0.300264  1
  Bi  Bi27  1  0.695900  0.403719  0.300264  1
  O  O28  1  0.500000  0.000000  0.933962  1
  O  O29  1  0.000000  0.500000  0.065541  1
  O  O30  1  0.774820  0.122175  0.086240  1
  O  O31  1  0.225180  0.877825  0.086240  1
  O  O32  1  0.379630  0.275494  0.086037  1
  O  O33  1  0.620370  0.724506  0.086037  1
  O  O34  1  0.725428  0.379163  0.914408  1
  O  O35  1  0.274572  0.620837  0.914408  1
  O  O36  1  0.120036  0.226374  0.913799  1
  O  O37  1  0.879964  0.773626  0.913799  1
