# generated using pymatgen
data_Ca20In3Ga8Pb
_symmetry_space_group_name_H-M   'P 1'
_cell_length_a   8.11638800
_cell_length_b   8.11638800
_cell_length_c   14.77641400
_cell_angle_alpha   90.00000000
_cell_angle_beta   90.00000000
_cell_angle_gamma   90.00000000
_symmetry_Int_Tables_number   1
_chemical_formula_structural   Ca20In3Ga8Pb
_chemical_formula_sum   'Ca20 In3 Ga8 Pb1'
_cell_volume   973.40741613
_cell_formula_units_Z   1
loop_
 _symmetry_equiv_pos_site_id
 _symmetry_equiv_pos_as_xyz
  1  'x, y, z'
loop_
 _atom_site_type_symbol
 _atom_site_label
 _atom_site_symmetry_multiplicity
 _atom_site_fract_x
 _atom_site_fract_y
 _atom_site_fract_z
 _atom_site_occupancy
  Ca  Ca0  1  0.676084  0.174463  0.108054  1
  Ca  Ca1  1  0.176178  0.675019  0.608934  1
  Ca  Ca2  1  0.323916  0.825537  0.108054  1
  Ca  Ca3  1  0.823822  0.324981  0.608934  1
  Ca  Ca4  1  0.825537  0.676084  0.108054  1
  Ca  Ca5  1  0.324981  0.176178  0.608934  1
  Ca  Ca6  1  0.174463  0.323916  0.108054  1
  Ca  Ca7  1  0.675019  0.823822  0.608934  1
  Ca  Ca8  1  0.825537  0.323916  0.891946  1
  Ca  Ca9  1  0.324981  0.823822  0.391066  1
  Ca  Ca10  1  0.174463  0.676084  0.891946  1
  Ca  Ca11  1  0.675019  0.176178  0.391066  1
  Ca  Ca12  1  0.676084  0.825537  0.891946  1
  Ca  Ca13  1  0.176178  0.324981  0.391066  1
  Ca  Ca14  1  0.323916  0.174463  0.891946  1
  Ca  Ca15  1  0.823822  0.675019  0.391066  1
  Ca  Ca16  1  0.500000  0.500000  0.752202  1
  Ca  Ca17  1  0.000000  0.000000  0.250845  1
  Ca  Ca18  1  0.000000  0.000000  0.749155  1
  Ca  Ca19  1  0.500000  0.500000  0.247798  1
  In  In20  1  0.500000  0.500000  0.500000  1
  In  In21  1  0.500000  0.500000  0.000000  1
  In  In22  1  0.000000  0.000000  0.500000  1
  Ga  Ga23  1  0.610553  0.110978  0.751368  1
  Ga  Ga24  1  0.110978  0.610553  0.248632  1
  Ga  Ga25  1  0.889022  0.389447  0.248632  1
  Ga  Ga26  1  0.389447  0.889022  0.751368  1
  Ga  Ga27  1  0.889022  0.610553  0.751368  1
  Ga  Ga28  1  0.389447  0.110978  0.248632  1
  Ga  Ga29  1  0.110978  0.389447  0.751368  1
  Ga  Ga30  1  0.610553  0.889022  0.248632  1
  Pb  Pb31  1  0.000000  0.000000  0.000000  1
