# generated using pymatgen
data_SrF18
_symmetry_space_group_name_H-M   'P 1'
_cell_length_a   7.97035699
_cell_length_b   10.08716474
_cell_length_c   10.05246982
_cell_angle_alpha   85.63464746
_cell_angle_beta   101.10822799
_cell_angle_gamma   113.27060106
_symmetry_Int_Tables_number   1
_chemical_formula_structural   SrF18
_chemical_formula_sum   'Sr2 F36'
_cell_volume   728.54383302
_cell_formula_units_Z   2
loop_
 _symmetry_equiv_pos_site_id
 _symmetry_equiv_pos_as_xyz
  1  'x, y, z'
loop_
 _atom_site_type_symbol
 _atom_site_label
 _atom_site_symmetry_multiplicity
 _atom_site_fract_x
 _atom_site_fract_y
 _atom_site_fract_z
 _atom_site_occupancy
  Sr  Sr0  1  0.000000  0.000000  0.000000  1
  Sr  Sr1  1  0.500000  0.000000  0.500000  1
  F  F2  1  0.847592  0.774674  0.736214  1
  F  F3  1  0.152408  0.225326  0.263786  1
  F  F4  1  0.650721  0.997224  0.918338  1
  F  F5  1  0.427082  0.774674  0.763786  1
  F  F6  1  0.349279  0.002776  0.081662  1
  F  F7  1  0.572918  0.225326  0.236214  1
  F  F8  1  0.097989  0.368163  0.683016  1
  F  F9  1  0.846503  0.997224  0.581662  1
  F  F10  1  0.902011  0.631837  0.316984  1
  F  F11  1  0.153497  0.002776  0.418338  1
  F  F12  1  0.770174  0.368163  0.816984  1
  F  F13  1  0.229826  0.631837  0.183016  1
  F  F14  1  0.763896  0.618789  0.708368  1
  F  F15  1  0.236104  0.381211  0.291632  1
  F  F16  1  0.719204  0.977572  0.080668  1
  F  F17  1  0.354893  0.618789  0.791632  1
  F  F18  1  0.280796  0.022428  0.919332  1
  F  F19  1  0.645107  0.381211  0.208368  1
  F  F20  1  0.045488  0.310238  0.549410  1
  F  F21  1  0.758369  0.977572  0.419332  1
  F  F22  1  0.954512  0.689762  0.450590  1
  F  F23  1  0.241631  0.022428  0.580668  1
  F  F24  1  0.764751  0.310238  0.950590  1
  F  F25  1  0.235249  0.689762  0.049410  1
  F  F26  1  0.948871  0.011279  0.760281  1
  F  F27  1  0.051129  0.988721  0.239719  1
  F  F28  1  0.700830  0.659283  0.001963  1
  F  F29  1  0.562411  0.011279  0.739719  1
  F  F30  1  0.299170  0.340717  0.998037  1
  F  F31  1  0.437589  0.988721  0.260281  1
  F  F32  1  0.109558  0.325976  0.977200  1
  F  F33  1  0.458452  0.659283  0.498037  1
  F  F34  1  0.890442  0.674024  0.022800  1
  F  F35  1  0.541548  0.340717  0.501963  1
  F  F36  1  0.716419  0.325976  0.522800  1
  F  F37  1  0.283581  0.674024  0.477200  1
