# generated using pymatgen
data_La4TmMgSi3Ge
_symmetry_space_group_name_H-M   'P 1'
_cell_length_a   7.62611273
_cell_length_b   7.64081066
_cell_length_c   4.49003800
_cell_angle_alpha   90.00000000
_cell_angle_beta   90.00000000
_cell_angle_gamma   89.76034451
_symmetry_Int_Tables_number   1
_chemical_formula_structural   La4TmMgSi3Ge
_chemical_formula_sum   'La4 Tm1 Mg1 Si3 Ge1'
_cell_volume   261.63080412
_cell_formula_units_Z   1
loop_
 _symmetry_equiv_pos_site_id
 _symmetry_equiv_pos_as_xyz
  1  'x, y, z'
loop_
 _atom_site_type_symbol
 _atom_site_label
 _atom_site_symmetry_multiplicity
 _atom_site_fract_x
 _atom_site_fract_y
 _atom_site_fract_z
 _atom_site_occupancy
  La  La0  1  0.671784  0.186993  0.500000  1
  La  La1  1  0.329409  0.814142  0.500000  1
  La  La2  1  0.187079  0.326320  0.500000  1
  La  La3  1  0.811132  0.672012  0.500000  1
  Tm  Tm4  1  0.999418  0.001526  0.000000  1
  Mg  Mg5  1  0.500962  0.499535  0.000000  1
  Si  Si6  1  0.892126  0.376380  0.000000  1
  Si  Si7  1  0.620649  0.894822  0.000000  1
  Si  Si8  1  0.379367  0.105178  0.000000  1
  Ge  Ge9  1  0.108075  0.623092  0.000000  1
