# generated using pymatgen
data_La4Pd3Rh3O19
_symmetry_space_group_name_H-M   'P 1'
_cell_length_a   7.82581137
_cell_length_b   7.84677226
_cell_length_c   7.84677150
_cell_angle_alpha   109.52526658
_cell_angle_beta   109.41710793
_cell_angle_gamma   109.41712289
_symmetry_Int_Tables_number   1
_chemical_formula_structural   La4Pd3Rh3O19
_chemical_formula_sum   'La4 Pd3 Rh3 O19'
_cell_volume   371.17534641
_cell_formula_units_Z   1
loop_
 _symmetry_equiv_pos_site_id
 _symmetry_equiv_pos_as_xyz
  1  'x, y, z'
loop_
 _atom_site_type_symbol
 _atom_site_label
 _atom_site_symmetry_multiplicity
 _atom_site_fract_x
 _atom_site_fract_y
 _atom_site_fract_z
 _atom_site_occupancy
  La  La0  1  0.997741  0.996914  0.320907  1
  La  La1  1  0.000826  0.323993  0.003086  1
  La  La2  1  0.676833  0.679093  0.676007  1
  La  La3  1  0.321563  0.000000  0.000000  1
  Pd  Pd4  1  0.162520  0.662211  0.501623  1
  Pd  Pd5  1  0.500309  0.839413  0.337789  1
  Pd  Pd6  1  0.660897  0.498377  0.160587  1
  Rh  Rh7  1  0.339748  0.498547  0.839979  1
  Rh  Rh8  1  0.841202  0.341432  0.501453  1
  Rh  Rh9  1  0.499770  0.160021  0.658568  1
  O  O10  1  0.344317  0.002755  0.345406  1
  O  O11  1  0.341562  0.342651  0.997245  1
  O  O12  1  0.998911  0.654594  0.657349  1
  O  O13  1  0.653176  0.654006  0.999084  1
  O  O14  1  0.999170  0.345078  0.345994  1
  O  O15  1  0.654092  0.000916  0.654922  1
  O  O16  1  0.998994  0.000000  0.000000  1
  O  O17  1  0.357790  0.323214  0.605526  1
  O  O18  1  0.034577  0.282312  0.676786  1
  O  O19  1  0.752263  0.394474  0.717688  1
  O  O20  1  0.394137  0.713666  0.756104  1
  O  O21  1  0.250729  0.968123  0.643300  1
  O  O22  1  0.607428  0.356700  0.324824  1
  O  O23  1  0.325971  0.606026  0.361547  1
  O  O24  1  0.680471  0.042440  0.286334  1
  O  O25  1  0.964423  0.638453  0.244480  1
  O  O26  1  0.719945  0.755520  0.393974  1
  O  O27  1  0.638031  0.243896  0.957560  1
  O  O28  1  0.282604  0.675176  0.031877  1
