# generated using pymatgen
data_Tb5Ho5Si5Sb
_symmetry_space_group_name_H-M   'P 1'
_cell_length_a   8.52886200
_cell_length_b   8.55428009
_cell_length_c   6.39866200
_cell_angle_alpha   90.00000000
_cell_angle_beta   90.00000000
_cell_angle_gamma   119.83946155
_symmetry_Int_Tables_number   1
_chemical_formula_structural   Tb5Ho5Si5Sb
_chemical_formula_sum   'Tb5 Ho5 Si5 Sb1'
_cell_volume   404.94369308
_cell_formula_units_Z   1
loop_
 _symmetry_equiv_pos_site_id
 _symmetry_equiv_pos_as_xyz
  1  'x, y, z'
loop_
 _atom_site_type_symbol
 _atom_site_label
 _atom_site_symmetry_multiplicity
 _atom_site_fract_x
 _atom_site_fract_y
 _atom_site_fract_z
 _atom_site_occupancy
  Tb  Tb0  1  0.988019  0.747061  0.750000  1
  Tb  Tb1  1  0.998932  0.243924  0.250000  1
  Tb  Tb2  1  0.754299  0.755625  0.250000  1
  Tb  Tb3  1  0.765000  0.000128  0.750000  1
  Tb  Tb4  1  0.242487  0.000290  0.250000  1
  Ho  Ho5  1  0.241216  0.253293  0.750000  1
  Ho  Ho6  1  0.331131  0.656580  0.496446  1
  Ho  Ho7  1  0.674315  0.343275  0.003664  1
  Ho  Ho8  1  0.674315  0.343275  0.496336  1
  Ho  Ho9  1  0.331131  0.656580  0.003554  1
  Si  Si10  1  0.394198  0.392470  0.250000  1
  Si  Si11  1  0.001813  0.607725  0.250000  1
  Si  Si12  1  0.999797  0.394497  0.750000  1
  Si  Si13  1  0.603350  0.604388  0.750000  1
  Si  Si14  1  0.605529  0.000113  0.250000  1
  Sb  Sb15  1  0.394471  0.000776  0.750000  1
