# generated using pymatgen
data_Pa4Al5Tc3
_symmetry_space_group_name_H-M   'P 1'
_cell_length_a   5.39298890
_cell_length_b   5.16673781
_cell_length_c   9.13919800
_cell_angle_alpha   90.00000000
_cell_angle_beta   90.00000000
_cell_angle_gamma   118.62164879
_symmetry_Int_Tables_number   1
_chemical_formula_structural   Pa4Al5Tc3
_chemical_formula_sum   'Pa4 Al5 Tc3'
_cell_volume   223.53762051
_cell_formula_units_Z   1
loop_
 _symmetry_equiv_pos_site_id
 _symmetry_equiv_pos_as_xyz
  1  'x, y, z'
loop_
 _atom_site_type_symbol
 _atom_site_label
 _atom_site_symmetry_multiplicity
 _atom_site_fract_x
 _atom_site_fract_y
 _atom_site_fract_z
 _atom_site_occupancy
  Pa  Pa0  1  0.358262  0.679131  0.458138  1
  Pa  Pa1  1  0.639621  0.319810  0.560161  1
  Pa  Pa2  1  0.639621  0.319810  0.939839  1
  Pa  Pa3  1  0.358262  0.679131  0.041862  1
  Al  Al4  1  0.847776  0.172947  0.250000  1
  Al  Al5  1  0.847776  0.674830  0.250000  1
  Al  Al6  1  0.345554  0.172777  0.250000  1
  Al  Al7  1  0.138405  0.822227  0.750000  1
  Al  Al8  1  0.138405  0.316176  0.750000  1
  Tc  Tc9  1  0.025587  0.012794  0.493924  1
  Tc  Tc10  1  0.025587  0.012794  0.006076  1
  Tc  Tc11  1  0.635146  0.817573  0.750000  1
