# generated using pymatgen
data_YbErAl3Ir
_symmetry_space_group_name_H-M   'P 1'
_cell_length_a   5.51965800
_cell_length_b   5.51965796
_cell_length_c   8.65731700
_cell_angle_alpha   90.00000000
_cell_angle_beta   90.00000000
_cell_angle_gamma   120.00000025
_symmetry_Int_Tables_number   1
_chemical_formula_structural   YbErAl3Ir
_chemical_formula_sum   'Yb2 Er2 Al6 Ir2'
_cell_volume   228.42218761
_cell_formula_units_Z   2
loop_
 _symmetry_equiv_pos_site_id
 _symmetry_equiv_pos_as_xyz
  1  'x, y, z'
loop_
 _atom_site_type_symbol
 _atom_site_label
 _atom_site_symmetry_multiplicity
 _atom_site_fract_x
 _atom_site_fract_y
 _atom_site_fract_z
 _atom_site_occupancy
  Yb  Yb0  1  0.333333  0.666666  0.556176  1
  Yb  Yb1  1  0.333333  0.666666  0.943823  1
  Er  Er2  1  0.666666  0.333334  0.052737  1
  Er  Er3  1  0.666666  0.333334  0.447263  1
  Al  Al4  1  0.162136  0.324274  0.250000  1
  Al  Al5  1  0.162137  0.837864  0.250000  1
  Al  Al6  1  0.675727  0.837864  0.250000  1
  Al  Al7  1  0.325569  0.162783  0.750000  1
  Al  Al8  1  0.837214  0.162783  0.750000  1
  Al  Al9  1  0.837215  0.674431  0.750000  1
  Ir  Ir10  1  0.000000  0.000000  0.999889  1
  Ir  Ir11  1  0.000000  0.000000  0.500111  1
