# generated using pymatgen
data_CaYTh(InRh)3
_symmetry_space_group_name_H-M   'P 1'
_cell_length_a   7.57004083
_cell_length_b   7.49483750
_cell_length_c   3.97046100
_cell_angle_alpha   90.00000000
_cell_angle_beta   90.00000000
_cell_angle_gamma   117.13669237
_symmetry_Int_Tables_number   1
_chemical_formula_structural   CaYTh(InRh)3
_chemical_formula_sum   'Ca1 Y1 Th1 In3 Rh3'
_cell_volume   200.47156416
_cell_formula_units_Z   1
loop_
 _symmetry_equiv_pos_site_id
 _symmetry_equiv_pos_as_xyz
  1  'x, y, z'
loop_
 _atom_site_type_symbol
 _atom_site_label
 _atom_site_symmetry_multiplicity
 _atom_site_fract_x
 _atom_site_fract_y
 _atom_site_fract_z
 _atom_site_occupancy
  Ca  Ca0  1  0.998911  0.593461  0.500000  1
  Y  Y1  1  0.593244  0.001742  0.500000  1
  Th  Th2  1  0.416391  0.417057  0.500000  1
  In  In3  1  0.987232  0.259646  0.000000  1
  In  In4  1  0.252016  0.983657  0.000000  1
  In  In5  1  0.763815  0.762773  0.000000  1
  Rh  Rh6  1  0.348858  0.645052  0.000000  1
  Rh  Rh7  1  0.009435  0.013835  0.500000  1
  Rh  Rh8  1  0.630099  0.322777  0.000000  1
