# generated using pymatgen
data_Y16Cd4TcNi3
_symmetry_space_group_name_H-M   'P 1'
_cell_length_a   9.70682502
_cell_length_b   9.70682568
_cell_length_c   9.70682549
_cell_angle_alpha   59.41494745
_cell_angle_beta   59.41494882
_cell_angle_gamma   59.41494334
_symmetry_Int_Tables_number   1
_chemical_formula_structural   Y16Cd4TcNi3
_chemical_formula_sum   'Y16 Cd4 Tc1 Ni3'
_cell_volume   638.11105488
_cell_formula_units_Z   1
loop_
 _symmetry_equiv_pos_site_id
 _symmetry_equiv_pos_as_xyz
  1  'x, y, z'
loop_
 _atom_site_type_symbol
 _atom_site_label
 _atom_site_symmetry_multiplicity
 _atom_site_fract_x
 _atom_site_fract_y
 _atom_site_fract_z
 _atom_site_occupancy
  Y  Y0  1  0.597291  0.597291  0.597291  1
  Y  Y1  1  0.601929  0.601929  0.203729  1
  Y  Y2  1  0.601929  0.203729  0.601929  1
  Y  Y3  1  0.203729  0.601929  0.601929  1
  Y  Y4  1  0.061145  0.437664  0.437664  1
  Y  Y5  1  0.437478  0.060631  0.060631  1
  Y  Y6  1  0.437664  0.061145  0.437664  1
  Y  Y7  1  0.060631  0.437478  0.060631  1
  Y  Y8  1  0.437664  0.437664  0.061145  1
  Y  Y9  1  0.060631  0.060631  0.437478  1
  Y  Y10  1  0.186293  0.815245  0.815245  1
  Y  Y11  1  0.805425  0.189406  0.189406  1
  Y  Y12  1  0.815245  0.186293  0.815245  1
  Y  Y13  1  0.189406  0.805425  0.189406  1
  Y  Y14  1  0.815245  0.815245  0.186293  1
  Y  Y15  1  0.189406  0.189406  0.805425  1
  Cd  Cd16  1  0.829588  0.829588  0.829588  1
  Cd  Cd17  1  0.829432  0.829432  0.506172  1
  Cd  Cd18  1  0.829432  0.506172  0.829432  1
  Cd  Cd19  1  0.506172  0.829432  0.829432  1
  Tc  Tc20  1  0.393987  0.393987  0.393987  1
  Ni  Ni21  1  0.392289  0.392289  0.825696  1
  Ni  Ni22  1  0.392289  0.825696  0.392289  1
  Ni  Ni23  1  0.825696  0.392289  0.392289  1
