# generated using pymatgen
data_TbNd19Si15P
_symmetry_space_group_name_H-M   'P 1'
_cell_length_a   7.76674194
_cell_length_b   7.90552824
_cell_length_c   15.12571347
_cell_angle_alpha   89.92775811
_cell_angle_beta   90.14687320
_cell_angle_gamma   90.07590449
_symmetry_Int_Tables_number   1
_chemical_formula_structural   TbNd19Si15P
_chemical_formula_sum   'Tb1 Nd19 Si15 P1'
_cell_volume   928.71719700
_cell_formula_units_Z   1
loop_
 _symmetry_equiv_pos_site_id
 _symmetry_equiv_pos_as_xyz
  1  'x, y, z'
loop_
 _atom_site_type_symbol
 _atom_site_label
 _atom_site_symmetry_multiplicity
 _atom_site_fract_x
 _atom_site_fract_y
 _atom_site_fract_z
 _atom_site_occupancy
  Tb  Tb0  1  0.136971  0.511069  0.749429  1
  Nd  Nd1  1  0.810250  0.324077  0.618744  1
  Nd  Nd2  1  0.457902  0.685858  0.898146  1
  Nd  Nd3  1  0.958790  0.813470  0.898633  1
  Nd  Nd4  1  0.188742  0.680596  0.122168  1
  Nd  Nd5  1  0.689416  0.818992  0.122242  1
  Nd  Nd6  1  0.309978  0.180452  0.878215  1
  Nd  Nd7  1  0.188457  0.679415  0.379173  1
  Nd  Nd8  1  0.040753  0.186757  0.101834  1
  Nd  Nd9  1  0.309213  0.180949  0.620825  1
  Nd  Nd10  1  0.864128  0.489781  0.250421  1
  Nd  Nd11  1  0.363131  0.009891  0.250091  1
  Nd  Nd12  1  0.543335  0.315357  0.399057  1
  Nd  Nd13  1  0.810870  0.319340  0.878075  1
  Nd  Nd14  1  0.957466  0.812047  0.599874  1
  Nd  Nd15  1  0.451474  0.691046  0.603199  1
  Nd  Nd16  1  0.041921  0.187975  0.399886  1
  Nd  Nd17  1  0.692181  0.813880  0.380793  1
  Nd  Nd18  1  0.637080  0.990085  0.749561  1
  Nd  Nd19  1  0.541875  0.313259  0.102012  1
  Si  Si20  1  0.483321  0.601163  0.250997  1
  Si  Si21  1  0.251903  0.378029  0.251335  1
  Si  Si22  1  0.514686  0.400273  0.749906  1
  Si  Si23  1  0.634492  0.026445  0.959361  1
  Si  Si24  1  0.015451  0.103222  0.748689  1
  Si  Si25  1  0.751322  0.620393  0.748549  1
  Si  Si26  1  0.750839  0.120739  0.251371  1
  Si  Si27  1  0.366691  0.974101  0.458013  1
  Si  Si28  1  0.983077  0.899911  0.251766  1
  Si  Si29  1  0.365369  0.972944  0.040808  1
  Si  Si30  1  0.634221  0.027173  0.540100  1
  Si  Si31  1  0.134696  0.474593  0.957594  1
  Si  Si32  1  0.138181  0.475188  0.542669  1
  Si  Si33  1  0.865533  0.525611  0.041291  1
  Si  Si34  1  0.244960  0.875216  0.749661  1
  P  P35  1  0.871322  0.520700  0.455508  1
