# generated using pymatgen
data_Y7Lu(Ga3Pt)4
_symmetry_space_group_name_H-M   'P 1'
_cell_length_a   8.87504159
_cell_length_b   8.90560212
_cell_length_c   7.07807400
_cell_angle_alpha   90.00000000
_cell_angle_beta   90.00000000
_cell_angle_gamma   120.11495178
_symmetry_Int_Tables_number   1
_chemical_formula_structural   Y7Lu(Ga3Pt)4
_chemical_formula_sum   'Y7 Lu1 Ga12 Pt4'
_cell_volume   483.92180626
_cell_formula_units_Z   1
loop_
 _symmetry_equiv_pos_site_id
 _symmetry_equiv_pos_as_xyz
  1  'x, y, z'
loop_
 _atom_site_type_symbol
 _atom_site_label
 _atom_site_symmetry_multiplicity
 _atom_site_fract_x
 _atom_site_fract_y
 _atom_site_fract_z
 _atom_site_occupancy
  Y  Y0  1  0.000190  0.000029  0.250000  1
  Y  Y1  1  0.999457  0.999796  0.750000  1
  Y  Y2  1  0.519305  0.038806  0.250000  1
  Y  Y3  1  0.519256  0.480601  0.250000  1
  Y  Y4  1  0.962820  0.481433  0.250000  1
  Y  Y5  1  0.480391  0.961330  0.750000  1
  Y  Y6  1  0.480440  0.518961  0.750000  1
  Lu  Lu7  1  0.039820  0.519876  0.750000  1
  Ga  Ga8  1  0.166707  0.333865  0.044811  1
  Ga  Ga9  1  0.166803  0.832799  0.455195  1
  Ga  Ga10  1  0.664506  0.832285  0.453961  1
  Ga  Ga11  1  0.664506  0.832285  0.046039  1
  Ga  Ga12  1  0.166803  0.832799  0.044805  1
  Ga  Ga13  1  0.833681  0.665307  0.952724  1
  Ga  Ga14  1  0.833579  0.168412  0.952731  1
  Ga  Ga15  1  0.335154  0.167548  0.954143  1
  Ga  Ga16  1  0.166707  0.333865  0.455189  1
  Ga  Ga17  1  0.335154  0.167548  0.545857  1
  Ga  Ga18  1  0.833681  0.665307  0.547276  1
  Ga  Ga19  1  0.833579  0.168412  0.547269  1
  Pt  Pt20  1  0.330226  0.665046  0.027605  1
  Pt  Pt21  1  0.330226  0.665046  0.472395  1
  Pt  Pt22  1  0.668505  0.334322  0.968248  1
  Pt  Pt23  1  0.668505  0.334322  0.531752  1
