# generated using pymatgen
data_RbMnCrSe4
_symmetry_space_group_name_H-M   'P 1'
_cell_length_a   3.72046900
_cell_length_b   8.18087885
_cell_length_c   6.30851100
_cell_angle_alpha   74.81999282
_cell_angle_beta   90.00000000
_cell_angle_gamma   90.00000000
_symmetry_Int_Tables_number   1
_chemical_formula_structural   RbMnCrSe4
_chemical_formula_sum   'Rb1 Mn1 Cr1 Se4'
_cell_volume   185.31065767
_cell_formula_units_Z   1
loop_
 _symmetry_equiv_pos_site_id
 _symmetry_equiv_pos_as_xyz
  1  'x, y, z'
loop_
 _atom_site_type_symbol
 _atom_site_label
 _atom_site_symmetry_multiplicity
 _atom_site_fract_x
 _atom_site_fract_y
 _atom_site_fract_z
 _atom_site_occupancy
  Rb  Rb0  1  0.500000  0.498659  0.654710  1
  Mn  Mn1  1  0.000000  0.999804  0.000939  1
  Cr  Cr2  1  0.500000  0.000913  0.502837  1
  Se  Se3  1  0.000000  0.829641  0.390482  1
  Se  Se4  1  0.500000  0.827611  0.900022  1
  Se  Se5  1  0.000000  0.171546  0.610264  1
  Se  Se6  1  0.500000  0.170946  0.107706  1
