# generated using pymatgen
data_Tb3DyAl4Ir3Pt
_symmetry_space_group_name_H-M   'P 1'
_cell_length_a   4.31775300
_cell_length_b   6.86926216
_cell_length_c   7.89940401
_cell_angle_alpha   90.04893613
_cell_angle_beta   90.00000000
_cell_angle_gamma   90.00000000
_symmetry_Int_Tables_number   1
_chemical_formula_structural   Tb3DyAl4Ir3Pt
_chemical_formula_sum   'Tb3 Dy1 Al4 Ir3 Pt1'
_cell_volume   234.29447840
_cell_formula_units_Z   1
loop_
 _symmetry_equiv_pos_site_id
 _symmetry_equiv_pos_as_xyz
  1  'x, y, z'
loop_
 _atom_site_type_symbol
 _atom_site_label
 _atom_site_symmetry_multiplicity
 _atom_site_fract_x
 _atom_site_fract_y
 _atom_site_fract_z
 _atom_site_occupancy
  Tb  Tb0  1  0.250000  0.471090  0.183529  1
  Tb  Tb1  1  0.750000  0.535123  0.818313  1
  Tb  Tb2  1  0.750000  0.028343  0.678322  1
  Dy  Dy3  1  0.250000  0.969450  0.319676  1
  Al  Al4  1  0.250000  0.856720  0.937815  1
  Al  Al5  1  0.750000  0.139109  0.064665  1
  Al  Al6  1  0.750000  0.640382  0.437370  1
  Al  Al7  1  0.250000  0.360557  0.560368  1
  Ir  Ir8  1  0.250000  0.732349  0.618928  1
  Ir  Ir9  1  0.750000  0.267844  0.381712  1
  Ir  Ir10  1  0.750000  0.768449  0.117599  1
  Pt  Pt11  1  0.250000  0.230581  0.881701  1
