# generated using pymatgen
data_Tb16Sc4Si15Ru
_symmetry_space_group_name_H-M   'P 1'
_cell_length_a   7.28326079
_cell_length_b   7.73783054
_cell_length_c   14.43581900
_cell_angle_alpha   90.00000000
_cell_angle_beta   90.00000000
_cell_angle_gamma   90.07152649
_symmetry_Int_Tables_number   1
_chemical_formula_structural   Tb16Sc4Si15Ru
_chemical_formula_sum   'Tb16 Sc4 Si15 Ru1'
_cell_volume   813.55358806
_cell_formula_units_Z   1
loop_
 _symmetry_equiv_pos_site_id
 _symmetry_equiv_pos_as_xyz
  1  'x, y, z'
loop_
 _atom_site_type_symbol
 _atom_site_label
 _atom_site_symmetry_multiplicity
 _atom_site_fract_x
 _atom_site_fract_y
 _atom_site_fract_z
 _atom_site_occupancy
  Tb  Tb0  1  0.673760  0.182716  0.627823  1
  Tb  Tb1  1  0.194499  0.326865  0.870906  1
  Tb  Tb2  1  0.318035  0.820659  0.125584  1
  Tb  Tb3  1  0.817439  0.676211  0.375136  1
  Tb  Tb4  1  0.318035  0.820659  0.374416  1
  Tb  Tb5  1  0.817439  0.676211  0.124864  1
  Tb  Tb6  1  0.673760  0.182716  0.872177  1
  Tb  Tb7  1  0.194499  0.326865  0.629094  1
  Tb  Tb8  1  0.520581  0.676522  0.597054  1
  Tb  Tb9  1  0.022563  0.815678  0.903120  1
  Tb  Tb10  1  0.475719  0.314439  0.097400  1
  Tb  Tb11  1  0.975614  0.183726  0.402644  1
  Tb  Tb12  1  0.475719  0.314439  0.402600  1
  Tb  Tb13  1  0.975614  0.183726  0.097356  1
  Tb  Tb14  1  0.520581  0.676522  0.902946  1
  Tb  Tb15  1  0.022563  0.815678  0.596880  1
  Sc  Sc16  1  0.837506  0.516121  0.750000  1
  Sc  Sc17  1  0.350400  0.979636  0.750000  1
  Sc  Sc18  1  0.151170  0.481047  0.250000  1
  Sc  Sc19  1  0.650079  0.016478  0.250000  1
  Si  Si20  1  0.647842  0.972695  0.459112  1
  Si  Si21  1  0.150455  0.527284  0.040223  1
  Si  Si22  1  0.348182  0.026183  0.959662  1
  Si  Si23  1  0.855461  0.470251  0.541444  1
  Si  Si24  1  0.348182  0.026183  0.540338  1
  Si  Si25  1  0.855461  0.470251  0.958556  1
  Si  Si26  1  0.647842  0.972695  0.040888  1
  Si  Si27  1  0.150455  0.527284  0.459777  1
  Si  Si28  1  0.986721  0.092628  0.750000  1
  Si  Si29  1  0.515417  0.591266  0.250000  1
  Si  Si30  1  0.012126  0.906978  0.250000  1
  Si  Si31  1  0.732417  0.868623  0.750000  1
  Si  Si32  1  0.225466  0.641204  0.750000  1
  Si  Si33  1  0.270771  0.134244  0.250000  1
  Si  Si34  1  0.773786  0.364760  0.250000  1
  Ru  Ru35  1  0.493841  0.420563  0.750000  1
