# generated using pymatgen
data_Tb16In4Pd2RuRh
_symmetry_space_group_name_H-M   'P 1'
_cell_length_a   9.71111848
_cell_length_b   9.73771344
_cell_length_c   9.74142773
_cell_angle_alpha   60.01261973
_cell_angle_beta   60.27806097
_cell_angle_gamma   59.90937085
_symmetry_Int_Tables_number   1
_chemical_formula_structural   Tb16In4Pd2RuRh
_chemical_formula_sum   'Tb16 In4 Pd2 Ru1 Rh1'
_cell_volume   652.34918544
_cell_formula_units_Z   1
loop_
 _symmetry_equiv_pos_site_id
 _symmetry_equiv_pos_as_xyz
  1  'x, y, z'
loop_
 _atom_site_type_symbol
 _atom_site_label
 _atom_site_symmetry_multiplicity
 _atom_site_fract_x
 _atom_site_fract_y
 _atom_site_fract_z
 _atom_site_occupancy
  Tb  Tb0  1  0.809440  0.810532  0.196669  1
  Tb  Tb1  1  0.809767  0.190815  0.808604  1
  Tb  Tb2  1  0.195266  0.185700  0.808595  1
  Tb  Tb3  1  0.649645  0.046605  0.647698  1
  Tb  Tb4  1  0.060431  0.062209  0.434003  1
  Tb  Tb5  1  0.435275  0.439927  0.061092  1
  Tb  Tb6  1  0.649645  0.656051  0.647698  1
  Tb  Tb7  1  0.809440  0.183358  0.196669  1
  Tb  Tb8  1  0.195266  0.810439  0.808595  1
  Tb  Tb9  1  0.056276  0.651228  0.641269  1
  Tb  Tb10  1  0.435275  0.063707  0.061092  1
  Tb  Tb11  1  0.438936  0.063049  0.434966  1
  Tb  Tb12  1  0.061369  0.438940  0.060752  1
  Tb  Tb13  1  0.641603  0.649779  0.058838  1
  Tb  Tb14  1  0.187508  0.810297  0.191897  1
  Tb  Tb15  1  0.060431  0.443358  0.434003  1
  In  In16  1  0.417266  0.416241  0.417192  1
  In  In17  1  0.419030  0.416897  0.747174  1
  In  In18  1  0.417266  0.749298  0.417192  1
  In  In19  1  0.747587  0.416749  0.418914  1
  Pd  Pd20  1  0.857606  0.430240  0.858876  1
  Pd  Pd21  1  0.857606  0.853280  0.858876  1
  Ru  Ru22  1  0.860452  0.856124  0.427300  1
  Rh  Rh23  1  0.427611  0.855178  0.862032  1
