# generated using pymatgen
data_Tb2Eu(AgGe)3
_symmetry_space_group_name_H-M   'P 1'
_cell_length_a   7.33200642
_cell_length_b   7.33200660
_cell_length_c   4.23962300
_cell_angle_alpha   90.00000000
_cell_angle_beta   90.00000000
_cell_angle_gamma   120.26432492
_symmetry_Int_Tables_number   1
_chemical_formula_structural   Tb2Eu(AgGe)3
_chemical_formula_sum   'Tb2 Eu1 Ag3 Ge3'
_cell_volume   196.85236335
_cell_formula_units_Z   1
loop_
 _symmetry_equiv_pos_site_id
 _symmetry_equiv_pos_as_xyz
  1  'x, y, z'
loop_
 _atom_site_type_symbol
 _atom_site_label
 _atom_site_symmetry_multiplicity
 _atom_site_fract_x
 _atom_site_fract_y
 _atom_site_fract_z
 _atom_site_occupancy
  Tb  Tb0  1  0.586266  0.000872  0.000000  1
  Tb  Tb1  1  0.000872  0.586266  0.000000  1
  Eu  Eu2  1  0.416014  0.416014  0.000000  1
  Ag  Ag3  1  0.250801  0.998020  0.500000  1
  Ag  Ag4  1  0.998020  0.250801  0.500000  1
  Ag  Ag5  1  0.750286  0.750286  0.500000  1
  Ge  Ge6  1  0.330820  0.671897  0.500000  1
  Ge  Ge7  1  0.671897  0.330820  0.500000  1
  Ge  Ge8  1  0.995023  0.995023  0.000000  1
