# generated using pymatgen
data_Pr10Ru3Rh
_symmetry_space_group_name_H-M   'P 1'
_cell_length_a   9.00806361
_cell_length_b   9.02611553
_cell_length_c   7.42474430
_cell_angle_alpha   83.82403372
_cell_angle_beta   83.83701578
_cell_angle_gamma   43.30031390
_symmetry_Int_Tables_number   1
_chemical_formula_structural   Pr10Ru3Rh
_chemical_formula_sum   'Pr10 Ru3 Rh1'
_cell_volume   411.24696087
_cell_formula_units_Z   1
loop_
 _symmetry_equiv_pos_site_id
 _symmetry_equiv_pos_as_xyz
  1  'x, y, z'
loop_
 _atom_site_type_symbol
 _atom_site_label
 _atom_site_symmetry_multiplicity
 _atom_site_fract_x
 _atom_site_fract_y
 _atom_site_fract_z
 _atom_site_occupancy
  Pr  Pr0  1  0.015705  0.800389  0.916591  1
  Pr  Pr1  1  0.201843  0.984516  0.585808  1
  Pr  Pr2  1  0.983296  0.201387  0.086252  1
  Pr  Pr3  1  0.795828  0.020479  0.412519  1
  Pr  Pr4  1  0.360394  0.205662  0.816211  1
  Pr  Pr5  1  0.788372  0.641551  0.685474  1
  Pr  Pr6  1  0.642349  0.790793  0.185714  1
  Pr  Pr7  1  0.208341  0.356757  0.313698  1
  Pr  Pr8  1  0.575333  0.425362  0.750430  1
  Pr  Pr9  1  0.426671  0.575101  0.247433  1
  Ru  Ru10  1  0.399650  0.822948  0.924137  1
  Ru  Ru11  1  0.823258  0.399339  0.425930  1
  Ru  Ru12  1  0.600263  0.177024  0.074692  1
  Rh  Rh13  1  0.178698  0.598691  0.575111  1
