# generated using pymatgen
data_Tb5Dy2ErIn8
_symmetry_space_group_name_H-M   'P 1'
_cell_length_a   6.52373346
_cell_length_b   6.52373490
_cell_length_c   10.36883500
_cell_angle_alpha   90.00000000
_cell_angle_beta   90.00000000
_cell_angle_gamma   104.06254490
_symmetry_Int_Tables_number   1
_chemical_formula_structural   Tb5Dy2ErIn8
_chemical_formula_sum   'Tb5 Dy2 Er1 In8'
_cell_volume   428.06342170
_cell_formula_units_Z   1
loop_
 _symmetry_equiv_pos_site_id
 _symmetry_equiv_pos_as_xyz
  1  'x, y, z'
loop_
 _atom_site_type_symbol
 _atom_site_label
 _atom_site_symmetry_multiplicity
 _atom_site_fract_x
 _atom_site_fract_y
 _atom_site_fract_z
 _atom_site_occupancy
  Tb  Tb0  1  0.481621  0.481621  0.750000  1
  Tb  Tb1  1  0.248454  0.752069  0.499582  1
  Tb  Tb2  1  0.248454  0.752069  0.000418  1
  Tb  Tb3  1  0.752069  0.248454  0.499582  1
  Tb  Tb4  1  0.752069  0.248454  0.000418  1
  Dy  Dy5  1  0.984797  0.984797  0.250000  1
  Dy  Dy6  1  0.014196  0.014196  0.750000  1
  Er  Er7  1  0.517654  0.517654  0.250000  1
  In  In8  1  0.253060  0.253060  0.011332  1
  In  In9  1  0.747194  0.747194  0.990233  1
  In  In10  1  0.253060  0.253060  0.488668  1
  In  In11  1  0.747194  0.747194  0.509767  1
  In  In12  1  0.490737  0.011989  0.250000  1
  In  In13  1  0.988142  0.509310  0.750000  1
  In  In14  1  0.509310  0.988142  0.750000  1
  In  In15  1  0.011989  0.490737  0.250000  1
