# generated using pymatgen
data_TbNd3(In2Pd3)4
_symmetry_space_group_name_H-M   'P 1'
_cell_length_a   4.67138900
_cell_length_b   9.95060055
_cell_length_c   10.42534358
_cell_angle_alpha   89.96190317
_cell_angle_beta   90.00000000
_cell_angle_gamma   90.00000000
_symmetry_Int_Tables_number   1
_chemical_formula_structural   TbNd3(In2Pd3)4
_chemical_formula_sum   'Tb1 Nd3 In8 Pd12'
_cell_volume   484.60245142
_cell_formula_units_Z   1
loop_
 _symmetry_equiv_pos_site_id
 _symmetry_equiv_pos_as_xyz
  1  'x, y, z'
loop_
 _atom_site_type_symbol
 _atom_site_label
 _atom_site_symmetry_multiplicity
 _atom_site_fract_x
 _atom_site_fract_y
 _atom_site_fract_z
 _atom_site_occupancy
  Tb  Tb0  1  0.750000  0.944101  0.775725  1
  Nd  Nd1  1  0.250000  0.445803  0.729266  1
  Nd  Nd2  1  0.250000  0.054964  0.228440  1
  Nd  Nd3  1  0.750000  0.554681  0.271065  1
  In  In4  1  0.250000  0.884769  0.513858  1
  In  In5  1  0.250000  0.615768  0.013742  1
  In  In6  1  0.750000  0.115011  0.488969  1
  In  In7  1  0.750000  0.384267  0.984486  1
  In  In8  1  0.250000  0.160095  0.894781  1
  In  In9  1  0.250000  0.338567  0.396753  1
  In  In10  1  0.750000  0.838812  0.102838  1
  In  In11  1  0.750000  0.663770  0.604895  1
  Pd  Pd12  1  0.250000  0.138299  0.625088  1
  Pd  Pd13  1  0.250000  0.357470  0.122446  1
  Pd  Pd14  1  0.750000  0.857821  0.376405  1
  Pd  Pd15  1  0.750000  0.646122  0.877040  1
  Pd  Pd16  1  0.250000  0.746989  0.739905  1
  Pd  Pd17  1  0.250000  0.758022  0.240121  1
  Pd  Pd18  1  0.750000  0.256619  0.259400  1
  Pd  Pd19  1  0.750000  0.237583  0.759114  1
  Pd  Pd20  1  0.250000  0.895189  0.970591  1
  Pd  Pd21  1  0.250000  0.605483  0.474175  1
  Pd  Pd22  1  0.750000  0.103531  0.023746  1
  Pd  Pd23  1  0.750000  0.396263  0.527149  1
