# generated using pymatgen
data_KGe2IrPt
_symmetry_space_group_name_H-M   'P 1'
_cell_length_a   7.37153971
_cell_length_b   7.37154008
_cell_length_c   7.37154085
_cell_angle_alpha   147.93736339
_cell_angle_beta   147.93736286
_cell_angle_gamma   45.97783664
_symmetry_Int_Tables_number   1
_chemical_formula_structural   KGe2IrPt
_chemical_formula_sum   'K1 Ge2 Ir1 Pt1'
_cell_volume   112.49329365
_cell_formula_units_Z   1
loop_
 _symmetry_equiv_pos_site_id
 _symmetry_equiv_pos_as_xyz
  1  'x, y, z'
loop_
 _atom_site_type_symbol
 _atom_site_label
 _atom_site_symmetry_multiplicity
 _atom_site_fract_x
 _atom_site_fract_y
 _atom_site_fract_z
 _atom_site_occupancy
  K  K0  1  0.000000  0.000000  0.000000  1
  Ge  Ge1  1  0.356778  0.356778  0.000000  1
  Ge  Ge2  1  0.643222  0.643222  0.000000  1
  Ir  Ir3  1  0.250001  0.750001  0.500001  1
  Pt  Pt4  1  0.750001  0.250001  0.500001  1
