# generated using pymatgen
data_Tm2B(Ir2Rh)2
_symmetry_space_group_name_H-M   'P 1'
_cell_length_a   5.79536594
_cell_length_b   5.79536478
_cell_length_c   5.80008500
_cell_angle_alpha   59.97304778
_cell_angle_beta   59.97305444
_cell_angle_gamma   60.21405000
_symmetry_Int_Tables_number   1
_chemical_formula_structural   Tm2B(Ir2Rh)2
_chemical_formula_sum   'Tm2 B1 Ir4 Rh2'
_cell_volume   137.91167491
_cell_formula_units_Z   1
loop_
 _symmetry_equiv_pos_site_id
 _symmetry_equiv_pos_as_xyz
  1  'x, y, z'
loop_
 _atom_site_type_symbol
 _atom_site_label
 _atom_site_symmetry_multiplicity
 _atom_site_fract_x
 _atom_site_fract_y
 _atom_site_fract_z
 _atom_site_occupancy
  Tm  Tm0  1  0.749714  0.749714  0.750487  1
  Tm  Tm1  1  0.250286  0.250286  0.249916  1
  B  B2  1  0.500000  0.500000  0.498622  1
  Ir  Ir3  1  0.758150  0.758150  0.242622  1
  Ir  Ir4  1  0.759833  0.240167  0.241766  1
  Ir  Ir5  1  0.240167  0.759833  0.241766  1
  Ir  Ir6  1  0.241850  0.241850  0.758922  1
  Rh  Rh7  1  0.758446  0.241554  0.757949  1
  Rh  Rh8  1  0.241554  0.758446  0.757949  1
