# generated using pymatgen
data_Rb12Na8Ti3SnSb12
_symmetry_space_group_name_H-M   'P 1'
_cell_length_a   11.52445902
_cell_length_b   11.52445779
_cell_length_c   16.82781768
_cell_angle_alpha   89.97992189
_cell_angle_beta   89.97992935
_cell_angle_gamma   142.88185396
_symmetry_Int_Tables_number   1
_chemical_formula_structural   Rb12Na8Ti3SnSb12
_chemical_formula_sum   'Rb12 Na8 Ti3 Sn1 Sb12'
_cell_volume   1348.70657508
_cell_formula_units_Z   1
loop_
 _symmetry_equiv_pos_site_id
 _symmetry_equiv_pos_as_xyz
  1  'x, y, z'
loop_
 _atom_site_type_symbol
 _atom_site_label
 _atom_site_symmetry_multiplicity
 _atom_site_fract_x
 _atom_site_fract_y
 _atom_site_fract_z
 _atom_site_occupancy
  Rb  Rb0  1  0.943300  0.606265  0.829569  1
  Rb  Rb1  1  0.555705  0.893729  0.327195  1
  Rb  Rb2  1  0.393735  0.056700  0.170431  1
  Rb  Rb3  1  0.057202  0.394878  0.172736  1
  Rb  Rb4  1  0.900771  0.567128  0.327862  1
  Rb  Rb5  1  0.432872  0.099229  0.672138  1
  Rb  Rb6  1  0.605122  0.942798  0.827264  1
  Rb  Rb7  1  0.274529  0.272088  0.320176  1
  Rb  Rb8  1  0.776738  0.776743  0.177401  1
  Rb  Rb9  1  0.223257  0.223262  0.822599  1
  Rb  Rb10  1  0.727912  0.725471  0.679824  1
  Rb  Rb11  1  0.106271  0.444295  0.672805  1
  Na  Na12  1  0.919247  0.080753  0.000000  1
  Na  Na13  1  0.581247  0.418753  0.500000  1
  Na  Na14  1  0.080521  0.919479  0.000000  1
  Na  Na15  1  0.418625  0.581375  0.500000  1
  Na  Na16  1  0.754624  0.245376  0.000000  1
  Na  Na17  1  0.745758  0.254242  0.500000  1
  Na  Na18  1  0.245571  0.754429  0.000000  1
  Na  Na19  1  0.254671  0.745329  0.500000  1
  Ti  Ti20  1  0.585237  0.414763  0.000000  1
  Ti  Ti21  1  0.916695  0.083305  0.500000  1
  Ti  Ti22  1  0.414706  0.585294  0.000000  1
  Sn  Sn23  1  0.084855  0.915145  0.500000  1
  Sb  Sb24  1  0.866992  0.555931  0.096927  1
  Sb  Sb25  1  0.444069  0.133008  0.903073  1
  Sb  Sb26  1  0.636182  0.945602  0.596896  1
  Sb  Sb27  1  0.934100  0.615739  0.603742  1
  Sb  Sb28  1  0.133033  0.444149  0.903045  1
  Sb  Sb29  1  0.555851  0.866967  0.096955  1
  Sb  Sb30  1  0.384261  0.065900  0.396258  1
  Sb  Sb31  1  0.202319  0.210194  0.594312  1
  Sb  Sb32  1  0.694988  0.695171  0.912415  1
  Sb  Sb33  1  0.304829  0.305012  0.087585  1
  Sb  Sb34  1  0.054398  0.363818  0.403104  1
  Sb  Sb35  1  0.789806  0.797681  0.405688  1
