# generated using pymatgen
data_K3La(CoO4)2
_symmetry_space_group_name_H-M   'P 1'
_cell_length_a   7.67496303
_cell_length_b   5.85531100
_cell_length_c   9.93449885
_cell_angle_alpha   90.00000000
_cell_angle_beta   91.11782794
_cell_angle_gamma   90.00000000
_symmetry_Int_Tables_number   1
_chemical_formula_structural   K3La(CoO4)2
_chemical_formula_sum   'K6 La2 Co4 O16'
_cell_volume   446.36441528
_cell_formula_units_Z   2
loop_
 _symmetry_equiv_pos_site_id
 _symmetry_equiv_pos_as_xyz
  1  'x, y, z'
loop_
 _atom_site_type_symbol
 _atom_site_label
 _atom_site_symmetry_multiplicity
 _atom_site_fract_x
 _atom_site_fract_y
 _atom_site_fract_z
 _atom_site_occupancy
  K  K0  1  0.686548  0.503413  0.082426  1
  K  K1  1  0.011468  0.992837  0.188370  1
  K  K2  1  0.139429  0.486774  0.405695  1
  K  K3  1  0.860571  0.986773  0.594305  1
  K  K4  1  0.988532  0.492838  0.811630  1
  K  K5  1  0.313452  0.003412  0.917573  1
  La  La6  1  0.506299  0.011081  0.295287  1
  La  La7  1  0.493701  0.511081  0.704713  1
  Co  Co8  1  0.258047  0.504871  0.084195  1
  Co  Co9  1  0.703184  0.481435  0.424972  1
  Co  Co10  1  0.296816  0.981434  0.575028  1
  Co  Co11  1  0.741953  0.004872  0.915805  1
  O  O12  1  0.684366  0.009162  0.080306  1
  O  O13  1  0.042864  0.515625  0.103098  1
  O  O14  1  0.336908  0.260117  0.156817  1
  O  O15  1  0.351169  0.732665  0.165605  1
  O  O16  1  0.743409  0.720425  0.336400  1
  O  O17  1  0.776204  0.245155  0.344648  1
  O  O18  1  0.213818  0.997797  0.415653  1
  O  O19  1  0.489093  0.420033  0.448910  1
  O  O20  1  0.510907  0.920032  0.551090  1
  O  O21  1  0.786182  0.497796  0.584348  1
  O  O22  1  0.223796  0.745155  0.655353  1
  O  O23  1  0.256591  0.220426  0.663599  1
  O  O24  1  0.648831  0.232666  0.834394  1
  O  O25  1  0.663092  0.760118  0.843183  1
  O  O26  1  0.957136  0.015624  0.896901  1
  O  O27  1  0.315634  0.509163  0.919695  1
