# generated using pymatgen
data_Ho5Tm5InSb5
_symmetry_space_group_name_H-M   'P 1'
_cell_length_a   8.88502600
_cell_length_b   8.89418906
_cell_length_c   6.32635700
_cell_angle_alpha   90.00000000
_cell_angle_beta   90.00000000
_cell_angle_gamma   119.96592613
_symmetry_Int_Tables_number   1
_chemical_formula_structural   Ho5Tm5InSb5
_chemical_formula_sum   'Ho5 Tm5 In1 Sb5'
_cell_volume   433.11018848
_cell_formula_units_Z   1
loop_
 _symmetry_equiv_pos_site_id
 _symmetry_equiv_pos_as_xyz
  1  'x, y, z'
loop_
 _atom_site_type_symbol
 _atom_site_label
 _atom_site_symmetry_multiplicity
 _atom_site_fract_x
 _atom_site_fract_y
 _atom_site_fract_z
 _atom_site_occupancy
  Ho  Ho0  1  0.753646  0.756437  0.250000  1
  Ho  Ho1  1  0.997209  0.243563  0.250000  1
  Ho  Ho2  1  0.004671  0.758413  0.750000  1
  Ho  Ho3  1  0.246258  0.241587  0.750000  1
  Ho  Ho4  1  0.242401  0.000000  0.250000  1
  Tm  Tm5  1  0.333740  0.669248  0.000488  1
  Tm  Tm6  1  0.664493  0.330752  0.499512  1
  Tm  Tm7  1  0.664493  0.330752  0.000488  1
  Tm  Tm8  1  0.333740  0.669248  0.499512  1
  Tm  Tm9  1  0.757092  0.000000  0.750000  1
  In  In10  1  0.397110  0.000000  0.750000  1
  Sb  Sb11  1  0.389394  0.391031  0.250000  1
  Sb  Sb12  1  0.998365  0.608969  0.250000  1
  Sb  Sb13  1  0.000006  0.389456  0.750000  1
  Sb  Sb14  1  0.610551  0.610544  0.750000  1
  Sb  Sb15  1  0.606833  0.000000  0.250000  1
