# generated using pymatgen
data_Ho10Th2Tc3Pt
_symmetry_space_group_name_H-M   'P 1'
_cell_length_a   6.33459929
_cell_length_b   7.32848118
_cell_length_c   9.34002600
_cell_angle_alpha   90.00000000
_cell_angle_beta   90.00000000
_cell_angle_gamma   89.97305382
_symmetry_Int_Tables_number   1
_chemical_formula_structural   Ho10Th2Tc3Pt
_chemical_formula_sum   'Ho10 Th2 Tc3 Pt1'
_cell_volume   433.59190077
_cell_formula_units_Z   1
loop_
 _symmetry_equiv_pos_site_id
 _symmetry_equiv_pos_as_xyz
  1  'x, y, z'
loop_
 _atom_site_type_symbol
 _atom_site_label
 _atom_site_symmetry_multiplicity
 _atom_site_fract_x
 _atom_site_fract_y
 _atom_site_fract_z
 _atom_site_occupancy
  Ho  Ho0  1  0.329953  0.676540  0.065767  1
  Ho  Ho1  1  0.163600  0.178102  0.438368  1
  Ho  Ho2  1  0.671257  0.319313  0.565088  1
  Ho  Ho3  1  0.835752  0.826468  0.934054  1
  Ho  Ho4  1  0.671257  0.319313  0.934912  1
  Ho  Ho5  1  0.835752  0.826468  0.565946  1
  Ho  Ho6  1  0.329953  0.676540  0.434233  1
  Ho  Ho7  1  0.163600  0.178102  0.061632  1
  Ho  Ho8  1  0.131252  0.458117  0.750000  1
  Ho  Ho9  1  0.370626  0.964889  0.750000  1
  Th  Th10  1  0.860236  0.550513  0.250000  1
  Th  Th11  1  0.633710  0.049585  0.250000  1
  Tc  Tc12  1  0.019705  0.872442  0.250000  1
  Tc  Tc13  1  0.478734  0.373716  0.250000  1
  Tc  Tc14  1  0.959231  0.115216  0.750000  1
  Pt  Pt15  1  0.545381  0.614674  0.750000  1
