# generated using pymatgen
data_DyY19(Bi2As)4
_symmetry_space_group_name_H-M   'P 1'
_cell_length_a   8.09244505
_cell_length_b   9.15483715
_cell_length_c   12.18946305
_cell_angle_alpha   89.98737448
_cell_angle_beta   89.98901928
_cell_angle_gamma   89.99892080
_symmetry_Int_Tables_number   1
_chemical_formula_structural   DyY19(Bi2As)4
_chemical_formula_sum   'Dy1 Y19 Bi8 As4'
_cell_volume   903.05653370
_cell_formula_units_Z   1
loop_
 _symmetry_equiv_pos_site_id
 _symmetry_equiv_pos_as_xyz
  1  'x, y, z'
loop_
 _atom_site_type_symbol
 _atom_site_label
 _atom_site_symmetry_multiplicity
 _atom_site_fract_x
 _atom_site_fract_y
 _atom_site_fract_z
 _atom_site_occupancy
  Dy  Dy0  1  0.184794  0.554028  0.935630  1
  Y  Y1  1  0.846954  0.749812  0.789565  1
  Y  Y2  1  0.153160  0.250124  0.210504  1
  Y  Y3  1  0.346643  0.249972  0.710624  1
  Y  Y4  1  0.653105  0.750054  0.289454  1
  Y  Y5  1  0.368775  0.749751  0.705277  1
  Y  Y6  1  0.631194  0.249964  0.294862  1
  Y  Y7  1  0.868960  0.249900  0.794976  1
  Y  Y8  1  0.131190  0.749878  0.205033  1
  Y  Y9  1  0.961540  0.749850  0.500823  1
  Y  Y10  1  0.038415  0.249997  0.499164  1
  Y  Y11  1  0.461496  0.250273  0.999195  1
  Y  Y12  1  0.538074  0.749591  0.000754  1
  Y  Y13  1  0.684820  0.052677  0.564627  1
  Y  Y14  1  0.314915  0.947194  0.435335  1
  Y  Y15  1  0.184987  0.946992  0.935454  1
  Y  Y16  1  0.314959  0.552753  0.435439  1
  Y  Y17  1  0.815163  0.052977  0.064339  1
  Y  Y18  1  0.684897  0.447233  0.564660  1
  Y  Y19  1  0.815667  0.447150  0.064316  1
  Bi  Bi20  1  0.575673  0.490360  0.827259  1
  Bi  Bi21  1  0.424290  0.509439  0.172751  1
  Bi  Bi22  1  0.075746  0.509378  0.672797  1
  Bi  Bi23  1  0.424431  0.990532  0.172643  1
  Bi  Bi24  1  0.924186  0.490491  0.327295  1
  Bi  Bi25  1  0.575616  0.009453  0.827368  1
  Bi  Bi26  1  0.924243  0.009450  0.327282  1
  Bi  Bi27  1  0.075632  0.990394  0.672647  1
  As  As28  1  0.580854  0.750009  0.517126  1
  As  As29  1  0.418983  0.249957  0.482921  1
  As  As30  1  0.081778  0.250206  0.982635  1
  As  As31  1  0.918861  0.750162  0.017248  1
