# generated using pymatgen
data_Er3HfZn2Rh3
_symmetry_space_group_name_H-M   'P 1'
_cell_length_a   7.17544400
_cell_length_b   7.23188217
_cell_length_c   3.94770800
_cell_angle_alpha   90.00000000
_cell_angle_beta   90.00000000
_cell_angle_gamma   119.74216810
_symmetry_Int_Tables_number   1
_chemical_formula_structural   Er3HfZn2Rh3
_chemical_formula_sum   'Er3 Hf1 Zn2 Rh3'
_cell_volume   177.86817765
_cell_formula_units_Z   1
loop_
 _symmetry_equiv_pos_site_id
 _symmetry_equiv_pos_as_xyz
  1  'x, y, z'
loop_
 _atom_site_type_symbol
 _atom_site_label
 _atom_site_symmetry_multiplicity
 _atom_site_fract_x
 _atom_site_fract_y
 _atom_site_fract_z
 _atom_site_occupancy
  Er  Er0  1  0.980232  0.562521  0.500000  1
  Er  Er1  1  0.417711  0.437479  0.500000  1
  Er  Er2  1  0.617574  0.000000  0.500000  1
  Hf  Hf3  1  0.238619  0.000000  0.000000  1
  Zn  Zn4  1  0.751273  0.743968  0.000000  1
  Zn  Zn5  1  0.007305  0.256032  0.000000  1
  Rh  Rh6  1  0.648194  0.317680  0.000000  1
  Rh  Rh7  1  0.330513  0.682320  0.000000  1
  Rh  Rh8  1  0.008579  0.000000  0.500000  1
