# generated using pymatgen
data_Tb3ThCdIr
_symmetry_space_group_name_H-M   'P 1'
_cell_length_a   9.78028142
_cell_length_b   9.78028098
_cell_length_c   9.78028100
_cell_angle_alpha   59.99999656
_cell_angle_beta   59.99999804
_cell_angle_gamma   60.00000307
_symmetry_Int_Tables_number   1
_chemical_formula_structural   Tb3ThCdIr
_chemical_formula_sum   'Tb12 Th4 Cd4 Ir4'
_cell_volume   661.51395589
_cell_formula_units_Z   4
loop_
 _symmetry_equiv_pos_site_id
 _symmetry_equiv_pos_as_xyz
  1  'x, y, z'
loop_
 _atom_site_type_symbol
 _atom_site_label
 _atom_site_symmetry_multiplicity
 _atom_site_fract_x
 _atom_site_fract_y
 _atom_site_fract_z
 _atom_site_occupancy
  Tb  Tb0  1  0.061563  0.438437  0.438437  1
  Tb  Tb1  1  0.438437  0.061563  0.061563  1
  Tb  Tb2  1  0.438437  0.061563  0.438437  1
  Tb  Tb3  1  0.061563  0.438437  0.061563  1
  Tb  Tb4  1  0.438437  0.438437  0.061563  1
  Tb  Tb5  1  0.061563  0.061563  0.438437  1
  Tb  Tb6  1  0.185747  0.814253  0.814253  1
  Tb  Tb7  1  0.814253  0.185747  0.185747  1
  Tb  Tb8  1  0.814253  0.185747  0.814253  1
  Tb  Tb9  1  0.185747  0.814253  0.185747  1
  Tb  Tb10  1  0.814253  0.814253  0.185747  1
  Tb  Tb11  1  0.185747  0.185747  0.814253  1
  Th  Th12  1  0.599332  0.599332  0.599332  1
  Th  Th13  1  0.599332  0.599332  0.202006  1
  Th  Th14  1  0.599332  0.202006  0.599332  1
  Th  Th15  1  0.202006  0.599332  0.599332  1
  Cd  Cd16  1  0.832067  0.832067  0.832067  1
  Cd  Cd17  1  0.832067  0.832067  0.503801  1
  Cd  Cd18  1  0.832067  0.503801  0.832067  1
  Cd  Cd19  1  0.503801  0.832067  0.832067  1
  Ir  Ir20  1  0.393671  0.393671  0.393671  1
  Ir  Ir21  1  0.393671  0.393671  0.818988  1
  Ir  Ir22  1  0.393671  0.818988  0.393671  1
  Ir  Ir23  1  0.818988  0.393671  0.393671  1
