# generated using pymatgen
data_Y4Al24Ni8Pd
_symmetry_space_group_name_H-M   'P 1'
_cell_length_a   7.32979796
_cell_length_b   7.36164512
_cell_length_c   12.82174310
_cell_angle_alpha   84.61570086
_cell_angle_beta   79.02528808
_cell_angle_gamma   59.95600636
_symmetry_Int_Tables_number   1
_chemical_formula_structural   Y4Al24Ni8Pd
_chemical_formula_sum   'Y4 Al24 Ni8 Pd1'
_cell_volume   587.94272431
_cell_formula_units_Z   1
loop_
 _symmetry_equiv_pos_site_id
 _symmetry_equiv_pos_as_xyz
  1  'x, y, z'
loop_
 _atom_site_type_symbol
 _atom_site_label
 _atom_site_symmetry_multiplicity
 _atom_site_fract_x
 _atom_site_fract_y
 _atom_site_fract_z
 _atom_site_occupancy
  Y  Y0  1  0.393927  0.168438  0.805421  1
  Y  Y1  1  0.605471  0.831573  0.193319  1
  Y  Y2  1  0.734830  0.497860  0.805671  1
  Y  Y3  1  0.265065  0.503483  0.193271  1
  Al  Al4  1  0.680671  0.833918  0.947465  1
  Al  Al5  1  0.319528  0.167770  0.050698  1
  Al  Al6  1  0.144654  0.831768  0.567782  1
  Al  Al7  1  0.851051  0.168596  0.443465  1
  Al  Al8  1  0.480755  0.166468  0.558244  1
  Al  Al9  1  0.524263  0.833342  0.444655  1
  Al  Al10  1  0.214605  0.173332  0.335007  1
  Al  Al11  1  0.783614  0.834130  0.664283  1
  Al  Al12  1  0.440616  0.504551  0.664562  1
  Al  Al13  1  0.571083  0.483470  0.334727  1
  Al  Al14  1  0.111370  0.160220  0.662999  1
  Al  Al15  1  0.881363  0.841801  0.336134  1
  Al  Al16  1  0.354009  0.497173  0.947393  1
  Al  Al17  1  0.646084  0.503332  0.051103  1
  Al  Al18  1  0.013136  0.169614  0.960301  1
  Al  Al19  1  0.986368  0.830958  0.037254  1
  Al  Al20  1  0.185885  0.494667  0.444478  1
  Al  Al21  1  0.814014  0.499776  0.558163  1
  Al  Al22  1  0.727749  0.164473  0.183919  1
  Al  Al23  1  0.270395  0.836047  0.814896  1
  Al  Al24  1  0.061768  0.626759  0.814098  1
  Al  Al25  1  0.938659  0.374512  0.184857  1
  Al  Al26  1  0.851477  0.045830  0.815468  1
  Al  Al27  1  0.145844  0.958149  0.178750  1
  Ni  Ni28  1  0.119889  0.492582  0.638526  1
  Ni  Ni29  1  0.880299  0.507046  0.362454  1
  Ni  Ni30  1  0.658895  0.170962  0.999689  1
  Ni  Ni31  1  0.341575  0.829649  0.998267  1
  Ni  Ni32  1  0.538699  0.166683  0.362921  1
  Ni  Ni33  1  0.461665  0.832198  0.638317  1
  Ni  Ni34  1  0.778926  0.173361  0.638701  1
  Ni  Ni35  1  0.999758  0.500408  0.999515  1
  Pd  Pd36  1  0.222045  0.825103  0.363231  1
