# generated using pymatgen
data_Tm6Mn8Fe3Co7P12
_symmetry_space_group_name_H-M   'P 1'
_cell_length_a   3.70270300
_cell_length_b   10.40064725
_cell_length_c   12.34182816
_cell_angle_alpha   90.11481059
_cell_angle_beta   90.00000000
_cell_angle_gamma   90.00000000
_symmetry_Int_Tables_number   1
_chemical_formula_structural   Tm6Mn8Fe3Co7P12
_chemical_formula_sum   'Tm6 Mn8 Fe3 Co7 P12'
_cell_volume   475.28911506
_cell_formula_units_Z   1
loop_
 _symmetry_equiv_pos_site_id
 _symmetry_equiv_pos_as_xyz
  1  'x, y, z'
loop_
 _atom_site_type_symbol
 _atom_site_label
 _atom_site_symmetry_multiplicity
 _atom_site_fract_x
 _atom_site_fract_y
 _atom_site_fract_z
 _atom_site_occupancy
  Tm  Tm0  1  0.000000  0.499792  0.523805  1
  Tm  Tm1  1  0.500000  0.998965  0.476105  1
  Tm  Tm2  1  0.500000  0.820468  0.210566  1
  Tm  Tm3  1  0.500000  0.180435  0.211066  1
  Tm  Tm4  1  0.000000  0.679926  0.789430  1
  Tm  Tm5  1  0.000000  0.319284  0.789272  1
  Mn  Mn6  1  0.500000  0.500052  0.162132  1
  Mn  Mn7  1  0.000000  0.999861  0.837768  1
  Mn  Mn8  1  0.000000  0.499920  0.989139  1
  Mn  Mn9  1  0.500000  0.999782  0.010843  1
  Mn  Mn10  1  0.500000  0.329983  0.995807  1
  Mn  Mn11  1  0.500000  0.669786  0.995689  1
  Mn  Mn12  1  0.000000  0.169201  0.004087  1
  Mn  Mn13  1  0.000000  0.830662  0.003818  1
  Fe  Fe14  1  0.500000  0.297603  0.430913  1
  Fe  Fe15  1  0.500000  0.703284  0.431752  1
  Fe  Fe16  1  0.000000  0.202418  0.569202  1
  Co  Co17  1  0.500000  0.499670  0.696854  1
  Co  Co18  1  0.000000  0.000566  0.303327  1
  Co  Co19  1  0.000000  0.797683  0.569355  1
  Co  Co20  1  0.500000  0.879228  0.703525  1
  Co  Co21  1  0.500000  0.119243  0.704656  1
  Co  Co22  1  0.000000  0.620630  0.295671  1
  Co  Co23  1  0.000000  0.380537  0.295365  1
  P  P24  1  0.500000  0.499559  0.875389  1
  P  P25  1  0.000000  0.000313  0.124741  1
  P  P26  1  0.500000  0.499855  0.348229  1
  P  P27  1  0.000000  0.002736  0.652606  1
  P  P28  1  0.500000  0.308981  0.612186  1
  P  P29  1  0.500000  0.688656  0.612726  1
  P  P30  1  0.000000  0.191011  0.388058  1
  P  P31  1  0.000000  0.810079  0.386596  1
  P  P32  1  0.500000  0.849422  0.881474  1
  P  P33  1  0.500000  0.150182  0.881902  1
  P  P34  1  0.000000  0.651072  0.117965  1
  P  P35  1  0.000000  0.349156  0.117981  1
