# generated using pymatgen
data_La4Yb4SbPd24
_symmetry_space_group_name_H-M   'P 1'
_cell_length_a   8.49498296
_cell_length_b   8.49498296
_cell_length_c   8.49498296
_cell_angle_alpha   90.05499625
_cell_angle_beta   90.05499625
_cell_angle_gamma   90.05499625
_symmetry_Int_Tables_number   1
_chemical_formula_structural   La4Yb4SbPd24
_chemical_formula_sum   'La4 Yb4 Sb1 Pd24'
_cell_volume   613.03735003
_cell_formula_units_Z   1
loop_
 _symmetry_equiv_pos_site_id
 _symmetry_equiv_pos_as_xyz
  1  'x, y, z'
loop_
 _atom_site_type_symbol
 _atom_site_label
 _atom_site_symmetry_multiplicity
 _atom_site_fract_x
 _atom_site_fract_y
 _atom_site_fract_z
 _atom_site_occupancy
  La  La0  1  0.747036  0.253189  0.253189  1
  La  La1  1  0.253189  0.253189  0.747036  1
  La  La2  1  0.253189  0.747036  0.253189  1
  La  La3  1  0.252458  0.252458  0.252458  1
  Yb  Yb4  1  0.747627  0.747627  0.252490  1
  Yb  Yb5  1  0.747627  0.252490  0.747627  1
  Yb  Yb6  1  0.252490  0.747627  0.747627  1
  Yb  Yb7  1  0.747645  0.747645  0.747645  1
  Sb  Sb8  1  0.998987  0.998987  0.998987  1
  Pd  Pd9  1  0.997316  0.997316  0.313745  1
  Pd  Pd10  1  0.732748  0.997225  0.502170  1
  Pd  Pd11  1  0.732748  0.502170  0.997225  1
  Pd  Pd12  1  0.502170  0.997225  0.732748  1
  Pd  Pd13  1  0.997225  0.732748  0.502170  1
  Pd  Pd14  1  0.502322  0.997513  0.266768  1
  Pd  Pd15  1  0.997513  0.266768  0.502322  1
  Pd  Pd16  1  0.502170  0.732748  0.997225  1
  Pd  Pd17  1  0.255684  0.502513  0.502513  1
  Pd  Pd18  1  0.502785  0.502785  0.744782  1
  Pd  Pd19  1  0.502513  0.502513  0.255684  1
  Pd  Pd20  1  0.502513  0.255684  0.502513  1
  Pd  Pd21  1  0.502785  0.744782  0.502785  1
  Pd  Pd22  1  0.744782  0.502785  0.502785  1
  Pd  Pd23  1  0.313745  0.997316  0.997316  1
  Pd  Pd24  1  0.997251  0.997251  0.688316  1
  Pd  Pd25  1  0.997513  0.502322  0.266768  1
  Pd  Pd26  1  0.997316  0.313745  0.997316  1
  Pd  Pd27  1  0.997251  0.688316  0.997251  1
  Pd  Pd28  1  0.688316  0.997251  0.997251  1
  Pd  Pd29  1  0.266768  0.502322  0.997513  1
  Pd  Pd30  1  0.266768  0.997513  0.502322  1
  Pd  Pd31  1  0.997225  0.502170  0.732748  1
  Pd  Pd32  1  0.502322  0.266768  0.997513  1
