# generated using pymatgen
data_Hf6Ta3Ti(Si3N)2
_symmetry_space_group_name_H-M   'P 1'
_cell_length_a   7.72307900
_cell_length_b   7.72307822
_cell_length_c   5.38075100
_cell_angle_alpha   90.00000000
_cell_angle_beta   90.00000000
_cell_angle_gamma   119.99999905
_symmetry_Int_Tables_number   1
_chemical_formula_structural   Hf6Ta3Ti(Si3N)2
_chemical_formula_sum   'Hf6 Ta3 Ti1 Si6 N2'
_cell_volume   277.94216865
_cell_formula_units_Z   1
loop_
 _symmetry_equiv_pos_site_id
 _symmetry_equiv_pos_as_xyz
  1  'x, y, z'
loop_
 _atom_site_type_symbol
 _atom_site_label
 _atom_site_symmetry_multiplicity
 _atom_site_fract_x
 _atom_site_fract_y
 _atom_site_fract_z
 _atom_site_occupancy
  Hf  Hf0  1  0.237164  0.000761  0.249425  1
  Hf  Hf1  1  0.763597  0.000761  0.750575  1
  Hf  Hf2  1  0.999239  0.236403  0.249425  1
  Hf  Hf3  1  0.999239  0.762836  0.750575  1
  Hf  Hf4  1  0.763597  0.762836  0.249425  1
  Hf  Hf5  1  0.237164  0.236403  0.750575  1
  Ta  Ta6  1  0.333333  0.666667  0.000000  1
  Ta  Ta7  1  0.666667  0.333333  0.000000  1
  Ta  Ta8  1  0.666667  0.333333  0.500000  1
  Ti  Ti9  1  0.333333  0.666667  0.500000  1
  Si  Si10  1  0.590248  0.997713  0.251471  1
  Si  Si11  1  0.407465  0.997713  0.748529  1
  Si  Si12  1  0.002287  0.592535  0.251471  1
  Si  Si13  1  0.002287  0.409752  0.748529  1
  Si  Si14  1  0.407465  0.409752  0.251471  1
  Si  Si15  1  0.590248  0.592535  0.748529  1
  N  N16  1  0.000000  0.000000  0.000000  1
  N  N17  1  0.000000  0.000000  0.500000  1
