# generated using pymatgen
data_Zr4TaTi3As4
_symmetry_space_group_name_H-M   'P 1'
_cell_length_a   3.67092100
_cell_length_b   6.95084695
_cell_length_c   8.46134727
_cell_angle_alpha   90.10683368
_cell_angle_beta   90.00000000
_cell_angle_gamma   90.00000000
_symmetry_Int_Tables_number   1
_chemical_formula_structural   Zr4TaTi3As4
_chemical_formula_sum   'Zr4 Ta1 Ti3 As4'
_cell_volume   215.89944649
_cell_formula_units_Z   1
loop_
 _symmetry_equiv_pos_site_id
 _symmetry_equiv_pos_as_xyz
  1  'x, y, z'
loop_
 _atom_site_type_symbol
 _atom_site_label
 _atom_site_symmetry_multiplicity
 _atom_site_fract_x
 _atom_site_fract_y
 _atom_site_fract_z
 _atom_site_occupancy
  Zr  Zr0  1  0.250000  0.542296  0.832289  1
  Zr  Zr1  1  0.750000  0.957873  0.332089  1
  Zr  Zr2  1  0.250000  0.044999  0.669426  1
  Zr  Zr3  1  0.750000  0.459561  0.165316  1
  Ta  Ta4  1  0.750000  0.364350  0.559054  1
  Ti  Ti5  1  0.250000  0.130327  0.059417  1
  Ti  Ti6  1  0.750000  0.867479  0.941331  1
  Ti  Ti7  1  0.250000  0.631446  0.441273  1
  As  As8  1  0.750000  0.744376  0.640458  1
  As  As9  1  0.250000  0.757967  0.139564  1
  As  As10  1  0.750000  0.241673  0.866013  1
  As  As11  1  0.250000  0.257655  0.353770  1
