# generated using pymatgen
data_Na5CaTaP4
_symmetry_space_group_name_H-M   'P 1'
_cell_length_a   9.27737733
_cell_length_b   9.27737719
_cell_length_c   7.19917464
_cell_angle_alpha   90.58960927
_cell_angle_beta   90.58960374
_cell_angle_gamma   120.11869995
_symmetry_Int_Tables_number   1
_chemical_formula_structural   Na5CaTaP4
_chemical_formula_sum   'Na10 Ca2 Ta2 P8'
_cell_volume   535.85926675
_cell_formula_units_Z   2
loop_
 _symmetry_equiv_pos_site_id
 _symmetry_equiv_pos_as_xyz
  1  'x, y, z'
loop_
 _atom_site_type_symbol
 _atom_site_label
 _atom_site_symmetry_multiplicity
 _atom_site_fract_x
 _atom_site_fract_y
 _atom_site_fract_z
 _atom_site_occupancy
  Na  Na0  1  0.537858  0.470860  0.613183  1
  Na  Na1  1  0.936037  0.470167  0.613870  1
  Na  Na2  1  0.470860  0.537858  0.113183  1
  Na  Na3  1  0.470167  0.936037  0.113870  1
  Na  Na4  1  0.137549  0.853500  0.782653  1
  Na  Na5  1  0.712040  0.848682  0.798187  1
  Na  Na6  1  0.147368  0.289645  0.775519  1
  Na  Na7  1  0.853500  0.137549  0.282653  1
  Na  Na8  1  0.289645  0.147368  0.275519  1
  Na  Na9  1  0.848682  0.712040  0.298187  1
  Ca  Ca10  1  0.534268  0.062684  0.608840  1
  Ca  Ca11  1  0.062684  0.534268  0.108840  1
  Ta  Ta12  1  0.331411  0.664005  0.501929  1
  Ta  Ta13  1  0.664005  0.331411  0.001929  1
  P  P14  1  0.810165  0.195301  0.890924  1
  P  P15  1  0.385988  0.188279  0.879454  1
  P  P16  1  0.816334  0.617013  0.910776  1
  P  P17  1  0.195301  0.810165  0.390924  1
  P  P18  1  0.617013  0.816334  0.410776  1
  P  P19  1  0.188279  0.385988  0.379454  1
  P  P20  1  0.324614  0.666233  0.834863  1
  P  P21  1  0.666233  0.324614  0.334863  1
