# generated using pymatgen
data_Tm13Th7Si15Sn
_symmetry_space_group_name_H-M   'P 1'
_cell_length_a   7.56568812
_cell_length_b   7.68995880
_cell_length_c   14.60906960
_cell_angle_alpha   90.01089017
_cell_angle_beta   90.36669485
_cell_angle_gamma   90.02361548
_symmetry_Int_Tables_number   1
_chemical_formula_structural   Tm13Th7Si15Sn
_chemical_formula_sum   'Tm13 Th7 Si15 Sn1'
_cell_volume   849.93568984
_cell_formula_units_Z   1
loop_
 _symmetry_equiv_pos_site_id
 _symmetry_equiv_pos_as_xyz
  1  'x, y, z'
loop_
 _atom_site_type_symbol
 _atom_site_label
 _atom_site_symmetry_multiplicity
 _atom_site_fract_x
 _atom_site_fract_y
 _atom_site_fract_z
 _atom_site_occupancy
  Tm  Tm0  1  0.361358  0.830834  0.877145  1
  Tm  Tm1  1  0.859801  0.667377  0.623768  1
  Tm  Tm2  1  0.642065  0.168291  0.379530  1
  Tm  Tm3  1  0.134014  0.324816  0.118000  1
  Tm  Tm4  1  0.637803  0.168177  0.119097  1
  Tm  Tm5  1  0.137304  0.324552  0.381097  1
  Tm  Tm6  1  0.358941  0.832646  0.624383  1
  Tm  Tm7  1  0.862963  0.666215  0.877606  1
  Tm  Tm8  1  0.515568  0.321502  0.897358  1
  Tm  Tm9  1  0.192664  0.494845  0.750656  1
  Tm  Tm10  1  0.691067  0.004090  0.750868  1
  Tm  Tm11  1  0.798200  0.501391  0.250328  1
  Tm  Tm12  1  0.313577  0.006152  0.250347  1
  Th  Th13  1  0.010309  0.182942  0.600221  1
  Th  Th14  1  0.498270  0.685582  0.406242  1
  Th  Th15  1  0.980973  0.827991  0.090868  1
  Th  Th16  1  0.497743  0.684081  0.094021  1
  Th  Th17  1  0.984171  0.826780  0.409530  1
  Th  Th18  1  0.507812  0.317979  0.597478  1
  Th  Th19  1  0.010059  0.182303  0.901138  1
  Si  Si20  1  0.301669  0.032199  0.042054  1
  Si  Si21  1  0.803726  0.460746  0.459873  1
  Si  Si22  1  0.696959  0.964146  0.545044  1
  Si  Si23  1  0.207505  0.532080  0.955554  1
  Si  Si24  1  0.696178  0.965065  0.954443  1
  Si  Si25  1  0.197223  0.540333  0.542177  1
  Si  Si26  1  0.304619  0.035987  0.459861  1
  Si  Si27  1  0.798294  0.458467  0.039559  1
  Si  Si28  1  0.566761  0.610702  0.749678  1
  Si  Si29  1  0.064896  0.887169  0.751035  1
  Si  Si30  1  0.437974  0.374423  0.249598  1
  Si  Si31  1  0.934395  0.111090  0.249264  1
  Si  Si32  1  0.311897  0.130050  0.751598  1
  Si  Si33  1  0.805249  0.373449  0.750679  1
  Si  Si34  1  0.691976  0.873228  0.250119  1
  Sn  Sn35  1  0.186014  0.632320  0.249781  1
