# generated using pymatgen
data_BeB2W5
_symmetry_space_group_name_H-M   'P 1'
_cell_length_a   6.95863661
_cell_length_b   6.95863656
_cell_length_c   6.95863677
_cell_angle_alpha   129.06171267
_cell_angle_beta   129.06171123
_cell_angle_gamma   74.91129882
_symmetry_Int_Tables_number   1
_chemical_formula_structural   BeB2W5
_chemical_formula_sum   'Be2 B4 W10'
_cell_volume   197.85370883
_cell_formula_units_Z   2
loop_
 _symmetry_equiv_pos_site_id
 _symmetry_equiv_pos_as_xyz
  1  'x, y, z'
loop_
 _atom_site_type_symbol
 _atom_site_label
 _atom_site_symmetry_multiplicity
 _atom_site_fract_x
 _atom_site_fract_y
 _atom_site_fract_z
 _atom_site_occupancy
  Be  Be0  1  0.750000  0.750000  0.000000  1
  Be  Be1  1  0.250000  0.250000  0.000000  1
  B  B2  1  0.378852  0.878852  0.257706  1
  B  B3  1  0.878852  0.621148  0.500000  1
  B  B4  1  0.621148  0.121148  0.742294  1
  B  B5  1  0.121148  0.378852  0.500000  1
  W  W6  1  0.000000  0.000000  0.000000  1
  W  W7  1  0.809660  0.978372  0.500000  1
  W  W8  1  0.309660  0.809660  0.831288  1
  W  W9  1  0.190340  0.021628  0.500000  1
  W  W10  1  0.521628  0.690340  0.500000  1
  W  W11  1  0.021628  0.521628  0.831288  1
  W  W12  1  0.690340  0.190340  0.168712  1
  W  W13  1  0.978372  0.478372  0.168712  1
  W  W14  1  0.500000  0.500000  0.000000  1
  W  W15  1  0.478372  0.309660  0.500000  1
