# generated using pymatgen
data_Hf6Sc3VCuRe3
_symmetry_space_group_name_H-M   'P 1'
_cell_length_a   8.74636100
_cell_length_b   8.74635948
_cell_length_c   8.25085200
_cell_angle_alpha   90.00000000
_cell_angle_beta   90.00000000
_cell_angle_gamma   120.00013103
_symmetry_Int_Tables_number   1
_chemical_formula_structural   Hf6Sc3VCuRe3
_chemical_formula_sum   'Hf12 Sc6 V2 Cu2 Re6'
_cell_volume   546.61755723
_cell_formula_units_Z   2
loop_
 _symmetry_equiv_pos_site_id
 _symmetry_equiv_pos_as_xyz
  1  'x, y, z'
loop_
 _atom_site_type_symbol
 _atom_site_label
 _atom_site_symmetry_multiplicity
 _atom_site_fract_x
 _atom_site_fract_y
 _atom_site_fract_z
 _atom_site_occupancy
  Hf  Hf0  1  0.805634  0.611263  0.555163  1
  Hf  Hf1  1  0.805633  0.194367  0.555164  1
  Hf  Hf2  1  0.388737  0.194366  0.555163  1
  Hf  Hf3  1  0.194366  0.388737  0.444837  1
  Hf  Hf4  1  0.194367  0.805633  0.444836  1
  Hf  Hf5  1  0.611263  0.805634  0.444837  1
  Hf  Hf6  1  0.194366  0.388737  0.055163  1
  Hf  Hf7  1  0.194367  0.805633  0.055164  1
  Hf  Hf8  1  0.611263  0.805634  0.055163  1
  Hf  Hf9  1  0.805634  0.611263  0.944837  1
  Hf  Hf10  1  0.805633  0.194367  0.944836  1
  Hf  Hf11  1  0.388737  0.194366  0.944837  1
  Sc  Sc12  1  0.458042  0.916080  0.750000  1
  Sc  Sc13  1  0.458049  0.541951  0.750000  1
  Sc  Sc14  1  0.083920  0.541958  0.750000  1
  Sc  Sc15  1  0.541958  0.083920  0.250000  1
  Sc  Sc16  1  0.541951  0.458049  0.250000  1
  Sc  Sc17  1  0.916080  0.458042  0.250000  1
  V  V18  1  0.000000  0.000000  0.500000  1
  V  V19  1  0.000000  0.000000  0.000000  1
  Cu  Cu20  1  0.666668  0.333332  0.750000  1
  Cu  Cu21  1  0.333332  0.666668  0.250000  1
  Re  Re22  1  0.109127  0.218242  0.750000  1
  Re  Re23  1  0.109126  0.890874  0.750000  1
  Re  Re24  1  0.781758  0.890873  0.750000  1
  Re  Re25  1  0.890873  0.781758  0.250000  1
  Re  Re26  1  0.890874  0.109126  0.250000  1
  Re  Re27  1  0.218242  0.109127  0.250000  1
