# generated using pymatgen
data_Dy3Er9(TcRh)2
_symmetry_space_group_name_H-M   'P 1'
_cell_length_a   6.28547512
_cell_length_b   7.29680514
_cell_length_c   9.10987000
_cell_angle_alpha   90.00000000
_cell_angle_beta   90.00000000
_cell_angle_gamma   89.97744045
_symmetry_Int_Tables_number   1
_chemical_formula_structural   Dy3Er9(TcRh)2
_chemical_formula_sum   'Dy3 Er9 Tc2 Rh2'
_cell_volume   417.81401756
_cell_formula_units_Z   1
loop_
 _symmetry_equiv_pos_site_id
 _symmetry_equiv_pos_as_xyz
  1  'x, y, z'
loop_
 _atom_site_type_symbol
 _atom_site_label
 _atom_site_symmetry_multiplicity
 _atom_site_fract_x
 _atom_site_fract_y
 _atom_site_fract_z
 _atom_site_occupancy
  Dy  Dy0  1  0.866817  0.960189  0.750000  1
  Dy  Dy1  1  0.366724  0.539872  0.250000  1
  Dy  Dy2  1  0.631056  0.461119  0.750000  1
  Er  Er3  1  0.671148  0.175923  0.065057  1
  Er  Er4  1  0.170764  0.323689  0.935387  1
  Er  Er5  1  0.832422  0.678891  0.438481  1
  Er  Er6  1  0.332005  0.821526  0.561196  1
  Er  Er7  1  0.332005  0.821526  0.938804  1
  Er  Er8  1  0.832422  0.678891  0.061519  1
  Er  Er9  1  0.170764  0.323689  0.564613  1
  Er  Er10  1  0.671148  0.175923  0.434943  1
  Er  Er11  1  0.131185  0.039025  0.250000  1
  Tc  Tc12  1  0.040117  0.612624  0.750000  1
  Tc  Tc13  1  0.539744  0.887690  0.250000  1
  Rh  Rh14  1  0.455739  0.115641  0.750000  1
  Rh  Rh15  1  0.955938  0.383782  0.250000  1
