# generated using pymatgen
data_Rb2Na4(MoH9)3
_symmetry_space_group_name_H-M   'P 1'
_cell_length_a   8.65656009
_cell_length_b   9.71333587
_cell_length_c   5.64436800
_cell_angle_alpha   90.00000000
_cell_angle_beta   90.00000000
_cell_angle_gamma   124.12769262
_symmetry_Int_Tables_number   1
_chemical_formula_structural   Rb2Na4(MoH9)3
_chemical_formula_sum   'Rb2 Na4 Mo3 H27'
_cell_volume   392.86999867
_cell_formula_units_Z   1
loop_
 _symmetry_equiv_pos_site_id
 _symmetry_equiv_pos_as_xyz
  1  'x, y, z'
loop_
 _atom_site_type_symbol
 _atom_site_label
 _atom_site_symmetry_multiplicity
 _atom_site_fract_x
 _atom_site_fract_y
 _atom_site_fract_z
 _atom_site_occupancy
  Rb  Rb0  1  0.418661  0.420347  0.000000  1
  Rb  Rb1  1  0.581339  0.001686  0.000000  1
  Na  Na2  1  0.000000  0.190699  0.500000  1
  Na  Na3  1  0.742735  0.770347  0.500000  1
  Na  Na4  1  0.257265  0.027612  0.500000  1
  Na  Na5  1  0.000000  0.608753  0.000000  1
  Mo  Mo6  1  0.739207  0.362493  0.500000  1
  Mo  Mo7  1  0.260793  0.623287  0.500000  1
  Mo  Mo8  1  0.000000  0.966352  0.000000  1
  H  H9  1  0.801163  0.336384  0.779904  1
  H  H10  1  0.800582  0.537720  0.680363  1
  H  H11  1  0.548293  0.233757  0.673416  1
  H  H12  1  0.198837  0.535221  0.220096  1
  H  H13  1  0.548293  0.233757  0.326584  1
  H  H14  1  0.801163  0.336384  0.220096  1
  H  H15  1  0.800582  0.537720  0.319637  1
  H  H16  1  0.199418  0.737139  0.680363  1
  H  H17  1  0.451707  0.685465  0.673416  1
  H  H18  1  0.212049  0.982851  0.000000  1
  H  H19  1  0.787951  0.770802  0.000000  1
  H  H20  1  0.000000  0.143412  0.000000  1
  H  H21  1  0.850112  0.961781  0.217844  1
  H  H22  1  0.149888  0.111669  0.782156  1
  H  H23  1  0.000000  0.839708  0.770498  1
  H  H24  1  0.000000  0.839708  0.229502  1
  H  H25  1  0.149888  0.111669  0.217844  1
  H  H26  1  0.850112  0.961781  0.782156  1
  H  H27  1  0.154033  0.735213  0.500000  1
  H  H28  1  0.429863  0.831681  0.500000  1
  H  H29  1  0.282952  0.453364  0.500000  1
  H  H30  1  0.570137  0.401818  0.500000  1
  H  H31  1  0.845967  0.581181  0.500000  1
  H  H32  1  0.717048  0.170413  0.500000  1
  H  H33  1  0.198837  0.535221  0.779904  1
  H  H34  1  0.199418  0.737139  0.319637  1
  H  H35  1  0.451707  0.685465  0.326584  1
