# generated using pymatgen
data_Gd6Zn21SiAg2
_symmetry_space_group_name_H-M   'P 1'
_cell_length_a   9.06393276
_cell_length_b   9.06067071
_cell_length_c   9.06067000
_cell_angle_alpha   60.00079119
_cell_angle_beta   60.01231577
_cell_angle_gamma   60.01231974
_symmetry_Int_Tables_number   1
_chemical_formula_structural   Gd6Zn21SiAg2
_chemical_formula_sum   'Gd6 Zn21 Si1 Ag2'
_cell_volume   526.26655238
_cell_formula_units_Z   1
loop_
 _symmetry_equiv_pos_site_id
 _symmetry_equiv_pos_as_xyz
  1  'x, y, z'
loop_
 _atom_site_type_symbol
 _atom_site_label
 _atom_site_symmetry_multiplicity
 _atom_site_fract_x
 _atom_site_fract_y
 _atom_site_fract_z
 _atom_site_occupancy
  Gd  Gd0  1  0.716733  0.284000  0.284000  1
  Gd  Gd1  1  0.716915  0.284590  0.714086  1
  Gd  Gd2  1  0.716915  0.714086  0.284590  1
  Gd  Gd3  1  0.282194  0.717426  0.717426  1
  Gd  Gd4  1  0.282264  0.717350  0.283142  1
  Gd  Gd5  1  0.282264  0.283142  0.717350  1
  Zn  Zn6  1  0.125681  0.621903  0.126307  1
  Zn  Zn7  1  0.125681  0.126307  0.621903  1
  Zn  Zn8  1  0.125593  0.126251  0.126251  1
  Zn  Zn9  1  0.378984  0.873729  0.873729  1
  Zn  Zn10  1  0.872727  0.375729  0.875852  1
  Zn  Zn11  1  0.872727  0.875852  0.375729  1
  Zn  Zn12  1  0.872662  0.875844  0.875844  1
  Zn  Zn13  1  0.497519  0.998931  0.998931  1
  Zn  Zn14  1  0.497815  0.999209  0.504121  1
  Zn  Zn15  1  0.497815  0.504121  0.999209  1
  Zn  Zn16  1  0.999458  0.500344  0.500344  1
  Zn  Zn17  1  0.999416  0.500335  0.000110  1
  Zn  Zn18  1  0.999416  0.000110  0.500335  1
  Zn  Zn19  1  0.004627  0.331836  0.331836  1
  Zn  Zn20  1  0.331133  0.003681  0.332738  1
  Zn  Zn21  1  0.331133  0.332738  0.003681  1
  Zn  Zn22  1  0.331549  0.332435  0.332435  1
  Zn  Zn23  1  0.995343  0.668328  0.668328  1
  Zn  Zn24  1  0.668400  0.995390  0.668174  1
  Zn  Zn25  1  0.668400  0.668174  0.995390  1
  Zn  Zn26  1  0.668358  0.668274  0.668274  1
  Si  Si27  1  0.498301  0.500592  0.500592  1
  Ag  Ag28  1  0.628087  0.123389  0.123389  1
  Ag  Ag29  1  0.011894  0.995905  0.995905  1
