# generated using pymatgen
data_Er3Co9SiGeB4
_symmetry_space_group_name_H-M   'P 1'
_cell_length_a   5.10995800
_cell_length_b   5.10995848
_cell_length_c   9.38024900
_cell_angle_alpha   90.00000000
_cell_angle_beta   90.00000000
_cell_angle_gamma   119.99999686
_symmetry_Int_Tables_number   1
_chemical_formula_structural   Er3Co9SiGeB4
_chemical_formula_sum   'Er3 Co9 Si1 Ge1 B4'
_cell_volume   212.11907017
_cell_formula_units_Z   1
loop_
 _symmetry_equiv_pos_site_id
 _symmetry_equiv_pos_as_xyz
  1  'x, y, z'
loop_
 _atom_site_type_symbol
 _atom_site_label
 _atom_site_symmetry_multiplicity
 _atom_site_fract_x
 _atom_site_fract_y
 _atom_site_fract_z
 _atom_site_occupancy
  Er  Er0  1  0.000000  0.000000  0.000000  1
  Er  Er1  1  0.000000  0.000000  0.660824  1
  Er  Er2  1  0.000000  0.000000  0.339176  1
  Co  Co3  1  0.500186  0.499814  0.500000  1
  Co  Co4  1  0.500186  0.000371  0.500000  1
  Co  Co5  1  0.999629  0.499814  0.500000  1
  Co  Co6  1  0.498877  0.501123  0.800606  1
  Co  Co7  1  0.498877  0.997754  0.800606  1
  Co  Co8  1  0.002246  0.501123  0.800606  1
  Co  Co9  1  0.498877  0.501123  0.199394  1
  Co  Co10  1  0.498877  0.997754  0.199394  1
  Co  Co11  1  0.002246  0.501123  0.199394  1
  Si  Si12  1  0.333333  0.666667  0.000000  1
  Ge  Ge13  1  0.666667  0.333333  0.000000  1
  B  B14  1  0.666667  0.333333  0.653809  1
  B  B15  1  0.333333  0.666667  0.652724  1
  B  B16  1  0.333333  0.666667  0.347276  1
  B  B17  1  0.666667  0.333333  0.346191  1
