# generated using pymatgen
data_Ac2Pt2Pb
_symmetry_space_group_name_H-M   'P 1'
_cell_length_a   8.30122100
_cell_length_b   8.30122100
_cell_length_c   4.04163900
_cell_angle_alpha   90.00000000
_cell_angle_beta   90.00000000
_cell_angle_gamma   90.00000000
_symmetry_Int_Tables_number   1
_chemical_formula_structural   Ac2Pt2Pb
_chemical_formula_sum   'Ac4 Pt4 Pb2'
_cell_volume   278.51043510
_cell_formula_units_Z   2
loop_
 _symmetry_equiv_pos_site_id
 _symmetry_equiv_pos_as_xyz
  1  'x, y, z'
loop_
 _atom_site_type_symbol
 _atom_site_label
 _atom_site_symmetry_multiplicity
 _atom_site_fract_x
 _atom_site_fract_y
 _atom_site_fract_z
 _atom_site_occupancy
  Ac  Ac0  1  0.672047  0.172045  0.500001  1
  Ac  Ac1  1  0.172045  0.327954  0.500001  1
  Ac  Ac2  1  0.827954  0.672047  0.500001  1
  Ac  Ac3  1  0.327954  0.827954  0.500001  1
  Pt  Pt4  1  0.373302  0.126698  0.000000  1
  Pt  Pt5  1  0.873302  0.373302  0.000000  1
  Pt  Pt6  1  0.126698  0.626698  0.000000  1
  Pt  Pt7  1  0.626698  0.873302  0.000000  1
  Pb  Pb8  1  0.000000  0.000000  0.000000  1
  Pb  Pb9  1  0.500000  0.500000  0.000000  1
