# generated using pymatgen
data_Dy4Ho3Er3(CoBi2)2
_symmetry_space_group_name_H-M   'P 1'
_cell_length_a   7.96196720
_cell_length_b   8.87990015
_cell_length_c   12.36158833
_cell_angle_alpha   89.98440361
_cell_angle_beta   90.02152682
_cell_angle_gamma   90.01416143
_symmetry_Int_Tables_number   1
_chemical_formula_structural   Dy4Ho3Er3(CoBi2)2
_chemical_formula_sum   'Dy8 Ho6 Er6 Co4 Bi8'
_cell_volume   873.98239220
_cell_formula_units_Z   2
loop_
 _symmetry_equiv_pos_site_id
 _symmetry_equiv_pos_as_xyz
  1  'x, y, z'
loop_
 _atom_site_type_symbol
 _atom_site_label
 _atom_site_symmetry_multiplicity
 _atom_site_fract_x
 _atom_site_fract_y
 _atom_site_fract_z
 _atom_site_occupancy
  Dy  Dy0  1  0.346625  0.749975  0.699754  1
  Dy  Dy1  1  0.653375  0.250025  0.300246  1
  Dy  Dy2  1  0.846457  0.250104  0.800099  1
  Dy  Dy3  1  0.153543  0.749896  0.199901  1
  Dy  Dy4  1  0.884723  0.749790  0.810688  1
  Dy  Dy5  1  0.115277  0.250210  0.189312  1
  Dy  Dy6  1  0.384803  0.249985  0.689085  1
  Dy  Dy7  1  0.615197  0.750015  0.310915  1
  Ho  Ho8  1  0.824149  0.961783  0.062940  1
  Ho  Ho9  1  0.175851  0.038217  0.937060  1
  Ho  Ho10  1  0.052726  0.749990  0.497890  1
  Ho  Ho11  1  0.947274  0.250010  0.502110  1
  Ho  Ho12  1  0.552596  0.250192  0.002087  1
  Ho  Ho13  1  0.447404  0.749808  0.997913  1
  Er  Er14  1  0.674964  0.538242  0.562771  1
  Er  Er15  1  0.325036  0.461758  0.437229  1
  Er  Er16  1  0.175027  0.461712  0.937214  1
  Er  Er17  1  0.325058  0.038239  0.437253  1
  Er  Er18  1  0.824973  0.538288  0.062786  1
  Er  Er19  1  0.674942  0.961761  0.562747  1
  Co  Co20  1  0.066480  0.749617  0.991645  1
  Co  Co21  1  0.933520  0.250383  0.008355  1
  Co  Co22  1  0.566303  0.250003  0.508260  1
  Co  Co23  1  0.433697  0.749997  0.491740  1
  Bi  Bi24  1  0.571482  0.509718  0.826948  1
  Bi  Bi25  1  0.428518  0.490282  0.173052  1
  Bi  Bi26  1  0.071477  0.490271  0.673018  1
  Bi  Bi27  1  0.428239  0.009741  0.173121  1
  Bi  Bi28  1  0.928523  0.509729  0.326982  1
  Bi  Bi29  1  0.571761  0.990259  0.826879  1
  Bi  Bi30  1  0.928580  0.990278  0.327046  1
  Bi  Bi31  1  0.071420  0.009722  0.672954  1
