# generated using pymatgen
data_Yb2SnBiPt2
_symmetry_space_group_name_H-M   'P 1'
_cell_length_a   4.63446500
_cell_length_b   7.35605698
_cell_length_c   8.19465873
_cell_angle_alpha   90.35189429
_cell_angle_beta   90.00000000
_cell_angle_gamma   90.00000000
_symmetry_Int_Tables_number   1
_chemical_formula_structural   Yb2SnBiPt2
_chemical_formula_sum   'Yb4 Sn2 Bi2 Pt4'
_cell_volume   279.36202647
_cell_formula_units_Z   2
loop_
 _symmetry_equiv_pos_site_id
 _symmetry_equiv_pos_as_xyz
  1  'x, y, z'
loop_
 _atom_site_type_symbol
 _atom_site_label
 _atom_site_symmetry_multiplicity
 _atom_site_fract_x
 _atom_site_fract_y
 _atom_site_fract_z
 _atom_site_occupancy
  Yb  Yb0  1  0.750000  0.474943  0.190748  1
  Yb  Yb1  1  0.250000  0.010007  0.696164  1
  Yb  Yb2  1  0.250000  0.525057  0.809252  1
  Yb  Yb3  1  0.750000  0.989993  0.303836  1
  Sn  Sn4  1  0.250000  0.175344  0.076750  1
  Sn  Sn5  1  0.750000  0.824656  0.923250  1
  Bi  Bi6  1  0.750000  0.321488  0.586487  1
  Bi  Bi7  1  0.250000  0.678512  0.413513  1
  Pt  Pt8  1  0.750000  0.724510  0.608770  1
  Pt  Pt9  1  0.250000  0.275490  0.391230  1
  Pt  Pt10  1  0.250000  0.790828  0.087753  1
  Pt  Pt11  1  0.750000  0.209172  0.912247  1
