# generated using pymatgen
data_Pu3Pa(NbN2)4
_symmetry_space_group_name_H-M   'P 1'
_cell_length_a   3.31536500
_cell_length_b   5.71569702
_cell_length_c   10.95319404
_cell_angle_alpha   89.99010958
_cell_angle_beta   90.00000000
_cell_angle_gamma   90.00000000
_symmetry_Int_Tables_number   1
_chemical_formula_structural   Pu3Pa(NbN2)4
_chemical_formula_sum   'Pu3 Pa1 Nb4 N8'
_cell_volume   207.55888209
_cell_formula_units_Z   1
loop_
 _symmetry_equiv_pos_site_id
 _symmetry_equiv_pos_as_xyz
  1  'x, y, z'
loop_
 _atom_site_type_symbol
 _atom_site_label
 _atom_site_symmetry_multiplicity
 _atom_site_fract_x
 _atom_site_fract_y
 _atom_site_fract_z
 _atom_site_occupancy
  Pu  Pu0  1  0.250000  0.578384  0.859990  1
  Pu  Pu1  1  0.750000  0.421995  0.141661  1
  Pu  Pu2  1  0.750000  0.922501  0.355199  1
  Pa  Pa3  1  0.250000  0.077819  0.641330  1
  Nb  Nb4  1  0.250000  0.921334  0.100916  1
  Nb  Nb5  1  0.750000  0.078554  0.901724  1
  Nb  Nb6  1  0.750000  0.577955  0.599878  1
  Nb  Nb7  1  0.250000  0.423396  0.399627  1
  N  N8  1  0.250000  0.656738  0.245634  1
  N  N9  1  0.750000  0.337494  0.752809  1
  N  N10  1  0.750000  0.844736  0.743240  1
  N  N11  1  0.250000  0.158099  0.255231  1
  N  N12  1  0.250000  0.761732  0.506632  1
  N  N13  1  0.750000  0.239082  0.495213  1
  N  N14  1  0.750000  0.740780  0.005266  1
  N  N15  1  0.250000  0.259402  0.995651  1
