# generated using pymatgen
data_Tb4InAs5Ir7
_symmetry_space_group_name_H-M   'P 1'
_cell_length_a   7.36633524
_cell_length_b   7.36633455
_cell_length_c   7.36633599
_cell_angle_alpha   108.62638802
_cell_angle_beta   109.89528517
_cell_angle_gamma   109.89527674
_symmetry_Int_Tables_number   1
_chemical_formula_structural   Tb4InAs5Ir7
_chemical_formula_sum   'Tb4 In1 As5 Ir7'
_cell_volume   307.65349882
_cell_formula_units_Z   1
loop_
 _symmetry_equiv_pos_site_id
 _symmetry_equiv_pos_as_xyz
  1  'x, y, z'
loop_
 _atom_site_type_symbol
 _atom_site_label
 _atom_site_symmetry_multiplicity
 _atom_site_fract_x
 _atom_site_fract_y
 _atom_site_fract_z
 _atom_site_occupancy
  Tb  Tb0  1  0.000000  0.002446  0.474192  1
  Tb  Tb1  1  0.000000  0.474192  0.002446  1
  Tb  Tb2  1  0.528255  0.002446  0.002446  1
  Tb  Tb3  1  0.471745  0.474192  0.474192  1
  In  In4  1  0.000000  0.709403  0.709403  1
  As  As5  1  0.680919  0.671427  0.990508  1
  As  As6  1  0.319081  0.990508  0.309589  1
  As  As7  1  0.000000  0.345491  0.345491  1
  As  As8  1  0.319081  0.309589  0.990508  1
  As  As9  1  0.680919  0.990508  0.671427  1
  Ir  Ir10  1  0.744468  0.245507  0.501039  1
  Ir  Ir11  1  0.744468  0.501039  0.245507  1
  Ir  Ir12  1  0.500000  0.246227  0.746227  1
  Ir  Ir13  1  0.255532  0.501039  0.756571  1
  Ir  Ir14  1  0.255532  0.756571  0.501039  1
  Ir  Ir15  1  0.500000  0.746227  0.246227  1
  Ir  Ir16  1  0.000000  0.033188  0.033188  1
