# generated using pymatgen
data_Tb8ErTmSn8
_symmetry_space_group_name_H-M   'P 1'
_cell_length_a   8.03685500
_cell_length_b   8.19346400
_cell_length_c   15.50447400
_cell_angle_alpha   90.00000000
_cell_angle_beta   90.00000000
_cell_angle_gamma   90.00000000
_symmetry_Int_Tables_number   1
_chemical_formula_structural   Tb8ErTmSn8
_chemical_formula_sum   'Tb16 Er2 Tm2 Sn16'
_cell_volume   1020.96468427
_cell_formula_units_Z   2
loop_
 _symmetry_equiv_pos_site_id
 _symmetry_equiv_pos_as_xyz
  1  'x, y, z'
loop_
 _atom_site_type_symbol
 _atom_site_label
 _atom_site_symmetry_multiplicity
 _atom_site_fract_x
 _atom_site_fract_y
 _atom_site_fract_z
 _atom_site_occupancy
  Tb  Tb0  1  0.366811  0.837219  0.877957  1
  Tb  Tb1  1  0.866811  0.662781  0.622043  1
  Tb  Tb2  1  0.633134  0.162790  0.377916  1
  Tb  Tb3  1  0.133134  0.337210  0.122084  1
  Tb  Tb4  1  0.633134  0.162790  0.122084  1
  Tb  Tb5  1  0.133134  0.337210  0.377916  1
  Tb  Tb6  1  0.366811  0.837219  0.622043  1
  Tb  Tb7  1  0.866811  0.662781  0.877957  1
  Tb  Tb8  1  0.519813  0.320476  0.902674  1
  Tb  Tb9  1  0.019813  0.179524  0.597326  1
  Tb  Tb10  1  0.480187  0.679519  0.402641  1
  Tb  Tb11  1  0.980187  0.820481  0.097359  1
  Tb  Tb12  1  0.480187  0.679519  0.097359  1
  Tb  Tb13  1  0.980187  0.820481  0.402641  1
  Tb  Tb14  1  0.519813  0.320476  0.597326  1
  Tb  Tb15  1  0.019813  0.179524  0.902674  1
  Er  Er16  1  0.198286  0.502674  0.750000  1
  Er  Er17  1  0.698286  0.997326  0.750000  1
  Tm  Tm18  1  0.801730  0.497344  0.250000  1
  Tm  Tm19  1  0.301730  0.002656  0.250000  1
  Sn  Sn20  1  0.293115  0.035954  0.042585  1
  Sn  Sn21  1  0.793115  0.464046  0.457415  1
  Sn  Sn22  1  0.706867  0.964031  0.542445  1
  Sn  Sn23  1  0.206867  0.535969  0.957555  1
  Sn  Sn24  1  0.706867  0.964031  0.957555  1
  Sn  Sn25  1  0.206867  0.535969  0.542445  1
  Sn  Sn26  1  0.293115  0.035954  0.457415  1
  Sn  Sn27  1  0.793115  0.464046  0.042585  1
  Sn  Sn28  1  0.563933  0.618091  0.750000  1
  Sn  Sn29  1  0.063933  0.881909  0.750000  1
  Sn  Sn30  1  0.436360  0.381768  0.250000  1
  Sn  Sn31  1  0.936360  0.118232  0.250000  1
  Sn  Sn32  1  0.328790  0.148319  0.750000  1
  Sn  Sn33  1  0.828790  0.351681  0.750000  1
  Sn  Sn34  1  0.671046  0.851392  0.250000  1
  Sn  Sn35  1  0.171046  0.648608  0.250000  1
