# generated using pymatgen
data_CeDy(CuAs2)2
_symmetry_space_group_name_H-M   'P 1'
_cell_length_a   3.96123500
_cell_length_b   3.96123500
_cell_length_c   9.76099100
_cell_angle_alpha   90.00000000
_cell_angle_beta   90.00000000
_cell_angle_gamma   90.00000000
_symmetry_Int_Tables_number   1
_chemical_formula_structural   CeDy(CuAs2)2
_chemical_formula_sum   'Ce1 Dy1 Cu2 As4'
_cell_volume   153.16344556
_cell_formula_units_Z   1
loop_
 _symmetry_equiv_pos_site_id
 _symmetry_equiv_pos_as_xyz
  1  'x, y, z'
loop_
 _atom_site_type_symbol
 _atom_site_label
 _atom_site_symmetry_multiplicity
 _atom_site_fract_x
 _atom_site_fract_y
 _atom_site_fract_z
 _atom_site_occupancy
  Ce  Ce0  1  0.000000  0.500000  0.763467  1
  Dy  Dy1  1  0.500000  0.000000  0.237389  1
  Cu  Cu2  1  0.500000  0.500000  0.497390  1
  Cu  Cu3  1  0.000000  0.000000  0.497390  1
  As  As4  1  0.000000  0.000000  0.002381  1
  As  As5  1  0.500000  0.500000  0.002381  1
  As  As6  1  0.000000  0.500000  0.340495  1
  As  As7  1  0.500000  0.000000  0.659106  1
