# generated using pymatgen
data_TbYLu4(Sb4Au3)2
_symmetry_space_group_name_H-M   'P 1'
_cell_length_a   8.57075829
_cell_length_b   8.57021803
_cell_length_c   8.57156406
_cell_angle_alpha   109.30991811
_cell_angle_beta   109.54106913
_cell_angle_gamma   109.56468614
_symmetry_Int_Tables_number   1
_chemical_formula_structural   TbYLu4(Sb4Au3)2
_chemical_formula_sum   'Tb1 Y1 Lu4 Sb8 Au6'
_cell_volume   484.65930609
_cell_formula_units_Z   1
loop_
 _symmetry_equiv_pos_site_id
 _symmetry_equiv_pos_as_xyz
  1  'x, y, z'
loop_
 _atom_site_type_symbol
 _atom_site_label
 _atom_site_symmetry_multiplicity
 _atom_site_fract_x
 _atom_site_fract_y
 _atom_site_fract_z
 _atom_site_occupancy
  Tb  Tb0  1  0.125343  0.875187  0.250106  1
  Y  Y1  1  0.874505  0.249824  0.124653  1
  Lu  Lu2  1  0.625107  0.749900  0.375253  1
  Lu  Lu3  1  0.750023  0.375082  0.624837  1
  Lu  Lu4  1  0.250021  0.125186  0.874955  1
  Lu  Lu5  1  0.374935  0.624844  0.750107  1
  Sb  Sb6  1  0.179964  0.499518  0.000087  1
  Sb  Sb7  1  0.321201  0.320722  0.321918  1
  Sb  Sb8  1  0.000024  0.178959  0.498835  1
  Sb  Sb9  1  0.820076  0.819612  0.820054  1
  Sb  Sb10  1  0.500620  0.001671  0.680101  1
  Sb  Sb11  1  0.999898  0.678877  0.498682  1
  Sb  Sb12  1  0.499403  0.001073  0.179478  1
  Sb  Sb13  1  0.678860  0.499641  0.000804  1
  Au  Au14  1  0.377060  0.254017  0.628587  1
  Au  Au15  1  0.874589  0.123100  0.746057  1
  Au  Au16  1  0.255633  0.626501  0.379145  1
  Au  Au17  1  0.744344  0.870910  0.123444  1
  Au  Au18  1  0.125442  0.748471  0.871403  1
  Au  Au19  1  0.622954  0.376904  0.251493  1
