# generated using pymatgen
data_Er2FeSi14Ir5
_symmetry_space_group_name_H-M   'P 1'
_cell_length_a   7.96113656
_cell_length_b   7.96113760
_cell_length_c   7.96499475
_cell_angle_alpha   56.84561802
_cell_angle_beta   56.84561538
_cell_angle_gamma   56.81531993
_symmetry_Int_Tables_number   1
_chemical_formula_structural   Er2FeSi14Ir5
_chemical_formula_sum   'Er2 Fe1 Si14 Ir5'
_cell_volume   330.89391741
_cell_formula_units_Z   1
loop_
 _symmetry_equiv_pos_site_id
 _symmetry_equiv_pos_as_xyz
  1  'x, y, z'
loop_
 _atom_site_type_symbol
 _atom_site_label
 _atom_site_symmetry_multiplicity
 _atom_site_fract_x
 _atom_site_fract_y
 _atom_site_fract_z
 _atom_site_occupancy
  Er  Er0  1  0.001508  0.002740  0.996455  1
  Er  Er1  1  0.497260  0.498492  0.503545  1
  Fe  Fe2  1  0.073028  0.426972  0.750000  1
  Si  Si3  1  0.762294  0.737706  0.750000  1
  Si  Si4  1  0.249096  0.250904  0.250000  1
  Si  Si5  1  0.850802  0.066161  0.671272  1
  Si  Si6  1  0.671445  0.851518  0.064344  1
  Si  Si7  1  0.065420  0.663067  0.846653  1
  Si  Si8  1  0.648482  0.828555  0.435656  1
  Si  Si9  1  0.433839  0.649198  0.828728  1
  Si  Si10  1  0.836933  0.434580  0.653347  1
  Si  Si11  1  0.168351  0.562935  0.363345  1
  Si  Si12  1  0.565836  0.351336  0.172121  1
  Si  Si13  1  0.342104  0.179419  0.573019  1
  Si  Si14  1  0.937065  0.331649  0.136655  1
  Si  Si15  1  0.320581  0.157896  0.926981  1
  Si  Si16  1  0.148664  0.934164  0.327879  1
  Ir  Ir17  1  0.249189  0.928446  0.572459  1
  Ir  Ir18  1  0.571554  0.250811  0.927541  1
  Ir  Ir19  1  0.927746  0.572254  0.250000  1
  Ir  Ir20  1  0.428585  0.749781  0.071606  1
  Ir  Ir21  1  0.750219  0.071415  0.428394  1
