# generated using pymatgen
data_Pr8DyLuSn6
_symmetry_space_group_name_H-M   'P 1'
_cell_length_a   9.26923000
_cell_length_b   9.26922857
_cell_length_c   6.80056300
_cell_angle_alpha   90.00000000
_cell_angle_beta   90.00000000
_cell_angle_gamma   120.00000511
_symmetry_Int_Tables_number   1
_chemical_formula_structural   Pr8DyLuSn6
_chemical_formula_sum   'Pr8 Dy1 Lu1 Sn6'
_cell_volume   506.01422707
_cell_formula_units_Z   1
loop_
 _symmetry_equiv_pos_site_id
 _symmetry_equiv_pos_as_xyz
  1  'x, y, z'
loop_
 _atom_site_type_symbol
 _atom_site_label
 _atom_site_symmetry_multiplicity
 _atom_site_fract_x
 _atom_site_fract_y
 _atom_site_fract_z
 _atom_site_occupancy
  Pr  Pr0  1  0.666667  0.333333  0.000000  1
  Pr  Pr1  1  0.333333  0.666667  0.000000  1
  Pr  Pr2  1  0.757506  0.757341  0.747492  1
  Pr  Pr3  1  0.242659  0.000165  0.747492  1
  Pr  Pr4  1  0.999835  0.242494  0.747492  1
  Pr  Pr5  1  0.242659  0.242494  0.252508  1
  Pr  Pr6  1  0.757506  0.000165  0.252508  1
  Pr  Pr7  1  0.999835  0.757341  0.252508  1
  Dy  Dy8  1  0.333333  0.666667  0.500000  1
  Lu  Lu9  1  0.666667  0.333333  0.500000  1
  Sn  Sn10  1  0.397637  0.396827  0.740029  1
  Sn  Sn11  1  0.603173  0.000810  0.740029  1
  Sn  Sn12  1  0.999190  0.602363  0.740029  1
  Sn  Sn13  1  0.603173  0.602363  0.259971  1
  Sn  Sn14  1  0.397637  0.000810  0.259971  1
  Sn  Sn15  1  0.999190  0.396827  0.259971  1
