# generated using pymatgen
data_Cs2EuTa6Cl18
_symmetry_space_group_name_H-M   'P 1'
_cell_length_a   10.39316817
_cell_length_b   10.39316944
_cell_length_c   10.39316800
_cell_angle_alpha   55.13202278
_cell_angle_beta   55.13201792
_cell_angle_gamma   55.13202010
_symmetry_Int_Tables_number   1
_chemical_formula_structural   Cs2EuTa6Cl18
_chemical_formula_sum   'Cs2 Eu1 Ta6 Cl18'
_cell_volume   703.96941670
_cell_formula_units_Z   1
loop_
 _symmetry_equiv_pos_site_id
 _symmetry_equiv_pos_as_xyz
  1  'x, y, z'
loop_
 _atom_site_type_symbol
 _atom_site_label
 _atom_site_symmetry_multiplicity
 _atom_site_fract_x
 _atom_site_fract_y
 _atom_site_fract_z
 _atom_site_occupancy
  Cs  Cs0  1  0.276240  0.276240  0.276240  1
  Cs  Cs1  1  0.723760  0.723760  0.723760  1
  Eu  Eu2  1  0.000000  0.000000  0.000000  1
  Ta  Ta3  1  0.416293  0.303777  0.645571  1
  Ta  Ta4  1  0.354429  0.583707  0.696223  1
  Ta  Ta5  1  0.696223  0.354429  0.583707  1
  Ta  Ta6  1  0.645571  0.416293  0.303777  1
  Ta  Ta7  1  0.583707  0.696223  0.354429  1
  Ta  Ta8  1  0.303777  0.645571  0.416293  1
  Cl  Cl9  1  0.634171  0.093109  0.773083  1
  Cl  Cl10  1  0.773083  0.634171  0.093109  1
  Cl  Cl11  1  0.093109  0.773083  0.634171  1
  Cl  Cl12  1  0.826172  0.313659  0.049823  1
  Cl  Cl13  1  0.165108  0.439138  0.574387  1
  Cl  Cl14  1  0.686341  0.950177  0.173828  1
  Cl  Cl15  1  0.906891  0.226917  0.365829  1
  Cl  Cl16  1  0.560862  0.425613  0.834892  1
  Cl  Cl17  1  0.425613  0.834892  0.560862  1
  Cl  Cl18  1  0.950177  0.173828  0.686341  1
  Cl  Cl19  1  0.173828  0.686341  0.950177  1
  Cl  Cl20  1  0.049823  0.826172  0.313659  1
  Cl  Cl21  1  0.313659  0.049823  0.826172  1
  Cl  Cl22  1  0.226917  0.365829  0.906891  1
  Cl  Cl23  1  0.574387  0.165108  0.439138  1
  Cl  Cl24  1  0.439138  0.574387  0.165108  1
  Cl  Cl25  1  0.365829  0.906891  0.226917  1
  Cl  Cl26  1  0.834892  0.560862  0.425613  1
