# generated using pymatgen
data_Gd4Zr3VF28
_symmetry_space_group_name_H-M   'P 1'
_cell_length_a   5.70603428
_cell_length_b   9.08831317
_cell_length_c   12.17232400
_cell_angle_alpha   62.61850186
_cell_angle_beta   90.07794029
_cell_angle_gamma   90.01942297
_symmetry_Int_Tables_number   1
_chemical_formula_structural   Gd4Zr3VF28
_chemical_formula_sum   'Gd4 Zr3 V1 F28'
_cell_volume   560.51349312
_cell_formula_units_Z   1
loop_
 _symmetry_equiv_pos_site_id
 _symmetry_equiv_pos_as_xyz
  1  'x, y, z'
loop_
 _atom_site_type_symbol
 _atom_site_label
 _atom_site_symmetry_multiplicity
 _atom_site_fract_x
 _atom_site_fract_y
 _atom_site_fract_z
 _atom_site_occupancy
  Gd  Gd0  1  0.256438  0.811510  0.260343  1
  Gd  Gd1  1  0.742495  0.183832  0.735069  1
  Gd  Gd2  1  0.757278  0.186494  0.233199  1
  Gd  Gd3  1  0.242419  0.811429  0.773075  1
  Zr  Zr4  1  0.246566  0.273669  0.957038  1
  Zr  Zr5  1  0.255370  0.273128  0.456330  1
  Zr  Zr6  1  0.743607  0.726437  0.544273  1
  V  V7  1  0.755790  0.724245  0.045157  1
  F  F8  1  0.956844  0.707579  0.417649  1
  F  F9  1  0.041024  0.294991  0.580560  1
  F  F10  1  0.459444  0.292780  0.082928  1
  F  F11  1  0.542527  0.712375  0.929470  1
  F  F12  1  0.499972  0.735992  0.138489  1
  F  F13  1  0.531047  0.264274  0.860177  1
  F  F14  1  0.977597  0.275443  0.350413  1
  F  F15  1  0.021305  0.728688  0.648574  1
  F  F16  1  0.960551  0.740460  0.163829  1
  F  F17  1  0.042074  0.253703  0.826408  1
  F  F18  1  0.458134  0.254924  0.324660  1
  F  F19  1  0.540761  0.747300  0.675618  1
  F  F20  1  0.766935  0.495982  0.132182  1
  F  F21  1  0.237178  0.523655  0.859591  1
  F  F22  1  0.280089  0.523780  0.355776  1
  F  F23  1  0.721546  0.475702  0.642780  1
  F  F24  1  0.948288  0.286044  0.045482  1
  F  F25  1  0.021942  0.712720  0.955222  1
  F  F26  1  0.445279  0.722798  0.451823  1
  F  F27  1  0.556064  0.278838  0.546186  1
  F  F28  1  0.742747  0.977926  0.444045  1
  F  F29  1  0.259057  0.023372  0.557617  1
  F  F30  1  0.238015  0.023038  0.053800  1
  F  F31  1  0.759442  0.953696  0.954710  1
  F  F32  1  0.578657  0.970743  0.231722  1
  F  F33  1  0.414321  0.033442  0.769333  1
  F  F34  1  0.079082  0.028392  0.264323  1
  F  F35  1  0.920120  0.970621  0.732151  1
