# generated using pymatgen
data_Pr2Ho2TcB12Os
_symmetry_space_group_name_H-M   'P 1'
_cell_length_a   3.72656800
_cell_length_b   9.24799646
_cell_length_c   11.70682701
_cell_angle_alpha   89.91097990
_cell_angle_beta   90.00000000
_cell_angle_gamma   90.00000000
_symmetry_Int_Tables_number   1
_chemical_formula_structural   Pr2Ho2TcB12Os
_chemical_formula_sum   'Pr4 Ho4 Tc2 B24 Os2'
_cell_volume   403.45526008
_cell_formula_units_Z   2
loop_
 _symmetry_equiv_pos_site_id
 _symmetry_equiv_pos_as_xyz
  1  'x, y, z'
loop_
 _atom_site_type_symbol
 _atom_site_label
 _atom_site_symmetry_multiplicity
 _atom_site_fract_x
 _atom_site_fract_y
 _atom_site_fract_z
 _atom_site_occupancy
  Pr  Pr0  1  0.000000  0.324120  0.415358  1
  Pr  Pr1  1  0.000000  0.675880  0.584642  1
  Pr  Pr2  1  0.000000  0.821446  0.086452  1
  Pr  Pr3  1  0.000000  0.178554  0.913548  1
  Ho  Ho4  1  0.000000  0.941570  0.370367  1
  Ho  Ho5  1  0.000000  0.058430  0.629633  1
  Ho  Ho6  1  0.000000  0.443718  0.130616  1
  Ho  Ho7  1  0.000000  0.556282  0.869384  1
  Tc  Tc8  1  0.000000  0.639791  0.318617  1
  Tc  Tc9  1  0.000000  0.360209  0.681383  1
  B  B10  1  0.500000  0.555539  0.429814  1
  B  B11  1  0.500000  0.444461  0.570186  1
  B  B12  1  0.500000  0.056208  0.070333  1
  B  B13  1  0.500000  0.943792  0.929667  1
  B  B14  1  0.500000  0.749364  0.415702  1
  B  B15  1  0.500000  0.250636  0.584298  1
  B  B16  1  0.500000  0.249754  0.084416  1
  B  B17  1  0.500000  0.750246  0.915584  1
  B  B18  1  0.500000  0.790384  0.266247  1
  B  B19  1  0.500000  0.209616  0.733753  1
  B  B20  1  0.500000  0.289783  0.233607  1
  B  B21  1  0.500000  0.710217  0.766393  1
  B  B22  1  0.500000  0.629824  0.186062  1
  B  B23  1  0.500000  0.370176  0.813938  1
  B  B24  1  0.500000  0.129360  0.313355  1
  B  B25  1  0.500000  0.870640  0.686645  1
  B  B26  1  0.500000  0.985122  0.213254  1
  B  B27  1  0.500000  0.014878  0.786746  1
  B  B28  1  0.500000  0.485142  0.286304  1
  B  B29  1  0.500000  0.514858  0.713696  1
  B  B30  1  0.500000  0.598503  0.026755  1
  B  B31  1  0.500000  0.401497  0.973245  1
  B  B32  1  0.500000  0.098035  0.472864  1
  B  B33  1  0.500000  0.901965  0.527136  1
  Os  Os34  1  0.000000  0.139010  0.180621  1
  Os  Os35  1  0.000000  0.860990  0.819379  1
