# generated using pymatgen
data_Co4Si3Mo4P
_symmetry_space_group_name_H-M   'P 1'
_cell_length_a   3.67221700
_cell_length_b   5.97710799
_cell_length_c   6.88361306
_cell_angle_alpha   90.16314129
_cell_angle_beta   90.00000000
_cell_angle_gamma   90.00000000
_symmetry_Int_Tables_number   1
_chemical_formula_structural   Co4Si3Mo4P
_chemical_formula_sum   'Co4 Si3 Mo4 P1'
_cell_volume   151.08944580
_cell_formula_units_Z   1
loop_
 _symmetry_equiv_pos_site_id
 _symmetry_equiv_pos_as_xyz
  1  'x, y, z'
loop_
 _atom_site_type_symbol
 _atom_site_label
 _atom_site_symmetry_multiplicity
 _atom_site_fract_x
 _atom_site_fract_y
 _atom_site_fract_z
 _atom_site_occupancy
  Co  Co0  1  0.750000  0.648010  0.433058  1
  Co  Co1  1  0.250000  0.854162  0.944148  1
  Co  Co2  1  0.750000  0.137513  0.061758  1
  Co  Co3  1  0.250000  0.355878  0.560556  1
  Si  Si4  1  0.250000  0.728781  0.622200  1
  Si  Si5  1  0.250000  0.230554  0.879068  1
  Si  Si6  1  0.750000  0.271404  0.378558  1
  Mo  Mo7  1  0.250000  0.475991  0.175506  1
  Mo  Mo8  1  0.250000  0.972842  0.324514  1
  Mo  Mo9  1  0.750000  0.026564  0.674041  1
  Mo  Mo10  1  0.750000  0.529272  0.827923  1
  P  P11  1  0.750000  0.769029  0.118669  1
