# generated using pymatgen
data_HoTh3Al6(Ga2Ir)6
_symmetry_space_group_name_H-M   'P 1'
_cell_length_a   7.66176400
_cell_length_b   7.67207530
_cell_length_c   9.51581010
_cell_angle_alpha   90.12901233
_cell_angle_beta   89.94698709
_cell_angle_gamma   119.71230221
_symmetry_Int_Tables_number   1
_chemical_formula_structural   HoTh3Al6(Ga2Ir)6
_chemical_formula_sum   'Ho1 Th3 Al6 Ga12 Ir6'
_cell_volume   485.81247512
_cell_formula_units_Z   1
loop_
 _symmetry_equiv_pos_site_id
 _symmetry_equiv_pos_as_xyz
  1  'x, y, z'
loop_
 _atom_site_type_symbol
 _atom_site_label
 _atom_site_symmetry_multiplicity
 _atom_site_fract_x
 _atom_site_fract_y
 _atom_site_fract_z
 _atom_site_occupancy
  Ho  Ho0  1  0.327247  0.002271  0.745693  1
  Th  Th1  1  0.997393  0.668871  0.251685  1
  Th  Th2  1  0.001274  0.331597  0.748158  1
  Th  Th3  1  0.670953  0.997377  0.254851  1
  Al  Al4  1  0.658675  0.994703  0.924887  1
  Al  Al5  1  0.335928  0.004685  0.066325  1
  Al  Al6  1  0.335615  0.331615  0.555006  1
  Al  Al7  1  0.663705  0.663587  0.452001  1
  Al  Al8  1  0.664610  0.664255  0.049828  1
  Al  Al9  1  0.334717  0.331677  0.943265  1
  Ga  Ga10  1  0.136957  0.131557  0.249223  1
  Ga  Ga11  1  0.870389  0.870538  0.750493  1
  Ga  Ga12  1  0.003130  0.333610  0.076972  1
  Ga  Ga13  1  0.003123  0.672102  0.919990  1
  Ga  Ga14  1  0.000716  0.670725  0.581518  1
  Ga  Ga15  1  0.334979  0.003577  0.425749  1
  Ga  Ga16  1  0.006335  0.335446  0.421428  1
  Ga  Ga17  1  0.658798  0.996182  0.584092  1
  Ga  Ga18  1  0.347640  0.545916  0.249652  1
  Ga  Ga19  1  0.650227  0.447500  0.750143  1
  Ga  Ga20  1  0.544359  0.342950  0.249090  1
  Ga  Ga21  1  0.453867  0.658581  0.750760  1
  Ir  Ir22  1  0.669835  0.326446  0.999165  1
  Ir  Ir23  1  0.331261  0.673352  0.000973  1
  Ir  Ir24  1  0.328950  0.668037  0.500161  1
  Ir  Ir25  1  0.673154  0.332143  0.499208  1
  Ir  Ir26  1  0.998282  0.000436  0.000383  1
  Ir  Ir27  1  0.997884  0.000262  0.499299  1
