# generated using pymatgen
data_Be5Co2Mo4P
_symmetry_space_group_name_H-M   'P 1'
_cell_length_a   4.60026485
_cell_length_b   4.60026521
_cell_length_c   7.17962300
_cell_angle_alpha   90.00000000
_cell_angle_beta   90.00000000
_cell_angle_gamma   120.19772397
_symmetry_Int_Tables_number   1
_chemical_formula_structural   Be5Co2Mo4P
_chemical_formula_sum   'Be5 Co2 Mo4 P1'
_cell_volume   131.31950506
_cell_formula_units_Z   1
loop_
 _symmetry_equiv_pos_site_id
 _symmetry_equiv_pos_as_xyz
  1  'x, y, z'
loop_
 _atom_site_type_symbol
 _atom_site_label
 _atom_site_symmetry_multiplicity
 _atom_site_fract_x
 _atom_site_fract_y
 _atom_site_fract_z
 _atom_site_occupancy
  Be  Be0  1  0.829037  0.657573  0.250000  1
  Be  Be1  1  0.342427  0.170963  0.250000  1
  Be  Be2  1  0.166702  0.833298  0.750000  1
  Be  Be3  1  0.166721  0.333220  0.750000  1
  Be  Be4  1  0.666780  0.833279  0.750000  1
  Co  Co5  1  0.999512  0.000488  0.496713  1
  Co  Co6  1  0.999512  0.000488  0.003287  1
  Mo  Mo7  1  0.333127  0.666873  0.431041  1
  Mo  Mo8  1  0.665855  0.334145  0.572501  1
  Mo  Mo9  1  0.665855  0.334145  0.927499  1
  Mo  Mo10  1  0.333127  0.666873  0.068959  1
  P  P11  1  0.831346  0.168654  0.250000  1
