# generated using pymatgen
data_Tb2ZnCo6SiB2
_symmetry_space_group_name_H-M   'P 1'
_cell_length_a   5.14651601
_cell_length_b   5.14584207
_cell_length_c   6.58067700
_cell_angle_alpha   90.00000000
_cell_angle_beta   90.00000000
_cell_angle_gamma   119.99861868
_symmetry_Int_Tables_number   1
_chemical_formula_structural   Tb2ZnCo6SiB2
_chemical_formula_sum   'Tb2 Zn1 Co6 Si1 B2'
_cell_volume   150.93050747
_cell_formula_units_Z   1
loop_
 _symmetry_equiv_pos_site_id
 _symmetry_equiv_pos_as_xyz
  1  'x, y, z'
loop_
 _atom_site_type_symbol
 _atom_site_label
 _atom_site_symmetry_multiplicity
 _atom_site_fract_x
 _atom_site_fract_y
 _atom_site_fract_z
 _atom_site_occupancy
  Tb  Tb0  1  0.999982  0.000006  0.000000  1
  Tb  Tb1  1  0.999990  0.000000  0.500000  1
  Zn  Zn2  1  0.333360  0.666724  0.000000  1
  Co  Co3  1  0.502051  0.004117  0.289929  1
  Co  Co4  1  0.502051  0.497944  0.289915  1
  Co  Co5  1  0.995852  0.497933  0.289910  1
  Co  Co6  1  0.502051  0.004117  0.710071  1
  Co  Co7  1  0.502051  0.497944  0.710085  1
  Co  Co8  1  0.995852  0.497933  0.710090  1
  Si  Si9  1  0.666585  0.333273  0.000000  1
  B  B10  1  0.333311  0.666654  0.500000  1
  B  B11  1  0.666664  0.333354  0.500000  1
