# generated using pymatgen
data_LiDy14Ho2Cd3Co4
_symmetry_space_group_name_H-M   'P 1'
_cell_length_a   9.46972322
_cell_length_b   9.48334851
_cell_length_c   9.50300955
_cell_angle_alpha   60.06840995
_cell_angle_beta   60.05548059
_cell_angle_gamma   59.95239051
_symmetry_Int_Tables_number   1
_chemical_formula_structural   LiDy14Ho2Cd3Co4
_chemical_formula_sum   'Li1 Dy14 Ho2 Cd3 Co4'
_cell_volume   603.80172893
_cell_formula_units_Z   1
loop_
 _symmetry_equiv_pos_site_id
 _symmetry_equiv_pos_as_xyz
  1  'x, y, z'
loop_
 _atom_site_type_symbol
 _atom_site_label
 _atom_site_symmetry_multiplicity
 _atom_site_fract_x
 _atom_site_fract_y
 _atom_site_fract_z
 _atom_site_occupancy
  Li  Li0  1  0.571232  0.571852  0.285066  1
  Dy  Dy1  1  0.937902  0.936366  0.562687  1
  Dy  Dy2  1  0.813243  0.187017  0.185463  1
  Dy  Dy3  1  0.937902  0.563046  0.562687  1
  Dy  Dy4  1  0.940172  0.560315  0.939198  1
  Dy  Dy5  1  0.813243  0.814276  0.185463  1
  Dy  Dy6  1  0.344260  0.343039  0.345978  1
  Dy  Dy7  1  0.560770  0.939495  0.938719  1
  Dy  Dy8  1  0.564083  0.936537  0.562844  1
  Dy  Dy9  1  0.188467  0.812689  0.809651  1
  Dy  Dy10  1  0.188467  0.189195  0.809651  1
  Dy  Dy11  1  0.347563  0.346718  0.959004  1
  Dy  Dy12  1  0.344260  0.966725  0.345978  1
  Dy  Dy13  1  0.811762  0.189456  0.809327  1
  Dy  Dy14  1  0.560770  0.561016  0.938719  1
  Ho  Ho15  1  0.185095  0.814184  0.186536  1
  Ho  Ho16  1  0.966343  0.343236  0.347186  1
  Cd  Cd17  1  0.257756  0.582206  0.577834  1
  Cd  Cd18  1  0.581288  0.582132  0.577469  1
  Cd  Cd19  1  0.581288  0.259114  0.577469  1
  Co  Co20  1  0.578542  0.141348  0.138762  1
  Co  Co21  1  0.142083  0.141754  0.138409  1
  Co  Co22  1  0.142083  0.577755  0.138409  1
  Co  Co23  1  0.141430  0.140535  0.577501  1
