# generated using pymatgen
data_Tb11Pr8ErSn16
_symmetry_space_group_name_H-M   'P 1'
_cell_length_a   8.11531900
_cell_length_b   8.34362012
_cell_length_c   15.71822100
_cell_angle_alpha   90.00000000
_cell_angle_beta   90.00000000
_cell_angle_gamma   89.99033811
_symmetry_Int_Tables_number   1
_chemical_formula_structural   Tb11Pr8ErSn16
_chemical_formula_sum   'Tb11 Pr8 Er1 Sn16'
_cell_volume   1064.29862991
_cell_formula_units_Z   1
loop_
 _symmetry_equiv_pos_site_id
 _symmetry_equiv_pos_as_xyz
  1  'x, y, z'
loop_
 _atom_site_type_symbol
 _atom_site_label
 _atom_site_symmetry_multiplicity
 _atom_site_fract_x
 _atom_site_fract_y
 _atom_site_fract_z
 _atom_site_occupancy
  Tb  Tb0  1  0.348953  0.835039  0.875904  1
  Tb  Tb1  1  0.848688  0.664822  0.624260  1
  Tb  Tb2  1  0.651038  0.164696  0.375563  1
  Tb  Tb3  1  0.151488  0.335171  0.124372  1
  Tb  Tb4  1  0.651038  0.164696  0.124437  1
  Tb  Tb5  1  0.151488  0.335171  0.375628  1
  Tb  Tb6  1  0.348953  0.835039  0.624096  1
  Tb  Tb7  1  0.848688  0.664822  0.875740  1
  Tb  Tb8  1  0.182198  0.500761  0.750000  1
  Tb  Tb9  1  0.682099  0.999228  0.750000  1
  Tb  Tb10  1  0.817992  0.499399  0.250000  1
  Pr  Pr11  1  0.507807  0.323171  0.903670  1
  Pr  Pr12  1  0.007588  0.176903  0.596257  1
  Pr  Pr13  1  0.492020  0.677030  0.403480  1
  Pr  Pr14  1  0.992459  0.823397  0.096515  1
  Pr  Pr15  1  0.492020  0.677030  0.096520  1
  Pr  Pr16  1  0.992459  0.823397  0.403485  1
  Pr  Pr17  1  0.507807  0.323171  0.596330  1
  Pr  Pr18  1  0.007588  0.176903  0.903743  1
  Er  Er19  1  0.317855  0.000983  0.250000  1
  Sn  Sn20  1  0.313692  0.040733  0.042267  1
  Sn  Sn21  1  0.813697  0.458923  0.458292  1
  Sn  Sn22  1  0.686194  0.958797  0.541418  1
  Sn  Sn23  1  0.186117  0.541021  0.958530  1
  Sn  Sn24  1  0.686194  0.958797  0.958582  1
  Sn  Sn25  1  0.186117  0.541021  0.541470  1
  Sn  Sn26  1  0.313692  0.040733  0.457733  1
  Sn  Sn27  1  0.813697  0.458923  0.041708  1
  Sn  Sn28  1  0.547229  0.622668  0.750000  1
  Sn  Sn29  1  0.047375  0.877518  0.750000  1
  Sn  Sn30  1  0.452544  0.376603  0.250000  1
  Sn  Sn31  1  0.954332  0.121909  0.250000  1
  Sn  Sn32  1  0.314502  0.144071  0.750000  1
  Sn  Sn33  1  0.814688  0.355727  0.750000  1
  Sn  Sn34  1  0.684413  0.856070  0.250000  1
  Sn  Sn35  1  0.185290  0.645659  0.250000  1
