# generated using pymatgen
data_La13Tb7Si15Ni
_symmetry_space_group_name_H-M   'P 1'
_cell_length_a   7.98354511
_cell_length_b   7.97464164
_cell_length_c   14.73460400
_cell_angle_alpha   89.97143345
_cell_angle_beta   89.51577282
_cell_angle_gamma   90.28760638
_symmetry_Int_Tables_number   1
_chemical_formula_structural   La13Tb7Si15Ni
_chemical_formula_sum   'La13 Tb7 Si15 Ni1'
_cell_volume   938.04653358
_cell_formula_units_Z   1
loop_
 _symmetry_equiv_pos_site_id
 _symmetry_equiv_pos_as_xyz
  1  'x, y, z'
loop_
 _atom_site_type_symbol
 _atom_site_label
 _atom_site_symmetry_multiplicity
 _atom_site_fract_x
 _atom_site_fract_y
 _atom_site_fract_z
 _atom_site_occupancy
  La  La0  1  0.134529  0.990793  0.875441  1
  La  La1  1  0.992842  0.632746  0.049340  1
  La  La2  1  0.016605  0.363495  0.535526  1
  La  La3  1  0.635003  0.986090  0.959056  1
  La  La4  1  0.136840  0.507201  0.793634  1
  La  La5  1  0.851759  0.483067  0.287059  1
  La  La6  1  0.500106  0.131582  0.206909  1
  La  La7  1  0.498797  0.868278  0.700047  1
  La  La8  1  0.370050  0.018136  0.459254  1
  La  La9  1  0.710785  0.691950  0.494171  1
  La  La10  1  0.826108  0.178867  0.750277  1
  La  La11  1  0.169695  0.803072  0.272824  1
  La  La12  1  0.305175  0.307349  0.997005  1
  Tb  Tb13  1  0.367530  0.488660  0.377015  1
  Tb  Tb14  1  0.853647  0.017307  0.368389  1
  Tb  Tb15  1  0.988621  0.133665  0.129402  1
  Tb  Tb16  1  0.019572  0.866696  0.620554  1
  Tb  Tb17  1  0.636652  0.510144  0.876246  1
  Tb  Tb18  1  0.498800  0.371715  0.620745  1
  Tb  Tb19  1  0.500236  0.630997  0.127942  1
  Si  Si20  1  0.917646  0.292785  0.945465  1
  Si  Si21  1  0.712346  0.079277  0.556811  1
  Si  Si22  1  0.210566  0.423987  0.194131  1
  Si  Si23  1  0.791533  0.572053  0.690032  1
  Si  Si24  1  0.436184  0.215645  0.802242  1
  Si  Si25  1  0.566434  0.789324  0.307573  1
  Si  Si26  1  0.287347  0.922237  0.066259  1
  Si  Si27  1  0.843111  0.789665  0.805836  1
  Si  Si28  1  0.149350  0.211261  0.314317  1
  Si  Si29  1  0.784617  0.844224  0.188466  1
  Si  Si30  1  0.295642  0.658042  0.552778  1
  Si  Si31  1  0.701767  0.345016  0.062660  1
  Si  Si32  1  0.655308  0.296617  0.438522  1
  Si  Si33  1  0.346480  0.698817  0.947381  1
  Si  Si34  1  0.217024  0.159340  0.682548  1
  Ni  Ni35  1  0.071287  0.719902  0.444142  1
