# generated using pymatgen
data_Lu12InNi4Hg
_symmetry_space_group_name_H-M   'P 1'
_cell_length_a   8.21140426
_cell_length_b   8.21140446
_cell_length_c   8.21140500
_cell_angle_alpha   112.60349691
_cell_angle_beta   109.65068167
_cell_angle_gamma   106.22222632
_symmetry_Int_Tables_number   1
_chemical_formula_structural   Lu12InNi4Hg
_chemical_formula_sum   'Lu12 In1 Ni4 Hg1'
_cell_volume   424.89605344
_cell_formula_units_Z   1
loop_
 _symmetry_equiv_pos_site_id
 _symmetry_equiv_pos_as_xyz
  1  'x, y, z'
loop_
 _atom_site_type_symbol
 _atom_site_label
 _atom_site_symmetry_multiplicity
 _atom_site_fract_x
 _atom_site_fract_y
 _atom_site_fract_z
 _atom_site_occupancy
  Lu  Lu0  1  0.674100  0.867974  0.193874  1
  Lu  Lu1  1  0.325900  0.519773  0.193874  1
  Lu  Lu2  1  0.816842  0.790878  0.607721  1
  Lu  Lu3  1  0.183158  0.790878  0.974035  1
  Lu  Lu4  1  0.816842  0.209122  0.025965  1
  Lu  Lu5  1  0.183158  0.209122  0.392279  1
  Lu  Lu6  1  0.674100  0.480227  0.806126  1
  Lu  Lu7  1  0.325900  0.132026  0.806126  1
  Lu  Lu8  1  0.563169  0.267048  0.296119  1
  Lu  Lu9  1  0.436831  0.732952  0.703881  1
  Lu  Lu10  1  0.029071  0.732952  0.296119  1
  Lu  Lu11  1  0.970929  0.267048  0.703881  1
  In  In12  1  0.500000  0.000000  0.500000  1
  Ni  Ni13  1  0.351350  0.500000  0.851350  1
  Ni  Ni14  1  0.648650  0.500000  0.148650  1
  Ni  Ni15  1  0.874995  0.874995  0.000000  1
  Ni  Ni16  1  0.125005  0.125005  0.000000  1
  Hg  Hg17  1  0.000000  0.500000  0.500000  1
