# generated using pymatgen
data_Tb4Re3(TcB4)3
_symmetry_space_group_name_H-M   'P 1'
_cell_length_a   6.21605158
_cell_length_b   6.22391390
_cell_length_c   7.52793950
_cell_angle_alpha   89.35644663
_cell_angle_beta   89.32703853
_cell_angle_gamma   113.77125667
_symmetry_Int_Tables_number   1
_chemical_formula_structural   Tb4Re3(TcB4)3
_chemical_formula_sum   'Tb4 Re3 Tc3 B12'
_cell_volume   266.47484189
_cell_formula_units_Z   1
loop_
 _symmetry_equiv_pos_site_id
 _symmetry_equiv_pos_as_xyz
  1  'x, y, z'
loop_
 _atom_site_type_symbol
 _atom_site_label
 _atom_site_symmetry_multiplicity
 _atom_site_fract_x
 _atom_site_fract_y
 _atom_site_fract_z
 _atom_site_occupancy
  Tb  Tb0  1  0.899568  0.554510  0.322787  1
  Tb  Tb1  1  0.439579  0.099773  0.176844  1
  Tb  Tb2  1  0.100114  0.443661  0.677430  1
  Tb  Tb3  1  0.557446  0.900020  0.823354  1
  Re  Re4  1  0.806832  0.990352  0.410269  1
  Re  Re5  1  0.990660  0.805613  0.910991  1
  Re  Re6  1  0.194049  0.009696  0.588937  1
  Tc  Tc7  1  0.412172  0.587669  0.250367  1
  Tc  Tc8  1  0.587422  0.412314  0.750407  1
  Tc  Tc9  1  0.009639  0.195113  0.088010  1
  B  B10  1  0.756002  0.847513  0.130896  1
  B  B11  1  0.152918  0.249284  0.370903  1
  B  B12  1  0.247604  0.152007  0.868715  1
  B  B13  1  0.847007  0.752806  0.630339  1
  B  B14  1  0.414544  0.841437  0.481570  1
  B  B15  1  0.158412  0.585188  0.018548  1
  B  B16  1  0.586310  0.158623  0.517688  1
  B  B17  1  0.840593  0.414639  0.981145  1
  B  B18  1  0.557256  0.649806  0.534615  1
  B  B19  1  0.349747  0.442738  0.965676  1
  B  B20  1  0.443034  0.350448  0.465628  1
  B  B21  1  0.649095  0.556791  0.034882  1
