# generated using pymatgen
data_Yb3Pr15(ZrIr6)2
_symmetry_space_group_name_H-M   'P 1'
_cell_length_a   11.23587916
_cell_length_b   11.30798006
_cell_length_c   6.46122697
_cell_angle_alpha   89.84716586
_cell_angle_beta   90.26402805
_cell_angle_gamma   89.62904965
_symmetry_Int_Tables_number   1
_chemical_formula_structural   Yb3Pr15(ZrIr6)2
_chemical_formula_sum   'Yb3 Pr15 Zr2 Ir12'
_cell_volume   820.90291433
_cell_formula_units_Z   1
loop_
 _symmetry_equiv_pos_site_id
 _symmetry_equiv_pos_as_xyz
  1  'x, y, z'
loop_
 _atom_site_type_symbol
 _atom_site_label
 _atom_site_symmetry_multiplicity
 _atom_site_fract_x
 _atom_site_fract_y
 _atom_site_fract_z
 _atom_site_occupancy
  Yb  Yb0  1  0.287768  0.085579  0.379518  1
  Yb  Yb1  1  0.499581  0.499680  0.998227  1
  Yb  Yb2  1  0.499152  0.500603  0.497394  1
  Pr  Pr3  1  0.285797  0.914686  0.880729  1
  Pr  Pr4  1  0.712599  0.086991  0.880342  1
  Pr  Pr5  1  0.714274  0.913466  0.381222  1
  Pr  Pr6  1  0.585646  0.789022  0.880974  1
  Pr  Pr7  1  0.580602  0.210963  0.381913  1
  Pr  Pr8  1  0.411361  0.791886  0.380912  1
  Pr  Pr9  1  0.411191  0.209831  0.882014  1
  Pr  Pr10  1  0.211208  0.413913  0.619131  1
  Pr  Pr11  1  0.212364  0.585123  0.118300  1
  Pr  Pr12  1  0.789050  0.413484  0.118674  1
  Pr  Pr13  1  0.789018  0.585717  0.618554  1
  Pr  Pr14  1  0.912548  0.714175  0.120521  1
  Pr  Pr15  1  0.912319  0.285394  0.622282  1
  Pr  Pr16  1  0.087296  0.714312  0.620472  1
  Pr  Pr17  1  0.090922  0.283485  0.123765  1
  Zr  Zr18  1  0.004237  0.001373  0.498795  1
  Zr  Zr19  1  0.999247  0.000119  0.998878  1
  Ir  Ir20  1  0.864590  0.136729  0.250426  1
  Ir  Ir21  1  0.864263  0.864136  0.748573  1
  Ir  Ir22  1  0.137568  0.136153  0.753332  1
  Ir  Ir23  1  0.136001  0.861387  0.248123  1
  Ir  Ir24  1  0.655160  0.344238  0.748570  1
  Ir  Ir25  1  0.655195  0.655843  0.249772  1
  Ir  Ir26  1  0.344310  0.346945  0.247638  1
  Ir  Ir27  1  0.344078  0.656155  0.748481  1
  Ir  Ir28  1  0.500509  0.000142  0.116561  1
  Ir  Ir29  1  0.501129  0.999563  0.617618  1
  Ir  Ir30  1  0.000701  0.499565  0.884628  1
  Ir  Ir31  1  0.000317  0.499344  0.383662  1
