# generated using pymatgen
data_Ac6Si11P
_symmetry_space_group_name_H-M   'P 1'
_cell_length_a   4.51558440
_cell_length_b   4.39742570
_cell_length_c   21.69342919
_cell_angle_alpha   84.32964542
_cell_angle_beta   95.74000394
_cell_angle_gamma   89.91562531
_symmetry_Int_Tables_number   1
_chemical_formula_structural   Ac6Si11P
_chemical_formula_sum   'Ac6 Si11 P1'
_cell_volume   426.48011969
_cell_formula_units_Z   1
loop_
 _symmetry_equiv_pos_site_id
 _symmetry_equiv_pos_as_xyz
  1  'x, y, z'
loop_
 _atom_site_type_symbol
 _atom_site_label
 _atom_site_symmetry_multiplicity
 _atom_site_fract_x
 _atom_site_fract_y
 _atom_site_fract_z
 _atom_site_occupancy
  Ac  Ac0  1  0.374614  0.874746  0.250976  1
  Ac  Ac1  1  0.042233  0.207755  0.583743  1
  Ac  Ac2  1  0.708805  0.542195  0.916231  1
  Ac  Ac3  1  0.290070  0.458949  0.082374  1
  Ac  Ac4  1  0.958455  0.790600  0.417841  1
  Ac  Ac5  1  0.625209  0.125311  0.749333  1
  Si  Si6  1  0.903559  0.346671  0.309019  1
  Si  Si7  1  0.570265  0.680683  0.640400  1
  Si  Si8  1  0.234937  0.014767  0.971681  1
  Si  Si9  1  0.430520  0.318005  0.361047  1
  Si  Si10  1  0.097026  0.652177  0.693067  1
  Si  Si11  1  0.849791  0.400181  0.197089  1
  Si  Si12  1  0.516201  0.734921  0.528659  1
  Si  Si13  1  0.182645  0.070375  0.859857  1
  Si  Si14  1  0.818066  0.930032  0.140767  1
  Si  Si15  1  0.484049  0.263709  0.472680  1
  Si  Si16  1  0.150595  0.598763  0.804482  1
  P  P17  1  0.762962  0.990158  0.020753  1
