# generated using pymatgen
data_Ti5Nb3Ga2(C2O)2
_symmetry_space_group_name_H-M   'P 1'
_cell_length_a   3.08412400
_cell_length_b   3.08412373
_cell_length_c   23.83487500
_cell_angle_alpha   90.00000000
_cell_angle_beta   90.00000000
_cell_angle_gamma   119.99998143
_symmetry_Int_Tables_number   1
_chemical_formula_structural   Ti5Nb3Ga2(C2O)2
_chemical_formula_sum   'Ti5 Nb3 Ga2 C4 O2'
_cell_volume   196.33928980
_cell_formula_units_Z   1
loop_
 _symmetry_equiv_pos_site_id
 _symmetry_equiv_pos_as_xyz
  1  'x, y, z'
loop_
 _atom_site_type_symbol
 _atom_site_label
 _atom_site_symmetry_multiplicity
 _atom_site_fract_x
 _atom_site_fract_y
 _atom_site_fract_z
 _atom_site_occupancy
  Ti  Ti0  1  0.000000  0.000000  0.154897  1
  Ti  Ti1  1  0.333333  0.666667  0.442170  1
  Ti  Ti2  1  0.666667  0.333333  0.557135  1
  Ti  Ti3  1  0.666667  0.333333  0.944105  1
  Ti  Ti4  1  0.333333  0.666667  0.058929  1
  Nb  Nb5  1  0.000000  0.000000  0.342199  1
  Nb  Nb6  1  0.000000  0.000000  0.656860  1
  Nb  Nb7  1  0.000000  0.000000  0.843791  1
  Ga  Ga8  1  0.333333  0.666667  0.246813  1
  Ga  Ga9  1  0.666667  0.333333  0.750319  1
  C  C10  1  0.666667  0.333333  0.394986  1
  C  C11  1  0.333333  0.666667  0.604067  1
  C  C12  1  0.333333  0.666667  0.896553  1
  C  C13  1  0.666667  0.333333  0.106775  1
  O  O14  1  0.000000  0.000000  0.500040  1
  O  O15  1  0.000000  0.000000  0.000361  1
