# generated using pymatgen
data_Ho4Al4PdRuRh2
_symmetry_space_group_name_H-M   'P 1'
_cell_length_a   4.22773000
_cell_length_b   6.86479832
_cell_length_c   7.96392687
_cell_angle_alpha   89.77930060
_cell_angle_beta   90.00000000
_cell_angle_gamma   90.00000000
_symmetry_Int_Tables_number   1
_chemical_formula_structural   Ho4Al4PdRuRh2
_chemical_formula_sum   'Ho4 Al4 Pd1 Ru1 Rh2'
_cell_volume   231.13146260
_cell_formula_units_Z   1
loop_
 _symmetry_equiv_pos_site_id
 _symmetry_equiv_pos_as_xyz
  1  'x, y, z'
loop_
 _atom_site_type_symbol
 _atom_site_label
 _atom_site_symmetry_multiplicity
 _atom_site_fract_x
 _atom_site_fract_y
 _atom_site_fract_z
 _atom_site_occupancy
  Ho  Ho0  1  0.250000  0.533878  0.182126  1
  Ho  Ho1  1  0.750000  0.456647  0.817503  1
  Ho  Ho2  1  0.750000  0.970279  0.675246  1
  Ho  Ho3  1  0.250000  0.036729  0.321207  1
  Al  Al4  1  0.250000  0.635082  0.559285  1
  Al  Al5  1  0.750000  0.360709  0.440859  1
  Al  Al6  1  0.750000  0.864872  0.063167  1
  Al  Al7  1  0.250000  0.142142  0.940520  1
  Pd  Pd8  1  0.250000  0.769437  0.878229  1
  Ru  Ru9  1  0.250000  0.261604  0.621508  1
  Rh  Rh10  1  0.750000  0.235239  0.121282  1
  Rh  Rh11  1  0.750000  0.733382  0.379069  1
