# generated using pymatgen
data_Lu11ZrTc4
_symmetry_space_group_name_H-M   'P 1'
_cell_length_a   6.07808105
_cell_length_b   7.33385087
_cell_length_c   8.88707700
_cell_angle_alpha   90.00000000
_cell_angle_beta   90.00000000
_cell_angle_gamma   88.88812018
_symmetry_Int_Tables_number   1
_chemical_formula_structural   Lu11ZrTc4
_chemical_formula_sum   'Lu11 Zr1 Tc4'
_cell_volume   396.07344247
_cell_formula_units_Z   1
loop_
 _symmetry_equiv_pos_site_id
 _symmetry_equiv_pos_as_xyz
  1  'x, y, z'
loop_
 _atom_site_type_symbol
 _atom_site_label
 _atom_site_symmetry_multiplicity
 _atom_site_fract_x
 _atom_site_fract_y
 _atom_site_fract_z
 _atom_site_occupancy
  Lu  Lu0  1  0.348183  0.680612  0.061368  1
  Lu  Lu1  1  0.160411  0.170936  0.439451  1
  Lu  Lu2  1  0.648974  0.317327  0.562951  1
  Lu  Lu3  1  0.842749  0.830340  0.937389  1
  Lu  Lu4  1  0.648974  0.317327  0.937049  1
  Lu  Lu5  1  0.842749  0.830340  0.562611  1
  Lu  Lu6  1  0.348183  0.680612  0.438632  1
  Lu  Lu7  1  0.160411  0.170936  0.060549  1
  Lu  Lu8  1  0.874420  0.537744  0.250000  1
  Lu  Lu9  1  0.621790  0.038817  0.250000  1
  Lu  Lu10  1  0.125077  0.463577  0.750000  1
  Zr  Zr11  1  0.373234  0.952786  0.750000  1
  Tc  Tc12  1  0.040039  0.881344  0.250000  1
  Tc  Tc13  1  0.451545  0.383059  0.250000  1
  Tc  Tc14  1  0.973836  0.117703  0.750000  1
  Tc  Tc15  1  0.539423  0.626539  0.750000  1
