# generated using pymatgen
data_Yb4Si2GePd4
_symmetry_space_group_name_H-M   'P 1'
_cell_length_a   10.79547059
_cell_length_b   10.79774926
_cell_length_c   7.81978127
_cell_angle_alpha   70.62812711
_cell_angle_beta   70.56110642
_cell_angle_gamma   30.76525671
_symmetry_Int_Tables_number   1
_chemical_formula_structural   Yb4Si2GePd4
_chemical_formula_sum   'Yb8 Si4 Ge2 Pd8'
_cell_volume   437.70681165
_cell_formula_units_Z   2
loop_
 _symmetry_equiv_pos_site_id
 _symmetry_equiv_pos_as_xyz
  1  'x, y, z'
loop_
 _atom_site_type_symbol
 _atom_site_label
 _atom_site_symmetry_multiplicity
 _atom_site_fract_x
 _atom_site_fract_y
 _atom_site_fract_z
 _atom_site_occupancy
  Yb  Yb0  1  0.923401  0.208303  0.331405  1
  Yb  Yb1  1  0.075671  0.792409  0.666949  1
  Yb  Yb2  1  0.791685  0.076633  0.166913  1
  Yb  Yb3  1  0.451090  0.206213  0.904089  1
  Yb  Yb4  1  0.789617  0.552346  0.596028  1
  Yb  Yb5  1  0.209950  0.447823  0.402569  1
  Yb  Yb6  1  0.207941  0.924788  0.832730  1
  Yb  Yb7  1  0.545041  0.794353  0.099046  1
  Si  Si8  1  0.042204  0.301335  0.934285  1
  Si  Si9  1  0.704735  0.954316  0.563582  1
  Si  Si10  1  0.955740  0.702935  0.061935  1
  Si  Si11  1  0.644777  0.354393  0.750899  1
  Ge  Ge12  1  0.290443  0.050778  0.437595  1
  Ge  Ge13  1  0.346703  0.652656  0.249033  1
  Pd  Pd14  1  0.572791  0.298049  0.528131  1
  Pd  Pd15  1  0.699984  0.428930  0.970686  1
  Pd  Pd16  1  0.307283  0.562728  0.015924  1
  Pd  Pd17  1  0.441866  0.682414  0.485765  1
  Pd  Pd18  1  0.649017  0.913584  0.320301  1
  Pd  Pd19  1  0.914258  0.644184  0.819483  1
  Pd  Pd20  1  0.367025  0.077548  0.688079  1
  Pd  Pd21  1  0.068779  0.373280  0.174572  1
