# generated using pymatgen
data_VPF30
_symmetry_space_group_name_H-M   'P 1'
_cell_length_a   9.17990505
_cell_length_b   9.17990664
_cell_length_c   7.01849179
_cell_angle_alpha   90.11974002
_cell_angle_beta   89.88026006
_cell_angle_gamma   92.52289275
_symmetry_Int_Tables_number   1
_chemical_formula_structural   VPF30
_chemical_formula_sum   'V1 P1 F30'
_cell_volume   590.87725605
_cell_formula_units_Z   1
loop_
 _symmetry_equiv_pos_site_id
 _symmetry_equiv_pos_as_xyz
  1  'x, y, z'
loop_
 _atom_site_type_symbol
 _atom_site_label
 _atom_site_symmetry_multiplicity
 _atom_site_fract_x
 _atom_site_fract_y
 _atom_site_fract_z
 _atom_site_occupancy
  V  V0  1  0.864226  0.135774  0.021023  1
  P  P1  1  0.136230  0.863770  0.529285  1
  F  F2  1  0.296755  0.278670  0.210004  1
  F  F3  1  0.282880  0.295020  0.705076  1
  F  F4  1  0.341303  0.658697  0.071806  1
  F  F5  1  0.656895  0.343105  0.572412  1
  F  F6  1  0.721330  0.703245  0.210004  1
  F  F7  1  0.704980  0.717120  0.705076  1
  F  F8  1  0.050113  0.140590  0.090915  1
  F  F9  1  0.140724  0.032374  0.585827  1
  F  F10  1  0.077110  0.397316  0.392468  1
  F  F11  1  0.393893  0.075040  0.887305  1
  F  F12  1  0.326112  0.434064  0.781948  1
  F  F13  1  0.435928  0.330221  0.278298  1
  F  F14  1  0.064000  0.574543  0.964245  1
  F  F15  1  0.570120  0.061233  0.471578  1
  F  F16  1  0.641307  0.358693  0.773267  1
  F  F17  1  0.358171  0.641829  0.272005  1
  F  F18  1  0.938767  0.429880  0.471578  1
  F  F19  1  0.425457  0.936000  0.964245  1
  F  F20  1  0.669779  0.564072  0.278298  1
  F  F21  1  0.565936  0.673888  0.781948  1
  F  F22  1  0.924960  0.606107  0.887305  1
  F  F23  1  0.602684  0.922890  0.392468  1
  F  F24  1  0.859410  0.949887  0.090915  1
  F  F25  1  0.967626  0.859276  0.585827  1
  F  F26  1  0.133336  0.693597  0.570942  1
  F  F27  1  0.676930  0.132988  0.080185  1
  F  F28  1  0.869155  0.130845  0.775489  1
  F  F29  1  0.130467  0.869533  0.309857  1
  F  F30  1  0.867012  0.323070  0.080185  1
  F  F31  1  0.306403  0.866664  0.570942  1
