# generated using pymatgen
data_Dy3Tm7(SiSb2)2
_symmetry_space_group_name_H-M   'P 1'
_cell_length_a   7.88858100
_cell_length_b   8.96835247
_cell_length_c   11.81311848
_cell_angle_alpha   90.01122101
_cell_angle_beta   90.07342684
_cell_angle_gamma   90.03549695
_symmetry_Int_Tables_number   1
_chemical_formula_structural   Dy3Tm7(SiSb2)2
_chemical_formula_sum   'Dy6 Tm14 Si4 Sb8'
_cell_volume   835.74862184
_cell_formula_units_Z   2
loop_
 _symmetry_equiv_pos_site_id
 _symmetry_equiv_pos_as_xyz
  1  'x, y, z'
loop_
 _atom_site_type_symbol
 _atom_site_label
 _atom_site_symmetry_multiplicity
 _atom_site_fract_x
 _atom_site_fract_y
 _atom_site_fract_z
 _atom_site_occupancy
  Dy  Dy0  1  0.861942  0.749782  0.793646  1
  Dy  Dy1  1  0.138058  0.250218  0.206354  1
  Dy  Dy2  1  0.361638  0.250166  0.705726  1
  Dy  Dy3  1  0.638362  0.749834  0.294274  1
  Dy  Dy4  1  0.815306  0.950002  0.065834  1
  Dy  Dy5  1  0.184694  0.049998  0.934166  1
  Tm  Tm6  1  0.335966  0.749882  0.713832  1
  Tm  Tm7  1  0.664034  0.250118  0.286168  1
  Tm  Tm8  1  0.835700  0.250265  0.785880  1
  Tm  Tm9  1  0.164300  0.749735  0.214120  1
  Tm  Tm10  1  0.039387  0.749818  0.501383  1
  Tm  Tm11  1  0.960613  0.250182  0.498617  1
  Tm  Tm12  1  0.539625  0.250214  0.998666  1
  Tm  Tm13  1  0.460375  0.749786  0.001334  1
  Tm  Tm14  1  0.683819  0.550697  0.565654  1
  Tm  Tm15  1  0.316181  0.449303  0.434346  1
  Tm  Tm16  1  0.183999  0.449691  0.934188  1
  Tm  Tm17  1  0.316139  0.050580  0.434502  1
  Tm  Tm18  1  0.816001  0.550309  0.065812  1
  Tm  Tm19  1  0.683861  0.949420  0.565498  1
  Si  Si20  1  0.083743  0.747347  0.981856  1
  Si  Si21  1  0.916257  0.252653  0.018144  1
  Si  Si22  1  0.583995  0.249872  0.518347  1
  Si  Si23  1  0.416005  0.750128  0.481653  1
  Sb  Sb24  1  0.568265  0.510551  0.827154  1
  Sb  Sb25  1  0.431735  0.489449  0.172846  1
  Sb  Sb26  1  0.068150  0.489541  0.672525  1
  Sb  Sb27  1  0.431088  0.010532  0.173194  1
  Sb  Sb28  1  0.931850  0.510459  0.327475  1
  Sb  Sb29  1  0.568912  0.989468  0.826806  1
  Sb  Sb30  1  0.932088  0.989474  0.327851  1
  Sb  Sb31  1  0.067912  0.010526  0.672149  1
