# generated using pymatgen
data_CaEu(BiPd)2
_symmetry_space_group_name_H-M   'P 1'
_cell_length_a   4.86921300
_cell_length_b   7.67217311
_cell_length_c   8.23693090
_cell_angle_alpha   89.69331664
_cell_angle_beta   90.00000000
_cell_angle_gamma   90.00000000
_symmetry_Int_Tables_number   1
_chemical_formula_structural   CaEu(BiPd)2
_chemical_formula_sum   'Ca2 Eu2 Bi4 Pd4'
_cell_volume   307.70628522
_cell_formula_units_Z   2
loop_
 _symmetry_equiv_pos_site_id
 _symmetry_equiv_pos_as_xyz
  1  'x, y, z'
loop_
 _atom_site_type_symbol
 _atom_site_label
 _atom_site_symmetry_multiplicity
 _atom_site_fract_x
 _atom_site_fract_y
 _atom_site_fract_z
 _atom_site_occupancy
  Ca  Ca0  1  0.250000  0.491385  0.795442  1
  Ca  Ca1  1  0.750000  0.508615  0.204558  1
  Eu  Eu2  1  0.750000  0.007348  0.296232  1
  Eu  Eu3  1  0.250000  0.992652  0.703768  1
  Bi  Bi4  1  0.750000  0.692829  0.594275  1
  Bi  Bi5  1  0.250000  0.307171  0.405725  1
  Bi  Bi6  1  0.250000  0.804866  0.092091  1
  Bi  Bi7  1  0.750000  0.195134  0.907909  1
  Pd  Pd8  1  0.750000  0.802985  0.922023  1
  Pd  Pd9  1  0.250000  0.197015  0.077977  1
  Pd  Pd10  1  0.250000  0.689964  0.419519  1
  Pd  Pd11  1  0.750000  0.310036  0.580481  1
