# generated using pymatgen
data_La2Tb2TmSi4
_symmetry_space_group_name_H-M   'P 1'
_cell_length_a   7.80198600
_cell_length_b   7.80198600
_cell_length_c   14.75322500
_cell_angle_alpha   90.00000000
_cell_angle_beta   90.00000000
_cell_angle_gamma   90.00000000
_symmetry_Int_Tables_number   1
_chemical_formula_structural   La2Tb2TmSi4
_chemical_formula_sum   'La8 Tb8 Tm4 Si16'
_cell_volume   898.04334571
_cell_formula_units_Z   4
loop_
 _symmetry_equiv_pos_site_id
 _symmetry_equiv_pos_as_xyz
  1  'x, y, z'
loop_
 _atom_site_type_symbol
 _atom_site_label
 _atom_site_symmetry_multiplicity
 _atom_site_fract_x
 _atom_site_fract_y
 _atom_site_fract_z
 _atom_site_occupancy
  La  La0  1  0.986365  0.630697  0.047686  1
  La  La1  1  0.013635  0.369303  0.547686  1
  La  La2  1  0.630697  0.986365  0.952314  1
  La  La3  1  0.130697  0.513635  0.797686  1
  La  La4  1  0.869303  0.486365  0.297686  1
  La  La5  1  0.513635  0.130697  0.202314  1
  La  La6  1  0.486365  0.869303  0.702314  1
  La  La7  1  0.369303  0.013635  0.452314  1
  Tb  Tb8  1  0.368055  0.485791  0.373790  1
  Tb  Tb9  1  0.868055  0.014209  0.376210  1
  Tb  Tb10  1  0.985791  0.131945  0.123790  1
  Tb  Tb11  1  0.014209  0.868055  0.623790  1
  Tb  Tb12  1  0.631945  0.514209  0.873790  1
  Tb  Tb13  1  0.485791  0.368055  0.626210  1
  Tb  Tb14  1  0.514209  0.631945  0.126210  1
  Tb  Tb15  1  0.131945  0.985791  0.876210  1
  Tm  Tm16  1  0.687406  0.687406  0.500000  1
  Tm  Tm17  1  0.812594  0.187406  0.750000  1
  Tm  Tm18  1  0.187406  0.812594  0.250000  1
  Tm  Tm19  1  0.312594  0.312594  0.000000  1
  Si  Si20  1  0.073736  0.715968  0.437010  1
  Si  Si21  1  0.926264  0.284032  0.937010  1
  Si  Si22  1  0.715968  0.073736  0.562990  1
  Si  Si23  1  0.215969  0.426264  0.187010  1
  Si  Si24  1  0.784032  0.573736  0.687010  1
  Si  Si25  1  0.426264  0.215969  0.812990  1
  Si  Si26  1  0.573736  0.784032  0.312990  1
  Si  Si27  1  0.284032  0.926264  0.062990  1
  Si  Si28  1  0.835962  0.805510  0.800772  1
  Si  Si29  1  0.164038  0.194490  0.300772  1
  Si  Si30  1  0.805510  0.835962  0.199228  1
  Si  Si31  1  0.305510  0.664038  0.550772  1
  Si  Si32  1  0.694490  0.335962  0.050772  1
  Si  Si33  1  0.664038  0.305510  0.449228  1
  Si  Si34  1  0.335962  0.694490  0.949228  1
  Si  Si35  1  0.194490  0.164038  0.699228  1
