# generated using pymatgen
data_YGa2Pd5
_symmetry_space_group_name_H-M   'P 1'
_cell_length_a   4.17620765
_cell_length_b   4.17620665
_cell_length_c   8.07289321
_cell_angle_alpha   104.99034057
_cell_angle_beta   104.99035422
_cell_angle_gamma   90.00000412
_symmetry_Int_Tables_number   1
_chemical_formula_structural   YGa2Pd5
_chemical_formula_sum   'Y1 Ga2 Pd5'
_cell_volume   131.03907275
_cell_formula_units_Z   1
loop_
 _symmetry_equiv_pos_site_id
 _symmetry_equiv_pos_as_xyz
  1  'x, y, z'
loop_
 _atom_site_type_symbol
 _atom_site_label
 _atom_site_symmetry_multiplicity
 _atom_site_fract_x
 _atom_site_fract_y
 _atom_site_fract_z
 _atom_site_occupancy
  Y  Y0  1  0.000000  0.000000  0.000000  1
  Ga  Ga1  1  0.745971  0.745971  0.491943  1
  Ga  Ga2  1  0.254029  0.254029  0.508057  1
  Pd  Pd3  1  0.500000  0.500000  0.000000  1
  Pd  Pd4  1  0.642669  0.142670  0.285340  1
  Pd  Pd5  1  0.142670  0.642669  0.285340  1
  Pd  Pd6  1  0.857330  0.357330  0.714659  1
  Pd  Pd7  1  0.357330  0.857330  0.714659  1
