# generated using pymatgen
data_CsCeMgTe3
_symmetry_space_group_name_H-M   'P 1'
_cell_length_a   8.92987479
_cell_length_b   8.92987475
_cell_length_c   12.22343200
_cell_angle_alpha   90.00000000
_cell_angle_beta   90.00000000
_cell_angle_gamma   149.34195284
_symmetry_Int_Tables_number   1
_chemical_formula_structural   CsCeMgTe3
_chemical_formula_sum   'Cs2 Ce2 Mg2 Te6'
_cell_volume   497.02718061
_cell_formula_units_Z   2
loop_
 _symmetry_equiv_pos_site_id
 _symmetry_equiv_pos_as_xyz
  1  'x, y, z'
loop_
 _atom_site_type_symbol
 _atom_site_label
 _atom_site_symmetry_multiplicity
 _atom_site_fract_x
 _atom_site_fract_y
 _atom_site_fract_z
 _atom_site_occupancy
  Cs  Cs0  1  0.246594  0.753407  0.250000  1
  Cs  Cs1  1  0.753407  0.246594  0.750000  1
  Ce  Ce2  1  0.500000  0.500000  0.000000  1
  Ce  Ce3  1  0.500000  0.500000  0.500000  1
  Mg  Mg4  1  0.965174  0.034826  0.250000  1
  Mg  Mg5  1  0.034826  0.965174  0.750000  1
  Te  Te6  1  0.879034  0.120967  0.056842  1
  Te  Te7  1  0.561182  0.438818  0.250000  1
  Te  Te8  1  0.879034  0.120967  0.443157  1
  Te  Te9  1  0.120967  0.879034  0.556843  1
  Te  Te10  1  0.438818  0.561182  0.750000  1
  Te  Te11  1  0.120967  0.879034  0.943157  1
