# generated using pymatgen
data_Sc8Ta10ReSi16Ag
_symmetry_space_group_name_H-M   'P 1'
_cell_length_a   6.88863663
_cell_length_b   6.89160951
_cell_length_c   12.64962675
_cell_angle_alpha   90.47070441
_cell_angle_beta   89.54112815
_cell_angle_gamma   89.91522715
_symmetry_Int_Tables_number   1
_chemical_formula_structural   Sc8Ta10ReSi16Ag
_chemical_formula_sum   'Sc8 Ta10 Re1 Si16 Ag1'
_cell_volume   600.48553003
_cell_formula_units_Z   1
loop_
 _symmetry_equiv_pos_site_id
 _symmetry_equiv_pos_as_xyz
  1  'x, y, z'
loop_
 _atom_site_type_symbol
 _atom_site_label
 _atom_site_symmetry_multiplicity
 _atom_site_fract_x
 _atom_site_fract_y
 _atom_site_fract_z
 _atom_site_occupancy
  Sc  Sc0  1  0.002475  0.658962  0.034152  1
  Sc  Sc1  1  0.839090  0.501868  0.281609  1
  Sc  Sc2  1  0.157655  0.503693  0.780960  1
  Sc  Sc3  1  0.500639  0.839795  0.716511  1
  Sc  Sc4  1  0.501748  0.157007  0.219826  1
  Sc  Sc5  1  0.000070  0.341394  0.530985  1
  Sc  Sc6  1  0.658238  0.002771  0.967727  1
  Sc  Sc7  1  0.341151  0.999951  0.468087  1
  Ta  Ta8  1  0.170849  0.828996  0.250990  1
  Ta  Ta9  1  0.828137  0.170636  0.749664  1
  Ta  Ta10  1  0.672640  0.668790  0.499367  1
  Ta  Ta11  1  0.004690  0.149462  0.125661  1
  Ta  Ta12  1  0.351117  0.502482  0.376127  1
  Ta  Ta13  1  0.651082  0.497989  0.877793  1
  Ta  Ta14  1  0.506799  0.347929  0.621730  1
  Ta  Ta15  1  0.500020  0.655246  0.123706  1
  Ta  Ta16  1  0.994616  0.849325  0.627208  1
  Ta  Ta17  1  0.148232  0.005879  0.874749  1
  Re  Re18  1  0.846236  0.991717  0.372248  1
  Si  Si19  1  0.295759  0.945644  0.063915  1
  Si  Si20  1  0.545217  0.801326  0.314262  1
  Si  Si21  1  0.456286  0.197985  0.810517  1
  Si  Si22  1  0.801162  0.542661  0.687224  1
  Si  Si23  1  0.198677  0.456018  0.189448  1
  Si  Si24  1  0.701138  0.040934  0.561014  1
  Si  Si25  1  0.944594  0.296975  0.936449  1
  Si  Si26  1  0.041938  0.702374  0.437088  1
  Si  Si27  1  0.716960  0.368003  0.075667  1
  Si  Si28  1  0.133538  0.201472  0.322024  1
  Si  Si29  1  0.859240  0.795087  0.822152  1
  Si  Si30  1  0.204086  0.142678  0.678168  1
  Si  Si31  1  0.795433  0.862328  0.179587  1
  Si  Si32  1  0.294030  0.637035  0.571294  1
  Si  Si33  1  0.367616  0.718644  0.925044  1
  Si  Si34  1  0.640284  0.287667  0.426002  1
  Ag  Ag35  1  0.328559  0.329279  0.001049  1
