# generated using pymatgen
data_SmDyLu6(WO6)4
_symmetry_space_group_name_H-M   'P 1'
_cell_length_a   5.34268900
_cell_length_b   7.63659612
_cell_length_c   11.36300903
_cell_angle_alpha   75.25792970
_cell_angle_beta   90.00000000
_cell_angle_gamma   90.00000000
_symmetry_Int_Tables_number   1
_chemical_formula_structural   SmDyLu6(WO6)4
_chemical_formula_sum   'Sm1 Dy1 Lu6 W4 O24'
_cell_volume   448.34878191
_cell_formula_units_Z   1
loop_
 _symmetry_equiv_pos_site_id
 _symmetry_equiv_pos_as_xyz
  1  'x, y, z'
loop_
 _atom_site_type_symbol
 _atom_site_label
 _atom_site_symmetry_multiplicity
 _atom_site_fract_x
 _atom_site_fract_y
 _atom_site_fract_z
 _atom_site_occupancy
  Sm  Sm0  1  0.685448  0.500000  0.750000  1
  Dy  Dy1  1  0.315049  0.500000  0.250000  1
  Lu  Lu2  1  0.743555  0.000000  0.750000  1
  Lu  Lu3  1  0.258341  0.000000  0.250000  1
  Lu  Lu4  1  0.184166  0.796668  0.577659  1
  Lu  Lu5  1  0.816853  0.795362  0.078988  1
  Lu  Lu6  1  0.184166  0.203332  0.922341  1
  Lu  Lu7  1  0.816853  0.204638  0.421012  1
  W  W8  1  0.255486  0.727415  0.885617  1
  W  W9  1  0.744329  0.726317  0.383911  1
  W  W10  1  0.255486  0.272585  0.614383  1
  W  W11  1  0.744329  0.273683  0.116089  1
  O  O12  1  0.041764  0.943150  0.897086  1
  O  O13  1  0.543179  0.845290  0.930737  1
  O  O14  1  0.957175  0.943988  0.394184  1
  O  O15  1  0.457249  0.798122  0.724493  1
  O  O16  1  0.458608  0.845985  0.430450  1
  O  O17  1  0.982135  0.720820  0.768412  1
  O  O18  1  0.541038  0.796181  0.224240  1
  O  O19  1  0.855665  0.638077  0.547251  1
  O  O20  1  0.348925  0.488929  0.886951  1
  O  O21  1  0.020422  0.714985  0.269155  1
  O  O22  1  0.348925  0.511071  0.613049  1
  O  O23  1  0.855665  0.361923  0.952749  1
  O  O24  1  0.147736  0.638643  0.050124  1
  O  O25  1  0.644074  0.488825  0.385235  1
  O  O26  1  0.982135  0.279180  0.731588  1
  O  O27  1  0.644074  0.511175  0.114765  1
  O  O28  1  0.147736  0.361357  0.449876  1
  O  O29  1  0.457249  0.201878  0.775507  1
  O  O30  1  0.020422  0.285015  0.230845  1
  O  O31  1  0.543179  0.154710  0.569263  1
  O  O32  1  0.541038  0.203819  0.275760  1
  O  O33  1  0.041764  0.056850  0.602914  1
  O  O34  1  0.458608  0.154015  0.069550  1
  O  O35  1  0.957175  0.056012  0.105816  1
