# generated using pymatgen
data_Sm2GaSi4Pt3
_symmetry_space_group_name_H-M   'P 1'
_cell_length_a   8.29880447
_cell_length_b   8.29880501
_cell_length_c   8.28430595
_cell_angle_alpha   137.18006991
_cell_angle_beta   105.14067025
_cell_angle_gamma   90.40419767
_symmetry_Int_Tables_number   1
_chemical_formula_structural   Sm2GaSi4Pt3
_chemical_formula_sum   'Sm4 Ga2 Si8 Pt6'
_cell_volume   356.76612878
_cell_formula_units_Z   2
loop_
 _symmetry_equiv_pos_site_id
 _symmetry_equiv_pos_as_xyz
  1  'x, y, z'
loop_
 _atom_site_type_symbol
 _atom_site_label
 _atom_site_symmetry_multiplicity
 _atom_site_fract_x
 _atom_site_fract_y
 _atom_site_fract_z
 _atom_site_occupancy
  Sm  Sm0  1  0.635302  0.371095  0.267855  1
  Sm  Sm1  1  0.364698  0.628905  0.732145  1
  Sm  Sm2  1  0.103240  0.867447  0.232145  1
  Sm  Sm3  1  0.896760  0.132553  0.767855  1
  Ga  Ga4  1  0.270977  0.520977  0.250000  1
  Ga  Ga5  1  0.729023  0.479023  0.750000  1
  Si  Si6  1  0.730698  0.980698  0.250000  1
  Si  Si7  1  0.269302  0.019302  0.750000  1
  Si  Si8  1  0.457516  0.108888  0.348466  1
  Si  Si9  1  0.542484  0.891112  0.651534  1
  Si  Si10  1  0.760422  0.609050  0.151534  1
  Si  Si11  1  0.239578  0.390950  0.848466  1
  Si  Si12  1  0.005537  0.255537  0.250000  1
  Si  Si13  1  0.994463  0.744463  0.750000  1
  Pt  Pt14  1  0.246281  0.121680  0.104234  1
  Pt  Pt15  1  0.753719  0.878320  0.895766  1
  Pt  Pt16  1  0.017446  0.642047  0.395766  1
  Pt  Pt17  1  0.982554  0.357953  0.604234  1
  Pt  Pt18  1  0.493741  0.243741  0.750000  1
  Pt  Pt19  1  0.506259  0.756259  0.250000  1
