# generated using pymatgen
data_BaLiDyS3
_symmetry_space_group_name_H-M   'P 1'
_cell_length_a   7.09592763
_cell_length_b   7.09592871
_cell_length_c   10.32871800
_cell_angle_alpha   90.00000000
_cell_angle_beta   90.00000000
_cell_angle_gamma   146.33683311
_symmetry_Int_Tables_number   1
_chemical_formula_structural   BaLiDyS3
_chemical_formula_sum   'Ba2 Li2 Dy2 S6'
_cell_volume   288.28175057
_cell_formula_units_Z   2
loop_
 _symmetry_equiv_pos_site_id
 _symmetry_equiv_pos_as_xyz
  1  'x, y, z'
loop_
 _atom_site_type_symbol
 _atom_site_label
 _atom_site_symmetry_multiplicity
 _atom_site_fract_x
 _atom_site_fract_y
 _atom_site_fract_z
 _atom_site_occupancy
  Ba  Ba0  1  0.255198  0.744800  0.250000  1
  Ba  Ba1  1  0.744800  0.255198  0.750000  1
  Li  Li2  1  0.528991  0.471007  0.250000  1
  Li  Li3  1  0.471007  0.528991  0.750000  1
  Dy  Dy4  1  0.000000  0.000000  0.000000  1
  Dy  Dy5  1  0.000000  0.000000  0.500000  1
  S  S6  1  0.629775  0.370223  0.060947  1
  S  S7  1  0.934477  0.065521  0.250000  1
  S  S8  1  0.629775  0.370223  0.439054  1
  S  S9  1  0.370223  0.629775  0.560947  1
  S  S10  1  0.065521  0.934477  0.750000  1
  S  S11  1  0.370223  0.629775  0.939054  1
