# generated using pymatgen
data_Yb3Er(InPd5)2
_symmetry_space_group_name_H-M   'P 1'
_cell_length_a   4.28833700
_cell_length_b   5.79970825
_cell_length_c   11.47676050
_cell_angle_alpha   89.96613816
_cell_angle_beta   90.00000000
_cell_angle_gamma   90.00000000
_symmetry_Int_Tables_number   1
_chemical_formula_structural   Yb3Er(InPd5)2
_chemical_formula_sum   'Yb3 Er1 In2 Pd10'
_cell_volume   285.43964832
_cell_formula_units_Z   1
loop_
 _symmetry_equiv_pos_site_id
 _symmetry_equiv_pos_as_xyz
  1  'x, y, z'
loop_
 _atom_site_type_symbol
 _atom_site_label
 _atom_site_symmetry_multiplicity
 _atom_site_fract_x
 _atom_site_fract_y
 _atom_site_fract_z
 _atom_site_occupancy
  Yb  Yb0  1  0.500000  0.810179  0.637055  1
  Yb  Yb1  1  0.500000  0.690291  0.141367  1
  Yb  Yb2  1  0.500000  0.189643  0.360056  1
  Er  Er3  1  0.500000  0.310536  0.860589  1
  In  In4  1  0.000000  0.499948  0.498681  1
  In  In5  1  0.000000  0.996339  0.002494  1
  Pd  Pd6  1  0.500000  0.702626  0.386233  1
  Pd  Pd7  1  0.500000  0.297857  0.614398  1
  Pd  Pd8  1  0.000000  0.058115  0.751590  1
  Pd  Pd9  1  0.500000  0.798004  0.886044  1
  Pd  Pd10  1  0.000000  0.441688  0.251287  1
  Pd  Pd11  1  0.000000  0.942301  0.248890  1
  Pd  Pd12  1  0.000000  0.558374  0.748808  1
  Pd  Pd13  1  0.000000  0.499614  0.000115  1
  Pd  Pd14  1  0.000000  0.000550  0.499813  1
  Pd  Pd15  1  0.500000  0.203935  0.112579  1
