# generated using pymatgen
data_ErTh5(SnIr)6
_symmetry_space_group_name_H-M   'P 1'
_cell_length_a   7.54970740
_cell_length_b   7.55857910
_cell_length_c   8.24995900
_cell_angle_alpha   90.00000000
_cell_angle_beta   90.00000000
_cell_angle_gamma   119.98246531
_symmetry_Int_Tables_number   1
_chemical_formula_structural   ErTh5(SnIr)6
_chemical_formula_sum   'Er1 Th5 Sn6 Ir6'
_cell_volume   407.78327873
_cell_formula_units_Z   1
loop_
 _symmetry_equiv_pos_site_id
 _symmetry_equiv_pos_as_xyz
  1  'x, y, z'
loop_
 _atom_site_type_symbol
 _atom_site_label
 _atom_site_symmetry_multiplicity
 _atom_site_fract_x
 _atom_site_fract_y
 _atom_site_fract_z
 _atom_site_occupancy
  Er  Er0  1  0.403752  0.000390  0.750000  1
  Th  Th1  1  0.415006  0.000715  0.250000  1
  Th  Th2  1  0.585025  0.586289  0.750000  1
  Th  Th3  1  0.589901  0.588536  0.250000  1
  Th  Th4  1  0.000161  0.410874  0.250000  1
  Th  Th5  1  0.000391  0.414544  0.750000  1
  Sn  Sn6  1  0.251983  0.247061  0.501274  1
  Sn  Sn7  1  0.251983  0.247061  0.998726  1
  Sn  Sn8  1  0.743367  0.999914  0.994289  1
  Sn  Sn9  1  0.004976  0.752843  0.501531  1
  Sn  Sn10  1  0.743367  0.999914  0.505711  1
  Sn  Sn11  1  0.004976  0.752843  0.998469  1
  Ir  Ir12  1  0.671247  0.337930  0.501499  1
  Ir  Ir13  1  0.671247  0.337930  0.998501  1
  Ir  Ir14  1  0.333155  0.661609  0.000482  1
  Ir  Ir15  1  0.333155  0.661609  0.499518  1
  Ir  Ir16  1  0.997872  0.000220  0.750000  1
  Ir  Ir17  1  0.998440  0.999717  0.250000  1
