# generated using pymatgen
data_Rb2TeF7
_symmetry_space_group_name_H-M   'P 1'
_cell_length_a   6.05847700
_cell_length_b   6.07927800
_cell_length_c   10.78252700
_cell_angle_alpha   90.00000000
_cell_angle_beta   90.00000000
_cell_angle_gamma   90.00000000
_symmetry_Int_Tables_number   1
_chemical_formula_structural   Rb2TeF7
_chemical_formula_sum   'Rb4 Te2 F14'
_cell_volume   397.13304119
_cell_formula_units_Z   2
loop_
 _symmetry_equiv_pos_site_id
 _symmetry_equiv_pos_as_xyz
  1  'x, y, z'
loop_
 _atom_site_type_symbol
 _atom_site_label
 _atom_site_symmetry_multiplicity
 _atom_site_fract_x
 _atom_site_fract_y
 _atom_site_fract_z
 _atom_site_occupancy
  Rb  Rb0  1  0.000000  0.500000  0.365010  1
  Rb  Rb1  1  0.500000  0.000000  0.634990  1
  Rb  Rb2  1  0.500000  0.500000  0.999853  1
  Rb  Rb3  1  0.000000  0.000000  0.000147  1
  Te  Te4  1  0.000000  0.500000  0.756435  1
  Te  Te5  1  0.500000  0.000000  0.243565  1
  F  F6  1  0.220379  0.258639  0.798770  1
  F  F7  1  0.279621  0.241361  0.201230  1
  F  F8  1  0.720379  0.758639  0.201230  1
  F  F9  1  0.779621  0.741361  0.798770  1
  F  F10  1  0.220379  0.741361  0.798770  1
  F  F11  1  0.720379  0.241361  0.201230  1
  F  F12  1  0.279621  0.758639  0.201230  1
  F  F13  1  0.779621  0.258639  0.798770  1
  F  F14  1  0.000000  0.500000  0.948073  1
  F  F15  1  0.500000  0.000000  0.051927  1
  F  F16  1  0.207970  0.500000  0.604298  1
  F  F17  1  0.792030  0.500000  0.604298  1
  F  F18  1  0.292030  0.000000  0.395702  1
  F  F19  1  0.707970  0.000000  0.395702  1
