# generated using pymatgen
data_Nd2Er3GaPb3
_symmetry_space_group_name_H-M   'P 1'
_cell_length_a   7.98019100
_cell_length_b   8.30743200
_cell_length_c   15.71125400
_cell_angle_alpha   90.00000000
_cell_angle_beta   90.00000000
_cell_angle_gamma   90.00000000
_symmetry_Int_Tables_number   1
_chemical_formula_structural   Nd2Er3GaPb3
_chemical_formula_sum   'Nd8 Er12 Ga4 Pb12'
_cell_volume   1041.57591979
_cell_formula_units_Z   4
loop_
 _symmetry_equiv_pos_site_id
 _symmetry_equiv_pos_as_xyz
  1  'x, y, z'
loop_
 _atom_site_type_symbol
 _atom_site_label
 _atom_site_symmetry_multiplicity
 _atom_site_fract_x
 _atom_site_fract_y
 _atom_site_fract_z
 _atom_site_occupancy
  Nd  Nd0  1  0.482895  0.676682  0.598125  1
  Nd  Nd1  1  0.982895  0.823318  0.901875  1
  Nd  Nd2  1  0.517105  0.323318  0.098125  1
  Nd  Nd3  1  0.017105  0.176682  0.401875  1
  Nd  Nd4  1  0.517105  0.323318  0.401875  1
  Nd  Nd5  1  0.017105  0.176682  0.098125  1
  Nd  Nd6  1  0.482895  0.676682  0.901875  1
  Nd  Nd7  1  0.982895  0.823318  0.598125  1
  Er  Er8  1  0.637968  0.170367  0.627892  1
  Er  Er9  1  0.137968  0.329633  0.872108  1
  Er  Er10  1  0.362032  0.829633  0.127892  1
  Er  Er11  1  0.862032  0.670367  0.372108  1
  Er  Er12  1  0.362032  0.829633  0.372108  1
  Er  Er13  1  0.862032  0.670367  0.127892  1
  Er  Er14  1  0.637968  0.170367  0.872108  1
  Er  Er15  1  0.137968  0.329633  0.627892  1
  Er  Er16  1  0.789270  0.487399  0.750000  1
  Er  Er17  1  0.289270  0.012601  0.750000  1
  Er  Er18  1  0.210730  0.512601  0.250000  1
  Er  Er19  1  0.710730  0.987399  0.250000  1
  Ga  Ga20  1  0.435836  0.369598  0.750000  1
  Ga  Ga21  1  0.935836  0.130402  0.750000  1
  Ga  Ga22  1  0.564164  0.630402  0.250000  1
  Ga  Ga23  1  0.064164  0.869598  0.250000  1
  Pb  Pb24  1  0.697761  0.962803  0.460207  1
  Pb  Pb25  1  0.197761  0.537197  0.039793  1
  Pb  Pb26  1  0.302239  0.037197  0.960207  1
  Pb  Pb27  1  0.802239  0.462803  0.539793  1
  Pb  Pb28  1  0.302239  0.037197  0.539793  1
  Pb  Pb29  1  0.802239  0.462803  0.960207  1
  Pb  Pb30  1  0.697761  0.962803  0.039793  1
  Pb  Pb31  1  0.197761  0.537197  0.460207  1
  Pb  Pb32  1  0.678951  0.862558  0.750000  1
  Pb  Pb33  1  0.178951  0.637442  0.750000  1
  Pb  Pb34  1  0.321049  0.137442  0.250000  1
  Pb  Pb35  1  0.821049  0.362558  0.250000  1
