# generated using pymatgen
data_ZrSi2MoIr2
_symmetry_space_group_name_H-M   'P 1'
_cell_length_a   3.88215500
_cell_length_b   6.46427500
_cell_length_c   7.31923400
_cell_angle_alpha   90.00000000
_cell_angle_beta   90.00000000
_cell_angle_gamma   90.00000000
_symmetry_Int_Tables_number   1
_chemical_formula_structural   ZrSi2MoIr2
_chemical_formula_sum   'Zr2 Si4 Mo2 Ir4'
_cell_volume   183.67850118
_cell_formula_units_Z   2
loop_
 _symmetry_equiv_pos_site_id
 _symmetry_equiv_pos_as_xyz
  1  'x, y, z'
loop_
 _atom_site_type_symbol
 _atom_site_label
 _atom_site_symmetry_multiplicity
 _atom_site_fract_x
 _atom_site_fract_y
 _atom_site_fract_z
 _atom_site_occupancy
  Zr  Zr0  1  0.750000  0.975588  0.672044  1
  Zr  Zr1  1  0.750000  0.475588  0.827956  1
  Si  Si2  1  0.250000  0.268085  0.611805  1
  Si  Si3  1  0.250000  0.768085  0.888195  1
  Si  Si4  1  0.750000  0.727109  0.367152  1
  Si  Si5  1  0.750000  0.227109  0.132848  1
  Mo  Mo6  1  0.250000  0.025032  0.322042  1
  Mo  Mo7  1  0.250000  0.525032  0.177958  1
  Ir  Ir8  1  0.250000  0.148735  0.938857  1
  Ir  Ir9  1  0.250000  0.648735  0.561143  1
  Ir  Ir10  1  0.750000  0.855452  0.063806  1
  Ir  Ir11  1  0.750000  0.355452  0.436194  1
