# generated using pymatgen
data_MnAl4Cd3(PO5)4
_symmetry_space_group_name_H-M   'P 1'
_cell_length_a   5.68853689
_cell_length_b   7.38817131
_cell_length_c   10.92267509
_cell_angle_alpha   89.64370985
_cell_angle_beta   90.22047466
_cell_angle_gamma   97.09248360
_symmetry_Int_Tables_number   1
_chemical_formula_structural   MnAl4Cd3(PO5)4
_chemical_formula_sum   'Mn1 Al4 Cd3 P4 O20'
_cell_volume   455.53329373
_cell_formula_units_Z   1
loop_
 _symmetry_equiv_pos_site_id
 _symmetry_equiv_pos_as_xyz
  1  'x, y, z'
loop_
 _atom_site_type_symbol
 _atom_site_label
 _atom_site_symmetry_multiplicity
 _atom_site_fract_x
 _atom_site_fract_y
 _atom_site_fract_z
 _atom_site_occupancy
  Mn  Mn0  1  0.118948  0.018872  0.147504  1
  Al  Al1  1  0.561986  0.362780  0.175487  1
  Al  Al2  1  0.932198  0.640036  0.671194  1
  Al  Al3  1  0.432547  0.636379  0.824842  1
  Al  Al4  1  0.066409  0.359025  0.324668  1
  Cd  Cd5  1  0.618199  0.014146  0.350651  1
  Cd  Cd6  1  0.886737  0.979172  0.856525  1
  Cd  Cd7  1  0.386965  0.982942  0.647262  1
  P  P8  1  0.081387  0.770125  0.406078  1
  P  P9  1  0.422471  0.229223  0.912445  1
  P  P10  1  0.923745  0.229710  0.590086  1
  P  P11  1  0.574837  0.773275  0.092254  1
  O  O12  1  0.784380  0.279687  0.264529  1
  O  O13  1  0.710525  0.720610  0.761080  1
  O  O14  1  0.210213  0.720931  0.736035  1
  O  O15  1  0.281029  0.271799  0.233227  1
  O  O16  1  0.115493  0.598738  0.331600  1
  O  O17  1  0.375227  0.396977  0.835354  1
  O  O18  1  0.884016  0.400594  0.663687  1
  O  O19  1  0.606698  0.603198  0.170477  1
  O  O20  1  0.587926  0.288122  0.021779  1
  O  O21  1  0.915808  0.720844  0.517083  1
  O  O22  1  0.423540  0.719181  0.977085  1
  O  O23  1  0.087496  0.280347  0.478827  1
  O  O24  1  0.969954  0.905643  0.321112  1
  O  O25  1  0.543476  0.098927  0.829836  1
  O  O26  1  0.042277  0.098233  0.674621  1
  O  O27  1  0.442581  0.903971  0.169699  1
  O  O28  1  0.681686  0.135686  0.542979  1
  O  O29  1  0.821330  0.871047  0.053739  1
  O  O30  1  0.324714  0.859277  0.454968  1
  O  O31  1  0.185205  0.130504  0.963288  1
