# generated using pymatgen
data_Hf18MnRe5PW3
_symmetry_space_group_name_H-M   'P 1'
_cell_length_a   8.61877903
_cell_length_b   8.61877837
_cell_length_c   8.55127200
_cell_angle_alpha   90.00000000
_cell_angle_beta   90.00000000
_cell_angle_gamma   120.11086546
_symmetry_Int_Tables_number   1
_chemical_formula_structural   Hf18MnRe5PW3
_chemical_formula_sum   'Hf18 Mn1 Re5 P1 W3'
_cell_volume   549.49855347
_cell_formula_units_Z   1
loop_
 _symmetry_equiv_pos_site_id
 _symmetry_equiv_pos_as_xyz
  1  'x, y, z'
loop_
 _atom_site_type_symbol
 _atom_site_label
 _atom_site_symmetry_multiplicity
 _atom_site_fract_x
 _atom_site_fract_y
 _atom_site_fract_z
 _atom_site_occupancy
  Hf  Hf0  1  0.202147  0.797853  0.443042  1
  Hf  Hf1  1  0.202089  0.404229  0.443218  1
  Hf  Hf2  1  0.595771  0.797911  0.443218  1
  Hf  Hf3  1  0.804468  0.195532  0.548890  1
  Hf  Hf4  1  0.804136  0.608547  0.548339  1
  Hf  Hf5  1  0.391453  0.195864  0.548339  1
  Hf  Hf6  1  0.804468  0.195532  0.951110  1
  Hf  Hf7  1  0.804136  0.608547  0.951661  1
  Hf  Hf8  1  0.391453  0.195864  0.951661  1
  Hf  Hf9  1  0.202147  0.797853  0.056958  1
  Hf  Hf10  1  0.202089  0.404229  0.056782  1
  Hf  Hf11  1  0.595771  0.797911  0.056782  1
  Hf  Hf12  1  0.538980  0.461020  0.250000  1
  Hf  Hf13  1  0.539605  0.078712  0.250000  1
  Hf  Hf14  1  0.921288  0.460395  0.250000  1
  Hf  Hf15  1  0.459811  0.540189  0.750000  1
  Hf  Hf16  1  0.461122  0.920396  0.750000  1
  Hf  Hf17  1  0.079604  0.538878  0.750000  1
  Mn  Mn18  1  0.333741  0.666259  0.250000  1
  Re  Re19  1  0.888674  0.111326  0.250000  1
  Re  Re20  1  0.888125  0.776625  0.250000  1
  Re  Re21  1  0.223375  0.111875  0.250000  1
  Re  Re22  1  0.111592  0.223011  0.750000  1
  Re  Re23  1  0.776989  0.888408  0.750000  1
  P  P24  1  0.667007  0.332993  0.750000  1
  W  W25  1  0.110898  0.889102  0.750000  1
  W  W26  1  0.999532  0.000468  0.499077  1
  W  W27  1  0.999532  0.000468  0.000923  1
