# generated using pymatgen
data_La4Ga24NiPd
_symmetry_space_group_name_H-M   'P 1'
_cell_length_a   6.17219200
_cell_length_b   6.17219200
_cell_length_c   15.62042400
_cell_angle_alpha   90.00000000
_cell_angle_beta   90.00000000
_cell_angle_gamma   90.00000000
_symmetry_Int_Tables_number   1
_chemical_formula_structural   La4Ga24NiPd
_chemical_formula_sum   'La4 Ga24 Ni1 Pd1'
_cell_volume   595.07495549
_cell_formula_units_Z   1
loop_
 _symmetry_equiv_pos_site_id
 _symmetry_equiv_pos_as_xyz
  1  'x, y, z'
loop_
 _atom_site_type_symbol
 _atom_site_label
 _atom_site_symmetry_multiplicity
 _atom_site_fract_x
 _atom_site_fract_y
 _atom_site_fract_z
 _atom_site_occupancy
  La  La0  1  0.500000  0.000000  0.243380  1
  La  La1  1  0.000000  0.500000  0.246282  1
  La  La2  1  0.000000  0.500000  0.753718  1
  La  La3  1  0.500000  0.000000  0.756620  1
  Ga  Ga4  1  0.500000  0.500000  0.817393  1
  Ga  Ga5  1  0.000000  0.000000  0.817393  1
  Ga  Ga6  1  0.757749  0.742251  0.915541  1
  Ga  Ga7  1  0.242486  0.742486  0.915612  1
  Ga  Ga8  1  0.000000  0.000000  0.342720  1
  Ga  Ga9  1  0.242251  0.742251  0.084459  1
  Ga  Ga10  1  0.826549  0.326549  0.568621  1
  Ga  Ga11  1  0.500000  0.500000  0.342720  1
  Ga  Ga12  1  0.242251  0.257749  0.915541  1
  Ga  Ga13  1  0.757514  0.742486  0.084388  1
  Ga  Ga14  1  0.328928  0.171072  0.569575  1
  Ga  Ga15  1  0.671072  0.171072  0.430425  1
  Ga  Ga16  1  0.000000  0.000000  0.657280  1
  Ga  Ga17  1  0.173451  0.326549  0.431379  1
  Ga  Ga18  1  0.242486  0.257514  0.084388  1
  Ga  Ga19  1  0.826549  0.673451  0.431379  1
  Ga  Ga20  1  0.671072  0.828928  0.569575  1
  Ga  Ga21  1  0.000000  0.000000  0.182607  1
  Ga  Ga22  1  0.173451  0.673451  0.568621  1
  Ga  Ga23  1  0.500000  0.500000  0.657280  1
  Ga  Ga24  1  0.757514  0.257514  0.915612  1
  Ga  Ga25  1  0.500000  0.500000  0.182607  1
  Ga  Ga26  1  0.328928  0.828928  0.430425  1
  Ga  Ga27  1  0.757749  0.257749  0.084459  1
  Ni  Ni28  1  0.000000  0.500000  0.000000  1
  Pd  Pd29  1  0.500000  0.000000  0.000000  1
