# generated using pymatgen
data_La2Tb10Tc3Os
_symmetry_space_group_name_H-M   'P 1'
_cell_length_a   6.42345013
_cell_length_b   7.40752128
_cell_length_c   9.30200400
_cell_angle_alpha   90.00000000
_cell_angle_beta   90.00000000
_cell_angle_gamma   89.97299404
_symmetry_Int_Tables_number   1
_chemical_formula_structural   La2Tb10Tc3Os
_chemical_formula_sum   'La2 Tb10 Tc3 Os1'
_cell_volume   442.60644917
_cell_formula_units_Z   1
loop_
 _symmetry_equiv_pos_site_id
 _symmetry_equiv_pos_as_xyz
  1  'x, y, z'
loop_
 _atom_site_type_symbol
 _atom_site_label
 _atom_site_symmetry_multiplicity
 _atom_site_fract_x
 _atom_site_fract_y
 _atom_site_fract_z
 _atom_site_occupancy
  La  La0  1  0.877364  0.554431  0.250000  1
  La  La1  1  0.624503  0.051973  0.250000  1
  Tb  Tb2  1  0.336595  0.676459  0.060282  1
  Tb  Tb3  1  0.162207  0.177057  0.439045  1
  Tb  Tb4  1  0.663696  0.325838  0.567935  1
  Tb  Tb5  1  0.835155  0.824501  0.931364  1
  Tb  Tb6  1  0.663696  0.325838  0.932065  1
  Tb  Tb7  1  0.835155  0.824501  0.568636  1
  Tb  Tb8  1  0.336595  0.676459  0.439718  1
  Tb  Tb9  1  0.162207  0.177057  0.060955  1
  Tb  Tb10  1  0.134103  0.455907  0.750000  1
  Tb  Tb11  1  0.368491  0.957076  0.750000  1
  Tc  Tc12  1  0.024576  0.871439  0.250000  1
  Tc  Tc13  1  0.475113  0.371852  0.250000  1
  Tc  Tc14  1  0.963872  0.114306  0.750000  1
  Os  Os15  1  0.536670  0.615308  0.750000  1
