# generated using pymatgen
data_Tm3PaHg2Rh3
_symmetry_space_group_name_H-M   'P 1'
_cell_length_a   7.77404211
_cell_length_b   7.77404169
_cell_length_c   3.78265100
_cell_angle_alpha   90.00000000
_cell_angle_beta   90.00000000
_cell_angle_gamma   121.77021480
_symmetry_Int_Tables_number   1
_chemical_formula_structural   Tm3PaHg2Rh3
_chemical_formula_sum   'Tm3 Pa1 Hg2 Rh3'
_cell_volume   194.35424193
_cell_formula_units_Z   1
loop_
 _symmetry_equiv_pos_site_id
 _symmetry_equiv_pos_as_xyz
  1  'x, y, z'
loop_
 _atom_site_type_symbol
 _atom_site_label
 _atom_site_symmetry_multiplicity
 _atom_site_fract_x
 _atom_site_fract_y
 _atom_site_fract_z
 _atom_site_occupancy
  Tm  Tm0  1  0.960707  0.403388  0.500000  1
  Tm  Tm1  1  0.644545  0.644545  0.500000  1
  Tm  Tm2  1  0.403388  0.960707  0.500000  1
  Pa  Pa3  1  0.268555  0.268555  0.000000  1
  Hg  Hg4  1  0.013279  0.735735  0.000000  1
  Hg  Hg5  1  0.735735  0.013279  0.000000  1
  Rh  Rh6  1  0.325396  0.620987  0.000000  1
  Rh  Rh7  1  0.027411  0.027411  0.500000  1
  Rh  Rh8  1  0.620987  0.325396  0.000000  1
