# generated using pymatgen
data_NaPr(WO4)2
_symmetry_space_group_name_H-M   'P 1'
_cell_length_a   5.32162307
_cell_length_b   5.86583700
_cell_length_c   10.62386435
_cell_angle_alpha   90.00000000
_cell_angle_beta   94.45452547
_cell_angle_gamma   90.00000000
_symmetry_Int_Tables_number   1
_chemical_formula_structural   NaPr(WO4)2
_chemical_formula_sum   'Na2 Pr2 W4 O16'
_cell_volume   330.63037930
_cell_formula_units_Z   2
loop_
 _symmetry_equiv_pos_site_id
 _symmetry_equiv_pos_as_xyz
  1  'x, y, z'
loop_
 _atom_site_type_symbol
 _atom_site_label
 _atom_site_symmetry_multiplicity
 _atom_site_fract_x
 _atom_site_fract_y
 _atom_site_fract_z
 _atom_site_occupancy
  Na  Na0  1  0.750000  0.675037  0.500000  1
  Na  Na1  1  0.250000  0.324963  0.500000  1
  Pr  Pr2  1  0.750000  0.734548  0.000000  1
  Pr  Pr3  1  0.250000  0.265452  0.000000  1
  W  W4  1  0.273275  0.827776  0.747311  1
  W  W5  1  0.726725  0.172224  0.252689  1
  W  W6  1  0.226725  0.827776  0.252689  1
  W  W7  1  0.773275  0.172224  0.747311  1
  O  O8  1  0.621655  0.359367  0.634629  1
  O  O9  1  0.378345  0.640633  0.365371  1
  O  O10  1  0.878345  0.359367  0.365371  1
  O  O11  1  0.121655  0.640633  0.634629  1
  O  O12  1  0.573683  0.895017  0.663737  1
  O  O13  1  0.426317  0.104983  0.336263  1
  O  O14  1  0.926317  0.895017  0.336263  1
  O  O15  1  0.073683  0.104983  0.663737  1
  O  O16  1  0.015169  0.929219  0.866104  1
  O  O17  1  0.984831  0.070781  0.133896  1
  O  O18  1  0.484831  0.929219  0.133896  1
  O  O19  1  0.515169  0.070781  0.866104  1
  O  O20  1  0.883712  0.387177  0.871049  1
  O  O21  1  0.116288  0.612823  0.128951  1
  O  O22  1  0.616288  0.387177  0.128951  1
  O  O23  1  0.383712  0.612823  0.871049  1
