# generated using pymatgen
data_Ho10Tl3In5Pd3Rh
_symmetry_space_group_name_H-M   'P 1'
_cell_length_a   3.61415000
_cell_length_b   8.15277028
_cell_length_c   18.30548685
_cell_angle_alpha   89.91485647
_cell_angle_beta   90.00000000
_cell_angle_gamma   90.00000000
_symmetry_Int_Tables_number   1
_chemical_formula_structural   Ho10Tl3In5Pd3Rh
_chemical_formula_sum   'Ho10 Tl3 In5 Pd3 Rh1'
_cell_volume   539.37670136
_cell_formula_units_Z   1
loop_
 _symmetry_equiv_pos_site_id
 _symmetry_equiv_pos_as_xyz
  1  'x, y, z'
loop_
 _atom_site_type_symbol
 _atom_site_label
 _atom_site_symmetry_multiplicity
 _atom_site_fract_x
 _atom_site_fract_y
 _atom_site_fract_z
 _atom_site_occupancy
  Ho  Ho0  1  0.000000  0.498574  0.500111  1
  Ho  Ho1  1  0.000000  0.999812  0.000383  1
  Ho  Ho2  1  0.000000  0.732634  0.279855  1
  Ho  Ho3  1  0.000000  0.260296  0.717770  1
  Ho  Ho4  1  0.000000  0.758576  0.780049  1
  Ho  Ho5  1  0.000000  0.254407  0.219763  1
  Ho  Ho6  1  0.000000  0.614319  0.088989  1
  Ho  Ho7  1  0.000000  0.382438  0.914560  1
  Ho  Ho8  1  0.000000  0.883125  0.584563  1
  Ho  Ho9  1  0.000000  0.116724  0.414844  1
  Tl  Tl10  1  0.500000  0.708780  0.934145  1
  Tl  Tl11  1  0.500000  0.290286  0.067432  1
  Tl  Tl12  1  0.500000  0.791189  0.433439  1
  In  In13  1  0.500000  0.206790  0.566439  1
  In  In14  1  0.500000  0.580100  0.649385  1
  In  In15  1  0.500000  0.419009  0.349938  1
  In  In16  1  0.500000  0.918374  0.151338  1
  In  In17  1  0.500000  0.081907  0.848913  1
  Pd  Pd18  1  0.500000  0.472344  0.802251  1
  Pd  Pd19  1  0.500000  0.975242  0.696134  1
  Pd  Pd20  1  0.500000  0.027485  0.302272  1
  Rh  Rh21  1  0.500000  0.527591  0.197428  1
