# generated using pymatgen
data_ErTm3(ScRu)4
_symmetry_space_group_name_H-M   'P 1'
_cell_length_a   4.07372400
_cell_length_b   7.24702141
_cell_length_c   8.60371500
_cell_angle_alpha   90.06317777
_cell_angle_beta   90.00000000
_cell_angle_gamma   90.00000000
_symmetry_Int_Tables_number   1
_chemical_formula_structural   ErTm3(ScRu)4
_chemical_formula_sum   'Er1 Tm3 Sc4 Ru4'
_cell_volume   254.00186042
_cell_formula_units_Z   1
loop_
 _symmetry_equiv_pos_site_id
 _symmetry_equiv_pos_as_xyz
  1  'x, y, z'
loop_
 _atom_site_type_symbol
 _atom_site_label
 _atom_site_symmetry_multiplicity
 _atom_site_fract_x
 _atom_site_fract_y
 _atom_site_fract_z
 _atom_site_occupancy
  Er  Er0  1  0.750000  0.523814  0.827484  1
  Tm  Tm1  1  0.250000  0.975118  0.328339  1
  Tm  Tm2  1  0.250000  0.475207  0.172321  1
  Tm  Tm3  1  0.750000  0.025108  0.672113  1
  Sc  Sc4  1  0.250000  0.355631  0.559526  1
  Sc  Sc5  1  0.250000  0.856235  0.939906  1
  Sc  Sc6  1  0.750000  0.645045  0.438734  1
  Sc  Sc7  1  0.750000  0.143697  0.062018  1
  Ru  Ru8  1  0.250000  0.233644  0.875866  1
  Ru  Ru9  1  0.250000  0.736990  0.623156  1
  Ru  Ru10  1  0.750000  0.764444  0.124484  1
  Ru  Ru11  1  0.750000  0.265067  0.376056  1
