# generated using pymatgen
data_La4TbUSe10
_symmetry_space_group_name_H-M   'P 1'
_cell_length_a   7.94947900
_cell_length_b   8.54137600
_cell_length_c   12.52544700
_cell_angle_alpha   90.00000000
_cell_angle_beta   90.00000000
_cell_angle_gamma   90.00000000
_symmetry_Int_Tables_number   1
_chemical_formula_structural   La4TbUSe10
_chemical_formula_sum   'La8 Tb2 U2 Se20'
_cell_volume   850.47145259
_cell_formula_units_Z   2
loop_
 _symmetry_equiv_pos_site_id
 _symmetry_equiv_pos_as_xyz
  1  'x, y, z'
loop_
 _atom_site_type_symbol
 _atom_site_label
 _atom_site_symmetry_multiplicity
 _atom_site_fract_x
 _atom_site_fract_y
 _atom_site_fract_z
 _atom_site_occupancy
  La  La0  1  0.530777  0.502257  0.323184  1
  La  La1  1  0.969223  0.997743  0.823184  1
  La  La2  1  0.472664  0.998048  0.677205  1
  La  La3  1  0.027336  0.501952  0.177205  1
  La  La4  1  0.472664  0.501952  0.677205  1
  La  La5  1  0.027336  0.998048  0.177205  1
  La  La6  1  0.530777  0.997743  0.323184  1
  La  La7  1  0.969223  0.502257  0.823184  1
  Tb  Tb8  1  0.074437  0.750000  0.492238  1
  Tb  Tb9  1  0.425563  0.750000  0.992238  1
  U  U10  1  0.937653  0.250000  0.506962  1
  U  U11  1  0.562347  0.250000  0.006962  1
  Se  Se12  1  0.832953  0.966099  0.592081  1
  Se  Se13  1  0.667047  0.533901  0.092081  1
  Se  Se14  1  0.164419  0.452399  0.408685  1
  Se  Se15  1  0.335581  0.047601  0.908685  1
  Se  Se16  1  0.164419  0.047601  0.408685  1
  Se  Se17  1  0.335581  0.452399  0.908685  1
  Se  Se18  1  0.832953  0.533901  0.592081  1
  Se  Se19  1  0.667047  0.966099  0.092081  1
  Se  Se20  1  0.833875  0.750000  0.311416  1
  Se  Se21  1  0.666125  0.750000  0.811416  1
  Se  Se22  1  0.162114  0.250000  0.684592  1
  Se  Se23  1  0.337886  0.250000  0.184592  1
  Se  Se24  1  0.456001  0.750000  0.497487  1
  Se  Se25  1  0.043999  0.750000  0.997487  1
  Se  Se26  1  0.548146  0.250000  0.500691  1
  Se  Se27  1  0.951854  0.250000  0.000691  1
  Se  Se28  1  0.190387  0.750000  0.714852  1
  Se  Se29  1  0.309613  0.750000  0.214852  1
  Se  Se30  1  0.811163  0.250000  0.289452  1
  Se  Se31  1  0.688837  0.250000  0.789452  1
