# generated using pymatgen
data_Ce4Cu3AsRh9
_symmetry_space_group_name_H-M   'P 1'
_cell_length_a   7.17825196
_cell_length_b   7.17825240
_cell_length_c   7.26257000
_cell_angle_alpha   109.70934440
_cell_angle_beta   109.70934566
_cell_angle_gamma   109.23204828
_symmetry_Int_Tables_number   1
_chemical_formula_structural   Ce4Cu3AsRh9
_chemical_formula_sum   'Ce4 Cu3 As1 Rh9'
_cell_volume   287.22426880
_cell_formula_units_Z   1
loop_
 _symmetry_equiv_pos_site_id
 _symmetry_equiv_pos_as_xyz
  1  'x, y, z'
loop_
 _atom_site_type_symbol
 _atom_site_label
 _atom_site_symmetry_multiplicity
 _atom_site_fract_x
 _atom_site_fract_y
 _atom_site_fract_z
 _atom_site_occupancy
  Ce  Ce0  1  0.000000  0.000000  0.500000  1
  Ce  Ce1  1  0.026384  0.513192  0.013192  1
  Ce  Ce2  1  0.486808  0.973616  0.986808  1
  Ce  Ce3  1  0.486808  0.513192  0.500000  1
  Cu  Cu4  1  0.747668  0.252332  0.500000  1
  Cu  Cu5  1  0.747668  0.495335  0.247668  1
  Cu  Cu6  1  0.504665  0.252332  0.752332  1
  As  As7  1  0.000000  0.000000  0.000000  1
  Rh  Rh8  1  0.241860  0.483721  0.741860  1
  Rh  Rh9  1  0.241860  0.758140  0.500000  1
  Rh  Rh10  1  0.516279  0.758140  0.258140  1
  Rh  Rh11  1  0.724147  0.697072  0.998582  1
  Rh  Rh12  1  0.302928  0.027076  0.301510  1
  Rh  Rh13  1  0.972924  0.275853  0.274434  1
  Rh  Rh14  1  0.302928  0.275853  0.001418  1
  Rh  Rh15  1  0.724147  0.027076  0.725566  1
  Rh  Rh16  1  0.972924  0.697072  0.698490  1
