# generated using pymatgen
data_Ho8ZnSi11Pt4
_symmetry_space_group_name_H-M   'P 1'
_cell_length_a   8.21126863
_cell_length_b   8.21126951
_cell_length_c   7.88105200
_cell_angle_alpha   90.00177468
_cell_angle_beta   89.99822815
_cell_angle_gamma   120.04502630
_symmetry_Int_Tables_number   1
_chemical_formula_structural   Ho8ZnSi11Pt4
_chemical_formula_sum   'Ho8 Zn1 Si11 Pt4'
_cell_volume   459.97917181
_cell_formula_units_Z   1
loop_
 _symmetry_equiv_pos_site_id
 _symmetry_equiv_pos_as_xyz
  1  'x, y, z'
loop_
 _atom_site_type_symbol
 _atom_site_label
 _atom_site_symmetry_multiplicity
 _atom_site_fract_x
 _atom_site_fract_y
 _atom_site_fract_z
 _atom_site_occupancy
  Ho  Ho0  1  0.997883  0.002117  0.248217  1
  Ho  Ho1  1  0.997658  0.002342  0.750764  1
  Ho  Ho2  1  0.510733  0.489267  0.251996  1
  Ho  Ho3  1  0.508034  0.018063  0.252772  1
  Ho  Ho4  1  0.981937  0.491966  0.252772  1
  Ho  Ho5  1  0.490385  0.509615  0.747800  1
  Ho  Ho6  1  0.490384  0.979853  0.747330  1
  Ho  Ho7  1  0.020147  0.509616  0.747330  1
  Zn  Zn8  1  0.162906  0.837094  0.499726  1
  Si  Si9  1  0.166763  0.330505  0.498840  1
  Si  Si10  1  0.669495  0.833237  0.498840  1
  Si  Si11  1  0.834716  0.165284  0.500939  1
  Si  Si12  1  0.834715  0.670163  0.501920  1
  Si  Si13  1  0.329837  0.165285  0.501920  1
  Si  Si14  1  0.834734  0.165266  0.000721  1
  Si  Si15  1  0.834226  0.669576  0.999239  1
  Si  Si16  1  0.330424  0.165774  0.999239  1
  Si  Si17  1  0.164986  0.835014  0.999604  1
  Si  Si18  1  0.165821  0.330915  0.999909  1
  Si  Si19  1  0.669085  0.834179  0.999909  1
  Pt  Pt20  1  0.337715  0.662285  0.466175  1
  Pt  Pt21  1  0.667175  0.332825  0.532208  1
  Pt  Pt22  1  0.666909  0.333091  0.967906  1
  Pt  Pt23  1  0.333332  0.666668  0.033924  1
