# generated using pymatgen
data_Zr13Co8Re3N4
_symmetry_space_group_name_H-M   'P 1'
_cell_length_a   8.51814567
_cell_length_b   8.41687098
_cell_length_c   8.51965403
_cell_angle_alpha   59.59585186
_cell_angle_beta   59.99864718
_cell_angle_gamma   59.59831086
_symmetry_Int_Tables_number   1
_chemical_formula_structural   Zr13Co8Re3N4
_chemical_formula_sum   'Zr13 Co8 Re3 N4'
_cell_volume   429.26589292
_cell_formula_units_Z   1
loop_
 _symmetry_equiv_pos_site_id
 _symmetry_equiv_pos_as_xyz
  1  'x, y, z'
loop_
 _atom_site_type_symbol
 _atom_site_label
 _atom_site_symmetry_multiplicity
 _atom_site_fract_x
 _atom_site_fract_y
 _atom_site_fract_z
 _atom_site_occupancy
  Zr  Zr0  1  0.625000  0.125000  0.625000  1
  Zr  Zr1  1  0.806476  0.805224  0.194257  1
  Zr  Zr2  1  0.184454  0.198843  0.808405  1
  Zr  Zr3  1  0.808297  0.198847  0.808399  1
  Zr  Zr4  1  0.194024  0.805240  0.194263  1
  Zr  Zr5  1  0.194088  0.805193  0.806584  1
  Zr  Zr6  1  0.808493  0.198669  0.184339  1
  Zr  Zr7  1  0.443524  0.444776  0.055743  1
  Zr  Zr8  1  0.065546  0.051157  0.441595  1
  Zr  Zr9  1  0.441703  0.051153  0.441601  1
  Zr  Zr10  1  0.055976  0.444760  0.055737  1
  Zr  Zr11  1  0.055912  0.444807  0.443416  1
  Zr  Zr12  1  0.441507  0.051331  0.065661  1
  Co  Co13  1  0.728951  0.434060  0.418516  1
  Co  Co14  1  0.426424  0.720566  0.426543  1
  Co  Co15  1  0.418512  0.433921  0.729021  1
  Co  Co16  1  0.418462  0.434068  0.418526  1
  Co  Co17  1  0.521049  0.815940  0.831484  1
  Co  Co18  1  0.823576  0.529434  0.823457  1
  Co  Co19  1  0.831488  0.816079  0.520979  1
  Co  Co20  1  0.831538  0.815932  0.831474  1
  Re  Re21  1  0.125000  0.625000  0.625000  1
  Re  Re22  1  0.625000  0.625000  0.125000  1
  Re  Re23  1  0.625000  0.625000  0.625000  1
  N  N24  1  0.625000  0.125000  0.125000  1
  N  N25  1  0.125000  0.625000  0.125000  1
  N  N26  1  0.125000  0.125000  0.625000  1
  N  N27  1  0.125000  0.125000  0.125000  1
