# generated using pymatgen
data_DyTa3(BOs)4
_symmetry_space_group_name_H-M   'P 1'
_cell_length_a   3.16806900
_cell_length_b   9.18595049
_cell_length_c   16.03124000
_cell_angle_alpha   90.10620123
_cell_angle_beta   90.00000000
_cell_angle_gamma   90.00000000
_symmetry_Int_Tables_number   1
_chemical_formula_structural   DyTa3(BOs)4
_chemical_formula_sum   'Dy3 Ta9 B12 Os12'
_cell_volume   466.53593648
_cell_formula_units_Z   3
loop_
 _symmetry_equiv_pos_site_id
 _symmetry_equiv_pos_as_xyz
  1  'x, y, z'
loop_
 _atom_site_type_symbol
 _atom_site_label
 _atom_site_symmetry_multiplicity
 _atom_site_fract_x
 _atom_site_fract_y
 _atom_site_fract_z
 _atom_site_occupancy
  Dy  Dy0  1  0.000000  0.320130  0.791286  1
  Dy  Dy1  1  0.000000  0.181507  0.290865  1
  Dy  Dy2  1  0.000000  0.819824  0.708954  1
  Ta  Ta3  1  0.000000  0.801270  0.493247  1
  Ta  Ta4  1  0.000000  0.197739  0.504614  1
  Ta  Ta5  1  0.000000  0.300570  0.005145  1
  Ta  Ta6  1  0.000000  0.698917  0.996343  1
  Ta  Ta7  1  0.000000  0.515084  0.593766  1
  Ta  Ta8  1  0.000000  0.484979  0.406139  1
  Ta  Ta9  1  0.000000  0.013816  0.906261  1
  Ta  Ta10  1  0.000000  0.985031  0.094713  1
  Ta  Ta11  1  0.000000  0.683617  0.204471  1
  B  B12  1  0.500000  0.603705  0.494885  1
  B  B13  1  0.500000  0.396669  0.503050  1
  B  B14  1  0.500000  0.102577  0.004492  1
  B  B15  1  0.500000  0.895824  0.998632  1
  B  B16  1  0.000000  0.608314  0.833717  1
  B  B17  1  0.000000  0.393771  0.167927  1
  B  B18  1  0.000000  0.108110  0.666482  1
  B  B19  1  0.000000  0.888967  0.333967  1
  B  B20  1  0.500000  0.712033  0.591640  1
  B  B21  1  0.500000  0.289096  0.406789  1
  B  B22  1  0.500000  0.209082  0.907304  1
  B  B23  1  0.500000  0.785229  0.099485  1
  Os  Os24  1  0.500000  0.716824  0.356934  1
  Os  Os25  1  0.500000  0.278441  0.635501  1
  Os  Os26  1  0.500000  0.224135  0.137021  1
  Os  Os27  1  0.500000  0.778098  0.865832  1
  Os  Os28  1  0.500000  0.521141  0.096015  1
  Os  Os29  1  0.500000  0.488606  0.912687  1
  Os  Os30  1  0.500000  0.009061  0.406034  1
  Os  Os31  1  0.500000  0.987855  0.589397  1
  Os  Os32  1  0.500000  0.565034  0.736084  1
  Os  Os33  1  0.500000  0.447073  0.263167  1
  Os  Os34  1  0.500000  0.065503  0.765711  1
  Os  Os35  1  0.500000  0.922370  0.231448  1
