# generated using pymatgen
data_Yb4Sn4Sb2Rh7
_symmetry_space_group_name_H-M   'P 1'
_cell_length_a   7.59689744
_cell_length_b   7.58848402
_cell_length_c   7.59689776
_cell_angle_alpha   109.53273854
_cell_angle_beta   109.39324248
_cell_angle_gamma   109.53273527
_symmetry_Int_Tables_number   1
_chemical_formula_structural   Yb4Sn4Sb2Rh7
_chemical_formula_sum   'Yb4 Sn4 Sb2 Rh7'
_cell_volume   336.94833787
_cell_formula_units_Z   1
loop_
 _symmetry_equiv_pos_site_id
 _symmetry_equiv_pos_as_xyz
  1  'x, y, z'
loop_
 _atom_site_type_symbol
 _atom_site_label
 _atom_site_symmetry_multiplicity
 _atom_site_fract_x
 _atom_site_fract_y
 _atom_site_fract_z
 _atom_site_occupancy
  Yb  Yb0  1  0.498757  0.997514  0.998757  1
  Yb  Yb1  1  0.999168  0.494720  0.999168  1
  Yb  Yb2  1  0.998757  0.997514  0.498757  1
  Yb  Yb3  1  0.495552  0.494720  0.495552  1
  Sn  Sn4  1  0.315351  0.995916  0.315351  1
  Sn  Sn5  1  0.997834  0.686740  0.688906  1
  Sn  Sn6  1  0.688906  0.686740  0.997834  1
  Sn  Sn7  1  0.680564  0.995916  0.680564  1
  Sb  Sb8  1  0.997564  0.319435  0.321871  1
  Sb  Sb9  1  0.321871  0.319435  0.997564  1
  Rh  Rh10  1  0.250920  0.501840  0.750920  1
  Rh  Rh11  1  0.501196  0.250337  0.749141  1
  Rh  Rh12  1  0.749141  0.250337  0.501196  1
  Rh  Rh13  1  0.500822  0.747980  0.247158  1
  Rh  Rh14  1  0.005518  0.011036  0.005518  1
  Rh  Rh15  1  0.247158  0.747980  0.500822  1
  Rh  Rh16  1  0.750920  0.501840  0.250920  1
