# generated using pymatgen
data_Y5Tm7Tc4
_symmetry_space_group_name_H-M   'P 1'
_cell_length_a   6.21701142
_cell_length_b   7.47990891
_cell_length_c   9.02606993
_cell_angle_alpha   89.94923885
_cell_angle_beta   89.80898279
_cell_angle_gamma   89.92697947
_symmetry_Int_Tables_number   1
_chemical_formula_structural   Y5Tm7Tc4
_chemical_formula_sum   'Y5 Tm7 Tc4'
_cell_volume   419.73359728
_cell_formula_units_Z   1
loop_
 _symmetry_equiv_pos_site_id
 _symmetry_equiv_pos_as_xyz
  1  'x, y, z'
loop_
 _atom_site_type_symbol
 _atom_site_label
 _atom_site_symmetry_multiplicity
 _atom_site_fract_x
 _atom_site_fract_y
 _atom_site_fract_z
 _atom_site_occupancy
  Y  Y0  1  0.624827  0.039886  0.251467  1
  Y  Y1  1  0.375946  0.959153  0.748749  1
  Y  Y2  1  0.123320  0.459835  0.748871  1
  Y  Y3  1  0.875122  0.542057  0.250371  1
  Y  Y4  1  0.154151  0.176196  0.062217  1
  Tm  Tm5  1  0.845423  0.824845  0.937107  1
  Tm  Tm6  1  0.655638  0.326311  0.937432  1
  Tm  Tm7  1  0.846448  0.825025  0.562167  1
  Tm  Tm8  1  0.346198  0.673398  0.062187  1
  Tm  Tm9  1  0.153578  0.174095  0.438122  1
  Tm  Tm10  1  0.346873  0.675011  0.437530  1
  Tm  Tm11  1  0.652400  0.325424  0.562405  1
  Tc  Tc12  1  0.452893  0.385164  0.252065  1
  Tc  Tc13  1  0.550254  0.615410  0.750487  1
  Tc  Tc14  1  0.947051  0.115160  0.747528  1
  Tc  Tc15  1  0.049877  0.883030  0.251294  1
