# generated using pymatgen
data_Ba2Lu3Sc(SeO3)8
_symmetry_space_group_name_H-M   'P 1'
_cell_length_a   5.52282795
_cell_length_b   10.71330455
_cell_length_c   14.75458296
_cell_angle_alpha   49.44404011
_cell_angle_beta   89.93721061
_cell_angle_gamma   89.97621080
_symmetry_Int_Tables_number   1
_chemical_formula_structural   Ba2Lu3Sc(SeO3)8
_chemical_formula_sum   'Ba2 Lu3 Sc1 Se8 O24'
_cell_volume   663.27632012
_cell_formula_units_Z   1
loop_
 _symmetry_equiv_pos_site_id
 _symmetry_equiv_pos_as_xyz
  1  'x, y, z'
loop_
 _atom_site_type_symbol
 _atom_site_label
 _atom_site_symmetry_multiplicity
 _atom_site_fract_x
 _atom_site_fract_y
 _atom_site_fract_z
 _atom_site_occupancy
  Ba  Ba0  1  0.051081  0.995768  0.751850  1
  Ba  Ba1  1  0.948919  0.004232  0.248150  1
  Lu  Lu2  1  0.000000  0.500000  0.500000  1
  Lu  Lu3  1  0.500000  0.000000  0.000000  1
  Lu  Lu4  1  0.500000  0.000000  0.500000  1
  Sc  Sc5  1  0.000000  0.500000  0.000000  1
  Se  Se6  1  0.498734  0.331976  0.181572  1
  Se  Se7  1  0.013276  0.743143  0.595665  1
  Se  Se8  1  0.015021  0.261074  0.905320  1
  Se  Se9  1  0.986724  0.256857  0.404335  1
  Se  Se10  1  0.503093  0.325748  0.685810  1
  Se  Se11  1  0.501266  0.668024  0.818428  1
  Se  Se12  1  0.496907  0.674252  0.314190  1
  Se  Se13  1  0.984979  0.738926  0.094680  1
  O  O14  1  0.218288  0.713922  0.345019  1
  O  O15  1  0.275389  0.801822  0.041643  1
  O  O16  1  0.778349  0.705266  0.852178  1
  O  O17  1  0.821400  0.900292  0.970397  1
  O  O18  1  0.724188  0.803023  0.540044  1
  O  O19  1  0.313815  0.339162  0.587211  1
  O  O20  1  0.178600  0.099708  0.029603  1
  O  O21  1  0.697233  0.343936  0.085391  1
  O  O22  1  0.781712  0.286078  0.654981  1
  O  O23  1  0.581391  0.135740  0.309252  1
  O  O24  1  0.686185  0.660838  0.412789  1
  O  O25  1  0.275812  0.196977  0.459956  1
  O  O26  1  0.587716  0.868595  0.187879  1
  O  O27  1  0.821847  0.097744  0.529578  1
  O  O28  1  0.412284  0.131405  0.812121  1
  O  O29  1  0.054286  0.418432  0.906930  1
  O  O30  1  0.724611  0.198178  0.958357  1
  O  O31  1  0.941348  0.417876  0.400925  1
  O  O32  1  0.058652  0.582124  0.599075  1
  O  O33  1  0.418609  0.864260  0.690748  1
  O  O34  1  0.302767  0.656064  0.914609  1
  O  O35  1  0.178153  0.902256  0.470422  1
  O  O36  1  0.945714  0.581568  0.093070  1
  O  O37  1  0.221651  0.294734  0.147822  1
