# generated using pymatgen
data_Tb4Er(CoO6)2
_symmetry_space_group_name_H-M   'P 1'
_cell_length_a   6.74428333
_cell_length_b   6.74428406
_cell_length_c   7.21401744
_cell_angle_alpha   74.61360643
_cell_angle_beta   74.61360271
_cell_angle_gamma   50.58019795
_symmetry_Int_Tables_number   1
_chemical_formula_structural   Tb4Er(CoO6)2
_chemical_formula_sum   'Tb4 Er1 Co2 O12'
_cell_volume   242.32665263
_cell_formula_units_Z   1
loop_
 _symmetry_equiv_pos_site_id
 _symmetry_equiv_pos_as_xyz
  1  'x, y, z'
loop_
 _atom_site_type_symbol
 _atom_site_label
 _atom_site_symmetry_multiplicity
 _atom_site_fract_x
 _atom_site_fract_y
 _atom_site_fract_z
 _atom_site_occupancy
  Tb  Tb0  1  0.306132  0.306132  0.354199  1
  Tb  Tb1  1  0.693353  0.693353  0.643681  1
  Tb  Tb2  1  0.307673  0.307673  0.836259  1
  Tb  Tb3  1  0.000007  0.000007  0.499105  1
  Er  Er4  1  0.692056  0.692056  0.163849  1
  Co  Co5  1  0.756581  0.243597  0.000853  1
  Co  Co6  1  0.243597  0.756581  0.000853  1
  O  O7  1  0.899745  0.417771  0.924867  1
  O  O8  1  0.417771  0.899745  0.924867  1
  O  O9  1  0.095677  0.586629  0.078557  1
  O  O10  1  0.586629  0.095677  0.078557  1
  O  O11  1  0.095821  0.598177  0.576257  1
  O  O12  1  0.598177  0.095821  0.576257  1
  O  O13  1  0.901736  0.403097  0.419777  1
  O  O14  1  0.403097  0.901736  0.419777  1
  O  O15  1  0.002225  0.002225  0.829165  1
  O  O16  1  0.999175  0.999175  0.170796  1
  O  O17  1  0.499939  0.499939  0.827153  1
  O  O18  1  0.500610  0.500610  0.175169  1
