# generated using pymatgen
data_Ho5Tm3Sc12Si15P
_symmetry_space_group_name_H-M   'P 1'
_cell_length_a   7.06254889
_cell_length_b   7.34544009
_cell_length_c   13.92419626
_cell_angle_alpha   89.98001609
_cell_angle_beta   90.00910304
_cell_angle_gamma   90.14024530
_symmetry_Int_Tables_number   1
_chemical_formula_structural   Ho5Tm3Sc12Si15P
_chemical_formula_sum   'Ho5 Tm3 Sc12 Si15 P1'
_cell_volume   722.35068871
_cell_formula_units_Z   1
loop_
 _symmetry_equiv_pos_site_id
 _symmetry_equiv_pos_as_xyz
  1  'x, y, z'
loop_
 _atom_site_type_symbol
 _atom_site_label
 _atom_site_symmetry_multiplicity
 _atom_site_fract_x
 _atom_site_fract_y
 _atom_site_fract_z
 _atom_site_occupancy
  Ho  Ho0  1  0.009934  0.175346  0.096171  1
  Ho  Ho1  1  0.991113  0.826338  0.900661  1
  Ho  Ho2  1  0.490110  0.675583  0.904355  1
  Ho  Ho3  1  0.990858  0.826030  0.598852  1
  Ho  Ho4  1  0.511039  0.324174  0.095828  1
  Tm  Tm5  1  0.010307  0.176038  0.403786  1
  Tm  Tm6  1  0.511127  0.323536  0.404128  1
  Tm  Tm7  1  0.490006  0.676078  0.595764  1
  Sc  Sc8  1  0.160332  0.502033  0.749838  1
  Sc  Sc9  1  0.838337  0.496951  0.250285  1
  Sc  Sc10  1  0.338571  0.003010  0.250333  1
  Sc  Sc11  1  0.663220  0.998943  0.749756  1
  Sc  Sc12  1  0.328028  0.173770  0.627086  1
  Sc  Sc13  1  0.667518  0.823212  0.375594  1
  Sc  Sc14  1  0.167876  0.677120  0.375387  1
  Sc  Sc15  1  0.667678  0.823357  0.124918  1
  Sc  Sc16  1  0.832754  0.323041  0.626111  1
  Sc  Sc17  1  0.327886  0.173283  0.872520  1
  Sc  Sc18  1  0.832793  0.322955  0.873449  1
  Sc  Sc19  1  0.167720  0.677402  0.125087  1
  Si  Si20  1  0.964538  0.885312  0.250428  1
  Si  Si21  1  0.465585  0.613690  0.250359  1
  Si  Si22  1  0.531703  0.384129  0.749645  1
  Si  Si23  1  0.296767  0.862300  0.749525  1
  Si  Si24  1  0.714203  0.127611  0.250789  1
  Si  Si25  1  0.214755  0.372033  0.250778  1
  Si  Si26  1  0.786421  0.629559  0.749576  1
  Si  Si27  1  0.159949  0.463488  0.539760  1
  Si  Si28  1  0.840195  0.534495  0.461125  1
  Si  Si29  1  0.338860  0.965896  0.460786  1
  Si  Si30  1  0.841198  0.535844  0.038519  1
  Si  Si31  1  0.660204  0.036628  0.540086  1
  Si  Si32  1  0.158798  0.463626  0.960057  1
  Si  Si33  1  0.660728  0.036715  0.959853  1
  Si  Si34  1  0.339364  0.965239  0.039033  1
  P  P35  1  0.029521  0.125233  0.749772  1
