# generated using pymatgen
data_Ho3Er17(HgBi5)2
_symmetry_space_group_name_H-M   'P 1'
_cell_length_a   8.16767500
_cell_length_b   9.43313000
_cell_length_c   11.97603000
_cell_angle_alpha   90.00000000
_cell_angle_beta   90.00084881
_cell_angle_gamma   90.00000000
_symmetry_Int_Tables_number   1
_chemical_formula_structural   Ho3Er17(HgBi5)2
_chemical_formula_sum   'Ho3 Er17 Hg2 Bi10'
_cell_volume   922.71407051
_cell_formula_units_Z   1
loop_
 _symmetry_equiv_pos_site_id
 _symmetry_equiv_pos_as_xyz
  1  'x, y, z'
loop_
 _atom_site_type_symbol
 _atom_site_label
 _atom_site_symmetry_multiplicity
 _atom_site_fract_x
 _atom_site_fract_y
 _atom_site_fract_z
 _atom_site_occupancy
  Ho  Ho0  1  0.816970  0.250009  0.284379  1
  Ho  Ho1  1  0.688844  0.749942  0.782129  1
  Ho  Ho2  1  0.188805  0.749968  0.717660  1
  Er  Er3  1  0.347612  0.749945  0.215952  1
  Er  Er4  1  0.847482  0.749931  0.283974  1
  Er  Er5  1  0.647067  0.249972  0.790644  1
  Er  Er6  1  0.146960  0.249950  0.709470  1
  Er  Er7  1  0.693651  0.554110  0.059278  1
  Er  Er8  1  0.193324  0.946018  0.440589  1
  Er  Er9  1  0.312434  0.068755  0.942656  1
  Er  Er10  1  0.812199  0.431297  0.557585  1
  Er  Er11  1  0.312364  0.431282  0.942603  1
  Er  Er12  1  0.812289  0.068732  0.557533  1
  Er  Er13  1  0.693629  0.945941  0.059270  1
  Er  Er14  1  0.193350  0.554086  0.440608  1
  Er  Er15  1  0.467369  0.250004  0.490992  1
  Er  Er16  1  0.967492  0.249992  0.009008  1
  Er  Er17  1  0.521541  0.749970  0.510038  1
  Er  Er18  1  0.021922  0.749974  0.990102  1
  Er  Er19  1  0.317024  0.249989  0.215467  1
  Hg  Hg20  1  0.593058  0.249914  0.042729  1
  Hg  Hg21  1  0.093452  0.250094  0.457434  1
  Bi  Bi22  1  0.405989  0.750009  0.957541  1
  Bi  Bi23  1  0.905799  0.750002  0.542335  1
  Bi  Bi24  1  0.560399  0.997771  0.323254  1
  Bi  Bi25  1  0.061035  0.502294  0.176670  1
  Bi  Bi26  1  0.439097  0.496892  0.675857  1
  Bi  Bi27  1  0.939168  0.003117  0.824229  1
  Bi  Bi28  1  0.439091  0.003128  0.675846  1
  Bi  Bi29  1  0.939169  0.496904  0.824228  1
  Bi  Bi30  1  0.560391  0.502267  0.323253  1
  Bi  Bi31  1  0.061022  0.997741  0.176682  1
