# generated using pymatgen
data_Ti5IrPt2
_symmetry_space_group_name_H-M   'P 1'
_cell_length_a   4.97800200
_cell_length_b   5.05556200
_cell_length_c   4.97800200
_cell_angle_alpha   90.00000000
_cell_angle_beta   90.00000000
_cell_angle_gamma   90.00000000
_symmetry_Int_Tables_number   1
_chemical_formula_structural   Ti5IrPt2
_chemical_formula_sum   'Ti5 Ir1 Pt2'
_cell_volume   125.27937392
_cell_formula_units_Z   1
loop_
 _symmetry_equiv_pos_site_id
 _symmetry_equiv_pos_as_xyz
  1  'x, y, z'
loop_
 _atom_site_type_symbol
 _atom_site_label
 _atom_site_symmetry_multiplicity
 _atom_site_fract_x
 _atom_site_fract_y
 _atom_site_fract_z
 _atom_site_occupancy
  Ti  Ti0  1  0.000000  0.750000  0.500000  1
  Ti  Ti1  1  0.249713  0.484386  0.000000  1
  Ti  Ti2  1  0.750287  0.484386  0.000000  1
  Ti  Ti3  1  0.500000  0.015614  0.250287  1
  Ti  Ti4  1  0.500000  0.015614  0.749713  1
  Ir  Ir5  1  0.000000  0.250000  0.500000  1
  Pt  Pt6  1  0.500000  0.526081  0.500000  1
  Pt  Pt7  1  0.000000  0.973919  0.000000  1
