# generated using pymatgen
data_Ca4H9Pt2F3
_symmetry_space_group_name_H-M   'P 1'
_cell_length_a   7.05655309
_cell_length_b   7.05655283
_cell_length_c   5.41350100
_cell_angle_alpha   90.04404837
_cell_angle_beta   89.95595163
_cell_angle_gamma   134.83033353
_symmetry_Int_Tables_number   1
_chemical_formula_structural   Ca4H9Pt2F3
_chemical_formula_sum   'Ca4 H9 Pt2 F3'
_cell_volume   191.17475038
_cell_formula_units_Z   1
loop_
 _symmetry_equiv_pos_site_id
 _symmetry_equiv_pos_as_xyz
  1  'x, y, z'
loop_
 _atom_site_type_symbol
 _atom_site_label
 _atom_site_symmetry_multiplicity
 _atom_site_fract_x
 _atom_site_fract_y
 _atom_site_fract_z
 _atom_site_occupancy
  Ca  Ca0  1  0.354327  0.651368  0.001054  1
  Ca  Ca1  1  0.850492  0.147557  0.498881  1
  Ca  Ca2  1  0.647557  0.350492  0.001119  1
  Ca  Ca3  1  0.151368  0.854327  0.498946  1
  H  H4  1  0.500911  0.000911  0.250000  1
  H  H5  1  0.151936  0.900191  0.016102  1
  H  H6  1  0.600229  0.348042  0.487146  1
  H  H7  1  0.848042  0.100229  0.012854  1
  H  H8  1  0.400191  0.651936  0.483898  1
  H  H9  1  0.771954  0.763109  0.228064  1
  H  H10  1  0.223069  0.231599  0.781519  1
  H  H11  1  0.731599  0.723069  0.718481  1
  H  H12  1  0.263109  0.271954  0.271936  1
  Pt  Pt13  1  0.001365  0.001440  0.008048  1
  Pt  Pt14  1  0.501440  0.501365  0.491952  1
  F  F15  1  0.000431  0.500431  0.250000  1
  F  F16  1  0.500758  0.000758  0.750000  1
  F  F17  1  0.001220  0.501220  0.750000  1
