# generated using pymatgen
data_Er6Al24IrOs(PdRu2)2
_symmetry_space_group_name_H-M   'P 1'
_cell_length_a   8.77504918
_cell_length_b   8.77949751
_cell_length_c   9.57229600
_cell_angle_alpha   90.07445617
_cell_angle_beta   90.01172680
_cell_angle_gamma   120.06585973
_symmetry_Int_Tables_number   1
_chemical_formula_structural   Er6Al24IrOs(PdRu2)2
_chemical_formula_sum   'Er6 Al24 Ir1 Os1 Pd2 Ru4'
_cell_volume   638.22937768
_cell_formula_units_Z   1
loop_
 _symmetry_equiv_pos_site_id
 _symmetry_equiv_pos_as_xyz
  1  'x, y, z'
loop_
 _atom_site_type_symbol
 _atom_site_label
 _atom_site_symmetry_multiplicity
 _atom_site_fract_x
 _atom_site_fract_y
 _atom_site_fract_z
 _atom_site_occupancy
  Er  Er0  1  0.194150  0.388208  0.250532  1
  Er  Er1  1  0.805850  0.611792  0.749468  1
  Er  Er2  1  0.613582  0.805151  0.248966  1
  Er  Er3  1  0.386418  0.194849  0.751034  1
  Er  Er4  1  0.192048  0.804633  0.248253  1
  Er  Er5  1  0.807952  0.195367  0.751747  1
  Al  Al6  1  0.330087  0.661056  0.026310  1
  Al  Al7  1  0.669913  0.338944  0.973690  1
  Al  Al8  1  0.666977  0.328623  0.527787  1
  Al  Al9  1  0.333023  0.671377  0.472213  1
  Al  Al10  1  0.158676  0.325040  0.579533  1
  Al  Al11  1  0.841324  0.674960  0.420467  1
  Al  Al12  1  0.675709  0.844096  0.579244  1
  Al  Al13  1  0.836687  0.673111  0.077347  1
  Al  Al14  1  0.324291  0.155904  0.420756  1
  Al  Al15  1  0.163313  0.326889  0.922653  1
  Al  Al16  1  0.165195  0.838908  0.577316  1
  Al  Al17  1  0.324708  0.167720  0.079055  1
  Al  Al18  1  0.834805  0.161092  0.422684  1
  Al  Al19  1  0.675292  0.832280  0.920945  1
  Al  Al20  1  0.843206  0.167811  0.080050  1
  Al  Al21  1  0.156794  0.832189  0.919950  1
  Al  Al22  1  0.562576  0.123816  0.254007  1
  Al  Al23  1  0.437424  0.876184  0.745993  1
  Al  Al24  1  0.876574  0.437879  0.248922  1
  Al  Al25  1  0.123426  0.562121  0.751078  1
  Al  Al26  1  0.563393  0.436949  0.247829  1
  Al  Al27  1  0.436607  0.563051  0.752171  1
  Al  Al28  1  0.999757  0.999830  0.250120  1
  Al  Al29  1  0.000243  0.000170  0.749880  1
  Ir  Ir30  1  0.000000  0.500000  0.500000  1
  Os  Os31  1  0.500000  0.500000  0.000000  1
  Pd  Pd32  1  0.500000  0.000000  0.000000  1
  Pd  Pd33  1  0.500000  0.500000  0.500000  1
  Ru  Ru34  1  0.000000  0.500000  0.000000  1
  Ru  Ru35  1  0.500000  0.000000  0.500000  1
  Ru  Ru36  1  0.000000  0.000000  0.000000  1
  Ru  Ru37  1  0.000000  0.000000  0.500000  1
