# generated using pymatgen
data_Ho8Cd2CoNi
_symmetry_space_group_name_H-M   'P 1'
_cell_length_a   9.46585174
_cell_length_b   9.47264585
_cell_length_c   9.47264624
_cell_angle_alpha   60.15110410
_cell_angle_beta   60.02372325
_cell_angle_gamma   60.02372747
_symmetry_Int_Tables_number   1
_chemical_formula_structural   Ho8Cd2CoNi
_chemical_formula_sum   'Ho16 Cd4 Co2 Ni2'
_cell_volume   601.50164892
_cell_formula_units_Z   2
loop_
 _symmetry_equiv_pos_site_id
 _symmetry_equiv_pos_as_xyz
  1  'x, y, z'
loop_
 _atom_site_type_symbol
 _atom_site_label
 _atom_site_symmetry_multiplicity
 _atom_site_fract_x
 _atom_site_fract_y
 _atom_site_fract_z
 _atom_site_occupancy
  Ho  Ho0  1  0.936582  0.937718  0.563471  1
  Ho  Ho1  1  0.810225  0.189775  0.189775  1
  Ho  Ho2  1  0.936730  0.563270  0.563270  1
  Ho  Ho3  1  0.936582  0.563471  0.937718  1
  Ho  Ho4  1  0.814294  0.807698  0.188259  1
  Ho  Ho5  1  0.343738  0.347888  0.347888  1
  Ho  Ho6  1  0.562543  0.937457  0.937457  1
  Ho  Ho7  1  0.562228  0.937718  0.563471  1
  Ho  Ho8  1  0.188444  0.811556  0.811556  1
  Ho  Ho9  1  0.189749  0.188259  0.807698  1
  Ho  Ho10  1  0.346149  0.351708  0.955994  1
  Ho  Ho11  1  0.346149  0.955994  0.351708  1
  Ho  Ho12  1  0.814294  0.188259  0.807698  1
  Ho  Ho13  1  0.562228  0.563471  0.937718  1
  Ho  Ho14  1  0.189749  0.807698  0.188259  1
  Ho  Ho15  1  0.960487  0.347888  0.347888  1
  Cd  Cd16  1  0.581055  0.580678  0.257214  1
  Cd  Cd17  1  0.257708  0.580818  0.580818  1
  Cd  Cd18  1  0.580658  0.580818  0.580818  1
  Cd  Cd19  1  0.581055  0.257214  0.580678  1
  Co  Co20  1  0.141462  0.575006  0.142070  1
  Co  Co21  1  0.141462  0.142070  0.575006  1
  Ni  Ni22  1  0.574543  0.141785  0.141785  1
  Ni  Ni23  1  0.141888  0.141785  0.141785  1
