# generated using pymatgen
data_MnSeBrO6
_symmetry_space_group_name_H-M   'P 1'
_cell_length_a   5.22841788
_cell_length_b   7.09903000
_cell_length_c   8.01463580
_cell_angle_alpha   89.99964516
_cell_angle_beta   90.07181429
_cell_angle_gamma   90.00172174
_symmetry_Int_Tables_number   1
_chemical_formula_structural   MnSeBrO6
_chemical_formula_sum   'Mn2 Se2 Br2 O12'
_cell_volume   297.47656171
_cell_formula_units_Z   2
loop_
 _symmetry_equiv_pos_site_id
 _symmetry_equiv_pos_as_xyz
  1  'x, y, z'
loop_
 _atom_site_type_symbol
 _atom_site_label
 _atom_site_symmetry_multiplicity
 _atom_site_fract_x
 _atom_site_fract_y
 _atom_site_fract_z
 _atom_site_occupancy
  Mn  Mn0  1  0.505144  0.491850  0.512918  1
  Mn  Mn1  1  0.994916  0.991758  0.987035  1
  Se  Se2  1  0.010852  0.318239  0.683190  1
  Se  Se3  1  0.489197  0.818230  0.816823  1
  Br  Br4  1  0.507216  0.188662  0.174127  1
  Br  Br5  1  0.992785  0.688672  0.325886  1
  O  O6  1  0.546217  0.592832  0.757826  1
  O  O7  1  0.953772  0.092835  0.742180  1
  O  O8  1  0.446938  0.407539  0.236822  1
  O  O9  1  0.053032  0.907539  0.263171  1
  O  O10  1  0.200152  0.779951  0.923915  1
  O  O11  1  0.299865  0.280040  0.576078  1
  O  O12  1  0.194014  0.665236  0.494005  1
  O  O13  1  0.305945  0.165208  0.006018  1
  O  O14  1  0.809900  0.338297  0.505771  1
  O  O15  1  0.690075  0.838251  0.994240  1
  O  O16  1  0.700423  0.717463  0.417566  1
  O  O17  1  0.799554  0.217402  0.082430  1
