# generated using pymatgen
data_Ba2Tl2Os6O18F
_symmetry_space_group_name_H-M   'P 1'
_cell_length_a   8.17156264
_cell_length_b   8.17125586
_cell_length_c   8.17125656
_cell_angle_alpha   109.55269475
_cell_angle_beta   109.48983595
_cell_angle_gamma   109.36966297
_symmetry_Int_Tables_number   1
_chemical_formula_structural   Ba2Tl2Os6O18F
_chemical_formula_sum   'Ba2 Tl2 Os6 O18 F1'
_cell_volume   420.01798839
_cell_formula_units_Z   1
loop_
 _symmetry_equiv_pos_site_id
 _symmetry_equiv_pos_as_xyz
  1  'x, y, z'
loop_
 _atom_site_type_symbol
 _atom_site_label
 _atom_site_symmetry_multiplicity
 _atom_site_fract_x
 _atom_site_fract_y
 _atom_site_fract_z
 _atom_site_occupancy
  Ba  Ba0  1  0.672746  0.674163  0.674212  1
  Ba  Ba1  1  0.327254  0.001466  0.001416  1
  Tl  Tl2  1  0.000997  0.326586  0.001820  1
  Tl  Tl3  1  0.999003  0.000823  0.325589  1
  Os  Os4  1  0.500000  0.361958  0.861958  1
  Os  Os5  1  0.500000  0.637169  0.137169  1
  Os  Os6  1  0.360699  0.862369  0.498223  1
  Os  Os7  1  0.639301  0.137524  0.501671  1
  Os  Os8  1  0.864459  0.501702  0.362465  1
  Os  Os9  1  0.135541  0.498006  0.637243  1
  O  O10  1  0.698674  0.352925  0.068380  1
  O  O11  1  0.645827  0.346396  0.714672  1
  O  O12  1  0.287112  0.632669  0.931678  1
  O  O13  1  0.652671  0.302682  0.369709  1
  O  O14  1  0.347329  0.717038  0.650011  1
  O  O15  1  0.930631  0.288025  0.631242  1
  O  O16  1  0.069369  0.700611  0.357394  1
  O  O17  1  0.000000  0.661729  0.661729  1
  O  O18  1  0.659569  0.661295  0.999789  1
  O  O19  1  0.712888  0.644566  0.345557  1
  O  O20  1  0.354173  0.068844  0.700569  1
  O  O21  1  0.659595  0.998168  0.659278  1
  O  O22  1  0.000000  0.339870  0.339870  1
  O  O23  1  0.630421  0.931861  0.285161  1
  O  O24  1  0.369579  0.654739  0.301439  1
  O  O25  1  0.301326  0.369706  0.654251  1
  O  O26  1  0.340405  0.999683  0.338572  1
  O  O27  1  0.340431  0.340220  0.001726  1
  F  F28  1  0.000000  0.987205  0.987205  1
