# generated using pymatgen
data_La3NdTm2Ta2O14
_symmetry_space_group_name_H-M   'P 1'
_cell_length_a   6.59588051
_cell_length_b   6.60772645
_cell_length_c   7.70397900
_cell_angle_alpha   90.00000000
_cell_angle_beta   90.00000000
_cell_angle_gamma   109.22702344
_symmetry_Int_Tables_number   1
_chemical_formula_structural   La3NdTm2Ta2O14
_chemical_formula_sum   'La3 Nd1 Tm2 Ta2 O14'
_cell_volume   317.03970265
_cell_formula_units_Z   1
loop_
 _symmetry_equiv_pos_site_id
 _symmetry_equiv_pos_as_xyz
  1  'x, y, z'
loop_
 _atom_site_type_symbol
 _atom_site_label
 _atom_site_symmetry_multiplicity
 _atom_site_fract_x
 _atom_site_fract_y
 _atom_site_fract_z
 _atom_site_occupancy
  La  La0  1  0.496990  0.499915  0.505832  1
  La  La1  1  0.496990  0.499915  0.994168  1
  La  La2  1  0.998364  0.525537  0.250000  1
  Nd  Nd3  1  0.463666  0.999003  0.250000  1
  Tm  Tm4  1  0.000157  0.467244  0.750000  1
  Tm  Tm5  1  0.533609  0.001655  0.750000  1
  Ta  Ta6  1  0.999730  0.998181  0.506489  1
  Ta  Ta7  1  0.999730  0.998181  0.993511  1
  O  O8  1  0.929869  0.061346  0.750000  1
  O  O9  1  0.054058  0.952774  0.250000  1
  O  O10  1  0.365799  0.632091  0.250000  1
  O  O11  1  0.649920  0.350547  0.750000  1
  O  O12  1  0.362254  0.642166  0.750000  1
  O  O13  1  0.626116  0.366872  0.250000  1
  O  O14  1  0.314583  0.060071  0.959370  1
  O  O15  1  0.682486  0.932763  0.476153  1
  O  O16  1  0.314583  0.060071  0.540630  1
  O  O17  1  0.682486  0.932763  0.023847  1
  O  O18  1  0.076229  0.321598  0.486385  1
  O  O19  1  0.938076  0.687854  0.956976  1
  O  O20  1  0.938076  0.687854  0.543024  1
  O  O21  1  0.076229  0.321598  0.013615  1
