# generated using pymatgen
data_Sr2BiSb(IO2)2
_symmetry_space_group_name_H-M   'P 1'
_cell_length_a   7.56235221
_cell_length_b   7.56235182
_cell_length_c   5.72484600
_cell_angle_alpha   90.00000000
_cell_angle_beta   90.00000000
_cell_angle_gamma   133.97986536
_symmetry_Int_Tables_number   1
_chemical_formula_structural   Sr2BiSb(IO2)2
_chemical_formula_sum   'Sr2 Bi1 Sb1 I2 O4'
_cell_volume   235.59116887
_cell_formula_units_Z   1
loop_
 _symmetry_equiv_pos_site_id
 _symmetry_equiv_pos_as_xyz
  1  'x, y, z'
loop_
 _atom_site_type_symbol
 _atom_site_label
 _atom_site_symmetry_multiplicity
 _atom_site_fract_x
 _atom_site_fract_y
 _atom_site_fract_z
 _atom_site_occupancy
  Sr  Sr0  1  0.903185  0.096815  0.750000  1
  Sr  Sr1  1  0.094029  0.905971  0.250000  1
  Bi  Bi2  1  0.425053  0.574947  0.250000  1
  Sb  Sb3  1  0.565247  0.434753  0.750000  1
  I  I4  1  0.248109  0.751891  0.750000  1
  I  I5  1  0.761222  0.238778  0.250000  1
  O  O6  1  0.273611  0.272034  0.993302  1
  O  O7  1  0.273611  0.272034  0.506698  1
  O  O8  1  0.727966  0.726389  0.506698  1
  O  O9  1  0.727966  0.726389  0.993302  1
