# generated using pymatgen
data_Lu10Sn7Bi
_symmetry_space_group_name_H-M   'P 1'
_cell_length_a   7.98948600
_cell_length_b   8.03283163
_cell_length_c   15.14726013
_cell_angle_alpha   90.25867960
_cell_angle_beta   90.00000000
_cell_angle_gamma   90.00000000
_symmetry_Int_Tables_number   1
_chemical_formula_structural   Lu10Sn7Bi
_chemical_formula_sum   'Lu20 Sn14 Bi2'
_cell_volume   972.11391917
_cell_formula_units_Z   2
loop_
 _symmetry_equiv_pos_site_id
 _symmetry_equiv_pos_as_xyz
  1  'x, y, z'
loop_
 _atom_site_type_symbol
 _atom_site_label
 _atom_site_symmetry_multiplicity
 _atom_site_fract_x
 _atom_site_fract_y
 _atom_site_fract_z
 _atom_site_occupancy
  Lu  Lu0  1  0.381324  0.834212  0.877150  1
  Lu  Lu1  1  0.881324  0.665788  0.622850  1
  Lu  Lu2  1  0.622126  0.156787  0.376791  1
  Lu  Lu3  1  0.122126  0.343213  0.123209  1
  Lu  Lu4  1  0.627358  0.161229  0.122061  1
  Lu  Lu5  1  0.127358  0.338771  0.377939  1
  Lu  Lu6  1  0.376851  0.838603  0.622216  1
  Lu  Lu7  1  0.876851  0.661397  0.877784  1
  Lu  Lu8  1  0.539264  0.330401  0.896903  1
  Lu  Lu9  1  0.039264  0.169599  0.603097  1
  Lu  Lu10  1  0.456902  0.678722  0.396972  1
  Lu  Lu11  1  0.956902  0.821278  0.103028  1
  Lu  Lu12  1  0.466887  0.667255  0.101349  1
  Lu  Lu13  1  0.966887  0.832745  0.398651  1
  Lu  Lu14  1  0.528044  0.318271  0.602323  1
  Lu  Lu15  1  0.028044  0.181729  0.897677  1
  Lu  Lu16  1  0.206715  0.502330  0.749654  1
  Lu  Lu17  1  0.706715  0.997670  0.750346  1
  Lu  Lu18  1  0.793277  0.497746  0.247303  1
  Lu  Lu19  1  0.293277  0.002254  0.252697  1
  Sn  Sn20  1  0.717216  0.968957  0.542331  1
  Sn  Sn21  1  0.217216  0.531043  0.957669  1
  Sn  Sn22  1  0.718942  0.968609  0.957229  1
  Sn  Sn23  1  0.218942  0.531391  0.542771  1
  Sn  Sn24  1  0.286211  0.034220  0.458529  1
  Sn  Sn25  1  0.786211  0.465780  0.041471  1
  Sn  Sn26  1  0.573523  0.623376  0.747839  1
  Sn  Sn27  1  0.073523  0.876624  0.752161  1
  Sn  Sn28  1  0.429208  0.374688  0.249849  1
  Sn  Sn29  1  0.929208  0.125312  0.250151  1
  Sn  Sn30  1  0.342961  0.147908  0.752126  1
  Sn  Sn31  1  0.842961  0.352092  0.747874  1
  Sn  Sn32  1  0.653744  0.849636  0.249492  1
  Sn  Sn33  1  0.153744  0.650364  0.250508  1
  Bi  Bi34  1  0.279445  0.029432  0.042597  1
  Bi  Bi35  1  0.779445  0.470568  0.457403  1
