# generated using pymatgen
data_Y2Hf3Si7Pt9
_symmetry_space_group_name_H-M   'P 1'
_cell_length_a   10.03745000
_cell_length_b   10.03745027
_cell_length_c   4.01256100
_cell_angle_alpha   90.00000000
_cell_angle_beta   90.00000000
_cell_angle_gamma   119.99999911
_symmetry_Int_Tables_number   1
_chemical_formula_structural   Y2Hf3Si7Pt9
_chemical_formula_sum   'Y2 Hf3 Si7 Pt9'
_cell_volume   350.10562205
_cell_formula_units_Z   1
loop_
 _symmetry_equiv_pos_site_id
 _symmetry_equiv_pos_as_xyz
  1  'x, y, z'
loop_
 _atom_site_type_symbol
 _atom_site_label
 _atom_site_symmetry_multiplicity
 _atom_site_fract_x
 _atom_site_fract_y
 _atom_site_fract_z
 _atom_site_occupancy
  Y  Y0  1  0.000000  0.000000  0.000000  1
  Y  Y1  1  0.333333  0.666667  0.500000  1
  Hf  Hf2  1  0.892233  0.455987  0.500000  1
  Hf  Hf3  1  0.563755  0.107767  0.500000  1
  Hf  Hf4  1  0.544013  0.436245  0.500000  1
  Si  Si5  1  0.246756  0.196867  0.500000  1
  Si  Si6  1  0.803133  0.049889  0.500000  1
  Si  Si7  1  0.950111  0.753244  0.500000  1
  Si  Si8  1  0.558191  0.647709  0.000000  1
  Si  Si9  1  0.352291  0.910481  0.000000  1
  Si  Si10  1  0.089519  0.441809  0.000000  1
  Si  Si11  1  0.666667  0.333333  0.000000  1
  Pt  Pt12  1  0.219316  0.937207  0.500000  1
  Pt  Pt13  1  0.062793  0.282111  0.500000  1
  Pt  Pt14  1  0.717889  0.780684  0.500000  1
  Pt  Pt15  1  0.315453  0.413806  0.000000  1
  Pt  Pt16  1  0.586194  0.901647  0.000000  1
  Pt  Pt17  1  0.098353  0.684547  0.000000  1
  Pt  Pt18  1  0.387937  0.175599  0.000000  1
  Pt  Pt19  1  0.824401  0.212338  0.000000  1
  Pt  Pt20  1  0.787662  0.612063  0.000000  1
