# generated using pymatgen
data_La4IrPd2Au
_symmetry_space_group_name_H-M   'P 1'
_cell_length_a   4.58903700
_cell_length_b   5.97497564
_cell_length_c   7.57935239
_cell_angle_alpha   90.70447935
_cell_angle_beta   90.00000000
_cell_angle_gamma   90.00000000
_symmetry_Int_Tables_number   1
_chemical_formula_structural   La4IrPd2Au
_chemical_formula_sum   'La4 Ir1 Pd2 Au1'
_cell_volume   207.80546689
_cell_formula_units_Z   1
loop_
 _symmetry_equiv_pos_site_id
 _symmetry_equiv_pos_as_xyz
  1  'x, y, z'
loop_
 _atom_site_type_symbol
 _atom_site_label
 _atom_site_symmetry_multiplicity
 _atom_site_fract_x
 _atom_site_fract_y
 _atom_site_fract_z
 _atom_site_occupancy
  La  La0  1  0.250000  0.643103  0.175322  1
  La  La1  1  0.750000  0.341487  0.836640  1
  La  La2  1  0.750000  0.138816  0.299981  1
  La  La3  1  0.250000  0.857659  0.689359  1
  Ir  Ir4  1  0.250000  0.170652  0.050893  1
  Pd  Pd5  1  0.750000  0.839649  0.950015  1
  Pd  Pd6  1  0.750000  0.652621  0.455825  1
  Au  Au7  1  0.250000  0.356010  0.541964  1
