# generated using pymatgen
data_Tb3Lu5Hf9Nb(Si8Mo)2
_symmetry_space_group_name_H-M   'P 1'
_cell_length_a   7.16630769
_cell_length_b   7.16446451
_cell_length_c   13.09127100
_cell_angle_alpha   90.06651287
_cell_angle_beta   90.10783879
_cell_angle_gamma   90.09880826
_symmetry_Int_Tables_number   1
_chemical_formula_structural   Tb3Lu5Hf9Nb(Si8Mo)2
_chemical_formula_sum   'Tb3 Lu5 Hf9 Nb1 Si16 Mo2'
_cell_volume   672.13930195
_cell_formula_units_Z   1
loop_
 _symmetry_equiv_pos_site_id
 _symmetry_equiv_pos_as_xyz
  1  'x, y, z'
loop_
 _atom_site_type_symbol
 _atom_site_label
 _atom_site_symmetry_multiplicity
 _atom_site_fract_x
 _atom_site_fract_y
 _atom_site_fract_z
 _atom_site_occupancy
  Tb  Tb0  1  0.497218  0.153513  0.532283  1
  Tb  Tb1  1  0.344736  0.994000  0.785164  1
  Tb  Tb2  1  0.654991  0.001419  0.284745  1
  Lu  Lu3  1  0.998897  0.346474  0.215559  1
  Lu  Lu4  1  0.003561  0.655126  0.714422  1
  Lu  Lu5  1  0.153787  0.500500  0.463601  1
  Lu  Lu6  1  0.499813  0.845847  0.036418  1
  Lu  Lu7  1  0.846342  0.502394  0.968165  1
  Hf  Hf8  1  0.677555  0.324716  0.749935  1
  Hf  Hf9  1  0.144809  0.992862  0.373942  1
  Hf  Hf10  1  0.855876  0.003431  0.876952  1
  Hf  Hf11  1  0.506858  0.647943  0.621519  1
  Hf  Hf12  1  0.354059  0.495807  0.878506  1
  Hf  Hf13  1  0.493122  0.356025  0.126142  1
  Hf  Hf14  1  0.645831  0.506292  0.373311  1
  Hf  Hf15  1  0.996723  0.144712  0.622728  1
  Hf  Hf16  1  0.004862  0.854522  0.125956  1
  Nb  Nb17  1  0.175764  0.176532  0.001592  1
  Si  Si18  1  0.356246  0.298506  0.317486  1
  Si  Si19  1  0.643155  0.703066  0.818384  1
  Si  Si20  1  0.201554  0.856859  0.566265  1
  Si  Si21  1  0.139300  0.792678  0.934077  1
  Si  Si22  1  0.795135  0.141966  0.068895  1
  Si  Si23  1  0.862958  0.206708  0.431857  1
  Si  Si24  1  0.293783  0.362696  0.682448  1
  Si  Si25  1  0.704599  0.639982  0.180580  1
  Si  Si26  1  0.295558  0.050744  0.184732  1
  Si  Si27  1  0.707103  0.945290  0.682605  1
  Si  Si28  1  0.445782  0.793407  0.432401  1
  Si  Si29  1  0.201380  0.551935  0.067933  1
  Si  Si30  1  0.550294  0.201641  0.937122  1
  Si  Si31  1  0.800497  0.453823  0.563474  1
  Si  Si32  1  0.050504  0.299293  0.816728  1
  Si  Si33  1  0.949671  0.701412  0.315308  1
  Mo  Mo34  1  0.825611  0.821481  0.498785  1
  Mo  Mo35  1  0.322067  0.676401  0.249979  1
