# generated using pymatgen
data_Na5ScO4
_symmetry_space_group_name_H-M   'P 1'
_cell_length_a   5.51287200
_cell_length_b   7.36304400
_cell_length_c   7.62329300
_cell_angle_alpha   90.00000000
_cell_angle_beta   90.00000000
_cell_angle_gamma   90.00000000
_symmetry_Int_Tables_number   1
_chemical_formula_structural   Na5ScO4
_chemical_formula_sum   'Na10 Sc2 O8'
_cell_volume   309.44104343
_cell_formula_units_Z   2
loop_
 _symmetry_equiv_pos_site_id
 _symmetry_equiv_pos_as_xyz
  1  'x, y, z'
loop_
 _atom_site_type_symbol
 _atom_site_label
 _atom_site_symmetry_multiplicity
 _atom_site_fract_x
 _atom_site_fract_y
 _atom_site_fract_z
 _atom_site_occupancy
  Na  Na0  1  0.757955  0.761944  0.806522  1
  Na  Na1  1  0.757955  0.238056  0.806522  1
  Na  Na2  1  0.311696  0.500000  0.000000  1
  Na  Na3  1  0.757955  0.238056  0.193478  1
  Na  Na4  1  0.757955  0.761944  0.193478  1
  Na  Na5  1  0.242045  0.261944  0.306522  1
  Na  Na6  1  0.242045  0.738056  0.306522  1
  Na  Na7  1  0.688304  0.000000  0.500000  1
  Na  Na8  1  0.242045  0.261944  0.693478  1
  Na  Na9  1  0.242045  0.738056  0.693478  1
  Sc  Sc10  1  0.281535  0.000000  0.000000  1
  Sc  Sc11  1  0.718465  0.500000  0.500000  1
  O  O12  1  0.478079  0.000000  0.776996  1
  O  O13  1  0.085718  0.228662  0.000000  1
  O  O14  1  0.085718  0.771338  0.000000  1
  O  O15  1  0.478079  0.000000  0.223004  1
  O  O16  1  0.521921  0.500000  0.276996  1
  O  O17  1  0.914282  0.271338  0.500000  1
  O  O18  1  0.914282  0.728662  0.500000  1
  O  O19  1  0.521921  0.500000  0.723004  1
