# generated using pymatgen
data_Dy3YRu4F28
_symmetry_space_group_name_H-M   'P 1'
_cell_length_a   5.55327647
_cell_length_b   8.89996575
_cell_length_c   11.96703424
_cell_angle_alpha   63.66413171
_cell_angle_beta   90.01199764
_cell_angle_gamma   90.07930248
_symmetry_Int_Tables_number   1
_chemical_formula_structural   Dy3YRu4F28
_chemical_formula_sum   'Dy3 Y1 Ru4 F28'
_cell_volume   530.06966214
_cell_formula_units_Z   1
loop_
 _symmetry_equiv_pos_site_id
 _symmetry_equiv_pos_as_xyz
  1  'x, y, z'
loop_
 _atom_site_type_symbol
 _atom_site_label
 _atom_site_symmetry_multiplicity
 _atom_site_fract_x
 _atom_site_fract_y
 _atom_site_fract_z
 _atom_site_occupancy
  Dy  Dy0  1  0.258714  0.810730  0.268747  1
  Dy  Dy1  1  0.741166  0.189896  0.731108  1
  Dy  Dy2  1  0.758756  0.189497  0.231250  1
  Y  Y3  1  0.241114  0.810634  0.768690  1
  Ru  Ru4  1  0.755422  0.727353  0.044447  1
  Ru  Ru5  1  0.244670  0.272245  0.955997  1
  Ru  Ru6  1  0.255171  0.272922  0.455557  1
  Ru  Ru7  1  0.744922  0.727371  0.543939  1
  F  F8  1  0.947432  0.705600  0.417208  1
  F  F9  1  0.052249  0.294405  0.582445  1
  F  F10  1  0.447246  0.294194  0.082368  1
  F  F11  1  0.553881  0.705091  0.917904  1
  F  F12  1  0.467614  0.730303  0.140005  1
  F  F13  1  0.532236  0.269562  0.860307  1
  F  F14  1  0.968096  0.269877  0.360112  1
  F  F15  1  0.032416  0.729918  0.639183  1
  F  F16  1  0.955182  0.749334  0.172922  1
  F  F17  1  0.044499  0.250578  0.827544  1
  F  F18  1  0.455684  0.251048  0.327019  1
  F  F19  1  0.545406  0.748914  0.672861  1
  F  F20  1  0.768286  0.488528  0.139703  1
  F  F21  1  0.231198  0.510892  0.860686  1
  F  F22  1  0.268170  0.511712  0.360506  1
  F  F23  1  0.731520  0.488559  0.639150  1
  F  F24  1  0.950416  0.280814  0.046516  1
  F  F25  1  0.050005  0.718728  0.954366  1
  F  F26  1  0.450754  0.719098  0.453676  1
  F  F27  1  0.548986  0.281109  0.546194  1
  F  F28  1  0.745204  0.964841  0.452040  1
  F  F29  1  0.254952  0.035518  0.547176  1
  F  F30  1  0.245116  0.034828  0.048152  1
  F  F31  1  0.755145  0.964717  0.952236  1
  F  F32  1  0.578095  0.972569  0.232669  1
  F  F33  1  0.421681  0.028351  0.767493  1
  F  F34  1  0.077908  0.027730  0.267267  1
  F  F35  1  0.920690  0.972536  0.732558  1
