# generated using pymatgen
data_Tb2Ga2IrPd
_symmetry_space_group_name_H-M   'P 1'
_cell_length_a   4.44339300
_cell_length_b   6.91297484
_cell_length_c   7.69798830
_cell_angle_alpha   89.19644570
_cell_angle_beta   90.00000000
_cell_angle_gamma   90.00000000
_symmetry_Int_Tables_number   1
_chemical_formula_structural   Tb2Ga2IrPd
_chemical_formula_sum   'Tb4 Ga4 Ir2 Pd2'
_cell_volume   236.43634477
_cell_formula_units_Z   2
loop_
 _symmetry_equiv_pos_site_id
 _symmetry_equiv_pos_as_xyz
  1  'x, y, z'
loop_
 _atom_site_type_symbol
 _atom_site_label
 _atom_site_symmetry_multiplicity
 _atom_site_fract_x
 _atom_site_fract_y
 _atom_site_fract_z
 _atom_site_occupancy
  Tb  Tb0  1  0.250000  0.483936  0.191109  1
  Tb  Tb1  1  0.750000  0.516064  0.808891  1
  Tb  Tb2  1  0.250000  0.977916  0.300395  1
  Tb  Tb3  1  0.750000  0.022084  0.699605  1
  Ga  Ga4  1  0.250000  0.834662  0.925413  1
  Ga  Ga5  1  0.750000  0.165338  0.074587  1
  Ga  Ga6  1  0.250000  0.324509  0.575731  1
  Ga  Ga7  1  0.750000  0.675491  0.424269  1
  Ir  Ir8  1  0.750000  0.775272  0.099075  1
  Ir  Ir9  1  0.250000  0.224728  0.900925  1
  Pd  Pd10  1  0.750000  0.283701  0.400488  1
  Pd  Pd11  1  0.250000  0.716299  0.599512  1
