# generated using pymatgen
data_Ca6TbNp(Si3Pd)4
_symmetry_space_group_name_H-M   'P 1'
_cell_length_a   8.24649500
_cell_length_b   8.24649511
_cell_length_c   8.25312900
_cell_angle_alpha   90.00000000
_cell_angle_beta   90.00000000
_cell_angle_gamma   120.00000357
_symmetry_Int_Tables_number   1
_chemical_formula_structural   Ca6TbNp(Si3Pd)4
_chemical_formula_sum   'Ca6 Tb1 Np1 Si12 Pd4'
_cell_volume   486.05795483
_cell_formula_units_Z   1
loop_
 _symmetry_equiv_pos_site_id
 _symmetry_equiv_pos_as_xyz
  1  'x, y, z'
loop_
 _atom_site_type_symbol
 _atom_site_label
 _atom_site_symmetry_multiplicity
 _atom_site_fract_x
 _atom_site_fract_y
 _atom_site_fract_z
 _atom_site_occupancy
  Ca  Ca0  1  0.501348  0.002695  0.250000  1
  Ca  Ca1  1  0.498618  0.997239  0.750000  1
  Ca  Ca2  1  0.997305  0.498652  0.250000  1
  Ca  Ca3  1  0.002761  0.501382  0.750000  1
  Ca  Ca4  1  0.501348  0.498652  0.250000  1
  Ca  Ca5  1  0.498618  0.501382  0.750000  1
  Tb  Tb6  1  0.000000  0.000000  0.250000  1
  Np  Np7  1  0.000000  0.000000  0.750000  1
  Si  Si8  1  0.164190  0.328378  0.999660  1
  Si  Si9  1  0.835861  0.671725  0.995986  1
  Si  Si10  1  0.671622  0.835810  0.999660  1
  Si  Si11  1  0.835861  0.671725  0.504014  1
  Si  Si12  1  0.328275  0.164139  0.995986  1
  Si  Si13  1  0.164190  0.328378  0.500340  1
  Si  Si14  1  0.164190  0.835810  0.999660  1
  Si  Si15  1  0.328275  0.164139  0.504014  1
  Si  Si16  1  0.835861  0.164139  0.995986  1
  Si  Si17  1  0.671622  0.835810  0.500340  1
  Si  Si18  1  0.835861  0.164139  0.504014  1
  Si  Si19  1  0.164190  0.835810  0.500340  1
  Pd  Pd20  1  0.333333  0.666667  0.002007  1
  Pd  Pd21  1  0.666667  0.333333  0.997843  1
  Pd  Pd22  1  0.666667  0.333333  0.502157  1
  Pd  Pd23  1  0.333333  0.666667  0.497993  1
