# generated using pymatgen
data_ThPa7(ZnRh)8
_symmetry_space_group_name_H-M   'P 1'
_cell_length_a   3.84048300
_cell_length_b   7.38727275
_cell_length_c   16.35738050
_cell_angle_alpha   90.34689412
_cell_angle_beta   90.00000000
_cell_angle_gamma   90.00000000
_symmetry_Int_Tables_number   1
_chemical_formula_structural   ThPa7(ZnRh)8
_chemical_formula_sum   'Th1 Pa7 Zn8 Rh8'
_cell_volume   464.06175428
_cell_formula_units_Z   1
loop_
 _symmetry_equiv_pos_site_id
 _symmetry_equiv_pos_as_xyz
  1  'x, y, z'
loop_
 _atom_site_type_symbol
 _atom_site_label
 _atom_site_symmetry_multiplicity
 _atom_site_fract_x
 _atom_site_fract_y
 _atom_site_fract_z
 _atom_site_occupancy
  Th  Th0  1  0.250000  0.557842  0.785788  1
  Pa  Pa1  1  0.250000  0.166303  0.940953  1
  Pa  Pa2  1  0.250000  0.674865  0.559047  1
  Pa  Pa3  1  0.750000  0.333996  0.439150  1
  Pa  Pa4  1  0.750000  0.941069  0.284876  1
  Pa  Pa5  1  0.750000  0.828257  0.061932  1
  Pa  Pa6  1  0.750000  0.438970  0.215527  1
  Pa  Pa7  1  0.250000  0.058255  0.714475  1
  Zn  Zn8  1  0.750000  0.012307  0.558590  1
  Zn  Zn9  1  0.250000  0.612374  0.343986  1
  Zn  Zn10  1  0.750000  0.388508  0.654037  1
  Zn  Zn11  1  0.250000  0.491494  0.062673  1
  Zn  Zn12  1  0.750000  0.501360  0.941561  1
  Zn  Zn13  1  0.250000  0.997339  0.438149  1
  Zn  Zn14  1  0.250000  0.111412  0.156162  1
  Zn  Zn15  1  0.750000  0.883808  0.845549  1
  Rh  Rh16  1  0.750000  0.737532  0.440536  1
  Rh  Rh17  1  0.250000  0.241118  0.313681  1
  Rh  Rh18  1  0.750000  0.241476  0.814978  1
  Rh  Rh19  1  0.750000  0.771444  0.679988  1
  Rh  Rh20  1  0.250000  0.270413  0.556393  1
  Rh  Rh21  1  0.250000  0.741298  0.186807  1
  Rh  Rh22  1  0.750000  0.232669  0.058816  1
  Rh  Rh23  1  0.250000  0.765894  0.946346  1
