# generated using pymatgen
data_DyYNi2(B2Ir)2
_symmetry_space_group_name_H-M   'P 1'
_cell_length_a   5.08740978
_cell_length_b   5.08741024
_cell_length_c   7.24170900
_cell_angle_alpha   58.74326844
_cell_angle_beta   58.74326661
_cell_angle_gamma   62.47071533
_symmetry_Int_Tables_number   1
_chemical_formula_structural   DyYNi2(B2Ir)2
_chemical_formula_sum   'Dy1 Y1 Ni2 B4 Ir2'
_cell_volume   132.10508488
_cell_formula_units_Z   1
loop_
 _symmetry_equiv_pos_site_id
 _symmetry_equiv_pos_as_xyz
  1  'x, y, z'
loop_
 _atom_site_type_symbol
 _atom_site_label
 _atom_site_symmetry_multiplicity
 _atom_site_fract_x
 _atom_site_fract_y
 _atom_site_fract_z
 _atom_site_occupancy
  Dy  Dy0  1  0.876131  0.123869  0.750000  1
  Y  Y1  1  0.112111  0.887889  0.250000  1
  Ni  Ni2  1  0.530020  0.730358  0.792577  1
  Ni  Ni3  1  0.269642  0.469980  0.707423  1
  B  B4  1  0.165804  0.499018  0.006456  1
  B  B5  1  0.500982  0.834196  0.493544  1
  B  B6  1  0.842872  0.490202  0.970330  1
  B  B7  1  0.509798  0.157128  0.529670  1
  Ir  Ir8  1  0.463529  0.270891  0.197034  1
  Ir  Ir9  1  0.729109  0.536471  0.302966  1
