# generated using pymatgen
data_Sm8GaPd23Au
_symmetry_space_group_name_H-M   'P 1'
_cell_length_a   8.41655000
_cell_length_b   8.47109000
_cell_length_c   8.47219300
_cell_angle_alpha   90.00000000
_cell_angle_beta   90.00000000
_cell_angle_gamma   90.00000000
_symmetry_Int_Tables_number   1
_chemical_formula_structural   Sm8GaPd23Au
_chemical_formula_sum   'Sm8 Ga1 Pd23 Au1'
_cell_volume   604.04493110
_cell_formula_units_Z   1
loop_
 _symmetry_equiv_pos_site_id
 _symmetry_equiv_pos_as_xyz
  1  'x, y, z'
loop_
 _atom_site_type_symbol
 _atom_site_label
 _atom_site_symmetry_multiplicity
 _atom_site_fract_x
 _atom_site_fract_y
 _atom_site_fract_z
 _atom_site_occupancy
  Sm  Sm0  1  0.251930  0.248395  0.256386  1
  Sm  Sm1  1  0.747753  0.748071  0.747248  1
  Sm  Sm2  1  0.747753  0.748071  0.252752  1
  Sm  Sm3  1  0.747753  0.251929  0.747248  1
  Sm  Sm4  1  0.251930  0.248395  0.743614  1
  Sm  Sm5  1  0.251930  0.751605  0.256386  1
  Sm  Sm6  1  0.251930  0.751605  0.743614  1
  Sm  Sm7  1  0.747753  0.251929  0.252752  1
  Ga  Ga8  1  0.000397  0.000000  0.000000  1
  Pd  Pd9  1  0.739757  0.500000  0.000000  1
  Pd  Pd10  1  0.999856  0.260186  0.500000  1
  Pd  Pd11  1  0.499809  0.259235  0.000000  1
  Pd  Pd12  1  0.999856  0.739814  0.500000  1
  Pd  Pd13  1  0.499809  0.740765  0.000000  1
  Pd  Pd14  1  0.500250  0.000000  0.260250  1
  Pd  Pd15  1  0.260396  0.000000  0.500000  1
  Pd  Pd16  1  0.500250  0.000000  0.739750  1
  Pd  Pd17  1  0.739589  0.000000  0.500000  1
  Pd  Pd18  1  0.000233  0.500000  0.260956  1
  Pd  Pd19  1  0.000233  0.500000  0.739044  1
  Pd  Pd20  1  0.253009  0.500000  0.500000  1
  Pd  Pd21  1  0.746897  0.500000  0.500000  1
  Pd  Pd22  1  0.500172  0.253168  0.500000  1
  Pd  Pd23  1  0.500172  0.746832  0.500000  1
  Pd  Pd24  1  0.499807  0.500000  0.254204  1
  Pd  Pd25  1  0.499807  0.500000  0.745796  1
  Pd  Pd26  1  0.292419  0.000000  0.000000  1
  Pd  Pd27  1  0.707475  0.000000  0.000000  1
  Pd  Pd28  1  0.999971  0.291089  0.000000  1
  Pd  Pd29  1  0.999971  0.708911  0.000000  1
  Pd  Pd30  1  0.999535  0.000000  0.291942  1
  Pd  Pd31  1  0.999535  0.000000  0.708058  1
  Au  Au32  1  0.262064  0.500000  0.000000  1
