# generated using pymatgen
data_Sm5Si12Rh19
_symmetry_space_group_name_H-M   'P 1'
_cell_length_a   12.80708700
_cell_length_b   12.80708615
_cell_length_c   3.96894200
_cell_angle_alpha   90.00000000
_cell_angle_beta   90.00000000
_cell_angle_gamma   119.99999961
_symmetry_Int_Tables_number   1
_chemical_formula_structural   Sm5Si12Rh19
_chemical_formula_sum   'Sm5 Si12 Rh19'
_cell_volume   563.77534130
_cell_formula_units_Z   1
loop_
 _symmetry_equiv_pos_site_id
 _symmetry_equiv_pos_as_xyz
  1  'x, y, z'
loop_
 _atom_site_type_symbol
 _atom_site_label
 _atom_site_symmetry_multiplicity
 _atom_site_fract_x
 _atom_site_fract_y
 _atom_site_fract_z
 _atom_site_occupancy
  Sm  Sm0  1  0.000000  0.187131  0.500000  1
  Sm  Sm1  1  0.812869  0.812869  0.500000  1
  Sm  Sm2  1  0.187131  0.000000  0.500000  1
  Sm  Sm3  1  0.666667  0.333333  0.000000  1
  Sm  Sm4  1  0.333333  0.666667  0.000000  1
  Si  Si5  1  0.477209  0.313545  0.500000  1
  Si  Si6  1  0.816872  0.000000  0.000000  1
  Si  Si7  1  0.183128  0.183128  0.000000  1
  Si  Si8  1  0.000000  0.816872  0.000000  1
  Si  Si9  1  0.372801  0.000000  0.000000  1
  Si  Si10  1  0.686455  0.163664  0.500000  1
  Si  Si11  1  0.836336  0.522791  0.500000  1
  Si  Si12  1  0.522791  0.836336  0.500000  1
  Si  Si13  1  0.163664  0.686455  0.500000  1
  Si  Si14  1  0.313545  0.477209  0.500000  1
  Si  Si15  1  0.000000  0.372801  0.000000  1
  Si  Si16  1  0.627199  0.627199  0.000000  1
  Rh  Rh17  1  0.806550  0.182498  0.000000  1
  Rh  Rh18  1  0.375948  0.193450  0.000000  1
  Rh  Rh19  1  0.639619  0.513510  0.500000  1
  Rh  Rh20  1  0.873891  0.360381  0.500000  1
  Rh  Rh21  1  0.360381  0.873891  0.500000  1
  Rh  Rh22  1  0.513510  0.639619  0.500000  1
  Rh  Rh23  1  0.126109  0.486490  0.500000  1
  Rh  Rh24  1  0.817502  0.624052  0.000000  1
  Rh  Rh25  1  0.624052  0.817502  0.000000  1
  Rh  Rh26  1  0.182498  0.806550  0.000000  1
  Rh  Rh27  1  0.193450  0.375948  0.000000  1
  Rh  Rh28  1  0.000000  0.720063  0.500000  1
  Rh  Rh29  1  0.279937  0.279937  0.500000  1
  Rh  Rh30  1  0.720063  0.000000  0.500000  1
  Rh  Rh31  1  0.000000  0.555402  0.000000  1
  Rh  Rh32  1  0.444598  0.444598  0.000000  1
  Rh  Rh33  1  0.555402  0.000000  0.000000  1
  Rh  Rh34  1  0.000000  0.000000  0.000000  1
  Rh  Rh35  1  0.486490  0.126109  0.500000  1
