# generated using pymatgen
data_NdNp3Ga12Pt
_symmetry_space_group_name_H-M   'P 1'
_cell_length_a   7.54682705
_cell_length_b   7.55968275
_cell_length_c   7.54682737
_cell_angle_alpha   109.50573235
_cell_angle_beta   109.43668877
_cell_angle_gamma   109.50573609
_symmetry_Int_Tables_number   1
_chemical_formula_structural   NdNp3Ga12Pt
_chemical_formula_sum   'Nd1 Np3 Ga12 Pt1'
_cell_volume   331.30295550
_cell_formula_units_Z   1
loop_
 _symmetry_equiv_pos_site_id
 _symmetry_equiv_pos_as_xyz
  1  'x, y, z'
loop_
 _atom_site_type_symbol
 _atom_site_label
 _atom_site_symmetry_multiplicity
 _atom_site_fract_x
 _atom_site_fract_y
 _atom_site_fract_z
 _atom_site_occupancy
  Nd  Nd0  1  0.000000  0.500000  0.000000  1
  Np  Np1  1  0.500000  0.500000  0.500000  1
  Np  Np2  1  0.000000  0.000000  0.500000  1
  Np  Np3  1  0.500000  0.000000  0.000000  1
  Ga  Ga4  1  0.000000  0.293212  0.297228  1
  Ga  Ga5  1  0.000000  0.706788  0.702772  1
  Ga  Ga6  1  0.297228  0.004016  0.297228  1
  Ga  Ga7  1  0.702772  0.995984  0.702772  1
  Ga  Ga8  1  0.297228  0.293212  0.000000  1
  Ga  Ga9  1  0.702772  0.706788  0.000000  1
  Ga  Ga10  1  0.503811  0.751906  0.251906  1
  Ga  Ga11  1  0.496189  0.248094  0.748094  1
  Ga  Ga12  1  0.251906  0.500000  0.748094  1
  Ga  Ga13  1  0.748094  0.500000  0.251906  1
  Ga  Ga14  1  0.748094  0.248094  0.496189  1
  Ga  Ga15  1  0.251906  0.751906  0.503811  1
  Pt  Pt16  1  0.000000  0.000000  0.000000  1
