# generated using pymatgen
data_Nd6Pd6RhAu
_symmetry_space_group_name_H-M   'P 1'
_cell_length_a   8.13514181
_cell_length_b   8.14392296
_cell_length_c   8.16514306
_cell_angle_alpha   114.48265278
_cell_angle_beta   114.48787678
_cell_angle_gamma   114.04398978
_symmetry_Int_Tables_number   1
_chemical_formula_structural   Nd6Pd6RhAu
_chemical_formula_sum   'Nd6 Pd6 Rh1 Au1'
_cell_volume   320.24688826
_cell_formula_units_Z   1
loop_
 _symmetry_equiv_pos_site_id
 _symmetry_equiv_pos_as_xyz
  1  'x, y, z'
loop_
 _atom_site_type_symbol
 _atom_site_label
 _atom_site_symmetry_multiplicity
 _atom_site_fract_x
 _atom_site_fract_y
 _atom_site_fract_z
 _atom_site_occupancy
  Nd  Nd0  1  0.975919  0.600185  0.728376  1
  Nd  Nd1  1  0.724400  0.981023  0.607163  1
  Nd  Nd2  1  0.600798  0.721862  0.972550  1
  Nd  Nd3  1  0.026437  0.396166  0.274946  1
  Nd  Nd4  1  0.278856  0.031080  0.392999  1
  Nd  Nd5  1  0.390041  0.269411  0.023862  1
  Pd  Pd6  1  0.502325  0.504478  0.502151  1
  Pd  Pd7  1  0.443684  0.939197  0.776053  1
  Pd  Pd8  1  0.773400  0.439229  0.935746  1
  Pd  Pd9  1  0.059323  0.224646  0.556722  1
  Pd  Pd10  1  0.560359  0.062246  0.226614  1
  Pd  Pd11  1  0.229290  0.559556  0.065599  1
  Rh  Rh12  1  0.994663  0.996179  0.995574  1
  Au  Au13  1  0.940505  0.774742  0.441645  1
