# generated using pymatgen
data_Dy7Y2HoBi6
_symmetry_space_group_name_H-M   'P 1'
_cell_length_a   8.26565300
_cell_length_b   9.53318200
_cell_length_c   12.07679000
_cell_angle_alpha   90.00000000
_cell_angle_beta   90.00000000
_cell_angle_gamma   90.00000000
_symmetry_Int_Tables_number   1
_chemical_formula_structural   Dy7Y2HoBi6
_chemical_formula_sum   'Dy14 Y4 Ho2 Bi12'
_cell_volume   951.62658923
_cell_formula_units_Z   2
loop_
 _symmetry_equiv_pos_site_id
 _symmetry_equiv_pos_as_xyz
  1  'x, y, z'
loop_
 _atom_site_type_symbol
 _atom_site_label
 _atom_site_symmetry_multiplicity
 _atom_site_fract_x
 _atom_site_fract_y
 _atom_site_fract_z
 _atom_site_occupancy
  Dy  Dy0  1  0.973842  0.250000  0.011498  1
  Dy  Dy1  1  0.473842  0.250000  0.488502  1
  Dy  Dy2  1  0.186302  0.750000  0.718990  1
  Dy  Dy3  1  0.686302  0.750000  0.781010  1
  Dy  Dy4  1  0.813715  0.250000  0.280965  1
  Dy  Dy5  1  0.313715  0.250000  0.219035  1
  Dy  Dy6  1  0.306284  0.436942  0.940356  1
  Dy  Dy7  1  0.806284  0.063058  0.559644  1
  Dy  Dy8  1  0.693740  0.936892  0.059666  1
  Dy  Dy9  1  0.193740  0.563108  0.440334  1
  Dy  Dy10  1  0.693740  0.563108  0.059666  1
  Dy  Dy11  1  0.193740  0.936892  0.440334  1
  Dy  Dy12  1  0.306284  0.063058  0.940356  1
  Dy  Dy13  1  0.806284  0.436942  0.559644  1
  Y  Y14  1  0.353964  0.750000  0.215282  1
  Y  Y15  1  0.853964  0.750000  0.284718  1
  Y  Y16  1  0.646021  0.250000  0.784801  1
  Y  Y17  1  0.146021  0.250000  0.715199  1
  Ho  Ho18  1  0.026178  0.750000  0.988568  1
  Ho  Ho19  1  0.526178  0.750000  0.511432  1
  Bi  Bi20  1  0.433516  0.003507  0.673755  1
  Bi  Bi21  1  0.933516  0.496493  0.826245  1
  Bi  Bi22  1  0.566582  0.503793  0.326236  1
  Bi  Bi23  1  0.066582  0.996207  0.173764  1
  Bi  Bi24  1  0.566582  0.996207  0.326236  1
  Bi  Bi25  1  0.066582  0.503793  0.173764  1
  Bi  Bi26  1  0.433516  0.496493  0.673755  1
  Bi  Bi27  1  0.933516  0.003507  0.826245  1
  Bi  Bi28  1  0.409206  0.750000  0.957862  1
  Bi  Bi29  1  0.909206  0.750000  0.542138  1
  Bi  Bi30  1  0.590528  0.250000  0.042146  1
  Bi  Bi31  1  0.090528  0.250000  0.457854  1
