# generated using pymatgen
data_Lu2(ThIr)3
_symmetry_space_group_name_H-M   'P 1'
_cell_length_a   6.38954100
_cell_length_b   8.35643740
_cell_length_c   8.35590610
_cell_angle_alpha   120.00241445
_cell_angle_beta   90.00000000
_cell_angle_gamma   90.00000000
_symmetry_Int_Tables_number   1
_chemical_formula_structural   Lu2(ThIr)3
_chemical_formula_sum   'Lu4 Th6 Ir6'
_cell_volume   386.37092840
_cell_formula_units_Z   2
loop_
 _symmetry_equiv_pos_site_id
 _symmetry_equiv_pos_as_xyz
  1  'x, y, z'
loop_
 _atom_site_type_symbol
 _atom_site_label
 _atom_site_symmetry_multiplicity
 _atom_site_fract_x
 _atom_site_fract_y
 _atom_site_fract_z
 _atom_site_occupancy
  Lu  Lu0  1  0.500037  0.333344  0.666698  1
  Lu  Lu1  1  0.500037  0.666640  0.333304  1
  Lu  Lu2  1  0.000037  0.666656  0.333302  1
  Lu  Lu3  1  0.000037  0.333360  0.666696  1
  Th  Th4  1  0.749990  0.257724  0.999999  1
  Th  Th5  1  0.749997  0.742267  0.742268  1
  Th  Th6  1  0.749998  0.000000  0.257734  1
  Th  Th7  1  0.249990  0.742276  0.000001  1
  Th  Th8  1  0.249997  0.257733  0.257732  1
  Th  Th9  1  0.249998  0.000000  0.742266  1
  Ir  Ir10  1  0.749983  0.613368  0.000002  1
  Ir  Ir11  1  0.749978  0.386675  0.386650  1
  Ir  Ir12  1  0.749980  0.000028  0.613336  1
  Ir  Ir13  1  0.249983  0.386632  0.999998  1
  Ir  Ir14  1  0.249979  0.613325  0.613350  1
  Ir  Ir15  1  0.249981  0.999972  0.386664  1
