# generated using pymatgen
data_Dy14Y2MgHg3Ir4
_symmetry_space_group_name_H-M   'P 1'
_cell_length_a   9.63902152
_cell_length_b   9.63542408
_cell_length_c   9.63263600
_cell_angle_alpha   60.00957140
_cell_angle_beta   60.02191176
_cell_angle_gamma   60.00568572
_symmetry_Int_Tables_number   1
_chemical_formula_structural   Dy14Y2MgHg3Ir4
_chemical_formula_sum   'Dy14 Y2 Mg1 Hg3 Ir4'
_cell_volume   632.78457563
_cell_formula_units_Z   1
loop_
 _symmetry_equiv_pos_site_id
 _symmetry_equiv_pos_as_xyz
  1  'x, y, z'
loop_
 _atom_site_type_symbol
 _atom_site_label
 _atom_site_symmetry_multiplicity
 _atom_site_fract_x
 _atom_site_fract_y
 _atom_site_fract_z
 _atom_site_occupancy
  Dy  Dy0  1  0.599935  0.597865  0.598208  1
  Dy  Dy1  1  0.599935  0.597865  0.203991  1
  Dy  Dy2  1  0.600242  0.203936  0.597911  1
  Dy  Dy3  1  0.193918  0.602271  0.601905  1
  Dy  Dy4  1  0.058282  0.441226  0.441206  1
  Dy  Dy5  1  0.437606  0.061715  0.061659  1
  Dy  Dy6  1  0.437606  0.061715  0.439020  1
  Dy  Dy7  1  0.058282  0.441226  0.059285  1
  Dy  Dy8  1  0.437572  0.439096  0.061666  1
  Dy  Dy9  1  0.058263  0.059289  0.441224  1
  Dy  Dy10  1  0.186913  0.811639  0.811637  1
  Dy  Dy11  1  0.810787  0.188498  0.188442  1
  Dy  Dy12  1  0.810787  0.188498  0.812272  1
  Dy  Dy13  1  0.186913  0.811639  0.189811  1
  Y  Y14  1  0.811265  0.812815  0.187960  1
  Y  Y15  1  0.186692  0.188919  0.812195  1
  Mg  Mg16  1  0.534719  0.821742  0.821770  1
  Hg  Hg17  1  0.832054  0.836983  0.836798  1
  Hg  Hg18  1  0.832054  0.836983  0.494166  1
  Hg  Hg19  1  0.831950  0.494075  0.836988  1
  Ir  Ir20  1  0.389799  0.393040  0.392750  1
  Ir  Ir21  1  0.389799  0.393040  0.824410  1
  Ir  Ir22  1  0.389591  0.824392  0.393008  1
  Ir  Ir23  1  0.825033  0.391533  0.391717  1
