# generated using pymatgen
data_Y16MgCd2AgIr4
_symmetry_space_group_name_H-M   'P 1'
_cell_length_a   9.68958221
_cell_length_b   9.68958186
_cell_length_c   9.70597171
_cell_angle_alpha   59.84024211
_cell_angle_beta   59.84024622
_cell_angle_gamma   59.71044109
_symmetry_Int_Tables_number   1
_chemical_formula_structural   Y16MgCd2AgIr4
_chemical_formula_sum   'Y16 Mg1 Cd2 Ag1 Ir4'
_cell_volume   641.39618552
_cell_formula_units_Z   1
loop_
 _symmetry_equiv_pos_site_id
 _symmetry_equiv_pos_as_xyz
  1  'x, y, z'
loop_
 _atom_site_type_symbol
 _atom_site_label
 _atom_site_symmetry_multiplicity
 _atom_site_fract_x
 _atom_site_fract_y
 _atom_site_fract_z
 _atom_site_occupancy
  Y  Y0  1  0.348163  0.348163  0.348798  1
  Y  Y1  1  0.350181  0.350181  0.951755  1
  Y  Y2  1  0.348388  0.956819  0.349316  1
  Y  Y3  1  0.956819  0.348388  0.349316  1
  Y  Y4  1  0.810700  0.188905  0.189000  1
  Y  Y5  1  0.187885  0.809035  0.808446  1
  Y  Y6  1  0.188905  0.810700  0.189000  1
  Y  Y7  1  0.809035  0.187885  0.808446  1
  Y  Y8  1  0.190348  0.190348  0.809165  1
  Y  Y9  1  0.810969  0.810969  0.185460  1
  Y  Y10  1  0.937247  0.561042  0.560921  1
  Y  Y11  1  0.561344  0.938140  0.935226  1
  Y  Y12  1  0.561042  0.937247  0.560921  1
  Y  Y13  1  0.938140  0.561344  0.935226  1
  Y  Y14  1  0.561039  0.561039  0.936061  1
  Y  Y15  1  0.936356  0.936356  0.561767  1
  Mg  Mg16  1  0.576042  0.576042  0.275018  1
  Cd  Cd17  1  0.582055  0.256196  0.582116  1
  Cd  Cd18  1  0.256196  0.582055  0.582116  1
  Ag  Ag19  1  0.583504  0.583504  0.581281  1
  Ir  Ir20  1  0.142205  0.142205  0.140471  1
  Ir  Ir21  1  0.143083  0.143083  0.577031  1
  Ir  Ir22  1  0.143966  0.576389  0.141573  1
  Ir  Ir23  1  0.576389  0.143966  0.141573  1
