# generated using pymatgen
data_Tb3Lu2Tl2InBr
_symmetry_space_group_name_H-M   'P 1'
_cell_length_a   9.15472854
_cell_length_b   9.15472828
_cell_length_c   6.71190600
_cell_angle_alpha   90.00000000
_cell_angle_beta   90.00000000
_cell_angle_gamma   119.93803604
_symmetry_Int_Tables_number   1
_chemical_formula_structural   Tb3Lu2Tl2InBr
_chemical_formula_sum   'Tb6 Lu4 Tl4 In2 Br2'
_cell_volume   487.45918475
_cell_formula_units_Z   2
loop_
 _symmetry_equiv_pos_site_id
 _symmetry_equiv_pos_as_xyz
  1  'x, y, z'
loop_
 _atom_site_type_symbol
 _atom_site_label
 _atom_site_symmetry_multiplicity
 _atom_site_fract_x
 _atom_site_fract_y
 _atom_site_fract_z
 _atom_site_occupancy
  Tb  Tb0  1  0.733805  0.733805  0.250000  1
  Tb  Tb1  1  0.999520  0.733510  0.750000  1
  Tb  Tb2  1  0.733510  0.999520  0.750000  1
  Tb  Tb3  1  0.266195  0.266195  0.750000  1
  Tb  Tb4  1  0.000480  0.266490  0.250000  1
  Tb  Tb5  1  0.266490  0.000480  0.250000  1
  Lu  Lu6  1  0.334108  0.665892  0.500000  1
  Lu  Lu7  1  0.665892  0.334108  0.500000  1
  Lu  Lu8  1  0.334108  0.665892  0.000000  1
  Lu  Lu9  1  0.665892  0.334108  0.000000  1
  Tl  Tl10  1  0.394609  0.999893  0.750000  1
  Tl  Tl11  1  0.000107  0.605391  0.250000  1
  Tl  Tl12  1  0.605391  0.000107  0.250000  1
  Tl  Tl13  1  0.999893  0.394609  0.750000  1
  In  In14  1  0.394271  0.394271  0.250000  1
  In  In15  1  0.605729  0.605729  0.750000  1
  Br  Br16  1  0.000000  0.000000  0.500000  1
  Br  Br17  1  0.000000  0.000000  0.000000  1
