# generated using pymatgen
data_Dy4B16IrRh3
_symmetry_space_group_name_H-M   'P 1'
_cell_length_a   3.57414300
_cell_length_b   5.97186120
_cell_length_c   11.57907740
_cell_angle_alpha   89.97000608
_cell_angle_beta   90.00000000
_cell_angle_gamma   90.00000000
_symmetry_Int_Tables_number   1
_chemical_formula_structural   Dy4B16IrRh3
_chemical_formula_sum   'Dy4 B16 Ir1 Rh3'
_cell_volume   247.14710479
_cell_formula_units_Z   1
loop_
 _symmetry_equiv_pos_site_id
 _symmetry_equiv_pos_as_xyz
  1  'x, y, z'
loop_
 _atom_site_type_symbol
 _atom_site_label
 _atom_site_symmetry_multiplicity
 _atom_site_fract_x
 _atom_site_fract_y
 _atom_site_fract_z
 _atom_site_occupancy
  Dy  Dy0  1  0.500000  0.370085  0.148179  1
  Dy  Dy1  1  0.500000  0.630022  0.851409  1
  Dy  Dy2  1  0.500000  0.130030  0.649118  1
  Dy  Dy3  1  0.500000  0.869957  0.351017  1
  B  B4  1  0.000000  0.112550  0.046573  1
  B  B5  1  0.000000  0.887411  0.953374  1
  B  B6  1  0.000000  0.387406  0.546490  1
  B  B7  1  0.000000  0.612405  0.453123  1
  B  B8  1  0.000000  0.135978  0.469366  1
  B  B9  1  0.000000  0.863748  0.530723  1
  B  B10  1  0.000000  0.363892  0.969276  1
  B  B11  1  0.000000  0.635997  0.030568  1
  B  B12  1  0.000000  0.023725  0.192663  1
  B  B13  1  0.000000  0.975614  0.807137  1
  B  B14  1  0.000000  0.474645  0.692671  1
  B  B15  1  0.000000  0.525248  0.307313  1
  B  B16  1  0.000000  0.210862  0.312354  1
  B  B17  1  0.000000  0.789069  0.687549  1
  B  B18  1  0.000000  0.288316  0.812587  1
  B  B19  1  0.000000  0.711875  0.187359  1
  Ir  Ir20  1  0.500000  0.358568  0.405095  1
  Rh  Rh21  1  0.500000  0.642813  0.595521  1
  Rh  Rh22  1  0.500000  0.140598  0.905518  1
  Rh  Rh23  1  0.500000  0.859184  0.095015  1
