# generated using pymatgen
data_Ca2H3ClO3
_symmetry_space_group_name_H-M   'P 1'
_cell_length_a   6.45069472
_cell_length_b   5.73156736
_cell_length_c   7.40352700
_cell_angle_alpha   90.00000000
_cell_angle_beta   90.00000000
_cell_angle_gamma   89.40318618
_symmetry_Int_Tables_number   1
_chemical_formula_structural   Ca2H3ClO3
_chemical_formula_sum   'Ca4 H6 Cl2 O6'
_cell_volume   273.71272858
_cell_formula_units_Z   2
loop_
 _symmetry_equiv_pos_site_id
 _symmetry_equiv_pos_as_xyz
  1  'x, y, z'
loop_
 _atom_site_type_symbol
 _atom_site_label
 _atom_site_symmetry_multiplicity
 _atom_site_fract_x
 _atom_site_fract_y
 _atom_site_fract_z
 _atom_site_occupancy
  Ca  Ca0  1  0.499999  0.500000  0.000000  1
  Ca  Ca1  1  0.977630  0.494147  0.250000  1
  Ca  Ca2  1  0.499999  0.500000  0.500000  1
  Ca  Ca3  1  0.022369  0.505853  0.750000  1
  H  H4  1  0.186021  0.842150  0.039394  1
  H  H5  1  0.619297  0.846298  0.250000  1
  H  H6  1  0.186021  0.842150  0.460608  1
  H  H7  1  0.813979  0.157851  0.539394  1
  H  H8  1  0.380703  0.153701  0.750000  1
  H  H9  1  0.813979  0.157851  0.960607  1
  Cl  Cl10  1  0.334643  0.175402  0.250000  1
  Cl  Cl11  1  0.665357  0.824599  0.750000  1
  O  O12  1  0.169856  0.676691  0.013201  1
  O  O13  1  0.652399  0.679819  0.250000  1
  O  O14  1  0.169856  0.676691  0.486799  1
  O  O15  1  0.830144  0.323308  0.513200  1
  O  O16  1  0.347603  0.320181  0.750000  1
  O  O17  1  0.830144  0.323308  0.986799  1
