# generated using pymatgen
data_CeY4P12Ru19
_symmetry_space_group_name_H-M   'P 1'
_cell_length_a   12.57169711
_cell_length_b   12.55009006
_cell_length_c   3.98281200
_cell_angle_alpha   90.00000000
_cell_angle_beta   90.00000000
_cell_angle_gamma   119.94315674
_symmetry_Int_Tables_number   1
_chemical_formula_structural   CeY4P12Ru19
_chemical_formula_sum   'Ce1 Y4 P12 Ru19'
_cell_volume   544.51477077
_cell_formula_units_Z   1
loop_
 _symmetry_equiv_pos_site_id
 _symmetry_equiv_pos_as_xyz
  1  'x, y, z'
loop_
 _atom_site_type_symbol
 _atom_site_label
 _atom_site_symmetry_multiplicity
 _atom_site_fract_x
 _atom_site_fract_y
 _atom_site_fract_z
 _atom_site_occupancy
  Ce  Ce0  1  0.000000  0.181692  0.500000  1
  Y  Y1  1  0.814832  0.814562  0.500000  1
  Y  Y2  1  0.185168  0.999730  0.500000  1
  Y  Y3  1  0.667364  0.334086  0.000000  1
  Y  Y4  1  0.332636  0.666723  0.000000  1
  P  P5  1  0.000000  0.815318  0.000000  1
  P  P6  1  0.187447  0.184512  0.000000  1
  P  P7  1  0.812553  0.997066  0.000000  1
  P  P8  1  0.693843  0.171762  0.500000  1
  P  P9  1  0.828439  0.523001  0.500000  1
  P  P10  1  0.478815  0.306576  0.500000  1
  P  P11  1  0.171561  0.694561  0.500000  1
  P  P12  1  0.521185  0.827761  0.500000  1
  P  P13  1  0.306157  0.477919  0.500000  1
  P  P14  1  0.000000  0.374594  0.000000  1
  P  P15  1  0.626421  0.626290  0.000000  1
  P  P16  1  0.373579  0.999869  0.000000  1
  Ru  Ru17  1  0.000000  0.555442  0.000000  1
  Ru  Ru18  1  0.444413  0.445259  0.000000  1
  Ru  Ru19  1  0.555587  0.000846  0.000000  1
  Ru  Ru20  1  0.000000  0.717568  0.500000  1
  Ru  Ru21  1  0.284581  0.284105  0.500000  1
  Ru  Ru22  1  0.715419  0.999524  0.500000  1
  Ru  Ru23  1  0.808295  0.184115  0.000000  1
  Ru  Ru24  1  0.814965  0.622544  0.000000  1
  Ru  Ru25  1  0.378575  0.192980  0.000000  1
  Ru  Ru26  1  0.185035  0.807578  0.000000  1
  Ru  Ru27  1  0.621425  0.814403  0.000000  1
  Ru  Ru28  1  0.191705  0.375818  0.000000  1
  Ru  Ru29  1  0.874049  0.366426  0.500000  1
  Ru  Ru30  1  0.633645  0.508594  0.500000  1
  Ru  Ru31  1  0.492342  0.126307  0.500000  1
  Ru  Ru32  1  0.366355  0.874949  0.500000  1
  Ru  Ru33  1  0.507658  0.633965  0.500000  1
  Ru  Ru34  1  0.125951  0.492376  0.500000  1
  Ru  Ru35  1  0.000000  0.001180  0.000000  1
