# generated using pymatgen
data_LiTb5Si24IrOs7
_symmetry_space_group_name_H-M   'P 1'
_cell_length_a   10.11527493
_cell_length_b   10.11527550
_cell_length_c   8.16218775
_cell_angle_alpha   89.92059829
_cell_angle_beta   89.92059093
_cell_angle_gamma   132.41236734
_symmetry_Int_Tables_number   1
_chemical_formula_structural   LiTb5Si24IrOs7
_chemical_formula_sum   'Li1 Tb5 Si24 Ir1 Os7'
_cell_volume   616.59222387
_cell_formula_units_Z   1
loop_
 _symmetry_equiv_pos_site_id
 _symmetry_equiv_pos_as_xyz
  1  'x, y, z'
loop_
 _atom_site_type_symbol
 _atom_site_label
 _atom_site_symmetry_multiplicity
 _atom_site_fract_x
 _atom_site_fract_y
 _atom_site_fract_z
 _atom_site_occupancy
  Li  Li0  1  0.499369  0.499369  0.498137  1
  Tb  Tb1  1  0.001626  0.001626  0.001841  1
  Tb  Tb2  1  0.501440  0.000548  0.748731  1
  Tb  Tb3  1  0.998506  0.498418  0.251776  1
  Tb  Tb4  1  0.498418  0.998506  0.251776  1
  Tb  Tb5  1  0.000548  0.501440  0.748731  1
  Si  Si6  1  0.797487  0.202402  0.500126  1
  Si  Si7  1  0.296848  0.702840  0.000401  1
  Si  Si8  1  0.202402  0.797487  0.500126  1
  Si  Si9  1  0.702840  0.296848  0.000401  1
  Si  Si10  1  0.336076  0.336076  0.826109  1
  Si  Si11  1  0.664187  0.664187  0.173312  1
  Si  Si12  1  0.174563  0.174563  0.336144  1
  Si  Si13  1  0.828525  0.828525  0.661443  1
  Si  Si14  1  0.122373  0.888514  0.728177  1
  Si  Si15  1  0.111986  0.877207  0.271742  1
  Si  Si16  1  0.606908  0.377017  0.234265  1
  Si  Si17  1  0.619219  0.388360  0.765918  1
  Si  Si18  1  0.877207  0.111986  0.271742  1
  Si  Si19  1  0.888514  0.122373  0.728177  1
  Si  Si20  1  0.388360  0.619219  0.765918  1
  Si  Si21  1  0.377017  0.606908  0.234265  1
  Si  Si22  1  0.349004  0.120398  0.505315  1
  Si  Si23  1  0.878881  0.651026  0.494647  1
  Si  Si24  1  0.389234  0.154906  0.006797  1
  Si  Si25  1  0.845835  0.610732  0.996979  1
  Si  Si26  1  0.651026  0.878881  0.494647  1
  Si  Si27  1  0.120398  0.349004  0.505315  1
  Si  Si28  1  0.610732  0.845835  0.996979  1
  Si  Si29  1  0.154906  0.389234  0.006797  1
  Ir  Ir30  1  0.630501  0.630501  0.874310  1
  Os  Os31  1  0.671318  0.329265  0.499898  1
  Os  Os32  1  0.170621  0.829873  0.999347  1
  Os  Os33  1  0.329265  0.671318  0.499898  1
  Os  Os34  1  0.829873  0.170621  0.999347  1
  Os  Os35  1  0.124141  0.124141  0.628941  1
  Os  Os36  1  0.877329  0.877329  0.369084  1
  Os  Os37  1  0.372516  0.372516  0.122440  1
