# generated using pymatgen
data_Tb3Nd4YAu4
_symmetry_space_group_name_H-M   'P 1'
_cell_length_a   5.03685000
_cell_length_b   7.29129257
_cell_length_c   9.09420073
_cell_angle_alpha   89.60117414
_cell_angle_beta   90.00000000
_cell_angle_gamma   90.00000000
_symmetry_Int_Tables_number   1
_chemical_formula_structural   Tb3Nd4YAu4
_chemical_formula_sum   'Tb3 Nd4 Y1 Au4'
_cell_volume   333.97776729
_cell_formula_units_Z   1
loop_
 _symmetry_equiv_pos_site_id
 _symmetry_equiv_pos_as_xyz
  1  'x, y, z'
loop_
 _atom_site_type_symbol
 _atom_site_label
 _atom_site_symmetry_multiplicity
 _atom_site_fract_x
 _atom_site_fract_y
 _atom_site_fract_z
 _atom_site_occupancy
  Tb  Tb0  1  0.250000  0.850291  0.917764  1
  Tb  Tb1  1  0.250000  0.349638  0.582051  1
  Tb  Tb2  1  0.750000  0.150835  0.084201  1
  Nd  Nd3  1  0.250000  0.490188  0.176534  1
  Nd  Nd4  1  0.250000  0.990025  0.324118  1
  Nd  Nd5  1  0.750000  0.510013  0.820484  1
  Nd  Nd6  1  0.750000  0.008478  0.678240  1
  Y  Y7  1  0.750000  0.650632  0.416229  1
  Au  Au8  1  0.250000  0.248647  0.903432  1
  Au  Au9  1  0.250000  0.747336  0.598186  1
  Au  Au10  1  0.750000  0.751974  0.095791  1
  Au  Au11  1  0.750000  0.251943  0.402971  1
