# generated using pymatgen
data_Dy6PuO11F
_symmetry_space_group_name_H-M   'P 1'
_cell_length_a   6.58775654
_cell_length_b   6.57754420
_cell_length_c   6.60179800
_cell_angle_alpha   99.35501076
_cell_angle_beta   99.34044918
_cell_angle_gamma   99.19741893
_symmetry_Int_Tables_number   1
_chemical_formula_structural   Dy6PuO11F
_chemical_formula_sum   'Dy6 Pu1 O11 F1'
_cell_volume   273.37537207
_cell_formula_units_Z   1
loop_
 _symmetry_equiv_pos_site_id
 _symmetry_equiv_pos_as_xyz
  1  'x, y, z'
loop_
 _atom_site_type_symbol
 _atom_site_label
 _atom_site_symmetry_multiplicity
 _atom_site_fract_x
 _atom_site_fract_y
 _atom_site_fract_z
 _atom_site_occupancy
  Dy  Dy0  1  0.316181  0.609707  0.148521  1
  Dy  Dy1  1  0.617964  0.135914  0.290394  1
  Dy  Dy2  1  0.391982  0.842564  0.691735  1
  Dy  Dy3  1  0.696547  0.400074  0.869209  1
  Dy  Dy4  1  0.855953  0.686629  0.393918  1
  Dy  Dy5  1  0.126409  0.317101  0.610010  1
  Pu  Pu6  1  0.003369  0.001892  0.997957  1
  O  O7  1  0.922567  0.689931  0.053577  1
  O  O8  1  0.174986  0.582947  0.432020  1
  O  O9  1  0.814249  0.407905  0.569923  1
  O  O10  1  0.571351  0.830835  0.422294  1
  O  O11  1  0.587095  0.434122  0.181495  1
  O  O12  1  0.412939  0.558692  0.818394  1
  O  O13  1  0.953610  0.078827  0.309056  1
  O  O14  1  0.060682  0.929934  0.687157  1
  O  O15  1  0.681793  0.060204  0.926171  1
  O  O16  1  0.072124  0.315076  0.949209  1
  O  O17  1  0.317591  0.941527  0.074657  1
  F  F18  1  0.422606  0.176119  0.574305  1
