# generated using pymatgen
data_TbLu2(CuSi)4
_symmetry_space_group_name_H-M   'P 1'
_cell_length_a   4.09435316
_cell_length_b   6.54914854
_cell_length_c   7.77362573
_cell_angle_alpha   114.91300536
_cell_angle_beta   105.26887810
_cell_angle_gamma   89.99999864
_symmetry_Int_Tables_number   1
_chemical_formula_structural   TbLu2(CuSi)4
_chemical_formula_sum   'Tb1 Lu2 Cu4 Si4'
_cell_volume   180.90463913
_cell_formula_units_Z   1
loop_
 _symmetry_equiv_pos_site_id
 _symmetry_equiv_pos_as_xyz
  1  'x, y, z'
loop_
 _atom_site_type_symbol
 _atom_site_label
 _atom_site_symmetry_multiplicity
 _atom_site_fract_x
 _atom_site_fract_y
 _atom_site_fract_z
 _atom_site_occupancy
  Tb  Tb0  1  0.000000  0.500000  0.000000  1
  Lu  Lu1  1  0.872343  0.872343  0.744686  1
  Lu  Lu2  1  0.127657  0.127657  0.255314  1
  Cu  Cu3  1  0.670410  0.863706  0.340820  1
  Cu  Cu4  1  0.670410  0.477114  0.340820  1
  Cu  Cu5  1  0.329590  0.522886  0.659180  1
  Cu  Cu6  1  0.329590  0.136294  0.659180  1
  Si  Si7  1  0.782495  0.282495  0.564992  1
  Si  Si8  1  0.217505  0.717505  0.435008  1
  Si  Si9  1  0.500000  0.183507  0.000000  1
  Si  Si10  1  0.500000  0.816493  0.000000  1
