# generated using pymatgen
data_Pr4Y5LuSb8
_symmetry_space_group_name_H-M   'P 1'
_cell_length_a   8.08699400
_cell_length_b   8.31570900
_cell_length_c   15.68152700
_cell_angle_alpha   90.00000000
_cell_angle_beta   90.00000000
_cell_angle_gamma   90.00000000
_symmetry_Int_Tables_number   1
_chemical_formula_structural   Pr4Y5LuSb8
_chemical_formula_sum   'Pr8 Y10 Lu2 Sb16'
_cell_volume   1054.56840157
_cell_formula_units_Z   2
loop_
 _symmetry_equiv_pos_site_id
 _symmetry_equiv_pos_as_xyz
  1  'x, y, z'
loop_
 _atom_site_type_symbol
 _atom_site_label
 _atom_site_symmetry_multiplicity
 _atom_site_fract_x
 _atom_site_fract_y
 _atom_site_fract_z
 _atom_site_occupancy
  Pr  Pr0  1  0.515977  0.318972  0.907155  1
  Pr  Pr1  1  0.015977  0.181028  0.592845  1
  Pr  Pr2  1  0.483489  0.679981  0.406456  1
  Pr  Pr3  1  0.983489  0.820019  0.093544  1
  Pr  Pr4  1  0.483489  0.679981  0.093544  1
  Pr  Pr5  1  0.983489  0.820019  0.406456  1
  Pr  Pr6  1  0.515977  0.318972  0.592845  1
  Pr  Pr7  1  0.015977  0.181028  0.907155  1
  Y  Y8  1  0.344380  0.849563  0.877712  1
  Y  Y9  1  0.844380  0.650437  0.622288  1
  Y  Y10  1  0.656398  0.149954  0.376351  1
  Y  Y11  1  0.156398  0.350046  0.123649  1
  Y  Y12  1  0.656398  0.149954  0.123649  1
  Y  Y13  1  0.156398  0.350046  0.376351  1
  Y  Y14  1  0.344380  0.849563  0.622288  1
  Y  Y15  1  0.844380  0.650437  0.877712  1
  Y  Y16  1  0.184120  0.498209  0.750000  1
  Y  Y17  1  0.684120  0.001791  0.750000  1
  Lu  Lu18  1  0.814679  0.501408  0.250000  1
  Lu  Lu19  1  0.314679  0.998592  0.250000  1
  Sb  Sb20  1  0.299898  0.041759  0.047740  1
  Sb  Sb21  1  0.799898  0.458241  0.452260  1
  Sb  Sb22  1  0.700877  0.957933  0.545721  1
  Sb  Sb23  1  0.200877  0.542067  0.954279  1
  Sb  Sb24  1  0.700877  0.957933  0.954279  1
  Sb  Sb25  1  0.200877  0.542067  0.545721  1
  Sb  Sb26  1  0.299898  0.041759  0.452260  1
  Sb  Sb27  1  0.799898  0.458241  0.047740  1
  Sb  Sb28  1  0.542947  0.637048  0.750000  1
  Sb  Sb29  1  0.042947  0.862952  0.750000  1
  Sb  Sb30  1  0.458925  0.362132  0.250000  1
  Sb  Sb31  1  0.958925  0.137868  0.250000  1
  Sb  Sb32  1  0.330290  0.152875  0.750000  1
  Sb  Sb33  1  0.830290  0.347125  0.750000  1
  Sb  Sb34  1  0.667000  0.845350  0.250000  1
  Sb  Sb35  1  0.167000  0.654650  0.250000  1
