# generated using pymatgen
data_Tb2ErMg3Si2Pd
_symmetry_space_group_name_H-M   'P 1'
_cell_length_a   7.24118939
_cell_length_b   7.25648221
_cell_length_c   4.26537600
_cell_angle_alpha   90.00000000
_cell_angle_beta   90.00000000
_cell_angle_gamma   120.06988209
_symmetry_Int_Tables_number   1
_chemical_formula_structural   Tb2ErMg3Si2Pd
_chemical_formula_sum   'Tb2 Er1 Mg3 Si2 Pd1'
_cell_volume   193.96248621
_cell_formula_units_Z   1
loop_
 _symmetry_equiv_pos_site_id
 _symmetry_equiv_pos_as_xyz
  1  'x, y, z'
loop_
 _atom_site_type_symbol
 _atom_site_label
 _atom_site_symmetry_multiplicity
 _atom_site_fract_x
 _atom_site_fract_y
 _atom_site_fract_z
 _atom_site_occupancy
  Tb  Tb0  1  0.418522  0.418284  0.500000  1
  Tb  Tb1  1  0.581478  0.999762  0.500000  1
  Er  Er2  1  0.000000  0.582034  0.500000  1
  Mg  Mg3  1  0.756905  0.756396  0.000000  1
  Mg  Mg4  1  0.243095  0.999491  0.000000  1
  Mg  Mg5  1  0.000000  0.243998  0.000000  1
  Si  Si6  1  0.667728  0.334228  0.000000  1
  Si  Si7  1  0.332272  0.666500  0.000000  1
  Pd  Pd8  1  0.000000  0.999307  0.500000  1
