# generated using pymatgen
data_Na6Li4ZrSiP6
_symmetry_space_group_name_H-M   'P 1'
_cell_length_a   9.39837427
_cell_length_b   9.39837490
_cell_length_c   13.51067000
_cell_angle_alpha   90.00000000
_cell_angle_beta   90.00000000
_cell_angle_gamma   142.83816762
_symmetry_Int_Tables_number   1
_chemical_formula_structural   Na6Li4ZrSiP6
_chemical_formula_sum   'Na12 Li8 Zr2 Si2 P12'
_cell_volume   720.88914267
_cell_formula_units_Z   2
loop_
 _symmetry_equiv_pos_site_id
 _symmetry_equiv_pos_as_xyz
  1  'x, y, z'
loop_
 _atom_site_type_symbol
 _atom_site_label
 _atom_site_symmetry_multiplicity
 _atom_site_fract_x
 _atom_site_fract_y
 _atom_site_fract_z
 _atom_site_occupancy
  Na  Na0  1  0.107864  0.454358  0.680789  1
  Na  Na1  1  0.727873  0.722279  0.682469  1
  Na  Na2  1  0.222279  0.227873  0.817531  1
  Na  Na3  1  0.772127  0.777721  0.182469  1
  Na  Na4  1  0.954358  0.607864  0.819211  1
  Na  Na5  1  0.545642  0.892136  0.319211  1
  Na  Na6  1  0.392136  0.045642  0.180789  1
  Na  Na7  1  0.069693  0.409120  0.175143  1
  Na  Na8  1  0.909120  0.569693  0.324857  1
  Na  Na9  1  0.430307  0.090880  0.675143  1
  Na  Na10  1  0.590880  0.930308  0.824857  1
  Na  Na11  1  0.277721  0.272127  0.317531  1
  Li  Li12  1  0.914861  0.085139  0.000000  1
  Li  Li13  1  0.585139  0.414861  0.500000  1
  Li  Li14  1  0.081206  0.918794  0.000000  1
  Li  Li15  1  0.418794  0.581206  0.500000  1
  Li  Li16  1  0.756976  0.243024  0.000000  1
  Li  Li17  1  0.743024  0.256976  0.500000  1
  Li  Li18  1  0.247938  0.752062  0.000000  1
  Li  Li19  1  0.252062  0.747938  0.500000  1
  Zr  Zr20  1  0.916050  0.083950  0.500000  1
  Zr  Zr21  1  0.583950  0.416050  0.000000  1
  Si  Si22  1  0.088757  0.911243  0.500000  1
  Si  Si23  1  0.411243  0.588757  0.000000  1
  P  P24  1  0.901060  0.572673  0.108659  1
  P  P25  1  0.427327  0.098940  0.891341  1
  P  P26  1  0.598940  0.927327  0.608659  1
  P  P27  1  0.935159  0.620137  0.601839  1
  P  P28  1  0.120137  0.435159  0.898161  1
  P  P29  1  0.564841  0.879863  0.101839  1
  P  P30  1  0.379863  0.064841  0.398161  1
  P  P31  1  0.234639  0.217984  0.599218  1
  P  P32  1  0.717984  0.734639  0.900782  1
  P  P33  1  0.265361  0.282016  0.099218  1
  P  P34  1  0.072673  0.401060  0.391341  1
  P  P35  1  0.782016  0.765361  0.400782  1
