# generated using pymatgen
data_Ba10Si17Ir
_symmetry_space_group_name_H-M   'P 1'
_cell_length_a   6.69506169
_cell_length_b   6.69506199
_cell_length_c   17.75159862
_cell_angle_alpha   81.72685871
_cell_angle_beta   81.72685835
_cell_angle_gamma   100.54208889
_symmetry_Int_Tables_number   1
_chemical_formula_structural   Ba10Si17Ir
_chemical_formula_sum   'Ba10 Si17 Ir1'
_cell_volume   762.18289602
_cell_formula_units_Z   1
loop_
 _symmetry_equiv_pos_site_id
 _symmetry_equiv_pos_as_xyz
  1  'x, y, z'
loop_
 _atom_site_type_symbol
 _atom_site_label
 _atom_site_symmetry_multiplicity
 _atom_site_fract_x
 _atom_site_fract_y
 _atom_site_fract_z
 _atom_site_occupancy
  Ba  Ba0  1  0.750249  0.256494  0.999486  1
  Ba  Ba1  1  0.111182  0.580132  0.790714  1
  Ba  Ba2  1  0.285667  0.708820  0.499774  1
  Ba  Ba3  1  0.756479  0.756479  0.648057  1
  Ba  Ba4  1  0.241817  0.241817  0.348259  1
  Ba  Ba5  1  0.580132  0.111182  0.790714  1
  Ba  Ba6  1  0.256494  0.750249  0.999486  1
  Ba  Ba7  1  0.708820  0.285667  0.499774  1
  Ba  Ba8  1  0.422591  0.892233  0.208870  1
  Ba  Ba9  1  0.892233  0.422591  0.208870  1
  Si  Si10  1  0.916426  0.916426  0.258335  1
  Si  Si11  1  0.077771  0.077771  0.736579  1
  Si  Si12  1  0.779607  0.779607  0.930813  1
  Si  Si13  1  0.345828  0.345828  0.646680  1
  Si  Si14  1  0.288019  0.288019  0.944531  1
  Si  Si15  1  0.940574  0.940574  0.125215  1
  Si  Si16  1  0.647837  0.647837  0.355572  1
  Si  Si17  1  0.438507  0.438507  0.137093  1
  Si  Si18  1  0.067803  0.067803  0.870541  1
  Si  Si19  1  0.817857  0.817857  0.450603  1
  Si  Si20  1  0.327868  0.971049  0.642912  1
  Si  Si21  1  0.673365  0.023372  0.354611  1
  Si  Si22  1  0.179251  0.179251  0.548857  1
  Si  Si23  1  0.971049  0.327868  0.642912  1
  Si  Si24  1  0.023372  0.673365  0.354611  1
  Si  Si25  1  0.711506  0.711506  0.069462  1
  Si  Si26  1  0.568103  0.568103  0.858251  1
  Ir  Ir27  1  0.219593  0.219593  0.078418  1
