# generated using pymatgen
data_GaSi3Pt3Rh
_symmetry_space_group_name_H-M   'P 1'
_cell_length_a   3.53566600
_cell_length_b   5.57813980
_cell_length_c   6.21018626
_cell_angle_alpha   90.01427380
_cell_angle_beta   90.00000000
_cell_angle_gamma   90.00000000
_symmetry_Int_Tables_number   1
_chemical_formula_structural   GaSi3Pt3Rh
_chemical_formula_sum   'Ga1 Si3 Pt3 Rh1'
_cell_volume   122.48001748
_cell_formula_units_Z   1
loop_
 _symmetry_equiv_pos_site_id
 _symmetry_equiv_pos_as_xyz
  1  'x, y, z'
loop_
 _atom_site_type_symbol
 _atom_site_label
 _atom_site_symmetry_multiplicity
 _atom_site_fract_x
 _atom_site_fract_y
 _atom_site_fract_z
 _atom_site_occupancy
  Ga  Ga0  1  0.250000  0.679002  0.072986  1
  Si  Si1  1  0.750000  0.325642  0.920913  1
  Si  Si2  1  0.250000  0.186821  0.423388  1
  Si  Si3  1  0.750000  0.805888  0.582094  1
  Pt  Pt4  1  0.750000  0.493920  0.315817  1
  Pt  Pt5  1  0.250000  0.004702  0.788678  1
  Pt  Pt6  1  0.750000  0.007557  0.200856  1
  Rh  Rh7  1  0.250000  0.496469  0.695269  1
