# generated using pymatgen
data_LiLa5SmOsBr12
_symmetry_space_group_name_H-M   'P 1'
_cell_length_a   9.87798873
_cell_length_b   9.58777440
_cell_length_c   9.74323444
_cell_angle_alpha   108.14271293
_cell_angle_beta   108.55455006
_cell_angle_gamma   107.60770154
_symmetry_Int_Tables_number   1
_chemical_formula_structural   LiLa5SmOsBr12
_chemical_formula_sum   'Li1 La5 Sm1 Os1 Br12'
_cell_volume   744.14434124
_cell_formula_units_Z   1
loop_
 _symmetry_equiv_pos_site_id
 _symmetry_equiv_pos_as_xyz
  1  'x, y, z'
loop_
 _atom_site_type_symbol
 _atom_site_label
 _atom_site_symmetry_multiplicity
 _atom_site_fract_x
 _atom_site_fract_y
 _atom_site_fract_z
 _atom_site_occupancy
  Li  Li0  1  0.500339  0.499666  0.499523  1
  La  La1  1  0.031458  0.308281  0.114648  1
  La  La2  1  0.126673  0.036422  0.326319  1
  La  La3  1  0.878145  0.965100  0.675778  1
  La  La4  1  0.967318  0.691429  0.885401  1
  La  La5  1  0.660306  0.869075  0.963033  1
  Sm  Sm6  1  0.329139  0.127450  0.036827  1
  Os  Os7  1  0.000088  0.000370  0.001087  1
  Br  Br8  1  0.681148  0.210183  0.067768  1
  Br  Br9  1  0.382000  0.462834  0.177405  1
  Br  Br10  1  0.067715  0.682401  0.213396  1
  Br  Br11  1  0.794473  0.933977  0.317919  1
  Br  Br12  1  0.467205  0.180434  0.374599  1
  Br  Br13  1  0.185418  0.386130  0.469531  1
  Br  Br14  1  0.815828  0.614412  0.530967  1
  Br  Br15  1  0.533759  0.818027  0.616344  1
  Br  Br16  1  0.214388  0.071015  0.693109  1
  Br  Br17  1  0.932769  0.317876  0.787040  1
  Br  Br18  1  0.618075  0.527976  0.815625  1
  Br  Br19  1  0.313760  0.796948  0.933685  1
