# generated using pymatgen
data_SrAc(Cd2Pt)4
_symmetry_space_group_name_H-M   'P 1'
_cell_length_a   8.31734800
_cell_length_b   8.31734793
_cell_length_c   4.54732300
_cell_angle_alpha   90.00000000
_cell_angle_beta   90.00000000
_cell_angle_gamma   90.50645750
_symmetry_Int_Tables_number   1
_chemical_formula_structural   SrAc(Cd2Pt)4
_chemical_formula_sum   'Sr1 Ac1 Cd8 Pt4'
_cell_volume   314.56368149
_cell_formula_units_Z   1
loop_
 _symmetry_equiv_pos_site_id
 _symmetry_equiv_pos_as_xyz
  1  'x, y, z'
loop_
 _atom_site_type_symbol
 _atom_site_label
 _atom_site_symmetry_multiplicity
 _atom_site_fract_x
 _atom_site_fract_y
 _atom_site_fract_z
 _atom_site_occupancy
  Sr  Sr0  1  0.000000  0.000000  0.000000  1
  Ac  Ac1  1  0.500000  0.500000  0.500000  1
  Cd  Cd2  1  0.342343  0.091483  0.500000  1
  Cd  Cd3  1  0.657657  0.908517  0.500000  1
  Cd  Cd4  1  0.846333  0.406635  0.000000  1
  Cd  Cd5  1  0.153667  0.593365  0.000000  1
  Cd  Cd6  1  0.091483  0.342343  0.500000  1
  Cd  Cd7  1  0.908517  0.657657  0.500000  1
  Cd  Cd8  1  0.406635  0.846333  0.000000  1
  Cd  Cd9  1  0.593365  0.153667  0.000000  1
  Pt  Pt10  1  0.773356  0.226644  0.500000  1
  Pt  Pt11  1  0.226644  0.773356  0.500000  1
  Pt  Pt12  1  0.289800  0.289800  0.000000  1
  Pt  Pt13  1  0.710200  0.710200  0.000000  1
