# generated using pymatgen
data_CsLiSe2O5
_symmetry_space_group_name_H-M   'P 1'
_cell_length_a   6.92417225
_cell_length_b   7.90932093
_cell_length_c   10.10357296
_cell_angle_alpha   93.20704212
_cell_angle_beta   129.21219053
_cell_angle_gamma   104.00609215
_symmetry_Int_Tables_number   1
_chemical_formula_structural   CsLiSe2O5
_chemical_formula_sum   'Cs2 Li2 Se4 O10'
_cell_volume   399.58691622
_cell_formula_units_Z   2
loop_
 _symmetry_equiv_pos_site_id
 _symmetry_equiv_pos_as_xyz
  1  'x, y, z'
loop_
 _atom_site_type_symbol
 _atom_site_label
 _atom_site_symmetry_multiplicity
 _atom_site_fract_x
 _atom_site_fract_y
 _atom_site_fract_z
 _atom_site_occupancy
  Cs  Cs0  1  0.988536  0.258971  0.865585  1
  Cs  Cs1  1  0.011464  0.741029  0.134415  1
  Li  Li2  1  0.688772  0.724827  0.655067  1
  Li  Li3  1  0.311228  0.275173  0.344933  1
  Se  Se4  1  0.234888  0.782853  0.839538  1
  Se  Se5  1  0.765112  0.217147  0.160462  1
  Se  Se6  1  0.725699  0.626986  0.399183  1
  Se  Se7  1  0.274301  0.373014  0.600817  1
  O  O8  1  0.053880  0.884540  0.851885  1
  O  O9  1  0.946120  0.115460  0.148115  1
  O  O10  1  0.328870  0.660048  0.984850  1
  O  O11  1  0.671130  0.339952  0.015150  1
  O  O12  1  0.587367  0.753270  0.432512  1
  O  O13  1  0.412633  0.246730  0.567488  1
  O  O14  1  0.502023  0.413491  0.290045  1
  O  O15  1  0.497977  0.586509  0.709955  1
  O  O16  1  0.940154  0.588906  0.628113  1
  O  O17  1  0.059846  0.411094  0.371887  1
