# generated using pymatgen
data_Sr6TbTl(RhO6)2
_symmetry_space_group_name_H-M   'P 1'
_cell_length_a   6.87432961
_cell_length_b   6.87433052
_cell_length_c   6.87433085
_cell_angle_alpha   90.83704217
_cell_angle_beta   90.83704316
_cell_angle_gamma   90.83704425
_symmetry_Int_Tables_number   1
_chemical_formula_structural   Sr6TbTl(RhO6)2
_chemical_formula_sum   'Sr6 Tb1 Tl1 Rh2 O12'
_cell_volume   324.75120129
_cell_formula_units_Z   1
loop_
 _symmetry_equiv_pos_site_id
 _symmetry_equiv_pos_as_xyz
  1  'x, y, z'
loop_
 _atom_site_type_symbol
 _atom_site_label
 _atom_site_symmetry_multiplicity
 _atom_site_fract_x
 _atom_site_fract_y
 _atom_site_fract_z
 _atom_site_occupancy
  Sr  Sr0  1  0.616515  0.883484  0.250000  1
  Sr  Sr1  1  0.250000  0.616515  0.883484  1
  Sr  Sr2  1  0.883484  0.250000  0.616516  1
  Sr  Sr3  1  0.379825  0.120176  0.750001  1
  Sr  Sr4  1  0.750000  0.379825  0.120176  1
  Sr  Sr5  1  0.120176  0.750000  0.379825  1
  Tb  Tb6  1  0.750000  0.750000  0.750000  1
  Tl  Tl7  1  0.250000  0.250000  0.250000  1
  Rh  Rh8  1  0.994416  0.994416  0.994416  1
  Rh  Rh9  1  0.505584  0.505584  0.505584  1
  O  O10  1  0.281471  0.949200  0.083176  1
  O  O11  1  0.083174  0.281471  0.949202  1
  O  O12  1  0.949201  0.083176  0.281470  1
  O  O13  1  0.550798  0.218530  0.416826  1
  O  O14  1  0.218529  0.416826  0.550799  1
  O  O15  1  0.416825  0.550799  0.218529  1
  O  O16  1  0.703908  0.042238  0.907972  1
  O  O17  1  0.907973  0.703909  0.042237  1
  O  O18  1  0.042237  0.907971  0.703910  1
  O  O19  1  0.457764  0.796091  0.592027  1
  O  O20  1  0.796092  0.592027  0.457764  1
  O  O21  1  0.592028  0.457763  0.796092  1
