# generated using pymatgen
data_Tb3Cd3Ga2Cu
_symmetry_space_group_name_H-M   'P 1'
_cell_length_a   7.28301400
_cell_length_b   7.28301474
_cell_length_c   4.32565900
_cell_angle_alpha   90.00000000
_cell_angle_beta   90.00000000
_cell_angle_gamma   119.99999662
_symmetry_Int_Tables_number   1
_chemical_formula_structural   Tb3Cd3Ga2Cu
_chemical_formula_sum   'Tb3 Cd3 Ga2 Cu1'
_cell_volume   198.70338276
_cell_formula_units_Z   1
loop_
 _symmetry_equiv_pos_site_id
 _symmetry_equiv_pos_as_xyz
  1  'x, y, z'
loop_
 _atom_site_type_symbol
 _atom_site_label
 _atom_site_symmetry_multiplicity
 _atom_site_fract_x
 _atom_site_fract_y
 _atom_site_fract_z
 _atom_site_occupancy
  Tb  Tb0  1  0.410030  0.410030  0.500000  1
  Tb  Tb1  1  0.589970  0.000000  0.500000  1
  Tb  Tb2  1  0.000000  0.589970  0.500000  1
  Cd  Cd3  1  0.757178  0.757178  0.000000  1
  Cd  Cd4  1  0.242822  0.000000  0.000000  1
  Cd  Cd5  1  0.000000  0.242822  0.000000  1
  Ga  Ga6  1  0.666667  0.333333  0.000000  1
  Ga  Ga7  1  0.333333  0.666667  0.000000  1
  Cu  Cu8  1  0.000000  0.000000  0.500000  1
