# generated using pymatgen
data_Dy5Ti2P12Ir4Rh13
_symmetry_space_group_name_H-M   'P 1'
_cell_length_a   12.65408400
_cell_length_b   12.79880598
_cell_length_c   3.91707000
_cell_angle_alpha   90.00000000
_cell_angle_beta   90.00000000
_cell_angle_gamma   119.62665189
_symmetry_Int_Tables_number   1
_chemical_formula_structural   Dy5Ti2P12Ir4Rh13
_chemical_formula_sum   'Dy5 Ti2 P12 Ir4 Rh13'
_cell_volume   551.45963720
_cell_formula_units_Z   1
loop_
 _symmetry_equiv_pos_site_id
 _symmetry_equiv_pos_as_xyz
  1  'x, y, z'
loop_
 _atom_site_type_symbol
 _atom_site_label
 _atom_site_symmetry_multiplicity
 _atom_site_fract_x
 _atom_site_fract_y
 _atom_site_fract_z
 _atom_site_occupancy
  Dy  Dy0  1  0.329947  0.660540  0.500000  1
  Dy  Dy1  1  0.669408  0.339460  0.500000  1
  Dy  Dy2  1  0.998933  0.810541  0.000000  1
  Dy  Dy3  1  0.188393  0.189459  0.000000  1
  Dy  Dy4  1  0.810662  0.000000  0.000000  1
  Ti  Ti5  1  0.998463  0.444958  0.500000  1
  Ti  Ti6  1  0.553505  0.555042  0.500000  1
  P  P7  1  0.001580  0.639155  0.500000  1
  P  P8  1  0.362424  0.360845  0.500000  1
  P  P9  1  0.639160  0.000000  0.500000  1
  P  P10  1  0.514377  0.681796  0.000000  1
  P  P11  1  0.312475  0.827444  0.000000  1
  P  P12  1  0.162778  0.480900  0.000000  1
  P  P13  1  0.485030  0.172556  0.000000  1
  P  P14  1  0.681878  0.519100  0.000000  1
  P  P15  1  0.832580  0.318204  0.000000  1
  P  P16  1  0.999760  0.175855  0.500000  1
  P  P17  1  0.823905  0.824145  0.500000  1
  P  P18  1  0.182952  0.000000  0.500000  1
  Ir  Ir19  1  0.997186  0.279593  0.000000  1
  Ir  Ir20  1  0.717595  0.720407  0.000000  1
  Ir  Ir21  1  0.286650  0.000000  0.000000  1
  Ir  Ir22  1  0.003931  0.000000  0.500000  1
  Rh  Rh23  1  0.507798  0.864137  0.000000  1
  Rh  Rh24  1  0.125891  0.642509  0.000000  1
  Rh  Rh25  1  0.354665  0.487947  0.000000  1
  Rh  Rh26  1  0.483383  0.357491  0.000000  1
  Rh  Rh27  1  0.866719  0.512053  0.000000  1
  Rh  Rh28  1  0.643662  0.135863  0.000000  1
  Rh  Rh29  1  0.457315  0.000000  0.500000  1
  Rh  Rh30  1  0.623414  0.805149  0.500000  1
  Rh  Rh31  1  0.202490  0.822102  0.500000  1
  Rh  Rh32  1  0.176929  0.371420  0.500000  1
  Rh  Rh33  1  0.380389  0.177898  0.500000  1
  Rh  Rh34  1  0.805510  0.628580  0.500000  1
  Rh  Rh35  1  0.818265  0.194851  0.500000  1
