# generated using pymatgen
data_Ti13Al9Fe7Rh
_symmetry_space_group_name_H-M   'P 1'
_cell_length_a   8.51897956
_cell_length_b   8.51897948
_cell_length_c   8.50620398
_cell_angle_alpha   59.92153077
_cell_angle_beta   59.92153036
_cell_angle_gamma   59.72609671
_symmetry_Int_Tables_number   1
_chemical_formula_structural   Ti13Al9Fe7Rh
_chemical_formula_sum   'Ti13 Al9 Fe7 Rh1'
_cell_volume   435.08576990
_cell_formula_units_Z   1
loop_
 _symmetry_equiv_pos_site_id
 _symmetry_equiv_pos_as_xyz
  1  'x, y, z'
loop_
 _atom_site_type_symbol
 _atom_site_label
 _atom_site_symmetry_multiplicity
 _atom_site_fract_x
 _atom_site_fract_y
 _atom_site_fract_z
 _atom_site_occupancy
  Ti  Ti0  1  0.209430  0.209430  0.799644  1
  Ti  Ti1  1  0.796482  0.211353  0.206435  1
  Ti  Ti2  1  0.211353  0.796482  0.206435  1
  Ti  Ti3  1  0.802627  0.802627  0.176497  1
  Ti  Ti4  1  0.181800  0.797875  0.804014  1
  Ti  Ti5  1  0.797875  0.181800  0.804014  1
  Ti  Ti6  1  0.382247  0.382247  0.380007  1
  Ti  Ti7  1  0.390660  0.856272  0.380107  1
  Ti  Ti8  1  0.856272  0.390660  0.380107  1
  Ti  Ti9  1  0.383326  0.383326  0.858623  1
  Ti  Ti10  1  0.841506  0.468754  0.840182  1
  Ti  Ti11  1  0.468754  0.841506  0.840182  1
  Ti  Ti12  1  0.837507  0.837507  0.467741  1
  Al  Al13  1  0.164344  0.164344  0.156096  1
  Al  Al14  1  0.161983  0.521831  0.161898  1
  Al  Al15  1  0.521831  0.161983  0.161898  1
  Al  Al16  1  0.162943  0.162943  0.528813  1
  Al  Al17  1  0.615332  0.615332  0.620797  1
  Al  Al18  1  0.613682  0.146625  0.619570  1
  Al  Al19  1  0.146625  0.613682  0.619570  1
  Al  Al20  1  0.617476  0.617476  0.145059  1
  Al  Al21  1  0.825121  0.825121  0.832457  1
  Fe  Fe22  1  0.498632  0.001170  0.003010  1
  Fe  Fe23  1  0.001170  0.498632  0.003010  1
  Fe  Fe24  1  0.502001  0.502001  0.000128  1
  Fe  Fe25  1  0.998667  0.503237  0.501178  1
  Fe  Fe26  1  0.503237  0.998667  0.501178  1
  Fe  Fe27  1  0.499870  0.499870  0.499680  1
  Fe  Fe28  1  0.004714  0.004714  0.003045  1
  Rh  Rh29  1  0.002532  0.002532  0.498623  1
