# generated using pymatgen
data_LuGaCu4
_symmetry_space_group_name_H-M   'P 1'
_cell_length_a   4.99360000
_cell_length_b   4.99360041
_cell_length_c   4.99360000
_cell_angle_alpha   119.99999730
_cell_angle_beta   90.00000000
_cell_angle_gamma   119.99999730
_symmetry_Int_Tables_number   1
_chemical_formula_structural   LuGaCu4
_chemical_formula_sum   'Lu1 Ga1 Cu4'
_cell_volume   88.04938505
_cell_formula_units_Z   1
loop_
 _symmetry_equiv_pos_site_id
 _symmetry_equiv_pos_as_xyz
  1  'x, y, z'
loop_
 _atom_site_type_symbol
 _atom_site_label
 _atom_site_symmetry_multiplicity
 _atom_site_fract_x
 _atom_site_fract_y
 _atom_site_fract_z
 _atom_site_occupancy
  Lu  Lu0  1  0.000000  0.000000  0.000000  1
  Ga  Ga1  1  0.750002  0.500001  0.250001  1
  Cu  Cu2  1  0.375423  0.750847  0.126271  1
  Cu  Cu3  1  0.375423  0.249153  0.624576  1
  Cu  Cu4  1  0.873729  0.249153  0.624576  1
  Cu  Cu5  1  0.375423  0.750847  0.624576  1
