# generated using pymatgen
data_Ho5Th3Zn8Ir7Rh
_symmetry_space_group_name_H-M   'P 1'
_cell_length_a   3.91859600
_cell_length_b   7.32000114
_cell_length_c   16.41337707
_cell_angle_alpha   89.95384208
_cell_angle_beta   90.00000000
_cell_angle_gamma   90.00000000
_symmetry_Int_Tables_number   1
_chemical_formula_structural   Ho5Th3Zn8Ir7Rh
_chemical_formula_sum   'Ho5 Th3 Zn8 Ir7 Rh1'
_cell_volume   470.80324244
_cell_formula_units_Z   1
loop_
 _symmetry_equiv_pos_site_id
 _symmetry_equiv_pos_as_xyz
  1  'x, y, z'
loop_
 _atom_site_type_symbol
 _atom_site_label
 _atom_site_symmetry_multiplicity
 _atom_site_fract_x
 _atom_site_fract_y
 _atom_site_fract_z
 _atom_site_occupancy
  Ho  Ho0  1  0.750000  0.941630  0.283782  1
  Ho  Ho1  1  0.750000  0.833340  0.063828  1
  Ho  Ho2  1  0.750000  0.450016  0.211632  1
  Ho  Ho3  1  0.250000  0.054576  0.715074  1
  Ho  Ho4  1  0.250000  0.554274  0.788006  1
  Th  Th5  1  0.250000  0.169603  0.939679  1
  Th  Th6  1  0.250000  0.671712  0.562953  1
  Th  Th7  1  0.750000  0.325610  0.435730  1
  Zn  Zn8  1  0.750000  0.007168  0.563825  1
  Zn  Zn9  1  0.250000  0.618324  0.341911  1
  Zn  Zn10  1  0.750000  0.381656  0.658209  1
  Zn  Zn11  1  0.250000  0.506144  0.061134  1
  Zn  Zn12  1  0.750000  0.513097  0.939610  1
  Zn  Zn13  1  0.250000  0.991236  0.435421  1
  Zn  Zn14  1  0.250000  0.110131  0.153973  1
  Zn  Zn15  1  0.750000  0.879279  0.843630  1
  Ir  Ir16  1  0.750000  0.744285  0.438296  1
  Ir  Ir17  1  0.250000  0.243385  0.312894  1
  Ir  Ir18  1  0.750000  0.253934  0.816503  1
  Ir  Ir19  1  0.750000  0.753088  0.685690  1
  Ir  Ir20  1  0.250000  0.254356  0.562019  1
  Ir  Ir21  1  0.250000  0.742203  0.186624  1
  Ir  Ir22  1  0.750000  0.245749  0.062689  1
  Rh  Rh23  1  0.250000  0.755201  0.936888  1
