# generated using pymatgen
data_ErPa2(GaPd)3
_symmetry_space_group_name_H-M   'P 1'
_cell_length_a   7.15616721
_cell_length_b   7.15616820
_cell_length_c   4.02189900
_cell_angle_alpha   90.00000000
_cell_angle_beta   90.00000000
_cell_angle_gamma   119.74850191
_symmetry_Int_Tables_number   1
_chemical_formula_structural   ErPa2(GaPd)3
_chemical_formula_sum   'Er1 Pa2 Ga3 Pd3'
_cell_volume   178.82072778
_cell_formula_units_Z   1
loop_
 _symmetry_equiv_pos_site_id
 _symmetry_equiv_pos_as_xyz
  1  'x, y, z'
loop_
 _atom_site_type_symbol
 _atom_site_label
 _atom_site_symmetry_multiplicity
 _atom_site_fract_x
 _atom_site_fract_y
 _atom_site_fract_z
 _atom_site_occupancy
  Er  Er0  1  0.409721  0.409721  0.000000  1
  Pa  Pa1  1  0.584526  0.001751  0.000000  1
  Pa  Pa2  1  0.001751  0.584526  0.000000  1
  Ga  Ga3  1  0.249086  0.007229  0.500000  1
  Ga  Ga4  1  0.007229  0.249086  0.500000  1
  Ga  Ga5  1  0.747413  0.747413  0.500000  1
  Pd  Pd6  1  0.994008  0.994008  0.000000  1
  Pd  Pd7  1  0.331635  0.674631  0.500000  1
  Pd  Pd8  1  0.674631  0.331635  0.500000  1
