# generated using pymatgen
data_TmScFe3P7Ru9
_symmetry_space_group_name_H-M   'P 1'
_cell_length_a   9.25723600
_cell_length_b   9.25723539
_cell_length_c   3.82831100
_cell_angle_alpha   90.00000000
_cell_angle_beta   90.00000000
_cell_angle_gamma   119.99998787
_symmetry_Int_Tables_number   1
_chemical_formula_structural   TmScFe3P7Ru9
_chemical_formula_sum   'Tm1 Sc1 Fe3 P7 Ru9'
_cell_volume   284.11917098
_cell_formula_units_Z   1
loop_
 _symmetry_equiv_pos_site_id
 _symmetry_equiv_pos_as_xyz
  1  'x, y, z'
loop_
 _atom_site_type_symbol
 _atom_site_label
 _atom_site_symmetry_multiplicity
 _atom_site_fract_x
 _atom_site_fract_y
 _atom_site_fract_z
 _atom_site_occupancy
  Tm  Tm0  1  0.333333  0.666667  0.000000  1
  Sc  Sc1  1  0.666667  0.333333  0.500000  1
  Fe  Fe2  1  0.730848  0.890401  0.000000  1
  Fe  Fe3  1  0.109599  0.840447  0.000000  1
  Fe  Fe4  1  0.159553  0.269152  0.000000  1
  P  P5  1  0.603071  0.721167  0.500000  1
  P  P6  1  0.000000  0.000000  0.000000  1
  P  P7  1  0.278833  0.881904  0.500000  1
  P  P8  1  0.118096  0.396929  0.500000  1
  P  P9  1  0.888441  0.582195  0.000000  1
  P  P10  1  0.417805  0.306247  0.000000  1
  P  P11  1  0.693753  0.111559  0.000000  1
  Ru  Ru12  1  0.560652  0.949237  0.500000  1
  Ru  Ru13  1  0.388586  0.439348  0.500000  1
  Ru  Ru14  1  0.912674  0.116459  0.500000  1
  Ru  Ru15  1  0.203785  0.087326  0.500000  1
  Ru  Ru16  1  0.883541  0.796215  0.500000  1
  Ru  Ru17  1  0.422231  0.063665  0.000000  1
  Ru  Ru18  1  0.936335  0.358567  0.000000  1
  Ru  Ru19  1  0.641433  0.577769  0.000000  1
  Ru  Ru20  1  0.050763  0.611414  0.500000  1
