# generated using pymatgen
data_Y4Zn10SiPb
_symmetry_space_group_name_H-M   'P 1'
_cell_length_a   8.32410087
_cell_length_b   8.32410080
_cell_length_c   8.92802800
_cell_angle_alpha   90.00000000
_cell_angle_beta   90.00000000
_cell_angle_gamma   149.83415332
_symmetry_Int_Tables_number   1
_chemical_formula_structural   Y4Zn10SiPb
_chemical_formula_sum   'Y4 Zn10 Si1 Pb1'
_cell_volume   310.86391625
_cell_formula_units_Z   1
loop_
 _symmetry_equiv_pos_site_id
 _symmetry_equiv_pos_as_xyz
  1  'x, y, z'
loop_
 _atom_site_type_symbol
 _atom_site_label
 _atom_site_symmetry_multiplicity
 _atom_site_fract_x
 _atom_site_fract_y
 _atom_site_fract_z
 _atom_site_occupancy
  Y  Y0  1  0.197693  0.802307  0.250000  1
  Y  Y1  1  0.798370  0.201630  0.750000  1
  Y  Y2  1  0.000387  0.999613  0.476740  1
  Y  Y3  1  0.000387  0.999613  0.023260  1
  Zn  Zn4  1  0.811973  0.188027  0.390336  1
  Zn  Zn5  1  0.186818  0.813182  0.605496  1
  Zn  Zn6  1  0.811973  0.188027  0.109664  1
  Zn  Zn7  1  0.186818  0.813182  0.894504  1
  Zn  Zn8  1  0.648398  0.351602  0.472263  1
  Zn  Zn9  1  0.343525  0.656475  0.514320  1
  Zn  Zn10  1  0.648398  0.351602  0.027737  1
  Zn  Zn11  1  0.343525  0.656475  0.985680  1
  Zn  Zn12  1  0.402128  0.597872  0.250000  1
  Zn  Zn13  1  0.613707  0.386293  0.750000  1
  Si  Si14  1  0.555381  0.444619  0.250000  1
  Pb  Pb15  1  0.450520  0.549480  0.750000  1
