# generated using pymatgen
data_NaTbNd5RhBr12
_symmetry_space_group_name_H-M   'P 1'
_cell_length_a   9.49303010
_cell_length_b   9.47485237
_cell_length_c   9.56646763
_cell_angle_alpha   107.26281971
_cell_angle_beta   106.67478860
_cell_angle_gamma   106.92749648
_symmetry_Int_Tables_number   1
_chemical_formula_structural   NaTbNd5RhBr12
_chemical_formula_sum   'Na1 Tb1 Nd5 Rh1 Br12'
_cell_volume   717.45883370
_cell_formula_units_Z   1
loop_
 _symmetry_equiv_pos_site_id
 _symmetry_equiv_pos_as_xyz
  1  'x, y, z'
loop_
 _atom_site_type_symbol
 _atom_site_label
 _atom_site_symmetry_multiplicity
 _atom_site_fract_x
 _atom_site_fract_y
 _atom_site_fract_z
 _atom_site_occupancy
  Na  Na0  1  0.500066  0.500280  0.499634  1
  Tb  Tb1  1  0.888113  0.970175  0.678147  1
  Nd  Nd2  1  0.314573  0.108930  0.027592  1
  Nd  Nd3  1  0.028401  0.316019  0.107323  1
  Nd  Nd4  1  0.113730  0.029668  0.328286  1
  Nd  Nd5  1  0.685170  0.891013  0.972615  1
  Nd  Nd6  1  0.970546  0.682453  0.889178  1
  Rh  Rh7  1  0.999473  0.998982  0.999505  1
  Br  Br8  1  0.682787  0.220063  0.073863  1
  Br  Br9  1  0.073217  0.682022  0.217333  1
  Br  Br10  1  0.210315  0.071193  0.682664  1
  Br  Br11  1  0.317138  0.779659  0.925576  1
  Br  Br12  1  0.924578  0.309196  0.776532  1
  Br  Br13  1  0.782520  0.927337  0.323450  1
  Br  Br14  1  0.451819  0.152028  0.368256  1
  Br  Br15  1  0.370810  0.453335  0.152667  1
  Br  Br16  1  0.151592  0.370592  0.450203  1
  Br  Br17  1  0.557151  0.852367  0.631008  1
  Br  Br18  1  0.629029  0.546411  0.846714  1
  Br  Br19  1  0.848969  0.638277  0.549454  1
