# generated using pymatgen
data_Cs6Sm3YBr18
_symmetry_space_group_name_H-M   'P 1'
_cell_length_a   10.56158098
_cell_length_b   10.56158060
_cell_length_c   10.56158106
_cell_angle_alpha   83.59233003
_cell_angle_beta   83.59233091
_cell_angle_gamma   83.59232817
_symmetry_Int_Tables_number   1
_chemical_formula_structural   Cs6Sm3YBr18
_chemical_formula_sum   'Cs6 Sm3 Y1 Br18'
_cell_volume   1157.56079754
_cell_formula_units_Z   1
loop_
 _symmetry_equiv_pos_site_id
 _symmetry_equiv_pos_as_xyz
  1  'x, y, z'
loop_
 _atom_site_type_symbol
 _atom_site_label
 _atom_site_symmetry_multiplicity
 _atom_site_fract_x
 _atom_site_fract_y
 _atom_site_fract_z
 _atom_site_occupancy
  Cs  Cs0  1  0.089338  0.750588  0.410456  1
  Cs  Cs1  1  0.750588  0.410456  0.089338  1
  Cs  Cs2  1  0.249910  0.589018  0.910853  1
  Cs  Cs3  1  0.410456  0.089338  0.750588  1
  Cs  Cs4  1  0.910853  0.249910  0.589018  1
  Cs  Cs5  1  0.589018  0.910853  0.249910  1
  Sm  Sm6  1  0.348819  0.348819  0.348819  1
  Sm  Sm7  1  0.650832  0.650832  0.650832  1
  Sm  Sm8  1  0.849326  0.849326  0.849326  1
  Y  Y9  1  0.152148  0.152148  0.152148  1
  Br  Br10  1  0.264420  0.921652  0.082740  1
  Br  Br11  1  0.732520  0.083445  0.918823  1
  Br  Br12  1  0.905933  0.593991  0.750135  1
  Br  Br13  1  0.083445  0.918823  0.732520  1
  Br  Br14  1  0.593991  0.750135  0.905933  1
  Br  Br15  1  0.418421  0.583137  0.232519  1
  Br  Br16  1  0.248619  0.094059  0.402988  1
  Br  Br17  1  0.921652  0.082740  0.264420  1
  Br  Br18  1  0.581198  0.416624  0.767491  1
  Br  Br19  1  0.082740  0.264420  0.921652  1
  Br  Br20  1  0.918823  0.732520  0.083445  1
  Br  Br21  1  0.416624  0.767491  0.581198  1
  Br  Br22  1  0.232519  0.418421  0.583137  1
  Br  Br23  1  0.750135  0.905933  0.593991  1
  Br  Br24  1  0.094059  0.402988  0.248619  1
  Br  Br25  1  0.767491  0.581198  0.416624  1
  Br  Br26  1  0.402988  0.248619  0.094059  1
  Br  Br27  1  0.583137  0.232519  0.418421  1
