# generated using pymatgen
data_Rb4CdHg5S8
_symmetry_space_group_name_H-M   'P 1'
_cell_length_a   9.74586653
_cell_length_b   9.74586621
_cell_length_c   9.74587052
_cell_angle_alpha   141.50498797
_cell_angle_beta   107.63949721
_cell_angle_gamma   85.08431253
_symmetry_Int_Tables_number   1
_chemical_formula_structural   Rb4CdHg5S8
_chemical_formula_sum   'Rb4 Cd1 Hg5 S8'
_cell_volume   530.89042624
_cell_formula_units_Z   1
loop_
 _symmetry_equiv_pos_site_id
 _symmetry_equiv_pos_as_xyz
  1  'x, y, z'
loop_
 _atom_site_type_symbol
 _atom_site_label
 _atom_site_symmetry_multiplicity
 _atom_site_fract_x
 _atom_site_fract_y
 _atom_site_fract_z
 _atom_site_occupancy
  Rb  Rb0  1  0.121461  0.770391  0.892945  1
  Rb  Rb1  1  0.877446  0.228515  0.107055  1
  Rb  Rb2  1  0.622553  0.729612  0.351072  1
  Rb  Rb3  1  0.378540  0.271483  0.648928  1
  Cd  Cd4  1  0.250000  0.750000  0.500000  1
  Hg  Hg5  1  0.750000  0.250000  0.500000  1
  Hg  Hg6  1  0.910121  0.750000  0.160122  1
  Hg  Hg7  1  0.589879  0.750000  0.839878  1
  Hg  Hg8  1  0.091427  0.250001  0.841427  1
  Hg  Hg9  1  0.408573  0.250000  0.158573  1
  S  S10  1  0.230324  0.636329  0.146539  1
  S  S11  1  0.489791  0.083785  0.853461  1
  S  S12  1  0.010210  0.863671  0.593994  1
  S  S13  1  0.269676  0.416215  0.406006  1
  S  S14  1  0.769961  0.365355  0.858002  1
  S  S15  1  0.507354  0.911958  0.141998  1
  S  S16  1  0.992646  0.134644  0.404604  1
  S  S17  1  0.730040  0.588042  0.595396  1
