# generated using pymatgen
data_LiTb16Co4Ag3
_symmetry_space_group_name_H-M   'P 1'
_cell_length_a   9.48281634
_cell_length_b   9.50025624
_cell_length_c   9.50025700
_cell_angle_alpha   60.00000085
_cell_angle_beta   59.93914505
_cell_angle_gamma   59.93914391
_symmetry_Int_Tables_number   1
_chemical_formula_structural   LiTb16Co4Ag3
_chemical_formula_sum   'Li1 Tb16 Co4 Ag3'
_cell_volume   604.63450439
_cell_formula_units_Z   1
loop_
 _symmetry_equiv_pos_site_id
 _symmetry_equiv_pos_as_xyz
  1  'x, y, z'
loop_
 _atom_site_type_symbol
 _atom_site_label
 _atom_site_symmetry_multiplicity
 _atom_site_fract_x
 _atom_site_fract_y
 _atom_site_fract_z
 _atom_site_occupancy
  Li  Li0  1  0.295829  0.568057  0.568057  1
  Tb  Tb1  1  0.809355  0.188540  0.188540  1
  Tb  Tb2  1  0.184521  0.814949  0.814949  1
  Tb  Tb3  1  0.184521  0.814949  0.185581  1
  Tb  Tb4  1  0.809355  0.188540  0.813566  1
  Tb  Tb5  1  0.184521  0.185581  0.814949  1
  Tb  Tb6  1  0.809355  0.813566  0.188540  1
  Tb  Tb7  1  0.935941  0.562087  0.562088  1
  Tb  Tb8  1  0.561166  0.937863  0.937864  1
  Tb  Tb9  1  0.561167  0.937863  0.563108  1
  Tb  Tb10  1  0.935941  0.562087  0.939883  1
  Tb  Tb11  1  0.561167  0.563107  0.937864  1
  Tb  Tb12  1  0.935941  0.939882  0.562088  1
  Tb  Tb13  1  0.348036  0.347019  0.347019  1
  Tb  Tb14  1  0.348036  0.347019  0.957926  1
  Tb  Tb15  1  0.348036  0.957926  0.347019  1
  Tb  Tb16  1  0.949041  0.350319  0.350319  1
  Co  Co17  1  0.138596  0.142753  0.142753  1
  Co  Co18  1  0.138596  0.142753  0.575899  1
  Co  Co19  1  0.138596  0.575899  0.142753  1
  Co  Co20  1  0.573706  0.142098  0.142098  1
  Ag  Ag21  1  0.582861  0.583482  0.583482  1
  Ag  Ag22  1  0.582861  0.583482  0.250176  1
  Ag  Ag23  1  0.582861  0.250176  0.583482  1
