# generated using pymatgen
data_TbFe3MoP3Ir
_symmetry_space_group_name_H-M   'P 1'
_cell_length_a   3.76018500
_cell_length_b   10.47433300
_cell_length_c   12.19429500
_cell_angle_alpha   90.00000000
_cell_angle_beta   90.00000000
_cell_angle_gamma   90.00000000
_symmetry_Int_Tables_number   1
_chemical_formula_structural   TbFe3MoP3Ir
_chemical_formula_sum   'Tb4 Fe12 Mo4 P12 Ir4'
_cell_volume   480.27755007
_cell_formula_units_Z   4
loop_
 _symmetry_equiv_pos_site_id
 _symmetry_equiv_pos_as_xyz
  1  'x, y, z'
loop_
 _atom_site_type_symbol
 _atom_site_label
 _atom_site_symmetry_multiplicity
 _atom_site_fract_x
 _atom_site_fract_y
 _atom_site_fract_z
 _atom_site_occupancy
  Tb  Tb0  1  0.250000  0.582461  0.712243  1
  Tb  Tb1  1  0.250000  0.917539  0.212243  1
  Tb  Tb2  1  0.750000  0.417539  0.287757  1
  Tb  Tb3  1  0.750000  0.082461  0.787757  1
  Fe  Fe4  1  0.250000  0.218060  0.174498  1
  Fe  Fe5  1  0.250000  0.281940  0.674498  1
  Fe  Fe6  1  0.750000  0.781940  0.825502  1
  Fe  Fe7  1  0.750000  0.718060  0.325502  1
  Fe  Fe8  1  0.250000  0.880192  0.695024  1
  Fe  Fe9  1  0.250000  0.619808  0.195024  1
  Fe  Fe10  1  0.750000  0.119808  0.304976  1
  Fe  Fe11  1  0.750000  0.380192  0.804976  1
  Fe  Fe12  1  0.250000  0.462816  0.936159  1
  Fe  Fe13  1  0.250000  0.037184  0.436159  1
  Fe  Fe14  1  0.750000  0.537184  0.063841  1
  Fe  Fe15  1  0.750000  0.962816  0.563841  1
  Mo  Mo16  1  0.250000  0.700305  0.987145  1
  Mo  Mo17  1  0.250000  0.799695  0.487145  1
  Mo  Mo18  1  0.750000  0.299695  0.012855  1
  Mo  Mo19  1  0.750000  0.200305  0.512855  1
  P  P20  1  0.250000  0.424242  0.112856  1
  P  P21  1  0.250000  0.075758  0.612856  1
  P  P22  1  0.750000  0.575758  0.887144  1
  P  P23  1  0.750000  0.924242  0.387144  1
  P  P24  1  0.250000  0.274503  0.858033  1
  P  P25  1  0.250000  0.225497  0.358033  1
  P  P26  1  0.750000  0.725497  0.141967  1
  P  P27  1  0.750000  0.774503  0.641967  1
  P  P28  1  0.250000  0.604160  0.377722  1
  P  P29  1  0.250000  0.895840  0.877722  1
  P  P30  1  0.750000  0.395840  0.622278  1
  P  P31  1  0.750000  0.104160  0.122278  1
  Ir  Ir32  1  0.250000  0.403898  0.478436  1
  Ir  Ir33  1  0.250000  0.096102  0.978436  1
  Ir  Ir34  1  0.750000  0.596102  0.521564  1
  Ir  Ir35  1  0.750000  0.903898  0.021564  1
