# generated using pymatgen
data_KSr(PO3)3
_symmetry_space_group_name_H-M   'P 1'
_cell_length_a   7.05614800
_cell_length_b   7.05614800
_cell_length_c   10.74466000
_cell_angle_alpha   90.00000000
_cell_angle_beta   90.00000000
_cell_angle_gamma   119.99999062
_symmetry_Int_Tables_number   1
_chemical_formula_structural   KSr(PO3)3
_chemical_formula_sum   'K2 Sr2 P6 O18'
_cell_volume   463.29617324
_cell_formula_units_Z   2
loop_
 _symmetry_equiv_pos_site_id
 _symmetry_equiv_pos_as_xyz
  1  'x, y, z'
loop_
 _atom_site_type_symbol
 _atom_site_label
 _atom_site_symmetry_multiplicity
 _atom_site_fract_x
 _atom_site_fract_y
 _atom_site_fract_z
 _atom_site_occupancy
  K  K0  1  0.666667  0.333333  0.500000  1
  K  K1  1  0.666667  0.333333  0.000000  1
  Sr  Sr2  1  0.333333  0.666667  0.500000  1
  Sr  Sr3  1  0.333333  0.666667  0.000000  1
  P  P4  1  0.742343  0.767321  0.250000  1
  P  P5  1  0.232679  0.975022  0.250000  1
  P  P6  1  0.024978  0.257657  0.250000  1
  P  P7  1  0.024978  0.767321  0.750000  1
  P  P8  1  0.232679  0.257657  0.750000  1
  P  P9  1  0.742343  0.975022  0.750000  1
  O  O10  1  0.035187  0.371602  0.369891  1
  O  O11  1  0.628398  0.964813  0.630109  1
  O  O12  1  0.628398  0.663585  0.369891  1
  O  O13  1  0.336415  0.964813  0.369891  1
  O  O14  1  0.628398  0.663585  0.130109  1
  O  O15  1  0.336415  0.964813  0.130109  1
  O  O16  1  0.035187  0.371602  0.130109  1
  O  O17  1  0.336415  0.371602  0.869891  1
  O  O18  1  0.035187  0.663585  0.869891  1
  O  O19  1  0.035187  0.663585  0.630109  1
  O  O20  1  0.804199  0.782752  0.750000  1
  O  O21  1  0.978552  0.195801  0.750000  1
  O  O22  1  0.217248  0.021448  0.750000  1
  O  O23  1  0.217248  0.195801  0.250000  1
  O  O24  1  0.978552  0.782752  0.250000  1
  O  O25  1  0.804199  0.021448  0.250000  1
  O  O26  1  0.628398  0.964813  0.869891  1
  O  O27  1  0.336415  0.371602  0.630109  1
