# generated using pymatgen
data_Sm3HfGa2Ir3
_symmetry_space_group_name_H-M   'P 1'
_cell_length_a   7.26921700
_cell_length_b   7.13955645
_cell_length_c   4.26899800
_cell_angle_alpha   90.00000000
_cell_angle_beta   90.00000000
_cell_angle_gamma   119.41168942
_symmetry_Int_Tables_number   1
_chemical_formula_structural   Sm3HfGa2Ir3
_chemical_formula_sum   'Sm3 Hf1 Ga2 Ir3'
_cell_volume   193.00103154
_cell_formula_units_Z   1
loop_
 _symmetry_equiv_pos_site_id
 _symmetry_equiv_pos_as_xyz
  1  'x, y, z'
loop_
 _atom_site_type_symbol
 _atom_site_label
 _atom_site_symmetry_multiplicity
 _atom_site_fract_x
 _atom_site_fract_y
 _atom_site_fract_z
 _atom_site_occupancy
  Sm  Sm0  1  0.566413  0.579207  0.000000  1
  Sm  Sm1  1  0.433587  0.012795  0.000000  1
  Sm  Sm2  1  0.000000  0.392141  0.000000  1
  Hf  Hf3  1  0.000000  0.766069  0.500000  1
  Ga  Ga4  1  0.247197  0.244475  0.500000  1
  Ga  Ga5  1  0.752803  0.997278  0.500000  1
  Ir  Ir6  1  0.000000  0.991184  0.000000  1
  Ir  Ir7  1  0.679670  0.348261  0.500000  1
  Ir  Ir8  1  0.320330  0.668591  0.500000  1
