# generated using pymatgen
data_Zr8Ti11Si16Pd
_symmetry_space_group_name_H-M   'P 1'
_cell_length_a   6.85394850
_cell_length_b   6.85394850
_cell_length_c   12.49813115
_cell_angle_alpha   89.83802075
_cell_angle_beta   90.16197925
_cell_angle_gamma   89.81769249
_symmetry_Int_Tables_number   1
_chemical_formula_structural   Zr8Ti11Si16Pd
_chemical_formula_sum   'Zr8 Ti11 Si16 Pd1'
_cell_volume   587.11215471
_cell_formula_units_Z   1
loop_
 _symmetry_equiv_pos_site_id
 _symmetry_equiv_pos_as_xyz
  1  'x, y, z'
loop_
 _atom_site_type_symbol
 _atom_site_label
 _atom_site_symmetry_multiplicity
 _atom_site_fract_x
 _atom_site_fract_y
 _atom_site_fract_z
 _atom_site_occupancy
  Zr  Zr0  1  0.000233  0.655683  0.032776  1
  Zr  Zr1  1  0.998794  0.343011  0.531449  1
  Zr  Zr2  1  0.655683  0.000233  0.967224  1
  Zr  Zr3  1  0.156354  0.499047  0.781434  1
  Zr  Zr4  1  0.845560  0.500079  0.282987  1
  Zr  Zr5  1  0.499047  0.156354  0.218566  1
  Zr  Zr6  1  0.500079  0.845560  0.717013  1
  Zr  Zr7  1  0.343011  0.998794  0.468551  1
  Ti  Ti8  1  0.348487  0.502819  0.377896  1
  Ti  Ti9  1  0.851524  0.995963  0.372120  1
  Ti  Ti10  1  0.003695  0.151741  0.128501  1
  Ti  Ti11  1  0.995963  0.851524  0.627880  1
  Ti  Ti12  1  0.651138  0.495470  0.875995  1
  Ti  Ti13  1  0.502819  0.348487  0.622104  1
  Ti  Ti14  1  0.495470  0.651138  0.124005  1
  Ti  Ti15  1  0.151741  0.003695  0.871499  1
  Ti  Ti16  1  0.827595  0.172061  0.748954  1
  Ti  Ti17  1  0.172061  0.827595  0.251046  1
  Ti  Ti18  1  0.328358  0.328358  0.000000  1
  Si  Si19  1  0.052264  0.710436  0.437040  1
  Si  Si20  1  0.953554  0.292378  0.936423  1
  Si  Si21  1  0.710436  0.052264  0.562960  1
  Si  Si22  1  0.206992  0.454100  0.186294  1
  Si  Si23  1  0.792164  0.548386  0.686230  1
  Si  Si24  1  0.454100  0.206992  0.813706  1
  Si  Si25  1  0.548386  0.792164  0.313770  1
  Si  Si26  1  0.292378  0.953554  0.063577  1
  Si  Si27  1  0.864287  0.793001  0.822447  1
  Si  Si28  1  0.136804  0.205841  0.323121  1
  Si  Si29  1  0.793001  0.864287  0.177553  1
  Si  Si30  1  0.285220  0.631997  0.574647  1
  Si  Si31  1  0.705974  0.364747  0.072629  1
  Si  Si32  1  0.631997  0.285220  0.425353  1
  Si  Si33  1  0.364747  0.705974  0.927371  1
  Si  Si34  1  0.205841  0.136804  0.676879  1
  Pd  Pd35  1  0.674243  0.674243  0.500000  1
