# generated using pymatgen
data_ThU(PbCl6)2
_symmetry_space_group_name_H-M   'P 1'
_cell_length_a   7.27807897
_cell_length_b   7.27807906
_cell_length_c   13.35364100
_cell_angle_alpha   83.93498746
_cell_angle_beta   83.93498738
_cell_angle_gamma   119.35805919
_symmetry_Int_Tables_number   1
_chemical_formula_structural   ThU(PbCl6)2
_chemical_formula_sum   'Th1 U1 Pb2 Cl12'
_cell_volume   602.85262024
_cell_formula_units_Z   1
loop_
 _symmetry_equiv_pos_site_id
 _symmetry_equiv_pos_as_xyz
  1  'x, y, z'
loop_
 _atom_site_type_symbol
 _atom_site_label
 _atom_site_symmetry_multiplicity
 _atom_site_fract_x
 _atom_site_fract_y
 _atom_site_fract_z
 _atom_site_occupancy
  Th  Th0  1  0.419138  0.580862  0.250000  1
  U  U1  1  0.581179  0.418821  0.750000  1
  Pb  Pb2  1  0.084687  0.915313  0.250000  1
  Pb  Pb3  1  0.916553  0.083447  0.750000  1
  Cl  Cl4  1  0.319441  0.451923  0.636897  1
  Cl  Cl5  1  0.451679  0.311862  0.134741  1
  Cl  Cl6  1  0.234398  0.083729  0.865557  1
  Cl  Cl7  1  0.077667  0.228329  0.367755  1
  Cl  Cl8  1  0.170575  0.644357  0.131011  1
  Cl  Cl9  1  0.641992  0.177108  0.633670  1
  Cl  Cl10  1  0.355643  0.829425  0.368989  1
  Cl  Cl11  1  0.822892  0.358008  0.866330  1
  Cl  Cl12  1  0.771671  0.922333  0.132245  1
  Cl  Cl13  1  0.916271  0.765602  0.634443  1
  Cl  Cl14  1  0.548077  0.680559  0.863103  1
  Cl  Cl15  1  0.688138  0.548321  0.365259  1
