# generated using pymatgen
data_Dy2HoTm5Pt4
_symmetry_space_group_name_H-M   'P 1'
_cell_length_a   4.74340300
_cell_length_b   7.09505811
_cell_length_c   8.70872601
_cell_angle_alpha   89.96550859
_cell_angle_beta   90.00000000
_cell_angle_gamma   90.00000000
_symmetry_Int_Tables_number   1
_chemical_formula_structural   Dy2HoTm5Pt4
_chemical_formula_sum   'Dy2 Ho1 Tm5 Pt4'
_cell_volume   293.08968148
_cell_formula_units_Z   1
loop_
 _symmetry_equiv_pos_site_id
 _symmetry_equiv_pos_as_xyz
  1  'x, y, z'
loop_
 _atom_site_type_symbol
 _atom_site_label
 _atom_site_symmetry_multiplicity
 _atom_site_fract_x
 _atom_site_fract_y
 _atom_site_fract_z
 _atom_site_occupancy
  Dy  Dy0  1  0.250000  0.510510  0.170520  1
  Dy  Dy1  1  0.750000  0.489364  0.829864  1
  Ho  Ho2  1  0.750000  0.989228  0.669289  1
  Tm  Tm3  1  0.250000  0.143930  0.921298  1
  Tm  Tm4  1  0.250000  0.644584  0.578644  1
  Tm  Tm5  1  0.750000  0.856234  0.079995  1
  Tm  Tm6  1  0.750000  0.355102  0.420900  1
  Tm  Tm7  1  0.250000  0.010746  0.331404  1
  Pt  Pt8  1  0.250000  0.242512  0.592036  1
  Pt  Pt9  1  0.250000  0.743162  0.906399  1
  Pt  Pt10  1  0.750000  0.758185  0.406050  1
  Pt  Pt11  1  0.750000  0.256443  0.093601  1
