# generated using pymatgen
data_LiSb4
_symmetry_space_group_name_H-M   'P 1'
_cell_length_a   11.55806503
_cell_length_b   11.55806702
_cell_length_c   11.55806539
_cell_angle_alpha   163.69390988
_cell_angle_beta   113.19492262
_cell_angle_gamma   69.29013613
_symmetry_Int_Tables_number   1
_chemical_formula_structural   LiSb4
_chemical_formula_sum   'Li3 Sb12'
_cell_volume   396.69187156
_cell_formula_units_Z   3
loop_
 _symmetry_equiv_pos_site_id
 _symmetry_equiv_pos_as_xyz
  1  'x, y, z'
loop_
 _atom_site_type_symbol
 _atom_site_label
 _atom_site_symmetry_multiplicity
 _atom_site_fract_x
 _atom_site_fract_y
 _atom_site_fract_z
 _atom_site_occupancy
  Li  Li0  1  0.000708  0.000708  0.000000  1
  Li  Li1  1  0.333723  0.000548  0.333176  1
  Li  Li2  1  0.667373  0.000548  0.666825  1
  Sb  Sb3  1  0.416836  0.416836  0.000000  1
  Sb  Sb4  1  0.584760  0.584760  0.000000  1
  Sb  Sb5  1  0.863943  0.697291  0.166651  1
  Sb  Sb6  1  0.470906  0.304218  0.166689  1
  Sb  Sb7  1  0.918111  0.584781  0.333330  1
  Sb  Sb8  1  0.750158  0.416787  0.333371  1
  Sb  Sb9  1  0.804133  0.304132  0.500000  1
  Sb  Sb10  1  0.197314  0.697314  0.500000  1
  Sb  Sb11  1  0.083416  0.416787  0.666628  1
  Sb  Sb12  1  0.251451  0.584780  0.666669  1
  Sb  Sb13  1  0.137531  0.304218  0.833310  1
  Sb  Sb14  1  0.530642  0.697291  0.833349  1
