# generated using pymatgen
data_Tb2Ho3Lu3Pt4
_symmetry_space_group_name_H-M   'P 1'
_cell_length_a   4.74396000
_cell_length_b   7.10056385
_cell_length_c   8.67822502
_cell_angle_alpha   89.96824104
_cell_angle_beta   90.00000000
_cell_angle_gamma   90.00000000
_symmetry_Int_Tables_number   1
_chemical_formula_structural   Tb2Ho3Lu3Pt4
_chemical_formula_sum   'Tb2 Ho3 Lu3 Pt4'
_cell_volume   292.32415009
_cell_formula_units_Z   1
loop_
 _symmetry_equiv_pos_site_id
 _symmetry_equiv_pos_as_xyz
  1  'x, y, z'
loop_
 _atom_site_type_symbol
 _atom_site_label
 _atom_site_symmetry_multiplicity
 _atom_site_fract_x
 _atom_site_fract_y
 _atom_site_fract_z
 _atom_site_occupancy
  Tb  Tb0  1  0.250000  0.990814  0.330056  1
  Tb  Tb1  1  0.250000  0.488836  0.168916  1
  Ho  Ho2  1  0.750000  0.643718  0.421305  1
  Ho  Ho3  1  0.750000  0.011625  0.670829  1
  Ho  Ho4  1  0.750000  0.510018  0.830159  1
  Lu  Lu5  1  0.250000  0.857066  0.921054  1
  Lu  Lu6  1  0.250000  0.355979  0.579810  1
  Lu  Lu7  1  0.750000  0.142694  0.077947  1
  Pt  Pt8  1  0.250000  0.254555  0.906201  1
  Pt  Pt9  1  0.250000  0.756101  0.595728  1
  Pt  Pt10  1  0.750000  0.745545  0.090321  1
  Pt  Pt11  1  0.750000  0.243051  0.407674  1
