# generated using pymatgen
data_YbSm2(MnC3)2
_symmetry_space_group_name_H-M   'P 1'
_cell_length_a   8.14359220
_cell_length_b   8.12872892
_cell_length_c   5.06716300
_cell_angle_alpha   90.00000000
_cell_angle_beta   90.00000000
_cell_angle_gamma   120.09339495
_symmetry_Int_Tables_number   1
_chemical_formula_structural   YbSm2(MnC3)2
_chemical_formula_sum   'Yb2 Sm4 Mn4 C12'
_cell_volume   290.21822156
_cell_formula_units_Z   2
loop_
 _symmetry_equiv_pos_site_id
 _symmetry_equiv_pos_as_xyz
  1  'x, y, z'
loop_
 _atom_site_type_symbol
 _atom_site_label
 _atom_site_symmetry_multiplicity
 _atom_site_fract_x
 _atom_site_fract_y
 _atom_site_fract_z
 _atom_site_occupancy
  Yb  Yb0  1  0.614433  0.685339  0.750000  1
  Yb  Yb1  1  0.926383  0.614665  0.250000  1
  Sm  Sm2  1  0.686063  0.071288  0.250000  1
  Sm  Sm3  1  0.312363  0.928435  0.750000  1
  Sm  Sm4  1  0.070767  0.387918  0.750000  1
  Sm  Sm5  1  0.387285  0.317820  0.250000  1
  Mn  Mn6  1  0.996585  0.995301  0.500322  1
  Mn  Mn7  1  0.996585  0.995301  0.999678  1
  Mn  Mn8  1  0.666905  0.330804  0.750000  1
  Mn  Mn9  1  0.336585  0.667784  0.250000  1
  C  C10  1  0.954110  0.771611  0.750000  1
  C  C11  1  0.185623  0.957035  0.250000  1
  C  C12  1  0.776219  0.819527  0.250000  1
  C  C13  1  0.229944  0.190455  0.750000  1
  C  C14  1  0.817587  0.041050  0.750000  1
  C  C15  1  0.039977  0.229455  0.250000  1
  C  C16  1  0.855558  0.578687  0.750000  1
  C  C17  1  0.276173  0.854750  0.250000  1
  C  C18  1  0.583064  0.720490  0.250000  1
  C  C19  1  0.423496  0.281221  0.750000  1
  C  C20  1  0.143184  0.423252  0.250000  1
  C  C21  1  0.721111  0.137813  0.750000  1
