# generated using pymatgen
data_CePr4(PdO6)2
_symmetry_space_group_name_H-M   'P 1'
_cell_length_a   7.14305723
_cell_length_b   7.14305769
_cell_length_c   7.54807925
_cell_angle_alpha   74.47150811
_cell_angle_beta   74.47149948
_cell_angle_gamma   50.49810491
_symmetry_Int_Tables_number   1
_chemical_formula_structural   CePr4(PdO6)2
_chemical_formula_sum   'Ce1 Pr4 Pd2 O12'
_cell_volume   283.84959678
_cell_formula_units_Z   1
loop_
 _symmetry_equiv_pos_site_id
 _symmetry_equiv_pos_as_xyz
  1  'x, y, z'
loop_
 _atom_site_type_symbol
 _atom_site_label
 _atom_site_symmetry_multiplicity
 _atom_site_fract_x
 _atom_site_fract_y
 _atom_site_fract_z
 _atom_site_occupancy
  Ce  Ce0  1  0.304935  0.304935  0.354745  1
  Pr  Pr1  1  0.694750  0.694750  0.644774  1
  Pr  Pr2  1  0.694862  0.694862  0.159899  1
  Pr  Pr3  1  0.303943  0.303943  0.840555  1
  Pr  Pr4  1  0.000782  0.000782  0.497414  1
  Pd  Pd5  1  0.752623  0.246730  0.001845  1
  Pd  Pd6  1  0.246730  0.752623  0.001845  1
  O  O7  1  0.103355  0.588837  0.562731  1
  O  O8  1  0.999964  0.999964  0.179762  1
  O  O9  1  0.396332  0.919404  0.422797  1
  O  O10  1  0.498157  0.498157  0.185081  1
  O  O11  1  0.101515  0.568089  0.092504  1
  O  O12  1  0.919404  0.396332  0.422797  1
  O  O13  1  0.998254  0.998254  0.822969  1
  O  O14  1  0.588837  0.103354  0.562731  1
  O  O15  1  0.499090  0.499090  0.820786  1
  O  O16  1  0.568089  0.101515  0.092504  1
  O  O17  1  0.425873  0.902506  0.917131  1
  O  O18  1  0.902506  0.425873  0.917131  1
