# generated using pymatgen
data_B4IrPd4Pt2Rh
_symmetry_space_group_name_H-M   'P 1'
_cell_length_a   6.84952167
_cell_length_b   6.20501721
_cell_length_c   5.53499302
_cell_angle_alpha   69.67796411
_cell_angle_beta   58.44850299
_cell_angle_gamma   49.88043773
_symmetry_Int_Tables_number   1
_chemical_formula_structural   B4IrPd4Pt2Rh
_chemical_formula_sum   'B4 Ir1 Pd4 Pt2 Rh1'
_cell_volume   153.28027221
_cell_formula_units_Z   1
loop_
 _symmetry_equiv_pos_site_id
 _symmetry_equiv_pos_as_xyz
  1  'x, y, z'
loop_
 _atom_site_type_symbol
 _atom_site_label
 _atom_site_symmetry_multiplicity
 _atom_site_fract_x
 _atom_site_fract_y
 _atom_site_fract_z
 _atom_site_occupancy
  B  B0  1  0.051828  0.993195  0.572683  1
  B  B1  1  0.695173  0.838213  0.216321  1
  B  B2  1  0.393642  0.567719  0.985867  1
  B  B3  1  0.252276  0.210476  0.839834  1
  Ir  Ir4  1  0.392007  0.869272  0.643439  1
  Pd  Pd5  1  0.958444  0.782887  0.379108  1
  Pd  Pd6  1  0.470332  0.294667  0.363752  1
  Pd  Pd7  1  0.866461  0.366057  0.294796  1
  Pd  Pd8  1  0.877292  0.384935  0.779214  1
  Pt  Pt9  1  0.388034  0.849889  0.153750  1
  Pt  Pt10  1  0.612175  0.150336  0.848069  1
  Rh  Rh11  1  0.097536  0.637153  0.867966  1
