# generated using pymatgen
data_Cs2KSb(AsSe2)6
_symmetry_space_group_name_H-M   'P 1'
_cell_length_a   10.09138000
_cell_length_b   10.09138049
_cell_length_c   8.28990900
_cell_angle_alpha   90.00000000
_cell_angle_beta   90.00000000
_cell_angle_gamma   119.99999841
_symmetry_Int_Tables_number   1
_chemical_formula_structural   Cs2KSb(AsSe2)6
_chemical_formula_sum   'Cs2 K1 Sb1 As6 Se12'
_cell_volume   731.10801204
_cell_formula_units_Z   1
loop_
 _symmetry_equiv_pos_site_id
 _symmetry_equiv_pos_as_xyz
  1  'x, y, z'
loop_
 _atom_site_type_symbol
 _atom_site_label
 _atom_site_symmetry_multiplicity
 _atom_site_fract_x
 _atom_site_fract_y
 _atom_site_fract_z
 _atom_site_occupancy
  Cs  Cs0  1  0.333333  0.666667  0.865131  1
  Cs  Cs1  1  0.666667  0.333333  0.134869  1
  K  K2  1  0.000000  0.000000  0.000000  1
  Sb  Sb3  1  0.000000  0.000000  0.500000  1
  As  As4  1  0.285816  0.838547  0.403859  1
  As  As5  1  0.161453  0.447269  0.403859  1
  As  As6  1  0.552731  0.714184  0.403859  1
  As  As7  1  0.714184  0.161453  0.596141  1
  As  As8  1  0.838547  0.552731  0.596141  1
  As  As9  1  0.447269  0.285816  0.596141  1
  Se  Se10  1  0.253002  0.039330  0.296316  1
  Se  Se11  1  0.960670  0.213671  0.296316  1
  Se  Se12  1  0.786329  0.746998  0.296316  1
  Se  Se13  1  0.746998  0.960670  0.703684  1
  Se  Se14  1  0.039330  0.786329  0.703684  1
  Se  Se15  1  0.213671  0.253002  0.703684  1
  Se  Se16  1  0.522729  0.906392  0.247801  1
  Se  Se17  1  0.093608  0.616335  0.247801  1
  Se  Se18  1  0.383665  0.477271  0.247801  1
  Se  Se19  1  0.477271  0.093608  0.752199  1
  Se  Se20  1  0.906392  0.383665  0.752199  1
  Se  Se21  1  0.616335  0.522729  0.752199  1
