# generated using pymatgen
data_Dy5Er3(Ni4As3)4
_symmetry_space_group_name_H-M   'P 1'
_cell_length_a   12.85216200
_cell_length_b   12.85216132
_cell_length_c   3.95084500
_cell_angle_alpha   90.00000000
_cell_angle_beta   90.00000000
_cell_angle_gamma   120.00000175
_symmetry_Int_Tables_number   1
_chemical_formula_structural   Dy5Er3(Ni4As3)4
_chemical_formula_sum   'Dy5 Er3 Ni16 As12'
_cell_volume   565.16202826
_cell_formula_units_Z   1
loop_
 _symmetry_equiv_pos_site_id
 _symmetry_equiv_pos_as_xyz
  1  'x, y, z'
loop_
 _atom_site_type_symbol
 _atom_site_label
 _atom_site_symmetry_multiplicity
 _atom_site_fract_x
 _atom_site_fract_y
 _atom_site_fract_z
 _atom_site_occupancy
  Dy  Dy0  1  0.181904  0.181904  0.500000  1
  Dy  Dy1  1  0.818096  0.000000  0.500000  1
  Dy  Dy2  1  0.000000  0.818096  0.500000  1
  Dy  Dy3  1  0.333333  0.666667  0.000000  1
  Dy  Dy4  1  0.666667  0.333333  0.000000  1
  Er  Er5  1  0.565098  0.565098  0.000000  1
  Er  Er6  1  0.434902  0.000000  0.000000  1
  Er  Er7  1  0.000000  0.434902  0.000000  1
  Ni  Ni8  1  0.725073  0.725073  0.500000  1
  Ni  Ni9  1  0.274927  0.000000  0.500000  1
  Ni  Ni10  1  0.000000  0.274927  0.500000  1
  Ni  Ni11  1  0.186324  0.377217  0.000000  1
  Ni  Ni12  1  0.622783  0.809109  0.000000  1
  Ni  Ni13  1  0.190891  0.813676  0.000000  1
  Ni  Ni14  1  0.809109  0.622783  0.000000  1
  Ni  Ni15  1  0.813676  0.190891  0.000000  1
  Ni  Ni16  1  0.377217  0.186324  0.000000  1
  Ni  Ni17  1  0.361641  0.481004  0.500000  1
  Ni  Ni18  1  0.518996  0.880638  0.500000  1
  Ni  Ni19  1  0.119362  0.638359  0.500000  1
  Ni  Ni20  1  0.880638  0.518996  0.500000  1
  Ni  Ni21  1  0.638359  0.119362  0.500000  1
  Ni  Ni22  1  0.481004  0.361641  0.500000  1
  Ni  Ni23  1  0.000000  0.000000  0.000000  1
  As  As24  1  0.822084  0.822084  0.000000  1
  As  As25  1  0.177916  0.000000  0.000000  1
  As  As26  1  0.000000  0.177916  0.000000  1
  As  As27  1  0.175414  0.478087  0.500000  1
  As  As28  1  0.521913  0.697327  0.500000  1
  As  As29  1  0.302673  0.824586  0.500000  1
  As  As30  1  0.697327  0.521913  0.500000  1
  As  As31  1  0.824586  0.302673  0.500000  1
  As  As32  1  0.478087  0.175414  0.500000  1
  As  As33  1  0.351555  0.351555  0.000000  1
  As  As34  1  0.648445  0.000000  0.000000  1
  As  As35  1  0.000000  0.648445  0.000000  1
