# generated using pymatgen
data_Eu9Hg4
_symmetry_space_group_name_H-M   'P 1'
_cell_length_a   9.38624632
_cell_length_b   9.38624627
_cell_length_c   9.38624700
_cell_angle_alpha   94.86920663
_cell_angle_beta   94.86920048
_cell_angle_gamma   146.12310287
_symmetry_Int_Tables_number   1
_chemical_formula_structural   Eu9Hg4
_chemical_formula_sum   'Eu9 Hg4'
_cell_volume   440.95029683
_cell_formula_units_Z   1
loop_
 _symmetry_equiv_pos_site_id
 _symmetry_equiv_pos_as_xyz
  1  'x, y, z'
loop_
 _atom_site_type_symbol
 _atom_site_label
 _atom_site_symmetry_multiplicity
 _atom_site_fract_x
 _atom_site_fract_y
 _atom_site_fract_z
 _atom_site_occupancy
  Eu  Eu0  1  0.894973  0.384744  0.279505  1
  Eu  Eu1  1  0.105027  0.615256  0.720495  1
  Eu  Eu2  1  0.384826  0.105560  0.490124  1
  Eu  Eu3  1  0.615174  0.894440  0.509876  1
  Eu  Eu4  1  0.000000  0.000000  0.000000  1
  Eu  Eu5  1  0.608933  0.314965  0.924195  1
  Eu  Eu6  1  0.391067  0.685035  0.075805  1
  Eu  Eu7  1  0.315525  0.391311  0.706334  1
  Eu  Eu8  1  0.684475  0.608689  0.293666  1
  Hg  Hg9  1  0.763063  0.100926  0.863660  1
  Hg  Hg10  1  0.236937  0.899074  0.136340  1
  Hg  Hg11  1  0.100760  0.237011  0.338185  1
  Hg  Hg12  1  0.899240  0.762989  0.661815  1
