# generated using pymatgen
data_Na2Mo3S4
_symmetry_space_group_name_H-M   'P 1'
_cell_length_a   6.93932663
_cell_length_b   7.05095733
_cell_length_c   6.99190378
_cell_angle_alpha   96.37720877
_cell_angle_beta   94.59396980
_cell_angle_gamma   92.53711994
_symmetry_Int_Tables_number   1
_chemical_formula_structural   Na2Mo3S4
_chemical_formula_sum   'Na4 Mo6 S8'
_cell_volume   338.40858550
_cell_formula_units_Z   2
loop_
 _symmetry_equiv_pos_site_id
 _symmetry_equiv_pos_as_xyz
  1  'x, y, z'
loop_
 _atom_site_type_symbol
 _atom_site_label
 _atom_site_symmetry_multiplicity
 _atom_site_fract_x
 _atom_site_fract_y
 _atom_site_fract_z
 _atom_site_occupancy
  Na  Na0  1  0.999950  0.900407  0.119327  1
  Na  Na1  1  0.979239  0.412598  0.009289  1
  Na  Na2  1  0.965880  0.031957  0.615902  1
  Na  Na3  1  0.480872  0.003302  0.986562  1
  Mo  Mo4  1  0.576442  0.753186  0.452283  1
  Mo  Mo5  1  0.239219  0.548605  0.409058  1
  Mo  Mo6  1  0.445855  0.588151  0.749717  1
  Mo  Mo7  1  0.544728  0.414828  0.237490  1
  Mo  Mo8  1  0.752485  0.454136  0.578623  1
  Mo  Mo9  1  0.415002  0.248353  0.534692  1
  S  S10  1  0.294880  0.866332  0.612351  1
  S  S11  1  0.371460  0.692160  0.133921  1
  S  S12  1  0.760819  0.767783  0.777594  1
  S  S13  1  0.858791  0.615040  0.306415  1
  S  S14  1  0.134460  0.393576  0.683729  1
  S  S15  1  0.232390  0.227704  0.218259  1
  S  S16  1  0.614650  0.309106  0.851389  1
  S  S17  1  0.699879  0.135777  0.364398  1
