# generated using pymatgen
data_U4Ru11Rh
_symmetry_space_group_name_H-M   'P 1'
_cell_length_a   5.67853600
_cell_length_b   5.66684698
_cell_length_c   9.20344784
_cell_angle_alpha   90.32251353
_cell_angle_beta   90.00000000
_cell_angle_gamma   120.06825712
_symmetry_Int_Tables_number   1
_chemical_formula_structural   U4Ru11Rh
_chemical_formula_sum   'U4 Ru11 Rh1'
_cell_volume   256.30126474
_cell_formula_units_Z   1
loop_
 _symmetry_equiv_pos_site_id
 _symmetry_equiv_pos_as_xyz
  1  'x, y, z'
loop_
 _atom_site_type_symbol
 _atom_site_label
 _atom_site_symmetry_multiplicity
 _atom_site_fract_x
 _atom_site_fract_y
 _atom_site_fract_z
 _atom_site_occupancy
  U  U0  1  0.000000  0.000000  0.500000  1
  U  U1  1  0.000000  0.000000  0.000000  1
  U  U2  1  0.333346  0.666694  0.751973  1
  U  U3  1  0.666654  0.333306  0.248027  1
  Ru  Ru4  1  0.500000  0.500000  0.500000  1
  Ru  Ru5  1  0.000000  0.500000  0.500000  1
  Ru  Ru6  1  0.500000  0.500000  0.000000  1
  Ru  Ru7  1  0.500000  0.000000  0.000000  1
  Ru  Ru8  1  0.000000  0.500000  0.000000  1
  Ru  Ru9  1  0.165757  0.828937  0.249946  1
  Ru  Ru10  1  0.166616  0.333231  0.250496  1
  Ru  Ru11  1  0.663178  0.828937  0.249946  1
  Ru  Ru12  1  0.834243  0.171063  0.750054  1
  Ru  Ru13  1  0.833384  0.666769  0.749504  1
  Ru  Ru14  1  0.336822  0.171063  0.750054  1
  Rh  Rh15  1  0.500000  0.000000  0.500000  1
