# generated using pymatgen
data_CeGa7Cu5
_symmetry_space_group_name_H-M   'P 1'
_cell_length_a   6.75073757
_cell_length_b   6.75073756
_cell_length_c   6.75073747
_cell_angle_alpha   134.45354573
_cell_angle_beta   97.86316819
_cell_angle_gamma   99.37302939
_symmetry_Int_Tables_number   1
_chemical_formula_structural   CeGa7Cu5
_chemical_formula_sum   'Ce1 Ga7 Cu5'
_cell_volume   202.46136795
_cell_formula_units_Z   1
loop_
 _symmetry_equiv_pos_site_id
 _symmetry_equiv_pos_as_xyz
  1  'x, y, z'
loop_
 _atom_site_type_symbol
 _atom_site_label
 _atom_site_symmetry_multiplicity
 _atom_site_fract_x
 _atom_site_fract_y
 _atom_site_fract_z
 _atom_site_occupancy
  Ce  Ce0  1  0.001604  0.001604  0.000000  1
  Ga  Ga1  1  0.351538  0.351538  0.000000  1
  Ga  Ga2  1  0.653757  0.653757  0.000000  1
  Ga  Ga3  1  0.660818  0.008160  0.652657  1
  Ga  Ga4  1  0.355503  0.008160  0.347343  1
  Ga  Ga5  1  0.229192  0.729192  0.500000  1
  Ga  Ga6  1  0.196415  0.491692  0.704723  1
  Ga  Ga7  1  0.786969  0.491692  0.295277  1
  Cu  Cu8  1  0.500186  0.994771  0.998323  1
  Cu  Cu9  1  0.500186  0.501864  0.505416  1
  Cu  Cu10  1  0.996449  0.994771  0.494584  1
  Cu  Cu11  1  0.996449  0.501864  0.001677  1
  Cu  Cu12  1  0.770934  0.270934  0.500000  1
