# generated using pymatgen
data_Cr4CN
_symmetry_space_group_name_H-M   'P 1'
_cell_length_a   2.81469117
_cell_length_b   5.16247802
_cell_length_c   4.80670916
_cell_angle_alpha   89.79351139
_cell_angle_beta   89.99840906
_cell_angle_gamma   56.97373067
_symmetry_Int_Tables_number   1
_chemical_formula_structural   Cr4CN
_chemical_formula_sum   'Cr4 C1 N1'
_cell_volume   58.55916309
_cell_formula_units_Z   1
loop_
 _symmetry_equiv_pos_site_id
 _symmetry_equiv_pos_as_xyz
  1  'x, y, z'
loop_
 _atom_site_type_symbol
 _atom_site_label
 _atom_site_symmetry_multiplicity
 _atom_site_fract_x
 _atom_site_fract_y
 _atom_site_fract_z
 _atom_site_occupancy
  Cr  Cr0  1  0.889831  0.582402  0.083342  1
  Cr  Cr1  1  0.403694  0.569150  0.582395  1
  Cr  Cr2  1  0.884815  0.087397  0.273036  1
  Cr  Cr3  1  0.398167  0.074170  0.771951  1
  C  C4  1  0.644529  0.828023  0.427669  1
  N  N5  1  0.643991  0.328307  0.927613  1
