# generated using pymatgen
data_Tm2Sc2(Ga8Pt3)3
_symmetry_space_group_name_H-M   'P 1'
_cell_length_a   7.53657831
_cell_length_b   7.53671663
_cell_length_c   13.21550644
_cell_angle_alpha   84.63131273
_cell_angle_beta   79.25376253
_cell_angle_gamma   59.96924315
_symmetry_Int_Tables_number   1
_chemical_formula_structural   Tm2Sc2(Ga8Pt3)3
_chemical_formula_sum   'Tm2 Sc2 Ga24 Pt9'
_cell_volume   638.48719371
_cell_formula_units_Z   1
loop_
 _symmetry_equiv_pos_site_id
 _symmetry_equiv_pos_as_xyz
  1  'x, y, z'
loop_
 _atom_site_type_symbol
 _atom_site_label
 _atom_site_symmetry_multiplicity
 _atom_site_fract_x
 _atom_site_fract_y
 _atom_site_fract_z
 _atom_site_occupancy
  Tm  Tm0  1  0.393783  0.166972  0.809924  1
  Tm  Tm1  1  0.606217  0.833028  0.190076  1
  Sc  Sc2  1  0.730954  0.498674  0.809649  1
  Sc  Sc3  1  0.269046  0.501326  0.190351  1
  Ga  Ga4  1  0.682866  0.830004  0.936572  1
  Ga  Ga5  1  0.317134  0.169996  0.063428  1
  Ga  Ga6  1  0.146458  0.834023  0.561398  1
  Ga  Ga7  1  0.853542  0.165977  0.438602  1
  Ga  Ga8  1  0.480407  0.167326  0.557722  1
  Ga  Ga9  1  0.519593  0.832674  0.442278  1
  Ga  Ga10  1  0.223321  0.168499  0.320215  1
  Ga  Ga11  1  0.776679  0.831501  0.679785  1
  Ga  Ga12  1  0.438519  0.503715  0.679726  1
  Ga  Ga13  1  0.561481  0.496285  0.320274  1
  Ga  Ga14  1  0.102376  0.166269  0.680771  1
  Ga  Ga15  1  0.897624  0.833731  0.319229  1
  Ga  Ga16  1  0.362521  0.494840  0.937109  1
  Ga  Ga17  1  0.637479  0.505160  0.062891  1
  Ga  Ga18  1  0.016260  0.175249  0.940088  1
  Ga  Ga19  1  0.983740  0.824751  0.059912  1
  Ga  Ga20  1  0.185668  0.500064  0.441574  1
  Ga  Ga21  1  0.814332  0.499936  0.558426  1
  Ga  Ga22  1  0.733660  0.166649  0.182236  1
  Ga  Ga23  1  0.266340  0.833351  0.817764  1
  Ga  Ga24  1  0.058961  0.629940  0.817328  1
  Ga  Ga25  1  0.941039  0.370060  0.182672  1
  Ga  Ga26  1  0.853687  0.042538  0.817298  1
  Ga  Ga27  1  0.146313  0.957462  0.182702  1
  Pt  Pt28  1  0.120009  0.493236  0.640261  1
  Pt  Pt29  1  0.879991  0.506764  0.359739  1
  Pt  Pt30  1  0.662095  0.167653  0.000062  1
  Pt  Pt31  1  0.337905  0.832347  0.999938  1
  Pt  Pt32  1  0.539779  0.165603  0.359389  1
  Pt  Pt33  1  0.460221  0.834397  0.640611  1
  Pt  Pt34  1  0.778529  0.173803  0.638883  1
  Pt  Pt35  1  0.221471  0.826197  0.361117  1
  Pt  Pt36  1  0.000000  0.500000  0.000000  1
