# generated using pymatgen
data_Tb5P12Ir16Ru3
_symmetry_space_group_name_H-M   'P 1'
_cell_length_a   12.67459400
_cell_length_b   12.67459280
_cell_length_c   3.98782000
_cell_angle_alpha   90.00000000
_cell_angle_beta   90.00000000
_cell_angle_gamma   120.00000313
_symmetry_Int_Tables_number   1
_chemical_formula_structural   Tb5P12Ir16Ru3
_chemical_formula_sum   'Tb5 P12 Ir16 Ru3'
_cell_volume   554.79717024
_cell_formula_units_Z   1
loop_
 _symmetry_equiv_pos_site_id
 _symmetry_equiv_pos_as_xyz
  1  'x, y, z'
loop_
 _atom_site_type_symbol
 _atom_site_label
 _atom_site_symmetry_multiplicity
 _atom_site_fract_x
 _atom_site_fract_y
 _atom_site_fract_z
 _atom_site_occupancy
  Tb  Tb0  1  0.666667  0.333333  0.000000  1
  Tb  Tb1  1  0.333333  0.666667  0.000000  1
  Tb  Tb2  1  0.816890  0.000000  0.500000  1
  Tb  Tb3  1  0.183110  0.183110  0.500000  1
  Tb  Tb4  1  0.000000  0.816890  0.500000  1
  P  P5  1  0.641970  0.000000  0.000000  1
  P  P6  1  0.358030  0.358030  0.000000  1
  P  P7  1  0.000000  0.641970  0.000000  1
  P  P8  1  0.690048  0.520116  0.500000  1
  P  P9  1  0.830068  0.309952  0.500000  1
  P  P10  1  0.309952  0.830068  0.500000  1
  P  P11  1  0.520116  0.690048  0.500000  1
  P  P12  1  0.181414  0.000000  0.000000  1
  P  P13  1  0.818586  0.818586  0.000000  1
  P  P14  1  0.000000  0.181414  0.000000  1
  P  P15  1  0.479884  0.169932  0.500000  1
  P  P16  1  0.169932  0.479884  0.500000  1
  Ir  Ir17  1  0.622548  0.804511  0.000000  1
  Ir  Ir18  1  0.181963  0.377452  0.000000  1
  Ir  Ir19  1  0.377452  0.181963  0.000000  1
  Ir  Ir20  1  0.195489  0.818037  0.000000  1
  Ir  Ir21  1  0.804511  0.622548  0.000000  1
  Ir  Ir22  1  0.868679  0.505899  0.500000  1
  Ir  Ir23  1  0.494101  0.362780  0.500000  1
  Ir  Ir24  1  0.637220  0.131321  0.500000  1
  Ir  Ir25  1  0.131321  0.637220  0.500000  1
  Ir  Ir26  1  0.362780  0.494101  0.500000  1
  Ir  Ir27  1  0.505899  0.868679  0.500000  1
  Ir  Ir28  1  0.000000  0.000000  0.000000  1
  Ir  Ir29  1  0.460800  0.000000  0.000000  1
  Ir  Ir30  1  0.539200  0.539200  0.000000  1
  Ir  Ir31  1  0.000000  0.460800  0.000000  1
  Ir  Ir32  1  0.818037  0.195489  0.000000  1
  Ru  Ru33  1  0.714918  0.714918  0.500000  1
  Ru  Ru34  1  0.000000  0.285082  0.500000  1
  Ru  Ru35  1  0.285082  0.000000  0.500000  1
