# generated using pymatgen
data_Y3Er17GaBi11
_symmetry_space_group_name_H-M   'P 1'
_cell_length_a   8.16777720
_cell_length_b   9.42109600
_cell_length_c   11.97683505
_cell_angle_alpha   90.00000000
_cell_angle_beta   90.28619370
_cell_angle_gamma   90.00000000
_symmetry_Int_Tables_number   1
_chemical_formula_structural   Y3Er17GaBi11
_chemical_formula_sum   'Y3 Er17 Ga1 Bi11'
_cell_volume   921.59893095
_cell_formula_units_Z   1
loop_
 _symmetry_equiv_pos_site_id
 _symmetry_equiv_pos_as_xyz
  1  'x, y, z'
loop_
 _atom_site_type_symbol
 _atom_site_label
 _atom_site_symmetry_multiplicity
 _atom_site_fract_x
 _atom_site_fract_y
 _atom_site_fract_z
 _atom_site_occupancy
  Y  Y0  1  0.313619  0.250000  0.220145  1
  Y  Y1  1  0.647985  0.250000  0.785548  1
  Y  Y2  1  0.148618  0.250000  0.715478  1
  Er  Er3  1  0.036749  0.750000  0.990067  1
  Er  Er4  1  0.526857  0.750000  0.511450  1
  Er  Er5  1  0.977730  0.250000  0.010138  1
  Er  Er6  1  0.474317  0.250000  0.488887  1
  Er  Er7  1  0.191151  0.750000  0.722577  1
  Er  Er8  1  0.673116  0.750000  0.789028  1
  Er  Er9  1  0.811237  0.250000  0.280773  1
  Er  Er10  1  0.308667  0.451358  0.940616  1
  Er  Er11  1  0.805464  0.063348  0.559302  1
  Er  Er12  1  0.685539  0.929628  0.055339  1
  Er  Er13  1  0.194731  0.564078  0.439004  1
  Er  Er14  1  0.685539  0.570372  0.055339  1
  Er  Er15  1  0.194731  0.935922  0.439004  1
  Er  Er16  1  0.308667  0.048642  0.940616  1
  Er  Er17  1  0.805464  0.436652  0.559302  1
  Er  Er18  1  0.355888  0.750000  0.205544  1
  Er  Er19  1  0.852643  0.750000  0.284964  1
  Ga  Ga20  1  0.410707  0.750000  0.961552  1
  Bi  Bi21  1  0.435160  0.002936  0.674196  1
  Bi  Bi22  1  0.934844  0.499111  0.825505  1
  Bi  Bi23  1  0.565912  0.504992  0.325937  1
  Bi  Bi24  1  0.062926  0.996401  0.174958  1
  Bi  Bi25  1  0.565912  0.995008  0.325937  1
  Bi  Bi26  1  0.062926  0.503599  0.174958  1
  Bi  Bi27  1  0.435160  0.497064  0.674196  1
  Bi  Bi28  1  0.934844  0.000889  0.825505  1
  Bi  Bi29  1  0.910555  0.750000  0.544292  1
  Bi  Bi30  1  0.591890  0.250000  0.042629  1
  Bi  Bi31  1  0.090453  0.250000  0.457218  1
