# generated using pymatgen
data_Gd4V3B16Os
_symmetry_space_group_name_H-M   'P 1'
_cell_length_a   3.53036800
_cell_length_b   6.00526433
_cell_length_c   11.61895963
_cell_angle_alpha   89.96212994
_cell_angle_beta   90.00000000
_cell_angle_gamma   90.00000000
_symmetry_Int_Tables_number   1
_chemical_formula_structural   Gd4V3B16Os
_chemical_formula_sum   'Gd4 V3 B16 Os1'
_cell_volume   246.33110445
_cell_formula_units_Z   1
loop_
 _symmetry_equiv_pos_site_id
 _symmetry_equiv_pos_as_xyz
  1  'x, y, z'
loop_
 _atom_site_type_symbol
 _atom_site_label
 _atom_site_symmetry_multiplicity
 _atom_site_fract_x
 _atom_site_fract_y
 _atom_site_fract_z
 _atom_site_occupancy
  Gd  Gd0  1  0.000000  0.623801  0.351770  1
  Gd  Gd1  1  0.000000  0.375675  0.649479  1
  Gd  Gd2  1  0.000000  0.126259  0.152929  1
  Gd  Gd3  1  0.000000  0.874078  0.846443  1
  V  V4  1  0.000000  0.369275  0.917511  1
  V  V5  1  0.000000  0.125431  0.416179  1
  V  V6  1  0.000000  0.874649  0.581671  1
  B  B7  1  0.500000  0.782906  0.185063  1
  B  B8  1  0.500000  0.216218  0.814802  1
  B  B9  1  0.500000  0.284966  0.314819  1
  B  B10  1  0.500000  0.715768  0.684861  1
  B  B11  1  0.500000  0.863601  0.031857  1
  B  B12  1  0.500000  0.135836  0.968617  1
  B  B13  1  0.500000  0.363298  0.467117  1
  B  B14  1  0.500000  0.636902  0.532989  1
  B  B15  1  0.500000  0.887116  0.453334  1
  B  B16  1  0.500000  0.113675  0.546293  1
  B  B17  1  0.500000  0.387445  0.048074  1
  B  B18  1  0.500000  0.614805  0.953318  1
  B  B19  1  0.500000  0.975629  0.307985  1
  B  B20  1  0.500000  0.023529  0.691363  1
  B  B21  1  0.500000  0.476052  0.191848  1
  B  B22  1  0.500000  0.524046  0.808317  1
  Os  Os23  1  0.000000  0.629041  0.083360  1
