# generated using pymatgen
data_TbDyZnCo2
_symmetry_space_group_name_H-M   'P 1'
_cell_length_a   5.34057982
_cell_length_b   5.34058018
_cell_length_c   5.34058028
_cell_angle_alpha   135.06597010
_cell_angle_beta   118.78606455
_cell_angle_gamma   79.07867110
_symmetry_Int_Tables_number   1
_chemical_formula_structural   TbDyZnCo2
_chemical_formula_sum   'Tb1 Dy1 Zn1 Co2'
_cell_volume   91.42466172
_cell_formula_units_Z   1
loop_
 _symmetry_equiv_pos_site_id
 _symmetry_equiv_pos_as_xyz
  1  'x, y, z'
loop_
 _atom_site_type_symbol
 _atom_site_label
 _atom_site_symmetry_multiplicity
 _atom_site_fract_x
 _atom_site_fract_y
 _atom_site_fract_z
 _atom_site_occupancy
  Tb  Tb0  1  0.290331  0.790332  0.500000  1
  Dy  Dy1  1  0.709401  0.209401  0.500000  1
  Zn  Zn2  1  0.999808  0.999808  0.000000  1
  Co  Co3  1  0.707964  0.500229  0.207733  1
  Co  Co4  1  0.292497  0.500230  0.792267  1
