# generated using pymatgen
data_Na(VI3)2
_symmetry_space_group_name_H-M   'P 1'
_cell_length_a   7.67820800
_cell_length_b   7.67820957
_cell_length_c   13.41166400
_cell_angle_alpha   90.00000000
_cell_angle_beta   90.00000000
_cell_angle_gamma   119.99999322
_symmetry_Int_Tables_number   1
_chemical_formula_structural   Na(VI3)2
_chemical_formula_sum   'Na2 V4 I12'
_cell_volume   684.75176536
_cell_formula_units_Z   2
loop_
 _symmetry_equiv_pos_site_id
 _symmetry_equiv_pos_as_xyz
  1  'x, y, z'
loop_
 _atom_site_type_symbol
 _atom_site_label
 _atom_site_symmetry_multiplicity
 _atom_site_fract_x
 _atom_site_fract_y
 _atom_site_fract_z
 _atom_site_occupancy
  Na  Na0  1  0.333333  0.666667  0.870666  1
  Na  Na1  1  0.666667  0.333333  0.370666  1
  V  V2  1  0.000000  0.000000  0.119117  1
  V  V3  1  0.000000  0.000000  0.383049  1
  V  V4  1  0.000000  0.000000  0.619117  1
  V  V5  1  0.000000  0.000000  0.883049  1
  I  I6  1  0.987422  0.696031  0.001343  1
  I  I7  1  0.280226  0.986032  0.250956  1
  I  I8  1  0.013968  0.294194  0.250956  1
  I  I9  1  0.303969  0.291391  0.001343  1
  I  I10  1  0.291391  0.303969  0.501343  1
  I  I11  1  0.708609  0.012578  0.001343  1
  I  I12  1  0.294194  0.013968  0.750956  1
  I  I13  1  0.705806  0.719774  0.250956  1
  I  I14  1  0.719774  0.705806  0.750956  1
  I  I15  1  0.012578  0.708609  0.501343  1
  I  I16  1  0.696031  0.987422  0.501343  1
  I  I17  1  0.986032  0.280226  0.750956  1
