# generated using pymatgen
data_HoEr2Lu2CoSb2
_symmetry_space_group_name_H-M   'P 1'
_cell_length_a   7.71625800
_cell_length_b   8.71913200
_cell_length_c   12.04491400
_cell_angle_alpha   90.00000000
_cell_angle_beta   90.00000000
_cell_angle_gamma   90.00000000
_symmetry_Int_Tables_number   1
_chemical_formula_structural   HoEr2Lu2CoSb2
_chemical_formula_sum   'Ho4 Er8 Lu8 Co4 Sb8'
_cell_volume   810.37063682
_cell_formula_units_Z   4
loop_
 _symmetry_equiv_pos_site_id
 _symmetry_equiv_pos_as_xyz
  1  'x, y, z'
loop_
 _atom_site_type_symbol
 _atom_site_label
 _atom_site_symmetry_multiplicity
 _atom_site_fract_x
 _atom_site_fract_y
 _atom_site_fract_z
 _atom_site_occupancy
  Ho  Ho0  1  0.623297  0.750000  0.308710  1
  Ho  Ho1  1  0.123297  0.250000  0.191290  1
  Ho  Ho2  1  0.376703  0.250000  0.691290  1
  Ho  Ho3  1  0.876703  0.750000  0.808710  1
  Er  Er4  1  0.155234  0.750000  0.204034  1
  Er  Er5  1  0.655234  0.250000  0.295966  1
  Er  Er6  1  0.844766  0.250000  0.795966  1
  Er  Er7  1  0.344766  0.750000  0.704034  1
  Er  Er8  1  0.450257  0.750000  0.997733  1
  Er  Er9  1  0.950257  0.250000  0.502267  1
  Er  Er10  1  0.549743  0.250000  0.002267  1
  Er  Er11  1  0.049743  0.750000  0.497733  1
  Lu  Lu12  1  0.825299  0.963349  0.065150  1
  Lu  Lu13  1  0.325299  0.036651  0.434850  1
  Lu  Lu14  1  0.174701  0.463349  0.934850  1
  Lu  Lu15  1  0.674701  0.536651  0.565150  1
  Lu  Lu16  1  0.174701  0.036651  0.934850  1
  Lu  Lu17  1  0.674701  0.963349  0.565150  1
  Lu  Lu18  1  0.825299  0.536651  0.065150  1
  Lu  Lu19  1  0.325299  0.463349  0.434850  1
  Co  Co20  1  0.433627  0.750000  0.491399  1
  Co  Co21  1  0.933627  0.250000  0.008601  1
  Co  Co22  1  0.566373  0.250000  0.508601  1
  Co  Co23  1  0.066373  0.750000  0.991399  1
  Sb  Sb24  1  0.931767  0.992113  0.327556  1
  Sb  Sb25  1  0.431767  0.007887  0.172444  1
  Sb  Sb26  1  0.068233  0.492113  0.672444  1
  Sb  Sb27  1  0.568233  0.507887  0.827556  1
  Sb  Sb28  1  0.068233  0.007887  0.672444  1
  Sb  Sb29  1  0.568233  0.992113  0.827556  1
  Sb  Sb30  1  0.931767  0.507887  0.327556  1
  Sb  Sb31  1  0.431767  0.492113  0.172444  1
