# generated using pymatgen
data_Tb10Pb6AuBr
_symmetry_space_group_name_H-M   'P 1'
_cell_length_a   9.31324801
_cell_length_b   9.31330017
_cell_length_c   6.72236400
_cell_angle_alpha   90.00077017
_cell_angle_beta   90.00011220
_cell_angle_gamma   120.00051099
_symmetry_Int_Tables_number   1
_chemical_formula_structural   Tb10Pb6AuBr
_chemical_formula_sum   'Tb10 Pb6 Au1 Br1'
_cell_volume   504.95792079
_cell_formula_units_Z   1
loop_
 _symmetry_equiv_pos_site_id
 _symmetry_equiv_pos_as_xyz
  1  'x, y, z'
loop_
 _atom_site_type_symbol
 _atom_site_label
 _atom_site_symmetry_multiplicity
 _atom_site_fract_x
 _atom_site_fract_y
 _atom_site_fract_z
 _atom_site_occupancy
  Tb  Tb0  1  0.261614  0.999999  0.253439  1
  Tb  Tb1  1  0.738386  0.000001  0.746561  1
  Tb  Tb2  1  0.000000  0.261615  0.253441  1
  Tb  Tb3  1  0.000000  0.738385  0.746559  1
  Tb  Tb4  1  0.738385  0.738385  0.253439  1
  Tb  Tb5  1  0.261615  0.261615  0.746561  1
  Tb  Tb6  1  0.333328  0.666666  0.999999  1
  Tb  Tb7  1  0.666672  0.333334  0.000001  1
  Tb  Tb8  1  0.666664  0.333333  0.500001  1
  Tb  Tb9  1  0.333336  0.666667  0.499999  1
  Pb  Pb10  1  0.610233  0.999999  0.249118  1
  Pb  Pb11  1  0.389767  0.000001  0.750882  1
  Pb  Pb12  1  0.000005  0.610243  0.249123  1
  Pb  Pb13  1  0.999995  0.389757  0.750877  1
  Pb  Pb14  1  0.389759  0.389754  0.249114  1
  Pb  Pb15  1  0.610241  0.610246  0.750886  1
  Au  Au16  1  0.000000  0.000000  0.500000  1
  Br  Br17  1  0.000000  0.000000  0.000000  1
