# generated using pymatgen
data_Li2P7Ru7Rh5
_symmetry_space_group_name_H-M   'P 1'
_cell_length_a   9.43589727
_cell_length_b   9.37083726
_cell_length_c   3.90403700
_cell_angle_alpha   90.00000000
_cell_angle_beta   90.00000000
_cell_angle_gamma   120.47436268
_symmetry_Int_Tables_number   1
_chemical_formula_structural   Li2P7Ru7Rh5
_chemical_formula_sum   'Li2 P7 Ru7 Rh5'
_cell_volume   297.51599716
_cell_formula_units_Z   1
loop_
 _symmetry_equiv_pos_site_id
 _symmetry_equiv_pos_as_xyz
  1  'x, y, z'
loop_
 _atom_site_type_symbol
 _atom_site_label
 _atom_site_symmetry_multiplicity
 _atom_site_fract_x
 _atom_site_fract_y
 _atom_site_fract_z
 _atom_site_occupancy
  Li  Li0  1  0.001180  0.001532  0.000000  1
  Li  Li1  1  0.333304  0.665787  0.500000  1
  P  P2  1  0.669817  0.332645  0.000000  1
  P  P3  1  0.086611  0.635014  0.000000  1
  P  P4  1  0.544925  0.908786  0.000000  1
  P  P5  1  0.359665  0.448282  0.000000  1
  P  P6  1  0.790750  0.737039  0.500000  1
  P  P7  1  0.948717  0.211133  0.500000  1
  P  P8  1  0.263809  0.059906  0.500000  1
  Ru  Ru9  1  0.832679  0.610692  0.000000  1
  Ru  Ru10  1  0.776330  0.165970  0.000000  1
  Ru  Ru11  1  0.395890  0.224034  0.000000  1
  Ru  Ru12  1  0.225348  0.289361  0.500000  1
  Ru  Ru13  1  0.874038  0.415783  0.500000  1
  Ru  Ru14  1  0.538391  0.120201  0.500000  1
  Ru  Ru15  1  0.584109  0.460876  0.500000  1
  Rh  Rh16  1  0.095474  0.400854  0.000000  1
  Rh  Rh17  1  0.302531  0.900390  0.000000  1
  Rh  Rh18  1  0.597378  0.695250  0.000000  1
  Rh  Rh19  1  0.064475  0.781613  0.500000  1
  Rh  Rh20  1  0.714579  0.934852  0.500000  1
