# generated using pymatgen
data_TbY3B16Mo3W
_symmetry_space_group_name_H-M   'P 1'
_cell_length_a   3.63012500
_cell_length_b   6.04567401
_cell_length_c   11.67934917
_cell_angle_alpha   90.01342249
_cell_angle_beta   90.00000000
_cell_angle_gamma   90.00000000
_symmetry_Int_Tables_number   1
_chemical_formula_structural   TbY3B16Mo3W
_chemical_formula_sum   'Tb1 Y3 B16 Mo3 W1'
_cell_volume   256.32144117
_cell_formula_units_Z   1
loop_
 _symmetry_equiv_pos_site_id
 _symmetry_equiv_pos_as_xyz
  1  'x, y, z'
loop_
 _atom_site_type_symbol
 _atom_site_label
 _atom_site_symmetry_multiplicity
 _atom_site_fract_x
 _atom_site_fract_y
 _atom_site_fract_z
 _atom_site_occupancy
  Tb  Tb0  1  0.000000  0.126890  0.149629  1
  Y  Y1  1  0.000000  0.873048  0.850136  1
  Y  Y2  1  0.000000  0.627072  0.350228  1
  Y  Y3  1  0.000000  0.373268  0.649908  1
  B  B4  1  0.500000  0.023505  0.693388  1
  B  B5  1  0.500000  0.975856  0.306591  1
  B  B6  1  0.500000  0.523785  0.806547  1
  B  B7  1  0.500000  0.476493  0.193315  1
  B  B8  1  0.500000  0.113578  0.547582  1
  B  B9  1  0.500000  0.885910  0.452785  1
  B  B10  1  0.500000  0.613889  0.952565  1
  B  B11  1  0.500000  0.386257  0.047390  1
  B  B12  1  0.500000  0.287230  0.313581  1
  B  B13  1  0.500000  0.713311  0.686095  1
  B  B14  1  0.500000  0.786491  0.185984  1
  B  B15  1  0.500000  0.213299  0.813832  1
  B  B16  1  0.500000  0.366739  0.468291  1
  B  B17  1  0.500000  0.633806  0.532068  1
  B  B18  1  0.500000  0.866441  0.031884  1
  B  B19  1  0.500000  0.133472  0.968089  1
  Mo  Mo20  1  0.000000  0.869691  0.584017  1
  Mo  Mo21  1  0.000000  0.629619  0.083580  1
  Mo  Mo22  1  0.000000  0.370355  0.916492  1
  W  W23  1  0.000000  0.129994  0.416025  1
