# generated using pymatgen
data_Tb3YAl18HgIr5
_symmetry_space_group_name_H-M   'P 1'
_cell_length_a   7.63416908
_cell_length_b   7.63406284
_cell_length_c   9.50124101
_cell_angle_alpha   90.00634259
_cell_angle_beta   90.00733430
_cell_angle_gamma   119.76812589
_symmetry_Int_Tables_number   1
_chemical_formula_structural   Tb3YAl18HgIr5
_chemical_formula_sum   'Tb3 Y1 Al18 Hg1 Ir5'
_cell_volume   480.66053009
_cell_formula_units_Z   1
loop_
 _symmetry_equiv_pos_site_id
 _symmetry_equiv_pos_as_xyz
  1  'x, y, z'
loop_
 _atom_site_type_symbol
 _atom_site_label
 _atom_site_symmetry_multiplicity
 _atom_site_fract_x
 _atom_site_fract_y
 _atom_site_fract_z
 _atom_site_occupancy
  Tb  Tb0  1  0.000431  0.328985  0.749211  1
  Tb  Tb1  1  0.671026  0.999564  0.250797  1
  Tb  Tb2  1  0.335506  0.009727  0.748819  1
  Y  Y3  1  0.990272  0.664510  0.251222  1
  Al  Al4  1  0.125939  0.122582  0.252459  1
  Al  Al5  1  0.877393  0.874023  0.747541  1
  Al  Al6  1  0.019662  0.335172  0.080797  1
  Al  Al7  1  0.013978  0.681131  0.920178  1
  Al  Al8  1  0.003206  0.666357  0.571600  1
  Al  Al9  1  0.333617  0.996775  0.428374  1
  Al  Al10  1  0.000325  0.334198  0.426813  1
  Al  Al11  1  0.665843  0.999670  0.573180  1
  Al  Al12  1  0.664849  0.980328  0.919198  1
  Al  Al13  1  0.318834  0.985993  0.079830  1
  Al  Al14  1  0.330264  0.331458  0.548621  1
  Al  Al15  1  0.668573  0.669735  0.451364  1
  Al  Al16  1  0.665230  0.676619  0.062930  1
  Al  Al17  1  0.323380  0.334794  0.937077  1
  Al  Al18  1  0.341535  0.552868  0.252670  1
  Al  Al19  1  0.660403  0.463221  0.736472  1
  Al  Al20  1  0.536811  0.339599  0.263530  1
  Al  Al21  1  0.447156  0.658467  0.747332  1
  Hg  Hg22  1  0.675156  0.324833  0.999996  1
  Ir  Ir23  1  0.329201  0.670788  0.000019  1
  Ir  Ir24  1  0.328740  0.671259  0.499984  1
  Ir  Ir25  1  0.672614  0.327407  0.499983  1
  Ir  Ir26  1  0.999693  0.000300  0.000021  1
  Ir  Ir27  1  0.000365  0.999638  0.499985  1
