# generated using pymatgen
data_Tb16HoLu3Sn16
_symmetry_space_group_name_H-M   'P 1'
_cell_length_a   8.02597310
_cell_length_b   8.18570510
_cell_length_c   15.50374000
_cell_angle_alpha   90.00000000
_cell_angle_beta   90.00000000
_cell_angle_gamma   90.01763577
_symmetry_Int_Tables_number   1
_chemical_formula_structural   Tb16HoLu3Sn16
_chemical_formula_sum   'Tb16 Ho1 Lu3 Sn16'
_cell_volume   1018.56852072
_cell_formula_units_Z   1
loop_
 _symmetry_equiv_pos_site_id
 _symmetry_equiv_pos_as_xyz
  1  'x, y, z'
loop_
 _atom_site_type_symbol
 _atom_site_label
 _atom_site_symmetry_multiplicity
 _atom_site_fract_x
 _atom_site_fract_y
 _atom_site_fract_z
 _atom_site_occupancy
  Tb  Tb0  1  0.367605  0.836443  0.878234  1
  Tb  Tb1  1  0.867247  0.663835  0.621766  1
  Tb  Tb2  1  0.632517  0.163720  0.378212  1
  Tb  Tb3  1  0.132515  0.336314  0.121822  1
  Tb  Tb4  1  0.632517  0.163720  0.121788  1
  Tb  Tb5  1  0.132515  0.336314  0.378178  1
  Tb  Tb6  1  0.367605  0.836443  0.621766  1
  Tb  Tb7  1  0.867247  0.663835  0.878234  1
  Tb  Tb8  1  0.520199  0.319913  0.902489  1
  Tb  Tb9  1  0.020035  0.179953  0.597525  1
  Tb  Tb10  1  0.479872  0.680004  0.402437  1
  Tb  Tb11  1  0.979903  0.819966  0.097536  1
  Tb  Tb12  1  0.479872  0.680004  0.097563  1
  Tb  Tb13  1  0.979903  0.819966  0.402464  1
  Tb  Tb14  1  0.520199  0.319913  0.597511  1
  Tb  Tb15  1  0.020035  0.179953  0.902475  1
  Ho  Ho16  1  0.198195  0.502331  0.750000  1
  Lu  Lu17  1  0.698487  0.997565  0.750000  1
  Lu  Lu18  1  0.801587  0.497618  0.250000  1
  Lu  Lu19  1  0.301584  0.002364  0.250000  1
  Sn  Sn20  1  0.292522  0.034598  0.042853  1
  Sn  Sn21  1  0.792518  0.465431  0.457148  1
  Sn  Sn22  1  0.707476  0.965380  0.542821  1
  Sn  Sn23  1  0.207473  0.534609  0.957381  1
  Sn  Sn24  1  0.707476  0.965380  0.957179  1
  Sn  Sn25  1  0.207473  0.534609  0.542619  1
  Sn  Sn26  1  0.292522  0.034598  0.457147  1
  Sn  Sn27  1  0.792518  0.465431  0.042852  1
  Sn  Sn28  1  0.564507  0.618638  0.750000  1
  Sn  Sn29  1  0.063847  0.881724  0.750000  1
  Sn  Sn30  1  0.436130  0.381505  0.250000  1
  Sn  Sn31  1  0.936061  0.118459  0.250000  1
  Sn  Sn32  1  0.328637  0.147185  0.750000  1
  Sn  Sn33  1  0.828411  0.352167  0.750000  1
  Sn  Sn34  1  0.671438  0.852285  0.250000  1
  Sn  Sn35  1  0.171354  0.647829  0.250000  1
