# generated using pymatgen
data_PaHg4(AsCl3)2
_symmetry_space_group_name_H-M   'P 1'
_cell_length_a   14.06350500
_cell_length_b   14.16347300
_cell_length_c   17.65363100
_cell_angle_alpha   90.00000000
_cell_angle_beta   90.00000000
_cell_angle_gamma   90.00000000
_symmetry_Int_Tables_number   1
_chemical_formula_structural   PaHg4(AsCl3)2
_chemical_formula_sum   'Pa8 Hg32 As16 Cl48'
_cell_volume   3516.39274657
_cell_formula_units_Z   8
loop_
 _symmetry_equiv_pos_site_id
 _symmetry_equiv_pos_as_xyz
  1  'x, y, z'
loop_
 _atom_site_type_symbol
 _atom_site_label
 _atom_site_symmetry_multiplicity
 _atom_site_fract_x
 _atom_site_fract_y
 _atom_site_fract_z
 _atom_site_occupancy
  Pa  Pa0  1  0.704130  0.994505  0.115385  1
  Pa  Pa1  1  0.204130  0.505495  0.884615  1
  Pa  Pa2  1  0.295870  0.494505  0.384615  1
  Pa  Pa3  1  0.795870  0.005495  0.615385  1
  Pa  Pa4  1  0.295870  0.005495  0.884615  1
  Pa  Pa5  1  0.795870  0.494505  0.115385  1
  Pa  Pa6  1  0.704130  0.505495  0.615385  1
  Pa  Pa7  1  0.204130  0.994505  0.384615  1
  Hg  Hg8  1  0.730373  0.235469  0.870847  1
  Hg  Hg9  1  0.230373  0.264531  0.129153  1
  Hg  Hg10  1  0.269627  0.735469  0.629153  1
  Hg  Hg11  1  0.769627  0.764531  0.370847  1
  Hg  Hg12  1  0.269627  0.764531  0.129153  1
  Hg  Hg13  1  0.769627  0.735469  0.870847  1
  Hg  Hg14  1  0.730373  0.264531  0.370847  1
  Hg  Hg15  1  0.230373  0.235469  0.629153  1
  Hg  Hg16  1  0.480745  0.286165  0.998423  1
  Hg  Hg17  1  0.980745  0.213835  0.001577  1
  Hg  Hg18  1  0.519255  0.786165  0.501577  1
  Hg  Hg19  1  0.019255  0.713835  0.498423  1
  Hg  Hg20  1  0.519255  0.713835  0.001577  1
  Hg  Hg21  1  0.019255  0.786165  0.998423  1
  Hg  Hg22  1  0.480745  0.213835  0.498423  1
  Hg  Hg23  1  0.980745  0.286165  0.501577  1
  Hg  Hg24  1  0.593903  0.489832  0.859426  1
  Hg  Hg25  1  0.093903  0.010168  0.140574  1
  Hg  Hg26  1  0.406097  0.989832  0.640574  1
  Hg  Hg27  1  0.906097  0.510168  0.359426  1
  Hg  Hg28  1  0.406097  0.510168  0.140574  1
  Hg  Hg29  1  0.906097  0.989832  0.859426  1
  Hg  Hg30  1  0.593903  0.010168  0.359426  1
  Hg  Hg31  1  0.093903  0.489832  0.640574  1
  Hg  Hg32  1  0.478914  0.243889  0.748184  1
  Hg  Hg33  1  0.978914  0.256111  0.251816  1
  Hg  Hg34  1  0.521086  0.743889  0.751816  1
  Hg  Hg35  1  0.021086  0.756111  0.248184  1
  Hg  Hg36  1  0.521086  0.756111  0.251816  1
  Hg  Hg37  1  0.021086  0.743889  0.748184  1
  Hg  Hg38  1  0.478914  0.256111  0.248184  1
  Hg  Hg39  1  0.978914  0.243889  0.751816  1
  As  As40  1  0.562815  0.309661  0.867567  1
  As  As41  1  0.062815  0.190339  0.132433  1
  As  As42  1  0.437185  0.809661  0.632433  1
  As  As43  1  0.937185  0.690339  0.367567  1
  As  As44  1  0.437185  0.690339  0.132433  1
  As  As45  1  0.937185  0.809661  0.867567  1
  As  As46  1  0.562815  0.190339  0.367567  1
  As  As47  1  0.062815  0.309661  0.632433  1
  As  As48  1  0.902533  0.172344  0.871992  1
  As  As49  1  0.402533  0.327656  0.128008  1
  As  As50  1  0.097467  0.672344  0.628008  1
  As  As51  1  0.597467  0.827656  0.371992  1
  As  As52  1  0.097467  0.827656  0.128008  1
  As  As53  1  0.597467  0.672344  0.871992  1
  As  As54  1  0.902533  0.327656  0.371992  1
  As  As55  1  0.402533  0.172344  0.628008  1
  Cl  Cl56  1  0.773683  0.081068  0.232952  1
  Cl  Cl57  1  0.273683  0.418932  0.767048  1
  Cl  Cl58  1  0.226317  0.581068  0.267048  1
  Cl  Cl59  1  0.726317  0.918932  0.732952  1
  Cl  Cl60  1  0.226317  0.918932  0.767048  1
  Cl  Cl61  1  0.726317  0.581068  0.232952  1
  Cl  Cl62  1  0.773683  0.418932  0.732952  1
  Cl  Cl63  1  0.273683  0.081068  0.267048  1
  Cl  Cl64  1  0.874335  0.991903  0.053887  1
  Cl  Cl65  1  0.374335  0.508097  0.946113  1
  Cl  Cl66  1  0.125665  0.491903  0.446113  1
  Cl  Cl67  1  0.625665  0.008097  0.553887  1
  Cl  Cl68  1  0.125665  0.008097  0.946113  1
  Cl  Cl69  1  0.625665  0.491903  0.053887  1
  Cl  Cl70  1  0.874335  0.508097  0.553887  1
  Cl  Cl71  1  0.374335  0.991903  0.446113  1
  Cl  Cl72  1  0.535424  0.996324  0.176757  1
  Cl  Cl73  1  0.035424  0.503676  0.823243  1
  Cl  Cl74  1  0.464576  0.496324  0.323243  1
  Cl  Cl75  1  0.964576  0.003676  0.676757  1
  Cl  Cl76  1  0.464576  0.003676  0.823243  1
  Cl  Cl77  1  0.964576  0.496324  0.176757  1
  Cl  Cl78  1  0.535424  0.503676  0.676757  1
  Cl  Cl79  1  0.035424  0.996324  0.323243  1
  Cl  Cl80  1  0.668577  0.152993  0.046597  1
  Cl  Cl81  1  0.168577  0.347007  0.953403  1
  Cl  Cl82  1  0.331423  0.652993  0.453403  1
  Cl  Cl83  1  0.831423  0.847007  0.546597  1
  Cl  Cl84  1  0.331423  0.847007  0.953403  1
  Cl  Cl85  1  0.831423  0.652993  0.046597  1
  Cl  Cl86  1  0.668577  0.347007  0.546597  1
  Cl  Cl87  1  0.168577  0.152993  0.453403  1
  Cl  Cl88  1  0.641981  0.902458  0.997773  1
  Cl  Cl89  1  0.141981  0.597542  0.002227  1
  Cl  Cl90  1  0.358019  0.402458  0.502227  1
  Cl  Cl91  1  0.858019  0.097542  0.497773  1
  Cl  Cl92  1  0.358019  0.097542  0.002227  1
  Cl  Cl93  1  0.858019  0.402458  0.997773  1
  Cl  Cl94  1  0.641981  0.597542  0.497773  1
  Cl  Cl95  1  0.141981  0.902458  0.502227  1
  Cl  Cl96  1  0.738847  0.836481  0.183825  1
  Cl  Cl97  1  0.238847  0.663519  0.816175  1
  Cl  Cl98  1  0.261153  0.336481  0.316175  1
  Cl  Cl99  1  0.761153  0.163519  0.683825  1
  Cl  Cl100  1  0.261153  0.163519  0.816175  1
  Cl  Cl101  1  0.761153  0.336481  0.183825  1
  Cl  Cl102  1  0.738847  0.663519  0.683825  1
  Cl  Cl103  1  0.238847  0.836481  0.316175  1
