# generated using pymatgen
data_Nd2Ga5Ir3
_symmetry_space_group_name_H-M   'P 1'
_cell_length_a   8.66037183
_cell_length_b   8.66037223
_cell_length_c   8.66037178
_cell_angle_alpha   140.74023101
_cell_angle_beta   108.27554511
_cell_angle_gamma   84.95880396
_symmetry_Int_Tables_number   1
_chemical_formula_structural   Nd2Ga5Ir3
_chemical_formula_sum   'Nd4 Ga10 Ir6'
_cell_volume   377.12616290
_cell_formula_units_Z   2
loop_
 _symmetry_equiv_pos_site_id
 _symmetry_equiv_pos_as_xyz
  1  'x, y, z'
loop_
 _atom_site_type_symbol
 _atom_site_label
 _atom_site_symmetry_multiplicity
 _atom_site_fract_x
 _atom_site_fract_y
 _atom_site_fract_z
 _atom_site_occupancy
  Nd  Nd0  1  0.865798  0.635486  0.230311  1
  Nd  Nd1  1  0.134202  0.364514  0.769689  1
  Nd  Nd2  1  0.405174  0.135486  0.269689  1
  Nd  Nd3  1  0.594826  0.864514  0.730311  1
  Ga  Ga4  1  0.500000  0.750000  0.250000  1
  Ga  Ga5  1  0.500000  0.250000  0.750000  1
  Ga  Ga6  1  0.207774  0.957774  0.750000  1
  Ga  Ga7  1  0.792226  0.542226  0.750000  1
  Ga  Ga8  1  0.792226  0.042226  0.250000  1
  Ga  Ga9  1  0.207774  0.457774  0.250000  1
  Ga  Ga10  1  0.077597  0.907381  0.170217  1
  Ga  Ga11  1  0.922403  0.092619  0.829783  1
  Ga  Ga12  1  0.737164  0.407381  0.329783  1
  Ga  Ga13  1  0.262836  0.592619  0.670217  1
  Ir  Ir14  1  0.000000  0.750000  0.750000  1
  Ir  Ir15  1  0.000000  0.250000  0.250000  1
  Ir  Ir16  1  0.256963  0.852499  0.404465  1
  Ir  Ir17  1  0.743037  0.147501  0.595535  1
  Ir  Ir18  1  0.448033  0.352499  0.095535  1
  Ir  Ir19  1  0.551967  0.647501  0.904465  1
