# generated using pymatgen
data_CaMg4Si12Ir19
_symmetry_space_group_name_H-M   'P 1'
_cell_length_a   12.73569900
_cell_length_b   12.73569986
_cell_length_c   3.97157500
_cell_angle_alpha   90.00000000
_cell_angle_beta   90.00000000
_cell_angle_gamma   120.00000555
_symmetry_Int_Tables_number   1
_chemical_formula_structural   CaMg4Si12Ir19
_chemical_formula_sum   'Ca1 Mg4 Si12 Ir19'
_cell_volume   557.87766901
_cell_formula_units_Z   1
loop_
 _symmetry_equiv_pos_site_id
 _symmetry_equiv_pos_as_xyz
  1  'x, y, z'
loop_
 _atom_site_type_symbol
 _atom_site_label
 _atom_site_symmetry_multiplicity
 _atom_site_fract_x
 _atom_site_fract_y
 _atom_site_fract_z
 _atom_site_occupancy
  Ca  Ca0  1  0.333333  0.666667  0.000000  1
  Mg  Mg1  1  0.000812  0.176909  0.500000  1
  Mg  Mg2  1  0.823091  0.823903  0.500000  1
  Mg  Mg3  1  0.176097  0.999188  0.500000  1
  Mg  Mg4  1  0.666667  0.333333  0.000000  1
  Si  Si5  1  0.479563  0.312608  0.500000  1
  Si  Si6  1  0.821917  0.002168  0.000000  1
  Si  Si7  1  0.180251  0.178083  0.000000  1
  Si  Si8  1  0.997832  0.819749  0.000000  1
  Si  Si9  1  0.367782  0.000393  0.000000  1
  Si  Si10  1  0.687392  0.166957  0.500000  1
  Si  Si11  1  0.833043  0.520437  0.500000  1
  Si  Si12  1  0.522527  0.835971  0.500000  1
  Si  Si13  1  0.164029  0.686556  0.500000  1
  Si  Si14  1  0.313444  0.477473  0.500000  1
  Si  Si15  1  0.999607  0.367389  0.000000  1
  Si  Si16  1  0.632611  0.632218  0.000000  1
  Ir  Ir17  1  0.808008  0.185324  0.000000  1
  Ir  Ir18  1  0.377314  0.191992  0.000000  1
  Ir  Ir19  1  0.638936  0.509683  0.500000  1
  Ir  Ir20  1  0.870748  0.361064  0.500000  1
  Ir  Ir21  1  0.359309  0.874043  0.500000  1
  Ir  Ir22  1  0.514734  0.640691  0.500000  1
  Ir  Ir23  1  0.125957  0.485266  0.500000  1
  Ir  Ir24  1  0.814676  0.622686  0.000000  1
  Ir  Ir25  1  0.627759  0.817035  0.000000  1
  Ir  Ir26  1  0.182965  0.810724  0.000000  1
  Ir  Ir27  1  0.189276  0.372241  0.000000  1
  Ir  Ir28  1  0.998408  0.720986  0.500000  1
  Ir  Ir29  1  0.279014  0.277421  0.500000  1
  Ir  Ir30  1  0.722579  0.001592  0.500000  1
  Ir  Ir31  1  0.002188  0.553825  0.000000  1
  Ir  Ir32  1  0.446175  0.448364  0.000000  1
  Ir  Ir33  1  0.551636  0.997812  0.000000  1
  Ir  Ir34  1  0.000000  0.000000  0.000000  1
  Ir  Ir35  1  0.490317  0.129252  0.500000  1
