# generated using pymatgen
data_Cs2LiInBi2
_symmetry_space_group_name_H-M   'P 1'
_cell_length_a   11.64967570
_cell_length_b   11.64967598
_cell_length_c   7.28060300
_cell_angle_alpha   90.00000000
_cell_angle_beta   90.00000000
_cell_angle_gamma   103.03038574
_symmetry_Int_Tables_number   1
_chemical_formula_structural   Cs2LiInBi2
_chemical_formula_sum   'Cs8 Li4 In4 Bi8'
_cell_volume   962.64404218
_cell_formula_units_Z   4
loop_
 _symmetry_equiv_pos_site_id
 _symmetry_equiv_pos_as_xyz
  1  'x, y, z'
loop_
 _atom_site_type_symbol
 _atom_site_label
 _atom_site_symmetry_multiplicity
 _atom_site_fract_x
 _atom_site_fract_y
 _atom_site_fract_z
 _atom_site_occupancy
  Cs  Cs0  1  0.578286  0.921714  0.750000  1
  Cs  Cs1  1  0.921714  0.578286  0.250000  1
  Cs  Cs2  1  0.421714  0.078286  0.250000  1
  Cs  Cs3  1  0.078286  0.421714  0.750000  1
  Cs  Cs4  1  0.670202  0.329798  0.772648  1
  Cs  Cs5  1  0.829798  0.170202  0.272648  1
  Cs  Cs6  1  0.329798  0.670202  0.227352  1
  Cs  Cs7  1  0.170202  0.829798  0.727352  1
  Li  Li8  1  0.620528  0.620528  0.000000  1
  Li  Li9  1  0.879472  0.879472  0.500000  1
  Li  Li10  1  0.379472  0.379472  0.000000  1
  Li  Li11  1  0.120528  0.120528  0.500000  1
  In  In12  1  0.868149  0.868149  0.000000  1
  In  In13  1  0.631851  0.631851  0.500000  1
  In  In14  1  0.131851  0.131851  0.000000  1
  In  In15  1  0.368149  0.368149  0.500000  1
  Bi  Bi16  1  0.344462  0.155538  0.750000  1
  Bi  Bi17  1  0.155538  0.344462  0.250000  1
  Bi  Bi18  1  0.655538  0.844462  0.250000  1
  Bi  Bi19  1  0.844462  0.655538  0.750000  1
  Bi  Bi20  1  0.908507  0.091493  0.770719  1
  Bi  Bi21  1  0.591493  0.408507  0.270719  1
  Bi  Bi22  1  0.091493  0.908507  0.229281  1
  Bi  Bi23  1  0.408507  0.591493  0.729281  1
