# generated using pymatgen
data_Sm2DyHo3(SbO7)2
_symmetry_space_group_name_H-M   'P 1'
_cell_length_a   6.48508887
_cell_length_b   6.48679913
_cell_length_c   7.57401800
_cell_angle_alpha   90.00000000
_cell_angle_beta   90.00000000
_cell_angle_gamma   109.28246619
_symmetry_Int_Tables_number   1
_chemical_formula_structural   Sm2DyHo3(SbO7)2
_chemical_formula_sum   'Sm2 Dy1 Ho3 Sb2 O14'
_cell_volume   300.74585115
_cell_formula_units_Z   1
loop_
 _symmetry_equiv_pos_site_id
 _symmetry_equiv_pos_as_xyz
  1  'x, y, z'
loop_
 _atom_site_type_symbol
 _atom_site_label
 _atom_site_symmetry_multiplicity
 _atom_site_fract_x
 _atom_site_fract_y
 _atom_site_fract_z
 _atom_site_occupancy
  Sm  Sm0  1  0.500230  0.500123  0.499834  1
  Sm  Sm1  1  0.500230  0.500123  0.000166  1
  Dy  Dy2  1  0.999488  0.468396  0.750000  1
  Ho  Ho3  1  0.531225  0.000755  0.750000  1
  Ho  Ho4  1  0.000779  0.531412  0.250000  1
  Ho  Ho5  1  0.468699  0.999219  0.250000  1
  Sb  Sb6  1  0.999945  0.000009  0.499745  1
  Sb  Sb7  1  0.999945  0.000009  0.000255  1
  O  O8  1  0.678113  0.930196  0.470407  1
  O  O9  1  0.929404  0.678184  0.528766  1
  O  O10  1  0.678113  0.930196  0.029593  1
  O  O11  1  0.929404  0.678184  0.971234  1
  O  O12  1  0.321745  0.069870  0.529537  1
  O  O13  1  0.070312  0.321696  0.469836  1
  O  O14  1  0.321745  0.069870  0.970463  1
  O  O15  1  0.070312  0.321696  0.030164  1
  O  O16  1  0.930555  0.068686  0.750000  1
  O  O17  1  0.069552  0.930784  0.250000  1
  O  O18  1  0.366749  0.635456  0.750000  1
  O  O19  1  0.634815  0.365178  0.250000  1
  O  O20  1  0.639370  0.359109  0.750000  1
  O  O21  1  0.359270  0.640852  0.250000  1
