# generated using pymatgen
data_Er8Ti3Si16Mo8W
_symmetry_space_group_name_H-M   'P 1'
_cell_length_a   6.88571286
_cell_length_b   6.88571390
_cell_length_c   12.74922325
_cell_angle_alpha   89.98321557
_cell_angle_beta   90.01678559
_cell_angle_gamma   89.87527931
_symmetry_Int_Tables_number   1
_chemical_formula_structural   Er8Ti3Si16Mo8W
_chemical_formula_sum   'Er8 Ti3 Si16 Mo8 W1'
_cell_volume   604.47805865
_cell_formula_units_Z   1
loop_
 _symmetry_equiv_pos_site_id
 _symmetry_equiv_pos_as_xyz
  1  'x, y, z'
loop_
 _atom_site_type_symbol
 _atom_site_label
 _atom_site_symmetry_multiplicity
 _atom_site_fract_x
 _atom_site_fract_y
 _atom_site_fract_z
 _atom_site_occupancy
  Er  Er0  1  0.339456  0.001482  0.468838  1
  Er  Er1  1  0.497583  0.838720  0.719383  1
  Er  Er2  1  0.499197  0.161560  0.217661  1
  Er  Er3  1  0.838720  0.497583  0.280617  1
  Er  Er4  1  0.161560  0.499197  0.782339  1
  Er  Er5  1  0.659574  0.000087  0.968971  1
  Er  Er6  1  0.001482  0.339456  0.531162  1
  Er  Er7  1  0.000087  0.659574  0.031029  1
  Ti  Ti8  1  0.169941  0.831794  0.248503  1
  Ti  Ti9  1  0.831794  0.169941  0.751497  1
  Ti  Ti10  1  0.668751  0.668751  0.500000  1
  Si  Si11  1  0.200843  0.129211  0.683016  1
  Si  Si12  1  0.373129  0.697943  0.933374  1
  Si  Si13  1  0.629019  0.298703  0.433139  1
  Si  Si14  1  0.697943  0.373129  0.066626  1
  Si  Si15  1  0.298703  0.629019  0.566861  1
  Si  Si16  1  0.796996  0.871600  0.183710  1
  Si  Si17  1  0.129211  0.200843  0.316984  1
  Si  Si18  1  0.871600  0.796996  0.816290  1
  Si  Si19  1  0.288931  0.963311  0.062089  1
  Si  Si20  1  0.539280  0.791377  0.313623  1
  Si  Si21  1  0.458717  0.210226  0.814760  1
  Si  Si22  1  0.791377  0.539280  0.686377  1
  Si  Si23  1  0.210226  0.458717  0.185240  1
  Si  Si24  1  0.709320  0.040826  0.563857  1
  Si  Si25  1  0.963311  0.288931  0.937911  1
  Si  Si26  1  0.040826  0.709320  0.436143  1
  Mo  Mo27  1  0.156514  0.002218  0.873461  1
  Mo  Mo28  1  0.496098  0.665522  0.124185  1
  Mo  Mo29  1  0.505239  0.340428  0.624513  1
  Mo  Mo30  1  0.665522  0.496098  0.875815  1
  Mo  Mo31  1  0.340428  0.505239  0.375487  1
  Mo  Mo32  1  0.840645  0.993957  0.374310  1
  Mo  Mo33  1  0.002218  0.156514  0.126539  1
  Mo  Mo34  1  0.993957  0.840645  0.625690  1
  W  W35  1  0.331800  0.331800  0.000000  1
