# generated using pymatgen
data_TbHo5Er10(CdPt)4
_symmetry_space_group_name_H-M   'P 1'
_cell_length_a   9.63025427
_cell_length_b   9.63025420
_cell_length_c   9.61897700
_cell_angle_alpha   60.03873285
_cell_angle_beta   60.03873309
_cell_angle_gamma   60.03729133
_symmetry_Int_Tables_number   1
_chemical_formula_structural   TbHo5Er10(CdPt)4
_chemical_formula_sum   'Tb1 Ho5 Er10 Cd4 Pt4'
_cell_volume   631.34361618
_cell_formula_units_Z   1
loop_
 _symmetry_equiv_pos_site_id
 _symmetry_equiv_pos_as_xyz
  1  'x, y, z'
loop_
 _atom_site_type_symbol
 _atom_site_label
 _atom_site_symmetry_multiplicity
 _atom_site_fract_x
 _atom_site_fract_y
 _atom_site_fract_z
 _atom_site_occupancy
  Tb  Tb0  1  0.936260  0.936260  0.563740  1
  Ho  Ho1  1  0.935773  0.563543  0.564651  1
  Ho  Ho2  1  0.563543  0.935773  0.936032  1
  Ho  Ho3  1  0.563543  0.935773  0.564651  1
  Ho  Ho4  1  0.935773  0.563543  0.936032  1
  Ho  Ho5  1  0.565302  0.565302  0.934698  1
  Er  Er6  1  0.352117  0.352117  0.350452  1
  Er  Er7  1  0.352117  0.352117  0.945314  1
  Er  Er8  1  0.354712  0.940620  0.352334  1
  Er  Er9  1  0.940620  0.354712  0.352334  1
  Er  Er10  1  0.810671  0.189481  0.189478  1
  Er  Er11  1  0.189481  0.810671  0.810370  1
  Er  Er12  1  0.189481  0.810671  0.189478  1
  Er  Er13  1  0.810671  0.189481  0.810370  1
  Er  Er14  1  0.189891  0.189891  0.810109  1
  Er  Er15  1  0.811024  0.811024  0.188976  1
  Cd  Cd16  1  0.581477  0.581477  0.581681  1
  Cd  Cd17  1  0.581477  0.581477  0.255363  1
  Cd  Cd18  1  0.581402  0.255687  0.581455  1
  Cd  Cd19  1  0.255687  0.581402  0.581455  1
  Pt  Pt20  1  0.143159  0.143159  0.144450  1
  Pt  Pt21  1  0.143159  0.143159  0.569232  1
  Pt  Pt22  1  0.141928  0.570729  0.143671  1
  Pt  Pt23  1  0.570729  0.141928  0.143671  1
