# generated using pymatgen
data_Er4(Ga8Pt3)3
_symmetry_space_group_name_H-M   'P 1'
_cell_length_a   7.56506448
_cell_length_b   7.57154258
_cell_length_c   13.25088528
_cell_angle_alpha   84.64961836
_cell_angle_beta   100.77916798
_cell_angle_gamma   119.94400185
_symmetry_Int_Tables_number   1
_chemical_formula_structural   Er4(Ga8Pt3)3
_chemical_formula_sum   'Er4 Ga24 Pt9'
_cell_volume   646.07942286
_cell_formula_units_Z   1
loop_
 _symmetry_equiv_pos_site_id
 _symmetry_equiv_pos_as_xyz
  1  'x, y, z'
loop_
 _atom_site_type_symbol
 _atom_site_label
 _atom_site_symmetry_multiplicity
 _atom_site_fract_x
 _atom_site_fract_y
 _atom_site_fract_z
 _atom_site_occupancy
  Er  Er0  1  0.729780  0.998718  0.190830  1
  Er  Er1  1  0.270250  0.001410  0.809160  1
  Er  Er2  1  0.061304  0.667354  0.190722  1
  Er  Er3  1  0.938672  0.332760  0.809272  1
  Ga  Ga4  1  0.809256  0.869381  0.816797  1
  Ga  Ga5  1  0.190682  0.130708  0.183099  1
  Ga  Ga6  1  0.983931  0.666580  0.938816  1
  Ga  Ga7  1  0.016256  0.333343  0.061192  1
  Ga  Ga8  1  0.400937  0.665280  0.817332  1
  Ga  Ga9  1  0.599156  0.334870  0.182634  1
  Ga  Ga10  1  0.886933  0.665791  0.674860  1
  Ga  Ga11  1  0.112954  0.334089  0.325193  1
  Ga  Ga12  1  0.605202  0.460452  0.816910  1
  Ga  Ga13  1  0.394772  0.539621  0.182916  1
  Ga  Ga14  1  0.230749  0.337326  0.675862  1
  Ga  Ga15  1  0.769345  0.662654  0.324217  1
  Ga  Ga16  1  0.853387  0.332930  0.557689  1
  Ga  Ga17  1  0.186202  0.999968  0.557746  1
  Ga  Ga18  1  0.813811  0.000070  0.442190  1
  Ga  Ga19  1  0.353672  0.996010  0.061346  1
  Ga  Ga20  1  0.646293  0.004047  0.938657  1
  Ga  Ga21  1  0.558996  0.995270  0.674913  1
  Ga  Ga22  1  0.441010  0.004596  0.325134  1
  Ga  Ga23  1  0.519766  0.666113  0.561003  1
  Ga  Ga24  1  0.480255  0.333904  0.438983  1
  Ga  Ga25  1  0.689908  0.670833  0.057357  1
  Ga  Ga26  1  0.309867  0.328890  0.942710  1
  Ga  Ga27  1  0.146631  0.667098  0.442258  1
  Pt  Pt28  1  0.330666  0.669704  0.000193  1
  Pt  Pt29  1  0.547545  0.325445  0.638617  1
  Pt  Pt30  1  0.452451  0.674548  0.361428  1
  Pt  Pt31  1  0.888171  0.006648  0.639860  1
  Pt  Pt32  1  0.111817  0.993318  0.360165  1
  Pt  Pt33  1  0.669325  0.330298  0.999847  1
  Pt  Pt34  1  0.205984  0.666498  0.640165  1
  Pt  Pt35  1  0.794031  0.333475  0.359858  1
  Pt  Pt36  1  0.000033  0.000003  0.000070  1
