# generated using pymatgen
data_Tb5Pr5(Pb3Cl)2
_symmetry_space_group_name_H-M   'P 1'
_cell_length_a   9.41266200
_cell_length_b   9.41480081
_cell_length_c   6.76275300
_cell_angle_alpha   90.00000000
_cell_angle_beta   90.00000000
_cell_angle_gamma   119.99248539
_symmetry_Int_Tables_number   1
_chemical_formula_structural   Tb5Pr5(Pb3Cl)2
_chemical_formula_sum   'Tb5 Pr5 Pb6 Cl2'
_cell_volume   519.05172419
_cell_formula_units_Z   1
loop_
 _symmetry_equiv_pos_site_id
 _symmetry_equiv_pos_as_xyz
  1  'x, y, z'
loop_
 _atom_site_type_symbol
 _atom_site_label
 _atom_site_symmetry_multiplicity
 _atom_site_fract_x
 _atom_site_fract_y
 _atom_site_fract_z
 _atom_site_occupancy
  Tb  Tb0  1  0.259966  0.000000  0.750000  1
  Tb  Tb1  1  0.333247  0.667430  0.500456  1
  Tb  Tb2  1  0.665820  0.332570  0.500456  1
  Tb  Tb3  1  0.665820  0.332570  0.999544  1
  Tb  Tb4  1  0.333247  0.667430  0.999544  1
  Pr  Pr5  1  0.741062  0.000000  0.250000  1
  Pr  Pr6  1  0.999032  0.260573  0.750000  1
  Pr  Pr7  1  0.000573  0.741029  0.250000  1
  Pr  Pr8  1  0.738459  0.739427  0.750000  1
  Pr  Pr9  1  0.259545  0.258971  0.250000  1
  Pb  Pb10  1  0.603834  0.000000  0.750000  1
  Pb  Pb11  1  0.391820  0.000000  0.250000  1
  Pb  Pb12  1  0.003308  0.613199  0.750000  1
  Pb  Pb13  1  0.000081  0.391932  0.250000  1
  Pb  Pb14  1  0.390109  0.386801  0.750000  1
  Pb  Pb15  1  0.608148  0.608068  0.250000  1
  Cl  Cl16  1  0.002964  0.000000  0.503670  1
  Cl  Cl17  1  0.002964  0.000000  0.996330  1
