# generated using pymatgen
data_SrAcGaIr2
_symmetry_space_group_name_H-M   'P 1'
_cell_length_a   5.86381828
_cell_length_b   5.86381815
_cell_length_c   7.98357600
_cell_angle_alpha   101.56394975
_cell_angle_beta   101.56394950
_cell_angle_gamma   60.07917441
_symmetry_Int_Tables_number   1
_chemical_formula_structural   SrAcGaIr2
_chemical_formula_sum   'Sr2 Ac2 Ga2 Ir4'
_cell_volume   231.45534475
_cell_formula_units_Z   2
loop_
 _symmetry_equiv_pos_site_id
 _symmetry_equiv_pos_as_xyz
  1  'x, y, z'
loop_
 _atom_site_type_symbol
 _atom_site_label
 _atom_site_symmetry_multiplicity
 _atom_site_fract_x
 _atom_site_fract_y
 _atom_site_fract_z
 _atom_site_occupancy
  Sr  Sr0  1  0.788899  0.504041  0.649655  1
  Sr  Sr1  1  0.495958  0.211101  0.850345  1
  Ac  Ac2  1  0.504174  0.787497  0.135926  1
  Ac  Ac3  1  0.212503  0.495826  0.364073  1
  Ga  Ga4  1  0.896578  0.103421  0.250000  1
  Ga  Ga5  1  0.093321  0.906679  0.750000  1
  Ir  Ir6  1  0.000304  0.286586  0.018593  1
  Ir  Ir7  1  0.713414  0.999696  0.481406  1
  Ir  Ir8  1  0.278099  0.983252  0.504660  1
  Ir  Ir9  1  0.016749  0.721901  0.995339  1
