# generated using pymatgen
data_Er5Si6P6Ir19
_symmetry_space_group_name_H-M   'P 1'
_cell_length_a   12.77478300
_cell_length_b   12.77478223
_cell_length_c   3.93965600
_cell_angle_alpha   90.00000000
_cell_angle_beta   90.00000000
_cell_angle_gamma   120.00000390
_symmetry_Int_Tables_number   1
_chemical_formula_structural   Er5Si6P6Ir19
_chemical_formula_sum   'Er5 Si6 P6 Ir19'
_cell_volume   556.79580394
_cell_formula_units_Z   1
loop_
 _symmetry_equiv_pos_site_id
 _symmetry_equiv_pos_as_xyz
  1  'x, y, z'
loop_
 _atom_site_type_symbol
 _atom_site_label
 _atom_site_symmetry_multiplicity
 _atom_site_fract_x
 _atom_site_fract_y
 _atom_site_fract_z
 _atom_site_occupancy
  Er  Er0  1  0.666667  0.333333  0.000000  1
  Er  Er1  1  0.333333  0.666667  0.000000  1
  Er  Er2  1  0.816782  0.814975  0.500000  1
  Er  Er3  1  0.185025  0.001807  0.500000  1
  Er  Er4  1  0.998193  0.183218  0.500000  1
  Si  Si5  1  0.682012  0.162929  0.500000  1
  Si  Si6  1  0.837071  0.519083  0.500000  1
  Si  Si7  1  0.480917  0.317988  0.500000  1
  Si  Si8  1  0.636720  0.635896  0.000000  1
  Si  Si9  1  0.364104  0.000825  0.000000  1
  Si  Si10  1  0.999175  0.363280  0.000000  1
  P  P11  1  0.177831  0.693646  0.500000  1
  P  P12  1  0.515815  0.822169  0.500000  1
  P  P13  1  0.306354  0.484185  0.500000  1
  P  P14  1  0.175993  0.179962  0.000000  1
  P  P15  1  0.820038  0.996030  0.000000  1
  P  P16  1  0.003970  0.824007  0.000000  1
  Ir  Ir17  1  0.809102  0.175936  0.000000  1
  Ir  Ir18  1  0.824064  0.633166  0.000000  1
  Ir  Ir19  1  0.366834  0.190898  0.000000  1
  Ir  Ir20  1  0.182878  0.801390  0.000000  1
  Ir  Ir21  1  0.618512  0.817122  0.000000  1
  Ir  Ir22  1  0.198610  0.381488  0.000000  1
  Ir  Ir23  1  0.457761  0.443462  0.000000  1
  Ir  Ir24  1  0.556538  0.014299  0.000000  1
  Ir  Ir25  1  0.985701  0.542239  0.000000  1
  Ir  Ir26  1  0.277624  0.284104  0.500000  1
  Ir  Ir27  1  0.715896  0.993520  0.500000  1
  Ir  Ir28  1  0.006480  0.722376  0.500000  1
  Ir  Ir29  1  0.868726  0.353350  0.500000  1
  Ir  Ir30  1  0.646650  0.515377  0.500000  1
  Ir  Ir31  1  0.484623  0.131274  0.500000  1
  Ir  Ir32  1  0.368037  0.873318  0.500000  1
  Ir  Ir33  1  0.505282  0.631963  0.500000  1
  Ir  Ir34  1  0.126682  0.494718  0.500000  1
  Ir  Ir35  1  0.000000  0.000000  0.000000  1
