# generated using pymatgen
data_CuSiIrS4
_symmetry_space_group_name_H-M   'P 1'
_cell_length_a   6.93095258
_cell_length_b   6.93095240
_cell_length_c   6.85699500
_cell_angle_alpha   60.35235242
_cell_angle_beta   60.35235329
_cell_angle_gamma   61.64909739
_symmetry_Int_Tables_number   1
_chemical_formula_structural   CuSiIrS4
_chemical_formula_sum   'Cu2 Si2 Ir2 S8'
_cell_volume   236.96146632
_cell_formula_units_Z   2
loop_
 _symmetry_equiv_pos_site_id
 _symmetry_equiv_pos_as_xyz
  1  'x, y, z'
loop_
 _atom_site_type_symbol
 _atom_site_label
 _atom_site_symmetry_multiplicity
 _atom_site_fract_x
 _atom_site_fract_y
 _atom_site_fract_z
 _atom_site_occupancy
  Cu  Cu0  1  0.998491  0.998491  0.001509  1
  Cu  Cu1  1  0.251509  0.251509  0.248491  1
  Si  Si2  1  0.625000  0.625000  0.625000  1
  Si  Si3  1  0.625000  0.625000  0.125000  1
  Ir  Ir4  1  0.125000  0.625000  0.625000  1
  Ir  Ir5  1  0.625000  0.125000  0.625000  1
  S  S6  1  0.389246  0.389246  0.839181  1
  S  S7  1  0.389246  0.389246  0.382328  1
  S  S8  1  0.860754  0.860754  0.867672  1
  S  S9  1  0.860754  0.860754  0.410819  1
  S  S10  1  0.388323  0.847291  0.382193  1
  S  S11  1  0.847291  0.388323  0.382193  1
  S  S12  1  0.402709  0.861677  0.867807  1
  S  S13  1  0.861677  0.402709  0.867807  1
