# generated using pymatgen
data_Y6Al17Co2Si7Os6
_symmetry_space_group_name_H-M   'P 1'
_cell_length_a   8.67119785
_cell_length_b   8.66017866
_cell_length_c   9.39095000
_cell_angle_alpha   90.00000000
_cell_angle_beta   90.00000000
_cell_angle_gamma   120.11705540
_symmetry_Int_Tables_number   1
_chemical_formula_structural   Y6Al17Co2Si7Os6
_chemical_formula_sum   'Y6 Al17 Co2 Si7 Os6'
_cell_volume   610.00393335
_cell_formula_units_Z   1
loop_
 _symmetry_equiv_pos_site_id
 _symmetry_equiv_pos_as_xyz
  1  'x, y, z'
loop_
 _atom_site_type_symbol
 _atom_site_label
 _atom_site_symmetry_multiplicity
 _atom_site_fract_x
 _atom_site_fract_y
 _atom_site_fract_z
 _atom_site_occupancy
  Y  Y0  1  0.195014  0.390605  0.250000  1
  Y  Y1  1  0.805983  0.611779  0.750000  1
  Y  Y2  1  0.608276  0.805108  0.250000  1
  Y  Y3  1  0.389812  0.192718  0.750000  1
  Y  Y4  1  0.197081  0.804428  0.250000  1
  Y  Y5  1  0.802391  0.193527  0.750000  1
  Al  Al6  1  0.161004  0.322660  0.578157  1
  Al  Al7  1  0.837722  0.677788  0.419853  1
  Al  Al8  1  0.677716  0.838349  0.577388  1
  Al  Al9  1  0.837722  0.677788  0.080147  1
  Al  Al10  1  0.322702  0.162316  0.421406  1
  Al  Al11  1  0.161004  0.322660  0.921843  1
  Al  Al12  1  0.160283  0.837896  0.575883  1
  Al  Al13  1  0.322702  0.162316  0.078594  1
  Al  Al14  1  0.838850  0.160762  0.421589  1
  Al  Al15  1  0.677716  0.838349  0.922612  1
  Al  Al16  1  0.838850  0.160762  0.078411  1
  Al  Al17  1  0.160283  0.837896  0.924117  1
  Al  Al18  1  0.127388  0.567347  0.750000  1
  Al  Al19  1  0.565438  0.433928  0.250000  1
  Al  Al20  1  0.438970  0.567968  0.750000  1
  Al  Al21  1  0.000028  0.999237  0.250000  1
  Al  Al22  1  0.999951  0.001049  0.750000  1
  Co  Co23  1  0.999797  0.000079  0.999593  1
  Co  Co24  1  0.999797  0.000079  0.500407  1
  Si  Si25  1  0.333000  0.664682  0.036284  1
  Si  Si26  1  0.666019  0.335464  0.962850  1
  Si  Si27  1  0.666019  0.335464  0.537150  1
  Si  Si28  1  0.333000  0.664682  0.463716  1
  Si  Si29  1  0.567020  0.126440  0.250000  1
  Si  Si30  1  0.436411  0.872332  0.750000  1
  Si  Si31  1  0.873487  0.432795  0.250000  1
  Os  Os32  1  0.500726  0.001247  0.001125  1
  Os  Os33  1  0.998063  0.499119  0.006320  1
  Os  Os34  1  0.500726  0.001247  0.498875  1
  Os  Os35  1  0.500493  0.500007  0.000494  1
  Os  Os36  1  0.998063  0.499119  0.493680  1
  Os  Os37  1  0.500493  0.500007  0.499506  1
