# generated using pymatgen
data_Re6TeP12
_symmetry_space_group_name_H-M   'P 1'
_cell_length_a   9.63268732
_cell_length_b   9.63268705
_cell_length_c   9.63268704
_cell_angle_alpha   111.91330968
_cell_angle_beta   111.91330534
_cell_angle_gamma   111.91330904
_symmetry_Int_Tables_number   1
_chemical_formula_structural   Re6TeP12
_chemical_formula_sum   'Re12 Te2 P24'
_cell_volume   618.08215421
_cell_formula_units_Z   2
loop_
 _symmetry_equiv_pos_site_id
 _symmetry_equiv_pos_as_xyz
  1  'x, y, z'
loop_
 _atom_site_type_symbol
 _atom_site_label
 _atom_site_symmetry_multiplicity
 _atom_site_fract_x
 _atom_site_fract_y
 _atom_site_fract_z
 _atom_site_occupancy
  Re  Re0  1  0.822755  0.913404  0.329829  1
  Re  Re1  1  0.913404  0.329829  0.822755  1
  Re  Re2  1  0.329829  0.822755  0.913404  1
  Re  Re3  1  0.177245  0.086596  0.670171  1
  Re  Re4  1  0.086596  0.670171  0.177245  1
  Re  Re5  1  0.670171  0.177245  0.086596  1
  Re  Re6  1  0.840282  0.731029  0.500356  1
  Re  Re7  1  0.731029  0.500356  0.840282  1
  Re  Re8  1  0.500356  0.840282  0.731029  1
  Re  Re9  1  0.159718  0.268971  0.499644  1
  Re  Re10  1  0.268971  0.499644  0.159718  1
  Re  Re11  1  0.499644  0.159718  0.268971  1
  Te  Te12  1  0.338972  0.338972  0.338972  1
  Te  Te13  1  0.661028  0.661028  0.661028  1
  P  P14  1  0.958637  0.000857  0.195130  1
  P  P15  1  0.000857  0.195130  0.958637  1
  P  P16  1  0.195130  0.958637  0.000857  1
  P  P17  1  0.041363  0.999143  0.804870  1
  P  P18  1  0.999143  0.804870  0.041363  1
  P  P19  1  0.804870  0.041363  0.999143  1
  P  P20  1  0.376254  0.006924  0.798058  1
  P  P21  1  0.006924  0.798058  0.376254  1
  P  P22  1  0.798058  0.376254  0.006924  1
  P  P23  1  0.623746  0.993076  0.201942  1
  P  P24  1  0.993076  0.201942  0.623746  1
  P  P25  1  0.201942  0.623746  0.993076  1
  P  P26  1  0.399322  0.222837  0.614689  1
  P  P27  1  0.222837  0.614690  0.399322  1
  P  P28  1  0.614690  0.399322  0.222837  1
  P  P29  1  0.600678  0.777163  0.385310  1
  P  P30  1  0.777163  0.385311  0.600678  1
  P  P31  1  0.385310  0.600678  0.777163  1
  P  P32  1  0.602392  0.610674  0.000337  1
  P  P33  1  0.610674  0.000337  0.602392  1
  P  P34  1  0.000337  0.602392  0.610674  1
  P  P35  1  0.397608  0.389326  0.999663  1
  P  P36  1  0.389326  0.999663  0.397608  1
  P  P37  1  0.999663  0.397608  0.389326  1
