# generated using pymatgen
data_HoCd2SbO6
_symmetry_space_group_name_H-M   'P 1'
_cell_length_a   6.56564551
_cell_length_b   6.61314157
_cell_length_c   6.58877589
_cell_angle_alpha   90.83572062
_cell_angle_beta   90.82445213
_cell_angle_gamma   90.87838984
_symmetry_Int_Tables_number   1
_chemical_formula_structural   HoCd2SbO6
_chemical_formula_sum   'Ho2 Cd4 Sb2 O12'
_cell_volume   285.98704124
_cell_formula_units_Z   2
loop_
 _symmetry_equiv_pos_site_id
 _symmetry_equiv_pos_as_xyz
  1  'x, y, z'
loop_
 _atom_site_type_symbol
 _atom_site_label
 _atom_site_symmetry_multiplicity
 _atom_site_fract_x
 _atom_site_fract_y
 _atom_site_fract_z
 _atom_site_occupancy
  Ho  Ho0  1  0.060638  0.749550  0.563031  1
  Ho  Ho1  1  0.749249  0.562431  0.058956  1
  Cd  Cd2  1  0.562076  0.050523  0.747910  1
  Cd  Cd3  1  0.945790  0.247347  0.440744  1
  Cd  Cd4  1  0.251932  0.431123  0.949157  1
  Cd  Cd5  1  0.440245  0.959327  0.251861  1
  Sb  Sb6  1  0.501354  0.502307  0.501673  1
  Sb  Sb7  1  0.999070  0.000813  0.001241  1
  O  O8  1  0.035176  0.702983  0.910395  1
  O  O9  1  0.708560  0.905269  0.040562  1
  O  O10  1  0.922574  0.031227  0.706278  1
  O  O11  1  0.942513  0.288154  0.081054  1
  O  O12  1  0.290434  0.083044  0.958625  1
  O  O13  1  0.075132  0.945161  0.290435  1
  O  O14  1  0.794219  0.581818  0.423268  1
  O  O15  1  0.576619  0.448022  0.792955  1
  O  O16  1  0.413969  0.790959  0.562421  1
  O  O17  1  0.207998  0.437771  0.569980  1
  O  O18  1  0.441352  0.566803  0.208256  1
  O  O19  1  0.581100  0.215370  0.441196  1
