# generated using pymatgen
data_Yb3(Th2Au5)2
_symmetry_space_group_name_H-M   'P 1'
_cell_length_a   8.87424000
_cell_length_b   8.87428126
_cell_length_c   10.49145000
_cell_angle_alpha   90.00023243
_cell_angle_beta   89.99991607
_cell_angle_gamma   107.67300912
_symmetry_Int_Tables_number   1
_chemical_formula_structural   Yb3(Th2Au5)2
_chemical_formula_sum   'Yb6 Th8 Au20'
_cell_volume   787.23377583
_cell_formula_units_Z   2
loop_
 _symmetry_equiv_pos_site_id
 _symmetry_equiv_pos_as_xyz
  1  'x, y, z'
loop_
 _atom_site_type_symbol
 _atom_site_label
 _atom_site_symmetry_multiplicity
 _atom_site_fract_x
 _atom_site_fract_y
 _atom_site_fract_z
 _atom_site_occupancy
  Yb  Yb0  1  0.502098  0.002097  0.250000  1
  Yb  Yb1  1  0.997902  0.497903  0.750000  1
  Yb  Yb2  1  0.000000  0.000000  0.000000  1
  Yb  Yb3  1  0.002098  0.502097  0.250000  1
  Yb  Yb4  1  0.497902  0.997903  0.750000  1
  Yb  Yb5  1  0.500000  0.500000  0.500000  1
  Th  Th6  1  0.698444  0.301557  0.000000  1
  Th  Th7  1  0.198443  0.801556  0.500000  1
  Th  Th8  1  0.803595  0.803595  0.307457  1
  Th  Th9  1  0.303595  0.303594  0.192543  1
  Th  Th10  1  0.801557  0.198444  0.500000  1
  Th  Th11  1  0.301556  0.698443  0.000000  1
  Th  Th12  1  0.696405  0.696406  0.807457  1
  Th  Th13  1  0.196405  0.196405  0.692543  1
  Au  Au14  1  0.147420  0.434543  0.494559  1
  Au  Au15  1  0.899621  0.899622  0.598850  1
  Au  Au16  1  0.565457  0.852580  0.505442  1
  Au  Au17  1  0.866065  0.149436  0.209735  1
  Au  Au18  1  0.366065  0.649436  0.290265  1
  Au  Au19  1  0.649437  0.366065  0.290265  1
  Au  Au20  1  0.399621  0.399622  0.901150  1
  Au  Au21  1  0.934543  0.647420  0.005442  1
  Au  Au22  1  0.350563  0.633935  0.709735  1
  Au  Au23  1  0.352581  0.065457  0.994559  1
  Au  Au24  1  0.600379  0.600378  0.098850  1
  Au  Au25  1  0.647419  0.934543  0.005441  1
  Au  Au26  1  0.100379  0.100378  0.401150  1
  Au  Au27  1  0.633935  0.350564  0.709735  1
  Au  Au28  1  0.133935  0.850564  0.790265  1
  Au  Au29  1  0.065457  0.352580  0.994558  1
  Au  Au30  1  0.852580  0.565457  0.505441  1
  Au  Au31  1  0.149436  0.866065  0.209735  1
  Au  Au32  1  0.434543  0.147420  0.494558  1
  Au  Au33  1  0.850564  0.133935  0.790265  1
