# generated using pymatgen
data_LiYb3ZnGa9
_symmetry_space_group_name_H-M   'P 1'
_cell_length_a   8.19302671
_cell_length_b   8.19302559
_cell_length_c   8.19302600
_cell_angle_alpha   148.88865445
_cell_angle_beta   109.28021558
_cell_angle_gamma   79.25996093
_symmetry_Int_Tables_number   1
_chemical_formula_structural   LiYb3ZnGa9
_chemical_formula_sum   'Li1 Yb3 Zn1 Ga9'
_cell_volume   262.94441044
_cell_formula_units_Z   1
loop_
 _symmetry_equiv_pos_site_id
 _symmetry_equiv_pos_as_xyz
  1  'x, y, z'
loop_
 _atom_site_type_symbol
 _atom_site_label
 _atom_site_symmetry_multiplicity
 _atom_site_fract_x
 _atom_site_fract_y
 _atom_site_fract_z
 _atom_site_occupancy
  Li  Li0  1  0.182867  0.000000  0.182867  1
  Yb  Yb1  1  0.505650  0.500000  0.005650  1
  Yb  Yb2  1  0.200615  0.202140  0.998475  1
  Yb  Yb3  1  0.796335  0.797860  0.998475  1
  Zn  Zn4  1  0.817082  0.000000  0.817082  1
  Ga  Ga5  1  0.074850  0.356510  0.718340  1
  Ga  Ga6  1  0.930150  0.648976  0.281174  1
  Ga  Ga7  1  0.632198  0.351024  0.281174  1
  Ga  Ga8  1  0.361828  0.643490  0.718340  1
  Ga  Ga9  1  0.790644  0.156527  0.634118  1
  Ga  Ga10  1  0.214526  0.847731  0.366794  1
  Ga  Ga11  1  0.519062  0.152269  0.366794  1
  Ga  Ga12  1  0.477592  0.843473  0.634118  1
  Ga  Ga13  1  0.996603  0.500000  0.496603  1
