# generated using pymatgen
data_Er12InGaFe2Tc
_symmetry_space_group_name_H-M   'P 1'
_cell_length_a   8.25724574
_cell_length_b   8.25787220
_cell_length_c   8.25724739
_cell_angle_alpha   108.56532832
_cell_angle_beta   109.73634086
_cell_angle_gamma   110.11293563
_symmetry_Int_Tables_number   1
_chemical_formula_structural   Er12InGaFe2Tc
_chemical_formula_sum   'Er12 In1 Ga1 Fe2 Tc1'
_cell_volume   433.35845442
_cell_formula_units_Z   1
loop_
 _symmetry_equiv_pos_site_id
 _symmetry_equiv_pos_as_xyz
  1  'x, y, z'
loop_
 _atom_site_type_symbol
 _atom_site_label
 _atom_site_symmetry_multiplicity
 _atom_site_fract_x
 _atom_site_fract_y
 _atom_site_fract_z
 _atom_site_occupancy
  Er  Er0  1  0.191759  0.426589  0.234830  1
  Er  Er1  1  0.808241  0.573411  0.765170  1
  Er  Er2  1  0.191764  0.956937  0.765172  1
  Er  Er3  1  0.942982  0.191655  0.751321  1
  Er  Er4  1  0.808236  0.043063  0.234828  1
  Er  Er5  1  0.057018  0.808345  0.248679  1
  Er  Er6  1  0.440334  0.191655  0.248675  1
  Er  Er7  1  0.559666  0.808345  0.751325  1
  Er  Er8  1  0.308492  0.306319  0.614821  1
  Er  Er9  1  0.691508  0.693681  0.385179  1
  Er  Er10  1  0.691499  0.306319  0.997827  1
  Er  Er11  1  0.308501  0.693681  0.002173  1
  In  In12  1  0.000000  0.500000  0.500000  1
  Ga  Ga13  1  0.500000  0.000000  0.500000  1
  Fe  Fe14  1  0.385004  0.384982  0.999978  1
  Fe  Fe15  1  0.614996  0.615018  0.000022  1
  Tc  Tc16  1  0.000000  0.000000  0.000000  1
