# generated using pymatgen
data_Lu20Tl3Cd3Ni2
_symmetry_space_group_name_H-M   'P 1'
_cell_length_a   9.62560800
_cell_length_b   9.62560968
_cell_length_c   9.57625500
_cell_angle_alpha   90.00000000
_cell_angle_beta   90.00000000
_cell_angle_gamma   119.99999421
_symmetry_Int_Tables_number   1
_chemical_formula_structural   Lu20Tl3Cd3Ni2
_chemical_formula_sum   'Lu20 Tl3 Cd3 Ni2'
_cell_volume   768.39189897
_cell_formula_units_Z   1
loop_
 _symmetry_equiv_pos_site_id
 _symmetry_equiv_pos_as_xyz
  1  'x, y, z'
loop_
 _atom_site_type_symbol
 _atom_site_label
 _atom_site_symmetry_multiplicity
 _atom_site_fract_x
 _atom_site_fract_y
 _atom_site_fract_z
 _atom_site_occupancy
  Lu  Lu0  1  0.000000  0.000000  0.501106  1
  Lu  Lu1  1  0.000000  0.000000  0.998894  1
  Lu  Lu2  1  0.541938  0.458062  0.250000  1
  Lu  Lu3  1  0.541938  0.083877  0.250000  1
  Lu  Lu4  1  0.916123  0.458062  0.250000  1
  Lu  Lu5  1  0.456435  0.543565  0.750000  1
  Lu  Lu6  1  0.456435  0.912870  0.750000  1
  Lu  Lu7  1  0.087130  0.543565  0.750000  1
  Lu  Lu8  1  0.212966  0.787034  0.439773  1
  Lu  Lu9  1  0.212966  0.425933  0.439773  1
  Lu  Lu10  1  0.574067  0.787034  0.439773  1
  Lu  Lu11  1  0.787552  0.212448  0.564947  1
  Lu  Lu12  1  0.787552  0.575104  0.564947  1
  Lu  Lu13  1  0.424896  0.212448  0.564947  1
  Lu  Lu14  1  0.787552  0.212448  0.935053  1
  Lu  Lu15  1  0.787552  0.575104  0.935053  1
  Lu  Lu16  1  0.424896  0.212448  0.935053  1
  Lu  Lu17  1  0.212966  0.787034  0.060227  1
  Lu  Lu18  1  0.212966  0.425933  0.060227  1
  Lu  Lu19  1  0.574067  0.787034  0.060227  1
  Tl  Tl20  1  0.880283  0.119717  0.250000  1
  Tl  Tl21  1  0.880283  0.760565  0.250000  1
  Tl  Tl22  1  0.239435  0.119717  0.250000  1
  Cd  Cd23  1  0.115101  0.884899  0.750000  1
  Cd  Cd24  1  0.115101  0.230201  0.750000  1
  Cd  Cd25  1  0.769799  0.884899  0.750000  1
  Ni  Ni26  1  0.333333  0.666667  0.250000  1
  Ni  Ni27  1  0.666667  0.333333  0.750000  1
