# generated using pymatgen
data_La2Tb3SmOsI10
_symmetry_space_group_name_H-M   'P 1'
_cell_length_a   7.92626521
_cell_length_b   9.96820654
_cell_length_c   9.92292107
_cell_angle_alpha   106.89442724
_cell_angle_beta   96.15097102
_cell_angle_gamma   105.79981861
_symmetry_Int_Tables_number   1
_chemical_formula_structural   La2Tb3SmOsI10
_chemical_formula_sum   'La2 Tb3 Sm1 Os1 I10'
_cell_volume   706.90901596
_cell_formula_units_Z   1
loop_
 _symmetry_equiv_pos_site_id
 _symmetry_equiv_pos_as_xyz
  1  'x, y, z'
loop_
 _atom_site_type_symbol
 _atom_site_label
 _atom_site_symmetry_multiplicity
 _atom_site_fract_x
 _atom_site_fract_y
 _atom_site_fract_z
 _atom_site_occupancy
  La  La0  1  0.385986  0.957122  0.729332  1
  La  La1  1  0.616469  0.044318  0.271520  1
  Tb  Tb2  1  0.472470  0.290205  0.588550  1
  Tb  Tb3  1  0.529715  0.710729  0.413167  1
  Tb  Tb4  1  0.852736  0.130073  0.669198  1
  Sm  Sm5  1  0.142079  0.867141  0.327250  1
  Os  Os6  1  0.500077  0.000111  0.499838  1
  I  I7  1  0.418824  0.623384  0.674561  1
  I  I8  1  0.583040  0.377924  0.327480  1
  I  I9  1  0.281934  0.264249  0.842172  1
  I  I10  1  0.708682  0.732711  0.153571  1
  I  I11  1  0.851519  0.450046  0.770056  1
  I  I12  1  0.152145  0.545587  0.231084  1
  I  I13  1  0.051879  0.182933  0.416116  1
  I  I14  1  0.235071  0.912734  0.042405  1
  I  I15  1  0.770072  0.090132  0.955214  1
  I  I16  1  0.947301  0.820602  0.588488  1
