# generated using pymatgen
data_Ho2Th(InPd)3
_symmetry_space_group_name_H-M   'P 1'
_cell_length_a   7.78380041
_cell_length_b   7.75784315
_cell_length_c   3.87680300
_cell_angle_alpha   90.00000000
_cell_angle_beta   90.00000000
_cell_angle_gamma   119.88975199
_symmetry_Int_Tables_number   1
_chemical_formula_structural   Ho2Th(InPd)3
_chemical_formula_sum   'Ho2 Th1 In3 Pd3'
_cell_volume   202.96373721
_cell_formula_units_Z   1
loop_
 _symmetry_equiv_pos_site_id
 _symmetry_equiv_pos_as_xyz
  1  'x, y, z'
loop_
 _atom_site_type_symbol
 _atom_site_label
 _atom_site_symmetry_multiplicity
 _atom_site_fract_x
 _atom_site_fract_y
 _atom_site_fract_z
 _atom_site_occupancy
  Ho  Ho0  1  0.405331  0.406967  0.000000  1
  Ho  Ho1  1  0.594669  0.001636  0.000000  1
  Th  Th2  1  0.000000  0.591231  0.000000  1
  In  In3  1  0.730906  0.741070  0.500000  1
  In  In4  1  0.000000  0.250785  0.500000  1
  In  In5  1  0.269094  0.010164  0.500000  1
  Pd  Pd6  1  0.328860  0.666558  0.500000  1
  Pd  Pd7  1  0.000000  0.993894  0.000000  1
  Pd  Pd8  1  0.671140  0.337697  0.500000  1
