# generated using pymatgen
data_Pr3(SnRh)2
_symmetry_space_group_name_H-M   'P 1'
_cell_length_a   5.98762900
_cell_length_b   8.56998200
_cell_length_c   13.87544400
_cell_angle_alpha   90.00000000
_cell_angle_beta   90.00000000
_cell_angle_gamma   90.00000000
_symmetry_Int_Tables_number   1
_chemical_formula_structural   Pr3(SnRh)2
_chemical_formula_sum   'Pr12 Sn8 Rh8'
_cell_volume   712.00276780
_cell_formula_units_Z   4
loop_
 _symmetry_equiv_pos_site_id
 _symmetry_equiv_pos_as_xyz
  1  'x, y, z'
loop_
 _atom_site_type_symbol
 _atom_site_label
 _atom_site_symmetry_multiplicity
 _atom_site_fract_x
 _atom_site_fract_y
 _atom_site_fract_z
 _atom_site_occupancy
  Pr  Pr0  1  0.632489  0.252914  0.250000  1
  Pr  Pr1  1  0.367511  0.747086  0.750000  1
  Pr  Pr2  1  0.367511  0.752914  0.250000  1
  Pr  Pr3  1  0.632489  0.247086  0.750000  1
  Pr  Pr4  1  0.164706  0.396070  0.094588  1
  Pr  Pr5  1  0.835294  0.603930  0.905412  1
  Pr  Pr6  1  0.835294  0.603930  0.594588  1
  Pr  Pr7  1  0.835294  0.896070  0.405412  1
  Pr  Pr8  1  0.164706  0.396070  0.405412  1
  Pr  Pr9  1  0.164706  0.103930  0.594588  1
  Pr  Pr10  1  0.164706  0.103930  0.905412  1
  Pr  Pr11  1  0.835294  0.896070  0.094588  1
  Sn  Sn12  1  0.132166  0.104998  0.250000  1
  Sn  Sn13  1  0.867834  0.895002  0.750000  1
  Sn  Sn14  1  0.867834  0.604998  0.250000  1
  Sn  Sn15  1  0.132166  0.395002  0.750000  1
  Sn  Sn16  1  0.660411  0.250000  0.000000  1
  Sn  Sn17  1  0.339589  0.750000  0.000000  1
  Sn  Sn18  1  0.339589  0.750000  0.500000  1
  Sn  Sn19  1  0.660411  0.250000  0.500000  1
  Rh  Rh20  1  0.381450  0.039119  0.092545  1
  Rh  Rh21  1  0.618550  0.960881  0.907455  1
  Rh  Rh22  1  0.618550  0.960881  0.592545  1
  Rh  Rh23  1  0.618550  0.539119  0.407455  1
  Rh  Rh24  1  0.381450  0.039119  0.407455  1
  Rh  Rh25  1  0.381450  0.460881  0.592545  1
  Rh  Rh26  1  0.381450  0.460881  0.907455  1
  Rh  Rh27  1  0.618550  0.539119  0.092545  1
