# generated using pymatgen
data_Tb12Co2CuNi2Sn
_symmetry_space_group_name_H-M   'P 1'
_cell_length_a   8.35948104
_cell_length_b   8.35948226
_cell_length_c   8.35948065
_cell_angle_alpha   111.79042965
_cell_angle_beta   109.19301671
_cell_angle_gamma   107.45974711
_symmetry_Int_Tables_number   1
_chemical_formula_structural   Tb12Co2CuNi2Sn
_chemical_formula_sum   'Tb12 Co2 Cu1 Ni2 Sn1'
_cell_volume   449.03940644
_cell_formula_units_Z   1
loop_
 _symmetry_equiv_pos_site_id
 _symmetry_equiv_pos_as_xyz
  1  'x, y, z'
loop_
 _atom_site_type_symbol
 _atom_site_label
 _atom_site_symmetry_multiplicity
 _atom_site_fract_x
 _atom_site_fract_y
 _atom_site_fract_z
 _atom_site_occupancy
  Tb  Tb0  1  0.417754  0.223841  0.193913  1
  Tb  Tb1  1  0.582246  0.776159  0.806087  1
  Tb  Tb2  1  0.029927  0.223841  0.806087  1
  Tb  Tb3  1  0.970073  0.776159  0.193913  1
  Tb  Tb4  1  0.179899  0.287454  0.467353  1
  Tb  Tb5  1  0.820101  0.712546  0.532647  1
  Tb  Tb6  1  0.179899  0.712546  0.892445  1
  Tb  Tb7  1  0.820101  0.287454  0.107555  1
  Tb  Tb8  1  0.318978  0.629882  0.310904  1
  Tb  Tb9  1  0.681022  0.370118  0.689096  1
  Tb  Tb10  1  0.318978  0.008074  0.689096  1
  Tb  Tb11  1  0.681022  0.991926  0.310904  1
  Co  Co12  1  0.114297  0.614297  0.500000  1
  Co  Co13  1  0.885703  0.385703  0.500000  1
  Cu  Cu14  1  0.000000  0.000000  0.000000  1
  Ni  Ni15  1  0.354228  0.000000  0.354228  1
  Ni  Ni16  1  0.645772  0.000000  0.645772  1
  Sn  Sn17  1  0.500000  0.500000  0.000000  1
