# generated using pymatgen
data_Zr4Al24TcPt8
_symmetry_space_group_name_H-M   'P 1'
_cell_length_a   7.46676917
_cell_length_b   7.49131211
_cell_length_c   12.99142140
_cell_angle_alpha   84.68217776
_cell_angle_beta   79.05869712
_cell_angle_gamma   59.85595224
_symmetry_Int_Tables_number   1
_chemical_formula_structural   Zr4Al24TcPt8
_chemical_formula_sum   'Zr4 Al24 Tc1 Pt8'
_cell_volume   616.98759577
_cell_formula_units_Z   1
loop_
 _symmetry_equiv_pos_site_id
 _symmetry_equiv_pos_as_xyz
  1  'x, y, z'
loop_
 _atom_site_type_symbol
 _atom_site_label
 _atom_site_symmetry_multiplicity
 _atom_site_fract_x
 _atom_site_fract_y
 _atom_site_fract_z
 _atom_site_occupancy
  Zr  Zr0  1  0.390192  0.167735  0.812324  1
  Zr  Zr1  1  0.609808  0.832265  0.187676  1
  Zr  Zr2  1  0.734154  0.497197  0.811901  1
  Zr  Zr3  1  0.265846  0.502803  0.188099  1
  Al  Al4  1  0.686376  0.829164  0.943948  1
  Al  Al5  1  0.313624  0.170836  0.056052  1
  Al  Al6  1  0.145774  0.832607  0.563794  1
  Al  Al7  1  0.854226  0.167393  0.436206  1
  Al  Al8  1  0.480240  0.166720  0.561121  1
  Al  Al9  1  0.519760  0.833280  0.438879  1
  Al  Al10  1  0.222365  0.163898  0.322184  1
  Al  Al11  1  0.777635  0.836102  0.677816  1
  Al  Al12  1  0.437414  0.505281  0.678301  1
  Al  Al13  1  0.562586  0.494719  0.321699  1
  Al  Al14  1  0.107545  0.162769  0.676273  1
  Al  Al15  1  0.892455  0.837231  0.323727  1
  Al  Al16  1  0.351140  0.496688  0.943460  1
  Al  Al17  1  0.648860  0.503312  0.056540  1
  Al  Al18  1  0.016064  0.174667  0.950906  1
  Al  Al19  1  0.983936  0.825333  0.049094  1
  Al  Al20  1  0.187249  0.499778  0.439715  1
  Al  Al21  1  0.812751  0.500222  0.560285  1
  Al  Al22  1  0.729306  0.162569  0.183005  1
  Al  Al23  1  0.270694  0.837431  0.816995  1
  Al  Al24  1  0.060213  0.624181  0.818311  1
  Al  Al25  1  0.939787  0.375819  0.181689  1
  Al  Al26  1  0.850004  0.048639  0.816411  1
  Al  Al27  1  0.149996  0.951361  0.183590  1
  Tc  Tc28  1  0.000000  0.500000  0.000000  1
  Pt  Pt29  1  0.120217  0.490993  0.639505  1
  Pt  Pt30  1  0.879783  0.509007  0.360495  1
  Pt  Pt31  1  0.656565  0.171884  0.999696  1
  Pt  Pt32  1  0.343435  0.828116  0.000304  1
  Pt  Pt33  1  0.536268  0.166401  0.362019  1
  Pt  Pt34  1  0.463732  0.833599  0.637981  1
  Pt  Pt35  1  0.778165  0.176738  0.636699  1
  Pt  Pt36  1  0.221835  0.823262  0.363301  1
