# generated using pymatgen
data_Ti7Tc8W
_symmetry_space_group_name_H-M   'P 1'
_cell_length_a   6.29861702
_cell_length_b   4.43348500
_cell_length_c   8.84392900
_cell_angle_alpha   90.00000000
_cell_angle_beta   90.00418442
_cell_angle_gamma   90.00000000
_symmetry_Int_Tables_number   1
_chemical_formula_structural   Ti7Tc8W
_chemical_formula_sum   'Ti7 Tc8 W1'
_cell_volume   246.96516071
_cell_formula_units_Z   1
loop_
 _symmetry_equiv_pos_site_id
 _symmetry_equiv_pos_as_xyz
  1  'x, y, z'
loop_
 _atom_site_type_symbol
 _atom_site_label
 _atom_site_symmetry_multiplicity
 _atom_site_fract_x
 _atom_site_fract_y
 _atom_site_fract_z
 _atom_site_occupancy
  Ti  Ti0  1  0.250046  0.750001  0.374931  1
  Ti  Ti1  1  0.749957  0.250000  0.625007  1
  Ti  Ti2  1  0.249956  0.750001  0.875054  1
  Ti  Ti3  1  0.250046  0.250000  0.125000  1
  Ti  Ti4  1  0.750046  0.750001  0.376269  1
  Ti  Ti5  1  0.249953  0.250000  0.625001  1
  Ti  Ti6  1  0.749959  0.750001  0.873731  1
  Tc  Tc7  1  0.502769  0.750001  0.125001  1
  Tc  Tc8  1  0.997298  0.750001  0.125000  1
  Tc  Tc9  1  0.500825  0.250000  0.372347  1
  Tc  Tc10  1  0.999239  0.250000  0.372350  1
  Tc  Tc11  1  0.999994  0.750001  0.625008  1
  Tc  Tc12  1  0.499944  0.750001  0.625010  1
  Tc  Tc13  1  0.999178  0.250000  0.877648  1
  Tc  Tc14  1  0.500754  0.250000  0.877646  1
  W  W15  1  0.750039  0.250000  0.124998  1
