# generated using pymatgen
data_Li3Mn5Al3O16
_symmetry_space_group_name_H-M   'P 1'
_cell_length_a   5.79724036
_cell_length_b   5.76929686
_cell_length_c   8.16605382
_cell_angle_alpha   89.29898555
_cell_angle_beta   90.36136519
_cell_angle_gamma   89.95496138
_symmetry_Int_Tables_number   1
_chemical_formula_structural   Li3Mn5Al3O16
_chemical_formula_sum   'Li3 Mn5 Al3 O16'
_cell_volume   273.09586545
_cell_formula_units_Z   1
loop_
 _symmetry_equiv_pos_site_id
 _symmetry_equiv_pos_as_xyz
  1  'x, y, z'
loop_
 _atom_site_type_symbol
 _atom_site_label
 _atom_site_symmetry_multiplicity
 _atom_site_fract_x
 _atom_site_fract_y
 _atom_site_fract_z
 _atom_site_occupancy
  Li  Li0  1  0.004845  0.009975  0.500615  1
  Li  Li1  1  0.495432  0.988498  0.754175  1
  Li  Li2  1  0.994534  0.491061  0.250981  1
  Mn  Mn3  1  0.252281  0.000272  0.124290  1
  Mn  Mn4  1  0.747793  0.000019  0.124260  1
  Mn  Mn5  1  0.249735  0.499835  0.626336  1
  Mn  Mn6  1  0.502563  0.252211  0.376460  1
  Mn  Mn7  1  0.997262  0.744574  0.871864  1
  Al  Al8  1  0.502606  0.748032  0.377215  1
  Al  Al9  1  0.997228  0.252859  0.872628  1
  Al  Al10  1  0.748628  0.499983  0.627245  1
  O  O11  1  0.501041  0.274481  0.612949  1
  O  O12  1  0.000090  0.774749  0.112986  1
  O  O13  1  0.278118  0.500899  0.386101  1
  O  O14  1  0.775891  0.003140  0.887761  1
  O  O15  1  0.722671  0.500695  0.389864  1
  O  O16  1  0.220563  0.004756  0.888762  1
  O  O17  1  0.501663  0.722210  0.609307  1
  O  O18  1  0.999939  0.223183  0.109696  1
  O  O19  1  0.500357  0.223320  0.138914  1
  O  O20  1  0.999538  0.725866  0.635161  1
  O  O21  1  0.724982  0.999201  0.363303  1
  O  O22  1  0.220625  0.501068  0.858868  1
  O  O23  1  0.278861  0.998609  0.362514  1
  O  O24  1  0.783182  0.500680  0.858034  1
  O  O25  1  0.500415  0.782191  0.142025  1
  O  O26  1  0.999155  0.277635  0.637686  1
