# generated using pymatgen
data_Tb5Tm11In4NiRh3
_symmetry_space_group_name_H-M   'P 1'
_cell_length_a   9.56907938
_cell_length_b   9.55610542
_cell_length_c   9.56099223
_cell_angle_alpha   60.25710850
_cell_angle_beta   60.12345548
_cell_angle_gamma   60.17792263
_symmetry_Int_Tables_number   1
_chemical_formula_structural   Tb5Tm11In4NiRh3
_chemical_formula_sum   'Tb5 Tm11 In4 Ni1 Rh3'
_cell_volume   620.81887181
_cell_formula_units_Z   1
loop_
 _symmetry_equiv_pos_site_id
 _symmetry_equiv_pos_as_xyz
  1  'x, y, z'
loop_
 _atom_site_type_symbol
 _atom_site_label
 _atom_site_symmetry_multiplicity
 _atom_site_fract_x
 _atom_site_fract_y
 _atom_site_fract_z
 _atom_site_occupancy
  Tb  Tb0  1  0.063098  0.063307  0.437136  1
  Tb  Tb1  1  0.433712  0.065431  0.434650  1
  Tb  Tb2  1  0.062320  0.437570  0.062195  1
  Tb  Tb3  1  0.047638  0.652780  0.648596  1
  Tb  Tb4  1  0.436231  0.433817  0.063666  1
  Tm  Tm5  1  0.651720  0.049186  0.644271  1
  Tm  Tm6  1  0.188026  0.810274  0.189720  1
  Tm  Tm7  1  0.188939  0.188653  0.811324  1
  Tm  Tm8  1  0.811324  0.810705  0.191689  1
  Tm  Tm9  1  0.442997  0.054565  0.054563  1
  Tm  Tm10  1  0.813007  0.186686  0.189185  1
  Tm  Tm11  1  0.058273  0.438951  0.442336  1
  Tm  Tm12  1  0.809552  0.190044  0.811127  1
  Tm  Tm13  1  0.189651  0.811434  0.813176  1
  Tm  Tm14  1  0.650449  0.645281  0.050395  1
  Tm  Tm15  1  0.651076  0.655986  0.652110  1
  In  In16  1  0.417323  0.416305  0.417997  1
  In  In17  1  0.748253  0.418658  0.418275  1
  In  In18  1  0.419784  0.747157  0.417343  1
  In  In19  1  0.418546  0.417661  0.746496  1
  Ni  Ni20  1  0.859723  0.858805  0.423664  1
  Rh  Rh21  1  0.852508  0.860842  0.860982  1
  Rh  Rh22  1  0.427428  0.861308  0.861552  1
  Rh  Rh23  1  0.858424  0.424595  0.857557  1
