# generated using pymatgen
data_Ba3Mn2(P3Rh2)2
_symmetry_space_group_name_H-M   'P 1'
_cell_length_a   8.86850626
_cell_length_b   8.86825561
_cell_length_c   8.86825516
_cell_angle_alpha   154.09719232
_cell_angle_beta   90.12354516
_cell_angle_gamma   95.64154483
_symmetry_Int_Tables_number   1
_chemical_formula_structural   Ba3Mn2(P3Rh2)2
_chemical_formula_sum   'Ba3 Mn2 P6 Rh4'
_cell_volume   296.55653580
_cell_formula_units_Z   1
loop_
 _symmetry_equiv_pos_site_id
 _symmetry_equiv_pos_as_xyz
  1  'x, y, z'
loop_
 _atom_site_type_symbol
 _atom_site_label
 _atom_site_symmetry_multiplicity
 _atom_site_fract_x
 _atom_site_fract_y
 _atom_site_fract_z
 _atom_site_occupancy
  Ba  Ba0  1  0.331504  0.331101  0.000403  1
  Ba  Ba1  1  0.665772  0.666723  0.999049  1
  Ba  Ba2  1  0.002496  0.002148  0.000347  1
  Mn  Mn3  1  0.583042  0.832689  0.750352  1
  Mn  Mn4  1  0.251108  0.500688  0.750420  1
  P  P5  1  0.323875  0.666715  0.657158  1
  P  P6  1  0.678234  0.333164  0.345070  1
  P  P7  1  0.998142  0.344248  0.653893  1
  P  P8  1  0.345365  0.000203  0.345162  1
  P  P9  1  0.013408  0.666616  0.346794  1
  P  P10  1  0.642847  0.989077  0.653771  1
  Rh  Rh11  1  0.750123  0.500257  0.249866  1
  Rh  Rh12  1  0.083035  0.833016  0.250018  1
  Rh  Rh13  1  0.417282  0.166699  0.250583  1
  Rh  Rh14  1  0.913766  0.166652  0.747115  1
