# generated using pymatgen
data_Dy7Ho3IrRu3
_symmetry_space_group_name_H-M   'P 1'
_cell_length_a   6.36536163
_cell_length_b   7.28836270
_cell_length_c   8.49090701
_cell_angle_alpha   96.70832921
_cell_angle_beta   112.14781144
_cell_angle_gamma   90.07448263
_symmetry_Int_Tables_number   1
_chemical_formula_structural   Dy7Ho3IrRu3
_chemical_formula_sum   'Dy7 Ho3 Ir1 Ru3'
_cell_volume   361.91530172
_cell_formula_units_Z   1
loop_
 _symmetry_equiv_pos_site_id
 _symmetry_equiv_pos_as_xyz
  1  'x, y, z'
loop_
 _atom_site_type_symbol
 _atom_site_label
 _atom_site_symmetry_multiplicity
 _atom_site_fract_x
 _atom_site_fract_y
 _atom_site_fract_z
 _atom_site_occupancy
  Dy  Dy0  1  0.978310  0.917762  0.185314  1
  Dy  Dy1  1  0.791945  0.585047  0.812788  1
  Dy  Dy2  1  0.021530  0.085006  0.814007  1
  Dy  Dy3  1  0.209349  0.414156  0.185212  1
  Dy  Dy4  1  0.641457  0.815910  0.435009  1
  Dy  Dy5  1  0.207811  0.684618  0.566443  1
  Dy  Dy6  1  0.357972  0.185466  0.565726  1
  Ho  Ho7  1  0.792627  0.313890  0.435496  1
  Ho  Ho8  1  0.421617  0.750134  0.000271  1
  Ho  Ho9  1  0.577856  0.248656  0.999059  1
  Ir  Ir10  1  0.821921  0.575459  0.221294  1
  Ru  Ru11  1  0.604790  0.923151  0.780126  1
  Ru  Ru12  1  0.174823  0.424784  0.778841  1
  Ru  Ru13  1  0.397993  0.075961  0.220414  1
