# generated using pymatgen
data_Pm4ZnRh3
_symmetry_space_group_name_H-M   'P 1'
_cell_length_a   7.43054586
_cell_length_b   5.82131878
_cell_length_c   4.34416900
_cell_angle_alpha   90.00000000
_cell_angle_beta   90.00000000
_cell_angle_gamma   90.84360212
_symmetry_Int_Tables_number   1
_chemical_formula_structural   Pm4ZnRh3
_chemical_formula_sum   'Pm4 Zn1 Rh3'
_cell_volume   187.88916529
_cell_formula_units_Z   1
loop_
 _symmetry_equiv_pos_site_id
 _symmetry_equiv_pos_as_xyz
  1  'x, y, z'
loop_
 _atom_site_type_symbol
 _atom_site_label
 _atom_site_symmetry_multiplicity
 _atom_site_fract_x
 _atom_site_fract_y
 _atom_site_fract_z
 _atom_site_occupancy
  Pm  Pm0  1  0.110026  0.500553  0.000000  1
  Pm  Pm1  1  0.580994  0.736616  0.000000  1
  Pm  Pm2  1  0.245599  0.020886  0.499999  1
  Pm  Pm3  1  0.727817  0.241323  0.499999  1
  Zn  Zn4  1  0.885437  0.754442  0.499999  1
  Rh  Rh5  1  0.472298  0.215356  0.000000  1
  Rh  Rh6  1  0.945931  0.993928  0.000000  1
  Rh  Rh7  1  0.365231  0.536898  0.499999  1
