# generated using pymatgen
data_Y2HoTh(Al8Pt3)3
_symmetry_space_group_name_H-M   'P 1'
_cell_length_a   7.56427775
_cell_length_b   7.58264408
_cell_length_c   13.18791101
_cell_angle_alpha   84.53696419
_cell_angle_beta   79.00018622
_cell_angle_gamma   59.91913993
_symmetry_Int_Tables_number   1
_chemical_formula_structural   Y2HoTh(Al8Pt3)3
_chemical_formula_sum   'Y2 Ho1 Th1 Al24 Pt9'
_cell_volume   642.52071293
_cell_formula_units_Z   1
loop_
 _symmetry_equiv_pos_site_id
 _symmetry_equiv_pos_as_xyz
  1  'x, y, z'
loop_
 _atom_site_type_symbol
 _atom_site_label
 _atom_site_symmetry_multiplicity
 _atom_site_fract_x
 _atom_site_fract_y
 _atom_site_fract_z
 _atom_site_occupancy
  Y  Y0  1  0.605688  0.831441  0.193542  1
  Y  Y1  1  0.733504  0.499080  0.807653  1
  Ho  Ho2  1  0.266132  0.501412  0.193685  1
  Th  Th3  1  0.394157  0.167778  0.807366  1
  Al  Al4  1  0.687057  0.830677  0.947279  1
  Al  Al5  1  0.315356  0.166298  0.058921  1
  Al  Al6  1  0.146872  0.832761  0.560085  1
  Al  Al7  1  0.854165  0.167677  0.437472  1
  Al  Al8  1  0.481168  0.166454  0.556483  1
  Al  Al9  1  0.520346  0.832463  0.440516  1
  Al  Al10  1  0.217622  0.165603  0.329091  1
  Al  Al11  1  0.787627  0.830949  0.666576  1
  Al  Al12  1  0.438164  0.510300  0.667271  1
  Al  Al13  1  0.562856  0.493581  0.328937  1
  Al  Al14  1  0.107205  0.159774  0.665527  1
  Al  Al15  1  0.890444  0.839872  0.330437  1
  Al  Al16  1  0.351401  0.502897  0.947156  1
  Al  Al17  1  0.645875  0.501521  0.056829  1
  Al  Al18  1  0.011617  0.166987  0.957065  1
  Al  Al19  1  0.983742  0.831310  0.049660  1
  Al  Al20  1  0.185998  0.500082  0.440640  1
  Al  Al21  1  0.813477  0.500257  0.558122  1
  Al  Al22  1  0.733678  0.164440  0.183574  1
  Al  Al23  1  0.265086  0.831929  0.816509  1
  Al  Al24  1  0.057624  0.635429  0.815327  1
  Al  Al25  1  0.937971  0.369690  0.184946  1
  Al  Al26  1  0.860059  0.041233  0.816256  1
  Al  Al27  1  0.144354  0.957963  0.184330  1
  Pt  Pt28  1  0.121287  0.490720  0.638608  1
  Pt  Pt29  1  0.880155  0.508178  0.361028  1
  Pt  Pt30  1  0.656633  0.171592  0.999929  1
  Pt  Pt31  1  0.342674  0.829547  0.000163  1
  Pt  Pt32  1  0.537541  0.167001  0.360992  1
  Pt  Pt33  1  0.462234  0.834134  0.638412  1
  Pt  Pt34  1  0.777889  0.175074  0.637286  1
  Pt  Pt35  1  0.221330  0.824922  0.362330  1
  Pt  Pt36  1  0.001010  0.498978  0.999998  1
