# generated using pymatgen
data_Ho5P12Ru17Pt2
_symmetry_space_group_name_H-M   'P 1'
_cell_length_a   12.61352800
_cell_length_b   12.53688793
_cell_length_c   3.98424400
_cell_angle_alpha   90.00000000
_cell_angle_beta   90.00000000
_cell_angle_gamma   120.20242876
_symmetry_Int_Tables_number   1
_chemical_formula_structural   Ho5P12Ru17Pt2
_chemical_formula_sum   'Ho5 P12 Ru17 Pt2'
_cell_volume   544.51943171
_cell_formula_units_Z   1
loop_
 _symmetry_equiv_pos_site_id
 _symmetry_equiv_pos_as_xyz
  1  'x, y, z'
loop_
 _atom_site_type_symbol
 _atom_site_label
 _atom_site_symmetry_multiplicity
 _atom_site_fract_x
 _atom_site_fract_y
 _atom_site_fract_z
 _atom_site_occupancy
  Ho  Ho0  1  0.001553  0.182682  0.500000  1
  Ho  Ho1  1  0.818871  0.817318  0.500000  1
  Ho  Ho2  1  0.183436  0.000000  0.500000  1
  Ho  Ho3  1  0.664044  0.326946  0.000000  1
  Ho  Ho4  1  0.337097  0.673054  0.000000  1
  P  P5  1  0.997462  0.812310  0.000000  1
  P  P6  1  0.185152  0.187690  0.000000  1
  P  P7  1  0.818772  0.000000  0.000000  1
  P  P8  1  0.692689  0.169450  0.500000  1
  P  P9  1  0.816559  0.515842  0.500000  1
  P  P10  1  0.477651  0.299284  0.500000  1
  P  P11  1  0.178367  0.700716  0.500000  1
  P  P12  1  0.523239  0.830550  0.500000  1
  P  P13  1  0.300717  0.484158  0.500000  1
  P  P14  1  0.000234  0.364750  0.000000  1
  P  P15  1  0.635484  0.635250  0.000000  1
  P  P16  1  0.372990  0.000000  0.000000  1
  Ru  Ru17  1  0.555212  0.000000  0.000000  1
  Ru  Ru18  1  0.997243  0.709461  0.500000  1
  Ru  Ru19  1  0.287782  0.290539  0.500000  1
  Ru  Ru20  1  0.719256  0.000000  0.500000  1
  Ru  Ru21  1  0.809089  0.184477  0.000000  1
  Ru  Ru22  1  0.812726  0.617945  0.000000  1
  Ru  Ru23  1  0.375826  0.192677  0.000000  1
  Ru  Ru24  1  0.183149  0.807323  0.000000  1
  Ru  Ru25  1  0.624612  0.815523  0.000000  1
  Ru  Ru26  1  0.194781  0.382055  0.000000  1
  Ru  Ru27  1  0.869976  0.364646  0.500000  1
  Ru  Ru28  1  0.628890  0.505650  0.500000  1
  Ru  Ru29  1  0.491619  0.123968  0.500000  1
  Ru  Ru30  1  0.367650  0.876032  0.500000  1
  Ru  Ru31  1  0.505330  0.635354  0.500000  1
  Ru  Ru32  1  0.123241  0.494350  0.500000  1
  Ru  Ru33  1  0.003019  0.000000  0.000000  1
  Pt  Pt34  1  0.997828  0.549375  0.000000  1
  Pt  Pt35  1  0.448453  0.450625  0.000000  1
