# generated using pymatgen
data_Er3Tm7(Si3O)2
_symmetry_space_group_name_H-M   'P 1'
_cell_length_a   8.28909000
_cell_length_b   8.28862364
_cell_length_c   6.11467900
_cell_angle_alpha   90.00000000
_cell_angle_beta   90.00000000
_cell_angle_gamma   120.00454321
_symmetry_Int_Tables_number   1
_chemical_formula_structural   Er3Tm7(Si3O)2
_chemical_formula_sum   'Er3 Tm7 Si6 O2'
_cell_volume   363.80920736
_cell_formula_units_Z   1
loop_
 _symmetry_equiv_pos_site_id
 _symmetry_equiv_pos_as_xyz
  1  'x, y, z'
loop_
 _atom_site_type_symbol
 _atom_site_label
 _atom_site_symmetry_multiplicity
 _atom_site_fract_x
 _atom_site_fract_y
 _atom_site_fract_z
 _atom_site_occupancy
  Er  Er0  1  0.232629  0.000024  0.250000  1
  Er  Er1  1  0.767244  0.999861  0.750000  1
  Er  Er2  1  0.000161  0.232789  0.250000  1
  Tm  Tm3  1  0.999882  0.767995  0.750000  1
  Tm  Tm4  1  0.768086  0.767949  0.250000  1
  Tm  Tm5  1  0.231987  0.231964  0.750000  1
  Tm  Tm6  1  0.333335  0.666606  0.999967  1
  Tm  Tm7  1  0.666667  0.333587  0.999973  1
  Tm  Tm8  1  0.666667  0.333587  0.500027  1
  Tm  Tm9  1  0.333335  0.666606  0.500033  1
  Si  Si10  1  0.601954  0.999720  0.250000  1
  Si  Si11  1  0.397546  0.000010  0.750000  1
  Si  Si12  1  0.999705  0.601974  0.250000  1
  Si  Si13  1  0.000293  0.398302  0.750000  1
  Si  Si14  1  0.398481  0.398487  0.250000  1
  Si  Si15  1  0.602028  0.601740  0.750000  1
  O  O16  1  0.000000  0.999399  0.999300  1
  O  O17  1  0.000000  0.999399  0.500700  1
