# generated using pymatgen
data_Tm2Pa(GaCo4)3
_symmetry_space_group_name_H-M   'P 1'
_cell_length_a   8.48897900
_cell_length_b   8.48897971
_cell_length_c   4.03790200
_cell_angle_alpha   90.00000000
_cell_angle_beta   90.00000000
_cell_angle_gamma   120.00000112
_symmetry_Int_Tables_number   1
_chemical_formula_structural   Tm2Pa(GaCo4)3
_chemical_formula_sum   'Tm2 Pa1 Ga3 Co12'
_cell_volume   251.99815208
_cell_formula_units_Z   1
loop_
 _symmetry_equiv_pos_site_id
 _symmetry_equiv_pos_as_xyz
  1  'x, y, z'
loop_
 _atom_site_type_symbol
 _atom_site_label
 _atom_site_symmetry_multiplicity
 _atom_site_fract_x
 _atom_site_fract_y
 _atom_site_fract_z
 _atom_site_occupancy
  Tm  Tm0  1  0.333333  0.666667  0.000000  1
  Tm  Tm1  1  0.666667  0.333333  0.000000  1
  Pa  Pa2  1  0.000000  0.000000  0.000000  1
  Ga  Ga3  1  0.500000  0.000000  0.500000  1
  Ga  Ga4  1  0.000000  0.500000  0.500000  1
  Ga  Ga5  1  0.500000  0.500000  0.500000  1
  Co  Co6  1  0.314024  0.000000  0.000000  1
  Co  Co7  1  0.685976  0.000000  0.000000  1
  Co  Co8  1  0.000000  0.314024  0.000000  1
  Co  Co9  1  0.000000  0.685976  0.000000  1
  Co  Co10  1  0.685976  0.685976  0.000000  1
  Co  Co11  1  0.314024  0.314024  0.000000  1
  Co  Co12  1  0.163545  0.327091  0.500000  1
  Co  Co13  1  0.836455  0.672909  0.500000  1
  Co  Co14  1  0.672909  0.836455  0.500000  1
  Co  Co15  1  0.327091  0.163545  0.500000  1
  Co  Co16  1  0.163545  0.836455  0.500000  1
  Co  Co17  1  0.836455  0.163545  0.500000  1
