# generated using pymatgen
data_Dy8ErLu(SiB4)4
_symmetry_space_group_name_H-M   'P 1'
_cell_length_a   7.21133800
_cell_length_b   7.21133800
_cell_length_c   8.04976300
_cell_angle_alpha   90.00000000
_cell_angle_beta   90.00000000
_cell_angle_gamma   90.00000000
_symmetry_Int_Tables_number   1
_chemical_formula_structural   Dy8ErLu(SiB4)4
_chemical_formula_sum   'Dy8 Er1 Lu1 Si4 B16'
_cell_volume   418.61501098
_cell_formula_units_Z   1
loop_
 _symmetry_equiv_pos_site_id
 _symmetry_equiv_pos_as_xyz
  1  'x, y, z'
loop_
 _atom_site_type_symbol
 _atom_site_label
 _atom_site_symmetry_multiplicity
 _atom_site_fract_x
 _atom_site_fract_y
 _atom_site_fract_z
 _atom_site_occupancy
  Dy  Dy0  1  0.680068  0.180351  0.225026  1
  Dy  Dy1  1  0.319932  0.819649  0.774974  1
  Dy  Dy2  1  0.319932  0.819649  0.225026  1
  Dy  Dy3  1  0.819649  0.680068  0.225026  1
  Dy  Dy4  1  0.819649  0.680068  0.774974  1
  Dy  Dy5  1  0.680068  0.180351  0.774974  1
  Dy  Dy6  1  0.180351  0.319932  0.774974  1
  Dy  Dy7  1  0.180351  0.319932  0.225026  1
  Er  Er8  1  0.000000  0.000000  0.500000  1
  Lu  Lu9  1  0.500000  0.500000  0.500000  1
  Si  Si10  1  0.116293  0.615052  0.500000  1
  Si  Si11  1  0.883707  0.384948  0.500000  1
  Si  Si12  1  0.384948  0.116293  0.500000  1
  Si  Si13  1  0.615052  0.883707  0.500000  1
  B  B14  1  0.172684  0.039143  0.000000  1
  B  B15  1  0.827316  0.960857  0.000000  1
  B  B16  1  0.960857  0.172684  0.000000  1
  B  B17  1  0.327319  0.539067  0.000000  1
  B  B18  1  0.039143  0.827316  0.000000  1
  B  B19  1  0.672681  0.460933  0.000000  1
  B  B20  1  0.539067  0.672681  0.000000  1
  B  B21  1  0.460933  0.327319  0.000000  1
  B  B22  1  0.089705  0.589789  0.000000  1
  B  B23  1  0.910295  0.410211  0.000000  1
  B  B24  1  0.410211  0.089705  0.000000  1
  B  B25  1  0.589789  0.910295  0.000000  1
  B  B26  1  0.000000  0.000000  0.163071  1
  B  B27  1  0.000000  0.000000  0.836929  1
  B  B28  1  0.500000  0.500000  0.836466  1
  B  B29  1  0.500000  0.500000  0.163534  1
