# generated using pymatgen
data_BeNb8AlTe8
_symmetry_space_group_name_H-M   'P 1'
_cell_length_a   4.84498900
_cell_length_b   11.01378800
_cell_length_c   19.37501200
_cell_angle_alpha   90.00000000
_cell_angle_beta   90.00000000
_cell_angle_gamma   90.00000000
_symmetry_Int_Tables_number   1
_chemical_formula_structural   BeNb8AlTe8
_chemical_formula_sum   'Be2 Nb16 Al2 Te16'
_cell_volume   1033.88322344
_cell_formula_units_Z   2
loop_
 _symmetry_equiv_pos_site_id
 _symmetry_equiv_pos_as_xyz
  1  'x, y, z'
loop_
 _atom_site_type_symbol
 _atom_site_label
 _atom_site_symmetry_multiplicity
 _atom_site_fract_x
 _atom_site_fract_y
 _atom_site_fract_z
 _atom_site_occupancy
  Be  Be0  1  0.249967  0.500000  0.500000  1
  Be  Be1  1  0.750033  0.000000  0.000000  1
  Nb  Nb2  1  0.491496  0.597719  0.608090  1
  Nb  Nb3  1  0.491496  0.402281  0.391910  1
  Nb  Nb4  1  0.508504  0.097719  0.891910  1
  Nb  Nb5  1  0.508504  0.902281  0.108090  1
  Nb  Nb6  1  0.008721  0.295900  0.462815  1
  Nb  Nb7  1  0.008721  0.704100  0.537185  1
  Nb  Nb8  1  0.991279  0.795900  0.037185  1
  Nb  Nb9  1  0.991279  0.204100  0.962815  1
  Nb  Nb10  1  0.491568  0.309257  0.555756  1
  Nb  Nb11  1  0.491568  0.690743  0.444244  1
  Nb  Nb12  1  0.508432  0.809257  0.944244  1
  Nb  Nb13  1  0.508432  0.190743  0.055756  1
  Nb  Nb14  1  0.008089  0.434522  0.615748  1
  Nb  Nb15  1  0.008089  0.565478  0.384252  1
  Nb  Nb16  1  0.991911  0.934522  0.884252  1
  Nb  Nb17  1  0.991911  0.065478  0.115748  1
  Al  Al18  1  0.750005  0.500000  0.500000  1
  Al  Al19  1  0.249995  0.000000  0.000000  1
  Te  Te20  1  0.997257  0.664963  0.682763  1
  Te  Te21  1  0.997257  0.335037  0.317237  1
  Te  Te22  1  0.002743  0.164963  0.817237  1
  Te  Te23  1  0.002743  0.835037  0.182763  1
  Te  Te24  1  0.502449  0.389498  0.695717  1
  Te  Te25  1  0.502449  0.610502  0.304283  1
  Te  Te26  1  0.497551  0.889498  0.804283  1
  Te  Te27  1  0.497551  0.110502  0.195717  1
  Te  Te28  1  0.502806  0.155090  0.437110  1
  Te  Te29  1  0.502806  0.844910  0.562890  1
  Te  Te30  1  0.497194  0.655090  0.062890  1
  Te  Te31  1  0.497194  0.344910  0.937110  1
  Te  Te32  1  0.002848  0.322255  0.094131  1
  Te  Te33  1  0.002848  0.677745  0.905869  1
  Te  Te34  1  0.997152  0.822255  0.405869  1
  Te  Te35  1  0.997152  0.177745  0.594131  1
