# generated using pymatgen
data_Nb10InPt4
_symmetry_space_group_name_H-M   'P 1'
_cell_length_a   10.09432000
_cell_length_b   10.09432000
_cell_length_c   5.21805000
_cell_angle_alpha   90.00000000
_cell_angle_beta   90.00000000
_cell_angle_gamma   90.00000000
_symmetry_Int_Tables_number   1
_chemical_formula_structural   Nb10InPt4
_chemical_formula_sum   'Nb20 In2 Pt8'
_cell_volume   531.69475066
_cell_formula_units_Z   2
loop_
 _symmetry_equiv_pos_site_id
 _symmetry_equiv_pos_as_xyz
  1  'x, y, z'
loop_
 _atom_site_type_symbol
 _atom_site_label
 _atom_site_symmetry_multiplicity
 _atom_site_fract_x
 _atom_site_fract_y
 _atom_site_fract_z
 _atom_site_occupancy
  Nb  Nb0  1  0.393387  0.393387  0.000000  1
  Nb  Nb1  1  0.893387  0.106613  0.500000  1
  Nb  Nb2  1  0.106613  0.893387  0.500000  1
  Nb  Nb3  1  0.606613  0.606613  0.000000  1
  Nb  Nb4  1  0.127344  0.463353  0.000000  1
  Nb  Nb5  1  0.963353  0.372656  0.500000  1
  Nb  Nb6  1  0.036647  0.627344  0.500000  1
  Nb  Nb7  1  0.872656  0.536647  0.000000  1
  Nb  Nb8  1  0.372656  0.963353  0.500000  1
  Nb  Nb9  1  0.627344  0.036647  0.500000  1
  Nb  Nb10  1  0.463353  0.127344  0.000000  1
  Nb  Nb11  1  0.536647  0.872656  0.000000  1
  Nb  Nb12  1  0.184688  0.184688  0.252492  1
  Nb  Nb13  1  0.684688  0.315312  0.752492  1
  Nb  Nb14  1  0.315312  0.684688  0.752492  1
  Nb  Nb15  1  0.815312  0.815312  0.252492  1
  Nb  Nb16  1  0.315312  0.684688  0.247508  1
  Nb  Nb17  1  0.684688  0.315312  0.247508  1
  Nb  Nb18  1  0.184688  0.184688  0.747508  1
  Nb  Nb19  1  0.815312  0.815312  0.747508  1
  In  In20  1  0.000000  0.000000  0.000000  1
  In  In21  1  0.500000  0.500000  0.500000  1
  Pt  Pt22  1  0.268964  0.935847  0.000000  1
  Pt  Pt23  1  0.435847  0.231036  0.500000  1
  Pt  Pt24  1  0.564153  0.768964  0.500000  1
  Pt  Pt25  1  0.731036  0.064153  0.000000  1
  Pt  Pt26  1  0.231036  0.435847  0.500000  1
  Pt  Pt27  1  0.768964  0.564153  0.500000  1
  Pt  Pt28  1  0.935847  0.268964  0.000000  1
  Pt  Pt29  1  0.064153  0.731036  0.000000  1
