# generated using pymatgen
data_Pr19YSi15Br
_symmetry_space_group_name_H-M   'P 1'
_cell_length_a   7.95665695
_cell_length_b   7.89964122
_cell_length_c   15.35284703
_cell_angle_alpha   89.64764365
_cell_angle_beta   89.15745939
_cell_angle_gamma   90.16086802
_symmetry_Int_Tables_number   1
_chemical_formula_structural   Pr19YSi15Br
_chemical_formula_sum   'Pr19 Y1 Si15 Br1'
_cell_volume   964.87250184
_cell_formula_units_Z   1
loop_
 _symmetry_equiv_pos_site_id
 _symmetry_equiv_pos_as_xyz
  1  'x, y, z'
loop_
 _atom_site_type_symbol
 _atom_site_label
 _atom_site_symmetry_multiplicity
 _atom_site_fract_x
 _atom_site_fract_y
 _atom_site_fract_z
 _atom_site_occupancy
  Pr  Pr0  1  0.186926  0.807916  0.249585  1
  Pr  Pr1  1  0.794974  0.189360  0.753148  1
  Pr  Pr2  1  0.688365  0.689253  0.496820  1
  Pr  Pr3  1  0.381363  0.005552  0.442825  1
  Pr  Pr4  1  0.496714  0.869133  0.699421  1
  Pr  Pr5  1  0.509567  0.121723  0.196311  1
  Pr  Pr6  1  0.876387  0.485665  0.300265  1
  Pr  Pr7  1  0.122060  0.517432  0.804836  1
  Pr  Pr8  1  0.631665  0.986383  0.952564  1
  Pr  Pr9  1  0.996323  0.383566  0.545285  1
  Pr  Pr10  1  0.991947  0.622738  0.052931  1
  Pr  Pr11  1  0.139411  0.986912  0.875124  1
  Pr  Pr12  1  0.517862  0.630257  0.125491  1
  Pr  Pr13  1  0.481857  0.371979  0.630900  1
  Pr  Pr14  1  0.635390  0.521529  0.877096  1
  Pr  Pr15  1  0.369064  0.477025  0.374272  1
  Pr  Pr16  1  0.870327  0.019800  0.376248  1
  Pr  Pr17  1  0.982761  0.127849  0.123988  1
  Pr  Pr18  1  0.012599  0.862761  0.621207  1
  Y  Y19  1  0.313204  0.311088  0.999392  1
  Si  Si20  1  0.330820  0.694295  0.951793  1
  Si  Si21  1  0.661330  0.304205  0.453637  1
  Si  Si22  1  0.698386  0.334220  0.049669  1
  Si  Si23  1  0.304470  0.667316  0.549691  1
  Si  Si24  1  0.803447  0.831714  0.202217  1
  Si  Si25  1  0.167194  0.194937  0.296336  1
  Si  Si26  1  0.842154  0.804995  0.797586  1
  Si  Si27  1  0.288991  0.926466  0.057816  1
  Si  Si28  1  0.575780  0.785643  0.308097  1
  Si  Si29  1  0.448403  0.211929  0.828931  1
  Si  Si30  1  0.790427  0.576696  0.689082  1
  Si  Si31  1  0.213273  0.419976  0.186838  1
  Si  Si32  1  0.703887  0.075584  0.561027  1
  Si  Si33  1  0.932033  0.291431  0.941470  1
  Si  Si34  1  0.077756  0.711224  0.440401  1
  Br  Br35  1  0.162880  0.181447  0.687699  1
