# generated using pymatgen
data_Nd4HoIrRh2
_symmetry_space_group_name_H-M   'P 1'
_cell_length_a   11.18192500
_cell_length_b   11.18192500
_cell_length_c   6.55011600
_cell_angle_alpha   90.00000000
_cell_angle_beta   90.00000000
_cell_angle_gamma   90.00000000
_symmetry_Int_Tables_number   1
_chemical_formula_structural   Nd4HoIrRh2
_chemical_formula_sum   'Nd16 Ho4 Ir4 Rh8'
_cell_volume   818.99668003
_cell_formula_units_Z   4
loop_
 _symmetry_equiv_pos_site_id
 _symmetry_equiv_pos_as_xyz
  1  'x, y, z'
loop_
 _atom_site_type_symbol
 _atom_site_label
 _atom_site_symmetry_multiplicity
 _atom_site_fract_x
 _atom_site_fract_y
 _atom_site_fract_z
 _atom_site_occupancy
  Nd  Nd0  1  0.289896  0.089292  0.381766  1
  Nd  Nd1  1  0.289896  0.910708  0.881766  1
  Nd  Nd2  1  0.710104  0.089292  0.881766  1
  Nd  Nd3  1  0.710104  0.910708  0.381766  1
  Nd  Nd4  1  0.586936  0.787585  0.883386  1
  Nd  Nd5  1  0.586936  0.212415  0.383386  1
  Nd  Nd6  1  0.413064  0.787585  0.383386  1
  Nd  Nd7  1  0.413064  0.212415  0.883386  1
  Nd  Nd8  1  0.212415  0.413064  0.616614  1
  Nd  Nd9  1  0.212415  0.586936  0.116614  1
  Nd  Nd10  1  0.787585  0.413064  0.116614  1
  Nd  Nd11  1  0.787585  0.586936  0.616614  1
  Nd  Nd12  1  0.910708  0.710104  0.118234  1
  Nd  Nd13  1  0.910708  0.289896  0.618234  1
  Nd  Nd14  1  0.089292  0.710104  0.618234  1
  Nd  Nd15  1  0.089292  0.289896  0.118234  1
  Ho  Ho16  1  0.000000  0.000000  0.500000  1
  Ho  Ho17  1  0.000000  0.000000  0.000000  1
  Ho  Ho18  1  0.500000  0.500000  0.000000  1
  Ho  Ho19  1  0.500000  0.500000  0.500000  1
  Ir  Ir20  1  0.649910  0.350090  0.750000  1
  Ir  Ir21  1  0.649910  0.649910  0.250000  1
  Ir  Ir22  1  0.350090  0.350090  0.250000  1
  Ir  Ir23  1  0.350090  0.649910  0.750000  1
  Rh  Rh24  1  0.852111  0.147889  0.250000  1
  Rh  Rh25  1  0.852111  0.852111  0.750000  1
  Rh  Rh26  1  0.147889  0.147889  0.750000  1
  Rh  Rh27  1  0.147889  0.852111  0.250000  1
  Rh  Rh28  1  0.500000  0.000000  0.119052  1
  Rh  Rh29  1  0.500000  0.000000  0.619052  1
  Rh  Rh30  1  0.000000  0.500000  0.880948  1
  Rh  Rh31  1  0.000000  0.500000  0.380948  1
