# generated using pymatgen
data_Rb7LiS24
_symmetry_space_group_name_H-M   'P 1'
_cell_length_a   12.38035264
_cell_length_b   6.86288622
_cell_length_c   13.06880886
_cell_angle_alpha   71.86868774
_cell_angle_beta   88.78632925
_cell_angle_gamma   90.19682112
_symmetry_Int_Tables_number   1
_chemical_formula_structural   Rb7LiS24
_chemical_formula_sum   'Rb7 Li1 S24'
_cell_volume   1054.95966987
_cell_formula_units_Z   1
loop_
 _symmetry_equiv_pos_site_id
 _symmetry_equiv_pos_as_xyz
  1  'x, y, z'
loop_
 _atom_site_type_symbol
 _atom_site_label
 _atom_site_symmetry_multiplicity
 _atom_site_fract_x
 _atom_site_fract_y
 _atom_site_fract_z
 _atom_site_occupancy
  Rb  Rb0  1  0.650013  0.228913  0.977824  1
  Rb  Rb1  1  0.864773  0.218869  0.496350  1
  Rb  Rb2  1  0.355213  0.784493  0.015776  1
  Rb  Rb3  1  0.138471  0.775508  0.524876  1
  Rb  Rb4  1  0.604644  0.693824  0.589151  1
  Rb  Rb5  1  0.898509  0.692061  0.077696  1
  Rb  Rb6  1  0.395351  0.313211  0.407068  1
  Li  Li7  1  0.117860  0.367779  0.968502  1
  S  S8  1  0.311779  0.280383  0.998296  1
  S  S9  1  0.133140  0.300590  0.493198  1
  S  S10  1  0.627917  0.704982  0.005221  1
  S  S11  1  0.867456  0.715868  0.502239  1
  S  S12  1  0.391828  0.438679  0.857064  1
  S  S13  1  0.087085  0.461690  0.340727  1
  S  S14  1  0.584485  0.542299  0.161348  1
  S  S15  1  0.905116  0.544726  0.656498  1
  S  S16  1  0.332746  0.372576  0.726655  1
  S  S17  1  0.171885  0.376147  0.225192  1
  S  S18  1  0.670848  0.628545  0.271322  1
  S  S19  1  0.819078  0.624269  0.770744  1
  S  S20  1  0.387143  0.073673  0.731336  1
  S  S21  1  0.116222  0.073232  0.229633  1
  S  S22  1  0.612251  0.933854  0.267387  1
  S  S23  1  0.894357  0.915600  0.780173  1
  S  S24  1  0.552681  0.075140  0.723552  1
  S  S25  1  0.956042  0.091902  0.197176  1
  S  S26  1  0.448182  0.923100  0.274965  1
  S  S27  1  0.055923  0.884946  0.774933  1
  S  S28  1  0.607511  0.209834  0.568274  1
  S  S29  1  0.933224  0.219521  0.033551  1
  S  S30  1  0.391646  0.795975  0.430031  1
  S  S31  1  0.116619  0.737812  0.923244  1
