# generated using pymatgen
data_Tm4AlRh
_symmetry_space_group_name_H-M   'P 1'
_cell_length_a   9.38471423
_cell_length_b   9.38471503
_cell_length_c   9.38471500
_cell_angle_alpha   60.00000361
_cell_angle_beta   60.00000082
_cell_angle_gamma   60.00000130
_symmetry_Int_Tables_number   1
_chemical_formula_structural   Tm4AlRh
_chemical_formula_sum   'Tm16 Al4 Rh4'
_cell_volume   584.45119571
_cell_formula_units_Z   4
loop_
 _symmetry_equiv_pos_site_id
 _symmetry_equiv_pos_as_xyz
  1  'x, y, z'
loop_
 _atom_site_type_symbol
 _atom_site_label
 _atom_site_symmetry_multiplicity
 _atom_site_fract_x
 _atom_site_fract_y
 _atom_site_fract_z
 _atom_site_occupancy
  Tm  Tm0  1  0.063209  0.063209  0.436791  1
  Tm  Tm1  1  0.436791  0.063209  0.436791  1
  Tm  Tm2  1  0.063209  0.436791  0.063209  1
  Tm  Tm3  1  0.058300  0.647234  0.647234  1
  Tm  Tm4  1  0.436791  0.436791  0.063209  1
  Tm  Tm5  1  0.647234  0.058300  0.647234  1
  Tm  Tm6  1  0.192873  0.807127  0.192873  1
  Tm  Tm7  1  0.192873  0.192873  0.807127  1
  Tm  Tm8  1  0.807127  0.807127  0.192873  1
  Tm  Tm9  1  0.436791  0.063209  0.063209  1
  Tm  Tm10  1  0.807127  0.192873  0.192873  1
  Tm  Tm11  1  0.063209  0.436791  0.436791  1
  Tm  Tm12  1  0.807127  0.192873  0.807127  1
  Tm  Tm13  1  0.192873  0.807127  0.807127  1
  Tm  Tm14  1  0.647234  0.647234  0.058300  1
  Tm  Tm15  1  0.647234  0.647234  0.647234  1
  Al  Al16  1  0.421773  0.421773  0.421773  1
  Al  Al17  1  0.734681  0.421773  0.421773  1
  Al  Al18  1  0.421773  0.734681  0.421773  1
  Al  Al19  1  0.421773  0.421773  0.734681  1
  Rh  Rh20  1  0.857238  0.857238  0.428285  1
  Rh  Rh21  1  0.857238  0.857238  0.857238  1
  Rh  Rh22  1  0.428285  0.857238  0.857238  1
  Rh  Rh23  1  0.857238  0.428285  0.857238  1
