# generated using pymatgen
data_Ta8Nb4B12Os5Ru7
_symmetry_space_group_name_H-M   'P 1'
_cell_length_a   3.11884600
_cell_length_b   9.05543347
_cell_length_c   15.77811332
_cell_angle_alpha   90.10569081
_cell_angle_beta   90.00000000
_cell_angle_gamma   90.00000000
_symmetry_Int_Tables_number   1
_chemical_formula_structural   Ta8Nb4B12Os5Ru7
_chemical_formula_sum   'Ta8 Nb4 B12 Os5 Ru7'
_cell_volume   445.61264623
_cell_formula_units_Z   1
loop_
 _symmetry_equiv_pos_site_id
 _symmetry_equiv_pos_as_xyz
  1  'x, y, z'
loop_
 _atom_site_type_symbol
 _atom_site_label
 _atom_site_symmetry_multiplicity
 _atom_site_fract_x
 _atom_site_fract_y
 _atom_site_fract_z
 _atom_site_occupancy
  Ta  Ta0  1  0.000000  0.799570  0.494933  1
  Ta  Ta1  1  0.000000  0.199581  0.504290  1
  Ta  Ta2  1  0.000000  0.300997  0.004489  1
  Ta  Ta3  1  0.000000  0.699233  0.995778  1
  Ta  Ta4  1  0.000000  0.514766  0.594398  1
  Ta  Ta5  1  0.000000  0.485624  0.405209  1
  Ta  Ta6  1  0.000000  0.013977  0.905571  1
  Ta  Ta7  1  0.000000  0.986010  0.094624  1
  Nb  Nb8  1  0.000000  0.686990  0.201855  1
  Nb  Nb9  1  0.000000  0.313093  0.798199  1
  Nb  Nb10  1  0.000000  0.187172  0.297854  1
  Nb  Nb11  1  0.000000  0.812109  0.702496  1
  B  B12  1  0.500000  0.604154  0.497128  1
  B  B13  1  0.500000  0.395617  0.502272  1
  B  B14  1  0.500000  0.104836  0.002663  1
  B  B15  1  0.500000  0.895174  0.997611  1
  B  B16  1  0.000000  0.607694  0.832933  1
  B  B17  1  0.000000  0.391915  0.167357  1
  B  B18  1  0.000000  0.108914  0.667296  1
  B  B19  1  0.000000  0.891547  0.332352  1
  B  B20  1  0.500000  0.715067  0.597900  1
  B  B21  1  0.500000  0.286098  0.401734  1
  B  B22  1  0.500000  0.213850  0.902016  1
  B  B23  1  0.500000  0.785928  0.098324  1
  Os  Os24  1  0.500000  0.984439  0.593328  1
  Os  Os25  1  0.500000  0.560635  0.735347  1
  Os  Os26  1  0.500000  0.439473  0.264734  1
  Os  Os27  1  0.500000  0.060960  0.765434  1
  Os  Os28  1  0.500000  0.939360  0.235048  1
  Ru  Ru29  1  0.500000  0.720544  0.356105  1
  Ru  Ru30  1  0.500000  0.280098  0.643780  1
  Ru  Ru31  1  0.500000  0.220838  0.143439  1
  Ru  Ru32  1  0.500001  0.779083  0.856921  1
  Ru  Ru33  1  0.500000  0.514657  0.093448  1
  Ru  Ru34  1  0.500000  0.485246  0.906580  1
  Ru  Ru35  1  0.499999  0.014753  0.406551  1
