# generated using pymatgen
data_Sc12AlNi4Hg
_symmetry_space_group_name_H-M   'P 1'
_cell_length_a   7.76534287
_cell_length_b   7.76534131
_cell_length_c   7.76534146
_cell_angle_alpha   111.14669227
_cell_angle_beta   110.98734306
_cell_angle_gamma   106.32474849
_symmetry_Int_Tables_number   1
_chemical_formula_structural   Sc12AlNi4Hg
_chemical_formula_sum   'Sc12 Al1 Ni4 Hg1'
_cell_volume   359.65197497
_cell_formula_units_Z   1
loop_
 _symmetry_equiv_pos_site_id
 _symmetry_equiv_pos_as_xyz
  1  'x, y, z'
loop_
 _atom_site_type_symbol
 _atom_site_label
 _atom_site_symmetry_multiplicity
 _atom_site_fract_x
 _atom_site_fract_y
 _atom_site_fract_z
 _atom_site_occupancy
  Sc  Sc0  1  0.439596  0.237609  0.201986  1
  Sc  Sc1  1  0.560404  0.762391  0.798014  1
  Sc  Sc2  1  0.035624  0.237609  0.798014  1
  Sc  Sc3  1  0.964376  0.762391  0.201986  1
  Sc  Sc4  1  0.183978  0.282504  0.466481  1
  Sc  Sc5  1  0.816022  0.717496  0.533519  1
  Sc  Sc6  1  0.183978  0.717496  0.901474  1
  Sc  Sc7  1  0.816022  0.282504  0.098526  1
  Sc  Sc8  1  0.324208  0.621968  0.297759  1
  Sc  Sc9  1  0.675792  0.378032  0.702241  1
  Sc  Sc10  1  0.324208  0.026449  0.702241  1
  Sc  Sc11  1  0.675792  0.973551  0.297759  1
  Al  Al12  1  0.000000  0.000000  0.000000  1
  Ni  Ni13  1  0.346507  0.000000  0.346507  1
  Ni  Ni14  1  0.653493  0.000000  0.653493  1
  Ni  Ni15  1  0.126812  0.626812  0.500000  1
  Ni  Ni16  1  0.873188  0.373188  0.500000  1
  Hg  Hg17  1  0.500000  0.500000  0.000000  1
