# generated using pymatgen
data_Tb3Y5(HoIr2)2
_symmetry_space_group_name_H-M   'P 1'
_cell_length_a   6.51644095
_cell_length_b   7.23242257
_cell_length_c   8.56894106
_cell_angle_alpha   96.48538578
_cell_angle_beta   112.36413924
_cell_angle_gamma   90.13669777
_symmetry_Int_Tables_number   1
_chemical_formula_structural   Tb3Y5(HoIr2)2
_chemical_formula_sum   'Tb3 Y5 Ho2 Ir4'
_cell_volume   370.63284837
_cell_formula_units_Z   1
loop_
 _symmetry_equiv_pos_site_id
 _symmetry_equiv_pos_as_xyz
  1  'x, y, z'
loop_
 _atom_site_type_symbol
 _atom_site_label
 _atom_site_symmetry_multiplicity
 _atom_site_fract_x
 _atom_site_fract_y
 _atom_site_fract_z
 _atom_site_occupancy
  Tb  Tb0  1  0.971302  0.917049  0.182057  1
  Tb  Tb1  1  0.789371  0.582787  0.818135  1
  Tb  Tb2  1  0.028891  0.082781  0.818094  1
  Y  Y3  1  0.210780  0.417972  0.182006  1
  Y  Y4  1  0.653559  0.817523  0.441083  1
  Y  Y5  1  0.212312  0.682411  0.558781  1
  Y  Y6  1  0.346454  0.182494  0.558887  1
  Y  Y7  1  0.787380  0.317600  0.440786  1
  Ho  Ho8  1  0.428602  0.749931  0.000060  1
  Ho  Ho9  1  0.571445  0.250077  0.000178  1
  Ir  Ir10  1  0.822750  0.572899  0.217113  1
  Ir  Ir11  1  0.606134  0.927048  0.782829  1
  Ir  Ir12  1  0.176734  0.427138  0.782810  1
  Ir  Ir13  1  0.394285  0.072290  0.217182  1
