# generated using pymatgen
data_Zr4GaSi3
_symmetry_space_group_name_H-M   'P 1'
_cell_length_a   7.14148722
_cell_length_b   3.79393900
_cell_length_c   5.38311168
_cell_angle_alpha   90.00000000
_cell_angle_beta   89.90947278
_cell_angle_gamma   90.00000000
_symmetry_Int_Tables_number   1
_chemical_formula_structural   Zr4GaSi3
_chemical_formula_sum   'Zr4 Ga1 Si3'
_cell_volume   145.85182094
_cell_formula_units_Z   1
loop_
 _symmetry_equiv_pos_site_id
 _symmetry_equiv_pos_as_xyz
  1  'x, y, z'
loop_
 _atom_site_type_symbol
 _atom_site_label
 _atom_site_symmetry_multiplicity
 _atom_site_fract_x
 _atom_site_fract_y
 _atom_site_fract_z
 _atom_site_occupancy
  Zr  Zr0  1  0.169661  0.249999  0.121169  1
  Zr  Zr1  1  0.683409  0.249999  0.378470  1
  Zr  Zr2  1  0.319716  0.750000  0.627575  1
  Zr  Zr3  1  0.826417  0.750000  0.873060  1
  Ga  Ga4  1  0.458708  0.750000  0.142783  1
  Si  Si5  1  0.958387  0.750000  0.360580  1
  Si  Si6  1  0.042215  0.249999  0.635361  1
  Si  Si7  1  0.541486  0.249999  0.861001  1
