# generated using pymatgen
data_NdSi4Ir5Rh
_symmetry_space_group_name_H-M   'P 1'
_cell_length_a   7.04344184
_cell_length_b   7.06043159
_cell_length_c   3.87236800
_cell_angle_alpha   90.00000000
_cell_angle_beta   90.00000000
_cell_angle_gamma   120.07982705
_symmetry_Int_Tables_number   1
_chemical_formula_structural   NdSi4Ir5Rh
_chemical_formula_sum   'Nd1 Si4 Ir5 Rh1'
_cell_volume   166.63780322
_cell_formula_units_Z   1
loop_
 _symmetry_equiv_pos_site_id
 _symmetry_equiv_pos_as_xyz
  1  'x, y, z'
loop_
 _atom_site_type_symbol
 _atom_site_label
 _atom_site_symmetry_multiplicity
 _atom_site_fract_x
 _atom_site_fract_y
 _atom_site_fract_z
 _atom_site_occupancy
  Nd  Nd0  1  0.999413  0.999706  0.000000  1
  Si  Si1  1  0.333977  0.666988  0.000000  1
  Si  Si2  1  0.397676  0.198838  0.500000  1
  Si  Si3  1  0.800239  0.199731  0.500000  1
  Si  Si4  1  0.800239  0.600509  0.500000  1
  Ir  Ir5  1  0.533280  0.065353  0.000000  1
  Ir  Ir6  1  0.533279  0.467926  0.000000  1
  Ir  Ir7  1  0.934954  0.467477  0.000000  1
  Ir  Ir8  1  0.199095  0.398245  0.500000  1
  Ir  Ir9  1  0.199094  0.800849  0.500000  1
  Rh  Rh10  1  0.602090  0.801045  0.500000  1
