# generated using pymatgen
data_TbY2ZnCd3Au2
_symmetry_space_group_name_H-M   'P 1'
_cell_length_a   7.88175416
_cell_length_b   7.88175494
_cell_length_c   3.82205500
_cell_angle_alpha   90.00000000
_cell_angle_beta   90.00000000
_cell_angle_gamma   119.86889651
_symmetry_Int_Tables_number   1
_chemical_formula_structural   TbY2ZnCd3Au2
_chemical_formula_sum   'Tb1 Y2 Zn1 Cd3 Au2'
_cell_volume   205.89490591
_cell_formula_units_Z   1
loop_
 _symmetry_equiv_pos_site_id
 _symmetry_equiv_pos_as_xyz
  1  'x, y, z'
loop_
 _atom_site_type_symbol
 _atom_site_label
 _atom_site_symmetry_multiplicity
 _atom_site_fract_x
 _atom_site_fract_y
 _atom_site_fract_z
 _atom_site_occupancy
  Tb  Tb0  1  0.410988  0.410988  0.000000  1
  Y  Y1  1  0.589680  0.999813  0.000000  1
  Y  Y2  1  0.999813  0.589680  0.000000  1
  Zn  Zn3  1  0.999985  0.999985  0.000000  1
  Cd  Cd4  1  0.255516  0.999750  0.500000  1
  Cd  Cd5  1  0.999750  0.255516  0.500000  1
  Cd  Cd6  1  0.744584  0.744584  0.500000  1
  Au  Au7  1  0.333414  0.666271  0.500000  1
  Au  Au8  1  0.666271  0.333414  0.500000  1
