# generated using pymatgen
data_LaNd5OsO12
_symmetry_space_group_name_H-M   'P 1'
_cell_length_a   6.77124881
_cell_length_b   6.74402605
_cell_length_c   6.72771883
_cell_angle_alpha   98.57744474
_cell_angle_beta   98.27815656
_cell_angle_gamma   98.66307535
_symmetry_Int_Tables_number   1
_chemical_formula_structural   LaNd5OsO12
_chemical_formula_sum   'La1 Nd5 Os1 O12'
_cell_volume   295.93694425
_cell_formula_units_Z   1
loop_
 _symmetry_equiv_pos_site_id
 _symmetry_equiv_pos_as_xyz
  1  'x, y, z'
loop_
 _atom_site_type_symbol
 _atom_site_label
 _atom_site_symmetry_multiplicity
 _atom_site_fract_x
 _atom_site_fract_y
 _atom_site_fract_z
 _atom_site_occupancy
  La  La0  1  0.856212  0.691367  0.392422  1
  Nd  Nd1  1  0.145151  0.309375  0.613356  1
  Nd  Nd2  1  0.392107  0.857413  0.696342  1
  Nd  Nd3  1  0.687434  0.384233  0.853899  1
  Nd  Nd4  1  0.311112  0.612219  0.145413  1
  Nd  Nd5  1  0.606155  0.142690  0.304900  1
  Os  Os6  1  0.000737  0.000985  0.000688  1
  O  O7  1  0.067380  0.287236  0.969278  1
  O  O8  1  0.038265  0.936570  0.715779  1
  O  O9  1  0.406331  0.558100  0.822127  1
  O  O10  1  0.177288  0.590932  0.441050  1
  O  O11  1  0.708235  0.035112  0.932277  1
  O  O12  1  0.437858  0.176643  0.592010  1
  O  O13  1  0.559692  0.821853  0.407088  1
  O  O14  1  0.291656  0.964526  0.068292  1
  O  O15  1  0.822774  0.402653  0.560178  1
  O  O16  1  0.591031  0.439830  0.177143  1
  O  O17  1  0.967473  0.072548  0.283390  1
  O  O18  1  0.933107  0.715717  0.024368  1
