# generated using pymatgen
data_TmLu3Pd3RuO14
_symmetry_space_group_name_H-M   'P 1'
_cell_length_a   7.12853532
_cell_length_b   7.12853522
_cell_length_c   7.18160505
_cell_angle_alpha   60.23386805
_cell_angle_beta   60.23385906
_cell_angle_gamma   59.99023685
_symmetry_Int_Tables_number   1
_chemical_formula_structural   TmLu3Pd3RuO14
_chemical_formula_sum   'Tm1 Lu3 Pd3 Ru1 O14'
_cell_volume   258.94110662
_cell_formula_units_Z   1
loop_
 _symmetry_equiv_pos_site_id
 _symmetry_equiv_pos_as_xyz
  1  'x, y, z'
loop_
 _atom_site_type_symbol
 _atom_site_label
 _atom_site_symmetry_multiplicity
 _atom_site_fract_x
 _atom_site_fract_y
 _atom_site_fract_z
 _atom_site_occupancy
  Tm  Tm0  1  0.125000  0.125000  0.125000  1
  Lu  Lu1  1  0.125000  0.125000  0.625000  1
  Lu  Lu2  1  0.625000  0.125000  0.125000  1
  Lu  Lu3  1  0.125000  0.625000  0.125000  1
  Pd  Pd4  1  0.625000  0.625000  0.625000  1
  Pd  Pd5  1  0.125000  0.625000  0.625000  1
  Pd  Pd6  1  0.625000  0.125000  0.625000  1
  Ru  Ru7  1  0.625000  0.625000  0.125000  1
  O  O8  1  0.287628  0.713939  0.282952  1
  O  O9  1  0.279878  0.279878  0.721164  1
  O  O10  1  0.536061  0.962372  0.967048  1
  O  O11  1  0.531657  0.970365  0.527764  1
  O  O12  1  0.535131  0.535131  0.967275  1
  O  O13  1  0.279635  0.718343  0.722236  1
  O  O14  1  0.962372  0.536061  0.967048  1
  O  O15  1  0.713939  0.287628  0.282952  1
  O  O16  1  0.718343  0.279635  0.722236  1
  O  O17  1  0.714869  0.714869  0.282725  1
  O  O18  1  0.251072  0.251072  0.250020  1
  O  O19  1  0.970122  0.970122  0.528836  1
  O  O20  1  0.970365  0.531657  0.527764  1
  O  O21  1  0.998928  0.998928  0.999980  1
