# generated using pymatgen
data_Tb3In3NiPd2
_symmetry_space_group_name_H-M   'P 1'
_cell_length_a   7.71349400
_cell_length_b   7.71349371
_cell_length_c   3.79804700
_cell_angle_alpha   90.00000000
_cell_angle_beta   90.00000000
_cell_angle_gamma   119.99999266
_symmetry_Int_Tables_number   1
_chemical_formula_structural   Tb3In3NiPd2
_chemical_formula_sum   'Tb3 In3 Ni1 Pd2'
_cell_volume   195.70110343
_cell_formula_units_Z   1
loop_
 _symmetry_equiv_pos_site_id
 _symmetry_equiv_pos_as_xyz
  1  'x, y, z'
loop_
 _atom_site_type_symbol
 _atom_site_label
 _atom_site_symmetry_multiplicity
 _atom_site_fract_x
 _atom_site_fract_y
 _atom_site_fract_z
 _atom_site_occupancy
  Tb  Tb0  1  0.000000  0.592683  0.500000  1
  Tb  Tb1  1  0.592683  0.000000  0.500000  1
  Tb  Tb2  1  0.407317  0.407317  0.500000  1
  In  In3  1  0.749904  0.749904  0.000000  1
  In  In4  1  0.000000  0.250096  0.000000  1
  In  In5  1  0.250096  0.000000  0.000000  1
  Ni  Ni6  1  0.000000  0.000000  0.500000  1
  Pd  Pd7  1  0.666667  0.333333  0.000000  1
  Pd  Pd8  1  0.333333  0.666667  0.000000  1
