# generated using pymatgen
data_HoTm3Tc4F28
_symmetry_space_group_name_H-M   'P 1'
_cell_length_a   5.53442091
_cell_length_b   8.81763993
_cell_length_c   11.93362726
_cell_angle_alpha   62.73586832
_cell_angle_beta   90.02770773
_cell_angle_gamma   90.00073962
_symmetry_Int_Tables_number   1
_chemical_formula_structural   HoTm3Tc4F28
_chemical_formula_sum   'Ho1 Tm3 Tc4 F28'
_cell_volume   517.66869324
_cell_formula_units_Z   1
loop_
 _symmetry_equiv_pos_site_id
 _symmetry_equiv_pos_as_xyz
  1  'x, y, z'
loop_
 _atom_site_type_symbol
 _atom_site_label
 _atom_site_symmetry_multiplicity
 _atom_site_fract_x
 _atom_site_fract_y
 _atom_site_fract_z
 _atom_site_occupancy
  Ho  Ho0  1  0.741391  0.814824  0.264565  1
  Tm  Tm1  1  0.758603  0.814807  0.764433  1
  Tm  Tm2  1  0.258687  0.185443  0.735618  1
  Tm  Tm3  1  0.240951  0.186926  0.235441  1
  Tc  Tc4  1  0.758710  0.274024  0.956225  1
  Tc  Tc5  1  0.258215  0.726656  0.544322  1
  Tc  Tc6  1  0.242034  0.726672  0.042127  1
  Tc  Tc7  1  0.741581  0.271970  0.457319  1
  F  F8  1  0.443156  0.705987  0.915131  1
  F  F9  1  0.943481  0.293292  0.583949  1
  F  F10  1  0.557069  0.294276  0.083336  1
  F  F11  1  0.058416  0.705657  0.416920  1
  F  F12  1  0.442301  0.274481  0.546892  1
  F  F13  1  0.941515  0.724997  0.953102  1
  F  F14  1  0.557618  0.723807  0.455519  1
  F  F15  1  0.057936  0.275641  0.046167  1
  F  F16  1  0.776037  0.523686  0.858205  1
  F  F17  1  0.275295  0.476606  0.642049  1
  F  F18  1  0.224037  0.476867  0.140915  1
  F  F19  1  0.723406  0.521305  0.359110  1
  F  F20  1  0.755659  0.025436  0.052380  1
  F  F21  1  0.255682  0.975132  0.447012  1
  F  F22  1  0.244813  0.975366  0.945986  1
  F  F23  1  0.744512  0.023445  0.553956  1
  F  F24  1  0.970199  0.728125  0.640026  1
  F  F25  1  0.471237  0.272044  0.860125  1
  F  F26  1  0.029372  0.271870  0.360889  1
  F  F27  1  0.530232  0.727026  0.137824  1
  F  F28  1  0.048914  0.746663  0.173643  1
  F  F29  1  0.545560  0.251796  0.326310  1
  F  F30  1  0.954839  0.252962  0.825653  1
  F  F31  1  0.453839  0.747428  0.674983  1
  F  F32  1  0.416387  0.972817  0.232159  1
  F  F33  1  0.920169  0.031748  0.267653  1
  F  F34  1  0.579093  0.028405  0.767339  1
  F  F35  1  0.079058  0.971812  0.732716  1
