# generated using pymatgen
data_ErTa3Pb4O13
_symmetry_space_group_name_H-M   'P 1'
_cell_length_a   7.68640600
_cell_length_b   7.68640516
_cell_length_c   7.68640522
_cell_angle_alpha   59.54249489
_cell_angle_beta   59.54249616
_cell_angle_gamma   59.54249219
_symmetry_Int_Tables_number   1
_chemical_formula_structural   ErTa3Pb4O13
_chemical_formula_sum   'Er1 Ta3 Pb4 O13'
_cell_volume   317.77050615
_cell_formula_units_Z   1
loop_
 _symmetry_equiv_pos_site_id
 _symmetry_equiv_pos_as_xyz
  1  'x, y, z'
loop_
 _atom_site_type_symbol
 _atom_site_label
 _atom_site_symmetry_multiplicity
 _atom_site_fract_x
 _atom_site_fract_y
 _atom_site_fract_z
 _atom_site_occupancy
  Er  Er0  1  0.502124  0.502124  0.502124  1
  Ta  Ta1  1  0.003292  0.501141  0.501141  1
  Ta  Ta2  1  0.501141  0.501141  0.003292  1
  Ta  Ta3  1  0.501141  0.003292  0.501141  1
  Pb  Pb4  1  0.000843  0.000843  0.000843  1
  Pb  Pb5  1  0.497894  0.009704  0.009704  1
  Pb  Pb6  1  0.009704  0.009704  0.497894  1
  Pb  Pb7  1  0.009704  0.497894  0.009704  1
  O  O8  1  0.861586  0.409183  0.409183  1
  O  O9  1  0.426480  0.803422  0.803422  1
  O  O10  1  0.409183  0.409183  0.861586  1
  O  O11  1  0.803422  0.803422  0.426480  1
  O  O12  1  0.803422  0.426480  0.803422  1
  O  O13  1  0.409183  0.861586  0.409183  1
  O  O14  1  0.153907  0.577148  0.577148  1
  O  O15  1  0.575615  0.190682  0.190682  1
  O  O16  1  0.577148  0.577148  0.153907  1
  O  O17  1  0.190682  0.190682  0.575615  1
  O  O18  1  0.190682  0.575615  0.190682  1
  O  O19  1  0.577148  0.153907  0.577148  1
  O  O20  1  0.120697  0.120697  0.120697  1
