# generated using pymatgen
data_La(Al5Rh)2
_symmetry_space_group_name_H-M   'P 1'
_cell_length_a   6.91265880
_cell_length_b   6.91265904
_cell_length_c   9.23250500
_cell_angle_alpha   90.00000000
_cell_angle_beta   90.00000000
_cell_angle_gamma   97.34204713
_symmetry_Int_Tables_number   1
_chemical_formula_structural   La(Al5Rh)2
_chemical_formula_sum   'La2 Al20 Rh4'
_cell_volume   437.55668043
_cell_formula_units_Z   2
loop_
 _symmetry_equiv_pos_site_id
 _symmetry_equiv_pos_as_xyz
  1  'x, y, z'
loop_
 _atom_site_type_symbol
 _atom_site_label
 _atom_site_symmetry_multiplicity
 _atom_site_fract_x
 _atom_site_fract_y
 _atom_site_fract_z
 _atom_site_occupancy
  La  La0  1  0.876760  0.123240  0.750000  1
  La  La1  1  0.123240  0.876760  0.250000  1
  Al  Al2  1  0.621285  0.378715  0.549993  1
  Al  Al3  1  0.378715  0.621285  0.450007  1
  Al  Al4  1  0.378715  0.621285  0.049993  1
  Al  Al5  1  0.621285  0.378715  0.950007  1
  Al  Al6  1  0.224795  0.224795  0.500000  1
  Al  Al7  1  0.775205  0.775205  0.500000  1
  Al  Al8  1  0.775205  0.775205  0.000000  1
  Al  Al9  1  0.224795  0.224795  0.000000  1
  Al  Al10  1  0.841262  0.158738  0.103975  1
  Al  Al11  1  0.158738  0.841262  0.896025  1
  Al  Al12  1  0.158738  0.841262  0.603975  1
  Al  Al13  1  0.841262  0.158738  0.396025  1
  Al  Al14  1  0.859453  0.594763  0.750000  1
  Al  Al15  1  0.140547  0.405237  0.250000  1
  Al  Al16  1  0.405237  0.140547  0.750000  1
  Al  Al17  1  0.594763  0.859453  0.250000  1
  Al  Al18  1  0.227538  0.481149  0.750000  1
  Al  Al19  1  0.772462  0.518851  0.250000  1
  Al  Al20  1  0.518851  0.772462  0.750000  1
  Al  Al21  1  0.481149  0.227538  0.250000  1
  Rh  Rh22  1  0.000000  0.500000  0.500000  1
  Rh  Rh23  1  0.000000  0.500000  0.000000  1
  Rh  Rh24  1  0.500000  0.000000  0.000000  1
  Rh  Rh25  1  0.500000  0.000000  0.500000  1
