# generated using pymatgen
data_K2Tb4Sn2S11
_symmetry_space_group_name_H-M   'P 1'
_cell_length_a   8.69951100
_cell_length_b   8.69951100
_cell_length_c   28.33558200
_cell_angle_alpha   90.00000000
_cell_angle_beta   90.00000000
_cell_angle_gamma   90.00000000
_symmetry_Int_Tables_number   1
_chemical_formula_structural   K2Tb4Sn2S11
_chemical_formula_sum   'K8 Tb16 Sn8 S44'
_cell_volume   2144.47911222
_cell_formula_units_Z   4
loop_
 _symmetry_equiv_pos_site_id
 _symmetry_equiv_pos_as_xyz
  1  'x, y, z'
loop_
 _atom_site_type_symbol
 _atom_site_label
 _atom_site_symmetry_multiplicity
 _atom_site_fract_x
 _atom_site_fract_y
 _atom_site_fract_z
 _atom_site_occupancy
  K  K0  1  0.000000  0.500000  0.627488  1
  K  K1  1  0.000000  0.500000  0.803957  1
  K  K2  1  0.500000  0.000000  0.696043  1
  K  K3  1  0.000000  0.500000  0.127488  1
  K  K4  1  0.000000  0.500000  0.303957  1
  K  K5  1  0.500000  0.000000  0.872512  1
  K  K6  1  0.500000  0.000000  0.196043  1
  K  K7  1  0.500000  0.000000  0.372512  1
  Tb  Tb8  1  0.893577  0.198868  0.445512  1
  Tb  Tb9  1  0.606423  0.301132  0.554488  1
  Tb  Tb10  1  0.801132  0.893577  0.554488  1
  Tb  Tb11  1  0.698868  0.393577  0.945512  1
  Tb  Tb12  1  0.301132  0.606423  0.945512  1
  Tb  Tb13  1  0.606423  0.698868  0.054488  1
  Tb  Tb14  1  0.198868  0.893577  0.054488  1
  Tb  Tb15  1  0.698868  0.606423  0.445512  1
  Tb  Tb16  1  0.393577  0.698868  0.554488  1
  Tb  Tb17  1  0.893577  0.801132  0.945512  1
  Tb  Tb18  1  0.301132  0.393577  0.445512  1
  Tb  Tb19  1  0.801132  0.106423  0.054488  1
  Tb  Tb20  1  0.393577  0.301132  0.054488  1
  Tb  Tb21  1  0.106423  0.801132  0.445512  1
  Tb  Tb22  1  0.106423  0.198868  0.945512  1
  Tb  Tb23  1  0.198868  0.106423  0.554488  1
  Sn  Sn24  1  0.000000  0.000000  0.690659  1
  Sn  Sn25  1  0.500000  0.500000  0.809341  1
  Sn  Sn26  1  0.500000  0.500000  0.190659  1
  Sn  Sn27  1  0.000000  0.000000  0.309341  1
  Sn  Sn28  1  0.500000  0.500000  0.690659  1
  Sn  Sn29  1  0.000000  0.000000  0.809341  1
  Sn  Sn30  1  0.000000  0.000000  0.190659  1
  Sn  Sn31  1  0.500000  0.500000  0.309341  1
  S  S32  1  0.190252  0.894811  0.955030  1
  S  S33  1  0.309748  0.605189  0.044970  1
  S  S34  1  0.190252  0.105189  0.455030  1
  S  S35  1  0.175533  0.161000  0.648080  1
  S  S36  1  0.605189  0.309748  0.455030  1
  S  S37  1  0.105189  0.190252  0.044970  1
  S  S38  1  0.175533  0.839000  0.148080  1
  S  S39  1  0.809748  0.894811  0.455030  1
  S  S40  1  0.852635  0.852635  0.250000  1
  S  S41  1  0.809748  0.105189  0.955030  1
  S  S42  1  0.894811  0.190252  0.544970  1
  S  S43  1  0.394811  0.690252  0.455030  1
  S  S44  1  0.647365  0.647365  0.750000  1
  S  S45  1  0.852635  0.147365  0.750000  1
  S  S46  1  0.839000  0.824467  0.851920  1
  S  S47  1  0.661000  0.675533  0.148080  1
  S  S48  1  0.000000  0.500000  0.941459  1
  S  S49  1  0.394811  0.309748  0.955030  1
  S  S50  1  0.352635  0.352635  0.750000  1
  S  S51  1  0.161000  0.824467  0.351920  1
  S  S52  1  0.839000  0.175533  0.351920  1
  S  S53  1  0.339000  0.324467  0.148080  1
  S  S54  1  0.309748  0.394811  0.544970  1
  S  S55  1  0.000000  0.500000  0.441459  1
  S  S56  1  0.675533  0.339000  0.851920  1
  S  S57  1  0.824467  0.839000  0.648080  1
  S  S58  1  0.500000  0.000000  0.558541  1
  S  S59  1  0.675533  0.661000  0.351920  1
  S  S60  1  0.324467  0.661000  0.851920  1
  S  S61  1  0.339000  0.675533  0.648080  1
  S  S62  1  0.352635  0.647365  0.250000  1
  S  S63  1  0.605189  0.690252  0.955030  1
  S  S64  1  0.647365  0.352635  0.250000  1
  S  S65  1  0.894811  0.809748  0.044970  1
  S  S66  1  0.324467  0.339000  0.351920  1
  S  S67  1  0.500000  0.000000  0.058541  1
  S  S68  1  0.824467  0.161000  0.148080  1
  S  S69  1  0.690252  0.394811  0.044970  1
  S  S70  1  0.661000  0.324467  0.648080  1
  S  S71  1  0.105189  0.809748  0.544970  1
  S  S72  1  0.147365  0.147365  0.250000  1
  S  S73  1  0.161000  0.175533  0.851920  1
  S  S74  1  0.147365  0.852635  0.750000  1
  S  S75  1  0.690252  0.605189  0.544970  1
