# generated using pymatgen
data_Nb2FeB2Ru5
_symmetry_space_group_name_H-M   'P 1'
_cell_length_a   9.31676200
_cell_length_b   9.31676200
_cell_length_c   2.98760100
_cell_angle_alpha   90.00000000
_cell_angle_beta   90.00000000
_cell_angle_gamma   90.00000000
_symmetry_Int_Tables_number   1
_chemical_formula_structural   Nb2FeB2Ru5
_chemical_formula_sum   'Nb4 Fe2 B4 Ru10'
_cell_volume   259.32990382
_cell_formula_units_Z   2
loop_
 _symmetry_equiv_pos_site_id
 _symmetry_equiv_pos_as_xyz
  1  'x, y, z'
loop_
 _atom_site_type_symbol
 _atom_site_label
 _atom_site_symmetry_multiplicity
 _atom_site_fract_x
 _atom_site_fract_y
 _atom_site_fract_z
 _atom_site_occupancy
  Nb  Nb0  1  0.676874  0.176874  0.000000  1
  Nb  Nb1  1  0.323126  0.823126  0.000000  1
  Nb  Nb2  1  0.176874  0.323126  0.000000  1
  Nb  Nb3  1  0.823126  0.676874  0.000000  1
  Fe  Fe4  1  0.000000  0.000000  0.000000  1
  Fe  Fe5  1  0.500000  0.500000  0.000000  1
  B  B6  1  0.124648  0.624648  0.000000  1
  B  B7  1  0.875352  0.375352  0.000000  1
  B  B8  1  0.624648  0.875352  0.000000  1
  B  B9  1  0.375352  0.124648  0.000000  1
  Ru  Ru10  1  0.214158  0.070517  0.500000  1
  Ru  Ru11  1  0.785842  0.929483  0.500000  1
  Ru  Ru12  1  0.070517  0.785842  0.500000  1
  Ru  Ru13  1  0.714158  0.429483  0.500000  1
  Ru  Ru14  1  0.929483  0.214158  0.500000  1
  Ru  Ru15  1  0.285842  0.570517  0.500000  1
  Ru  Ru16  1  0.570517  0.714158  0.500000  1
  Ru  Ru17  1  0.429483  0.285842  0.500000  1
  Ru  Ru18  1  0.500000  0.000000  0.500000  1
  Ru  Ru19  1  0.000000  0.500000  0.500000  1
