# generated using pymatgen
data_Ca2GaIrI
_symmetry_space_group_name_H-M   'P 1'
_cell_length_a   4.31453100
_cell_length_b   4.31452949
_cell_length_c   17.14096300
_cell_angle_alpha   90.00000000
_cell_angle_beta   90.00000000
_cell_angle_gamma   120.00000389
_symmetry_Int_Tables_number   1
_chemical_formula_structural   Ca2GaIrI
_chemical_formula_sum   'Ca4 Ga2 Ir2 I2'
_cell_volume   276.33307381
_cell_formula_units_Z   2
loop_
 _symmetry_equiv_pos_site_id
 _symmetry_equiv_pos_as_xyz
  1  'x, y, z'
loop_
 _atom_site_type_symbol
 _atom_site_label
 _atom_site_symmetry_multiplicity
 _atom_site_fract_x
 _atom_site_fract_y
 _atom_site_fract_z
 _atom_site_occupancy
  Ca  Ca0  1  0.000000  0.000000  0.391828  1
  Ca  Ca1  1  0.000000  0.000000  0.891828  1
  Ca  Ca2  1  0.000000  0.000000  0.608852  1
  Ca  Ca3  1  0.000000  0.000000  0.108852  1
  Ga  Ga4  1  0.333333  0.666667  0.500781  1
  Ga  Ga5  1  0.666667  0.333333  0.000781  1
  Ir  Ir6  1  0.666667  0.333333  0.499931  1
  Ir  Ir7  1  0.333333  0.666667  0.999931  1
  I  I8  1  0.333333  0.666667  0.248608  1
  I  I9  1  0.666667  0.333333  0.748608  1
