# generated using pymatgen
data_TiBeNb4(B2Ru5)2
_symmetry_space_group_name_H-M   'P 1'
_cell_length_a   9.26322900
_cell_length_b   9.26322900
_cell_length_c   3.00038700
_cell_angle_alpha   90.00000000
_cell_angle_beta   90.00000000
_cell_angle_gamma   90.00000000
_symmetry_Int_Tables_number   1
_chemical_formula_structural   TiBeNb4(B2Ru5)2
_chemical_formula_sum   'Ti1 Be1 Nb4 B4 Ru10'
_cell_volume   257.45544199
_cell_formula_units_Z   1
loop_
 _symmetry_equiv_pos_site_id
 _symmetry_equiv_pos_as_xyz
  1  'x, y, z'
loop_
 _atom_site_type_symbol
 _atom_site_label
 _atom_site_symmetry_multiplicity
 _atom_site_fract_x
 _atom_site_fract_y
 _atom_site_fract_z
 _atom_site_occupancy
  Ti  Ti0  1  0.000000  0.000000  0.000000  1
  Be  Be1  1  0.500000  0.500000  0.000000  1
  Nb  Nb2  1  0.820958  0.675268  0.000000  1
  Nb  Nb3  1  0.179042  0.324732  0.000000  1
  Nb  Nb4  1  0.324732  0.820958  0.000000  1
  Nb  Nb5  1  0.675268  0.179042  0.000000  1
  B  B6  1  0.617483  0.866900  0.000000  1
  B  B7  1  0.382517  0.133100  0.000000  1
  B  B8  1  0.133100  0.617483  0.000000  1
  B  B9  1  0.866900  0.382517  0.000000  1
  Ru  Ru10  1  0.563776  0.707048  0.500000  1
  Ru  Ru11  1  0.436224  0.292952  0.500000  1
  Ru  Ru12  1  0.073444  0.782842  0.500000  1
  Ru  Ru13  1  0.926556  0.217158  0.500000  1
  Ru  Ru14  1  0.292952  0.563776  0.500000  1
  Ru  Ru15  1  0.707048  0.436224  0.500000  1
  Ru  Ru16  1  0.217158  0.073444  0.500000  1
  Ru  Ru17  1  0.782842  0.926556  0.500000  1
  Ru  Ru18  1  0.500000  0.000000  0.500000  1
  Ru  Ru19  1  0.000000  0.500000  0.500000  1
