# generated using pymatgen
data_Dy2TmB6Ir7Os
_symmetry_space_group_name_H-M   'P 1'
_cell_length_a   9.98504636
_cell_length_b   9.16529085
_cell_length_c   5.56925204
_cell_angle_alpha   81.37033197
_cell_angle_beta   65.16347622
_cell_angle_gamma   33.46618109
_symmetry_Int_Tables_number   1
_chemical_formula_structural   Dy2TmB6Ir7Os
_chemical_formula_sum   'Dy2 Tm1 B6 Ir7 Os1'
_cell_volume   233.73066332
_cell_formula_units_Z   1
loop_
 _symmetry_equiv_pos_site_id
 _symmetry_equiv_pos_as_xyz
  1  'x, y, z'
loop_
 _atom_site_type_symbol
 _atom_site_label
 _atom_site_symmetry_multiplicity
 _atom_site_fract_x
 _atom_site_fract_y
 _atom_site_fract_z
 _atom_site_occupancy
  Dy  Dy0  1  0.178691  0.178691  0.821309  1
  Dy  Dy1  1  0.821309  0.821309  0.178691  1
  Tm  Tm2  1  0.000000  0.000000  0.000000  1
  B  B3  1  0.821392  0.528851  0.482900  1
  B  B4  1  0.166857  0.482900  0.528851  1
  B  B5  1  0.482900  0.166857  0.821392  1
  B  B6  1  0.670449  0.329551  0.670449  1
  B  B7  1  0.528851  0.821392  0.166857  1
  B  B8  1  0.329551  0.670449  0.329551  1
  Ir  Ir9  1  0.414489  0.414489  0.585511  1
  Ir  Ir10  1  0.585400  0.585400  0.914600  1
  Ir  Ir11  1  0.085690  0.085690  0.414310  1
  Ir  Ir12  1  0.914600  0.914600  0.585400  1
  Ir  Ir13  1  0.585511  0.585511  0.414489  1
  Ir  Ir14  1  0.250000  0.250000  0.250000  1
  Ir  Ir15  1  0.414310  0.414310  0.085690  1
  Os  Os16  1  0.750000  0.750000  0.750000  1
