# generated using pymatgen
data_Hf5TiBI12
_symmetry_space_group_name_H-M   'P 1'
_cell_length_a   9.14868701
_cell_length_b   9.42847308
_cell_length_c   9.19131393
_cell_angle_alpha   106.57896350
_cell_angle_beta   106.59097968
_cell_angle_gamma   107.00733000
_symmetry_Int_Tables_number   1
_chemical_formula_structural   Hf5TiBI12
_chemical_formula_sum   'Hf5 Ti1 B1 I12'
_cell_volume   665.14118301
_cell_formula_units_Z   1
loop_
 _symmetry_equiv_pos_site_id
 _symmetry_equiv_pos_as_xyz
  1  'x, y, z'
loop_
 _atom_site_type_symbol
 _atom_site_label
 _atom_site_symmetry_multiplicity
 _atom_site_fract_x
 _atom_site_fract_y
 _atom_site_fract_z
 _atom_site_occupancy
  Hf  Hf0  1  0.269387  0.086127  0.025331  1
  Hf  Hf1  1  0.086768  0.025141  0.267958  1
  Hf  Hf2  1  0.912237  0.971188  0.731067  1
  Hf  Hf3  1  0.728816  0.911432  0.974145  1
  Hf  Hf4  1  0.023853  0.262034  0.084195  1
  Ti  Ti5  1  0.977570  0.752787  0.920206  1
  B  B6  1  0.999521  0.002840  0.001083  1
  I  I7  1  0.918368  0.291326  0.770845  1
  I  I8  1  0.690239  0.217151  0.075178  1
  I  I9  1  0.439995  0.140848  0.365118  1
  I  I10  1  0.867032  0.642938  0.573447  1
  I  I11  1  0.225432  0.074614  0.692715  1
  I  I12  1  0.644860  0.572232  0.864967  1
  I  I13  1  0.363582  0.430515  0.134953  1
  I  I14  1  0.773988  0.920551  0.305912  1
  I  I15  1  0.136629  0.357801  0.435792  1
  I  I16  1  0.558649  0.856172  0.634461  1
  I  I17  1  0.305465  0.782111  0.925239  1
  I  I18  1  0.077610  0.702192  0.217388  1
