# generated using pymatgen
data_Er5In4AgOs
_symmetry_space_group_name_H-M   'P 1'
_cell_length_a   3.60097000
_cell_length_b   8.17913954
_cell_length_c   18.28325896
_cell_angle_alpha   90.07168003
_cell_angle_beta   90.00000000
_cell_angle_gamma   90.00000000
_symmetry_Int_Tables_number   1
_chemical_formula_structural   Er5In4AgOs
_chemical_formula_sum   'Er10 In8 Ag2 Os2'
_cell_volume   538.49340829
_cell_formula_units_Z   2
loop_
 _symmetry_equiv_pos_site_id
 _symmetry_equiv_pos_as_xyz
  1  'x, y, z'
loop_
 _atom_site_type_symbol
 _atom_site_label
 _atom_site_symmetry_multiplicity
 _atom_site_fract_x
 _atom_site_fract_y
 _atom_site_fract_z
 _atom_site_occupancy
  Er  Er0  1  0.000000  0.122502  0.420905  1
  Er  Er1  1  0.000000  0.877498  0.579095  1
  Er  Er2  1  0.000000  0.384358  0.914534  1
  Er  Er3  1  0.000000  0.615642  0.085466  1
  Er  Er4  1  0.000000  0.263057  0.216988  1
  Er  Er5  1  0.000000  0.736943  0.783012  1
  Er  Er6  1  0.000000  0.286300  0.722756  1
  Er  Er7  1  0.000000  0.713700  0.277244  1
  Er  Er8  1  0.000000  0.000000  0.000000  1
  Er  Er9  1  0.000000  0.500000  0.500000  1
  In  In10  1  0.500000  0.421772  0.351655  1
  In  In11  1  0.500000  0.578228  0.648345  1
  In  In12  1  0.500000  0.080125  0.852234  1
  In  In13  1  0.500000  0.919875  0.147766  1
  In  In14  1  0.500000  0.292636  0.067683  1
  In  In15  1  0.500000  0.707364  0.932317  1
  In  In16  1  0.500000  0.208545  0.568093  1
  In  In17  1  0.500000  0.791455  0.431907  1
  Ag  Ag18  1  0.500000  0.018441  0.301116  1
  Ag  Ag19  1  0.500000  0.981559  0.698884  1
  Os  Os20  1  0.500000  0.479974  0.804953  1
  Os  Os21  1  0.500000  0.520026  0.195047  1
