# generated using pymatgen
data_NdEr2Th(Ga3Ir)6
_symmetry_space_group_name_H-M   'P 1'
_cell_length_a   7.63821990
_cell_length_b   7.63595963
_cell_length_c   9.50849100
_cell_angle_alpha   90.00000000
_cell_angle_beta   90.00000000
_cell_angle_gamma   119.79051026
_symmetry_Int_Tables_number   1
_chemical_formula_structural   NdEr2Th(Ga3Ir)6
_chemical_formula_sum   'Nd1 Er2 Th1 Ga18 Ir6'
_cell_volume   481.29452874
_cell_formula_units_Z   1
loop_
 _symmetry_equiv_pos_site_id
 _symmetry_equiv_pos_as_xyz
  1  'x, y, z'
loop_
 _atom_site_type_symbol
 _atom_site_label
 _atom_site_symmetry_multiplicity
 _atom_site_fract_x
 _atom_site_fract_y
 _atom_site_fract_z
 _atom_site_occupancy
  Nd  Nd0  1  0.669282  0.996704  0.750000  1
  Er  Er1  1  0.002568  0.331403  0.250000  1
  Er  Er2  1  0.330876  0.002133  0.250000  1
  Th  Th3  1  0.996703  0.668538  0.750000  1
  Ga  Ga4  1  0.130576  0.131789  0.750000  1
  Ga  Ga5  1  0.874172  0.875492  0.250000  1
  Ga  Ga6  1  0.000919  0.330782  0.576016  1
  Ga  Ga7  1  0.001550  0.665586  0.413567  1
  Ga  Ga8  1  0.001550  0.665586  0.086433  1
  Ga  Ga9  1  0.338135  0.004272  0.923893  1
  Ga  Ga10  1  0.000919  0.330782  0.923984  1
  Ga  Ga11  1  0.665778  0.002052  0.083308  1
  Ga  Ga12  1  0.665778  0.002052  0.416692  1
  Ga  Ga13  1  0.338135  0.004272  0.576107  1
  Ga  Ga14  1  0.331014  0.330884  0.067788  1
  Ga  Ga15  1  0.663131  0.666593  0.939752  1
  Ga  Ga16  1  0.663131  0.666593  0.560248  1
  Ga  Ga17  1  0.331014  0.330884  0.432212  1
  Ga  Ga18  1  0.340392  0.544339  0.750000  1
  Ga  Ga19  1  0.659490  0.451553  0.250000  1
  Ga  Ga20  1  0.541695  0.337081  0.750000  1
  Ga  Ga21  1  0.451877  0.660748  0.250000  1
  Ir  Ir22  1  0.673298  0.331246  0.499966  1
  Ir  Ir23  1  0.326108  0.670430  0.499968  1
  Ir  Ir24  1  0.326108  0.670430  0.000032  1
  Ir  Ir25  1  0.673298  0.331246  0.000034  1
  Ir  Ir26  1  0.001250  0.998266  0.499947  1
  Ir  Ir27  1  0.001250  0.998266  0.000053  1
