# generated using pymatgen
data_Lu10Ga6S
_symmetry_space_group_name_H-M   'P 1'
_cell_length_a   8.49880900
_cell_length_b   8.49881105
_cell_length_c   6.30092300
_cell_angle_alpha   90.00000000
_cell_angle_beta   90.00000000
_cell_angle_gamma   120.00000369
_symmetry_Int_Tables_number   1
_chemical_formula_structural   Lu10Ga6S
_chemical_formula_sum   'Lu10 Ga6 S1'
_cell_volume   394.14047086
_cell_formula_units_Z   1
loop_
 _symmetry_equiv_pos_site_id
 _symmetry_equiv_pos_as_xyz
  1  'x, y, z'
loop_
 _atom_site_type_symbol
 _atom_site_label
 _atom_site_symmetry_multiplicity
 _atom_site_fract_x
 _atom_site_fract_y
 _atom_site_fract_z
 _atom_site_occupancy
  Lu  Lu0  1  0.000000  0.747956  0.246818  1
  Lu  Lu1  1  0.252044  0.252044  0.246818  1
  Lu  Lu2  1  0.747956  0.000000  0.246818  1
  Lu  Lu3  1  0.000000  0.252044  0.753182  1
  Lu  Lu4  1  0.747956  0.747956  0.753182  1
  Lu  Lu5  1  0.252044  0.000000  0.753182  1
  Lu  Lu6  1  0.333333  0.666667  0.500000  1
  Lu  Lu7  1  0.666667  0.333333  0.500000  1
  Lu  Lu8  1  0.666667  0.333333  0.000000  1
  Lu  Lu9  1  0.333333  0.666667  0.000000  1
  Ga  Ga10  1  0.000000  0.397631  0.247425  1
  Ga  Ga11  1  0.602369  0.602369  0.247425  1
  Ga  Ga12  1  0.397631  0.000000  0.247425  1
  Ga  Ga13  1  0.000000  0.602369  0.752575  1
  Ga  Ga14  1  0.397631  0.397631  0.752575  1
  Ga  Ga15  1  0.602369  0.000000  0.752575  1
  S  S16  1  0.000000  0.000000  0.500000  1
