# generated using pymatgen
data_Cs2Zr4Ti3CBr18
_symmetry_space_group_name_H-M   'P 1'
_cell_length_a   11.14541040
_cell_length_b   10.97963481
_cell_length_c   11.01908845
_cell_angle_alpha   56.37687733
_cell_angle_beta   55.10226360
_cell_angle_gamma   56.03740646
_symmetry_Int_Tables_number   1
_chemical_formula_structural   Cs2Zr4Ti3CBr18
_chemical_formula_sum   'Cs2 Zr4 Ti3 C1 Br18'
_cell_volume   861.24331733
_cell_formula_units_Z   1
loop_
 _symmetry_equiv_pos_site_id
 _symmetry_equiv_pos_as_xyz
  1  'x, y, z'
loop_
 _atom_site_type_symbol
 _atom_site_label
 _atom_site_symmetry_multiplicity
 _atom_site_fract_x
 _atom_site_fract_y
 _atom_site_fract_z
 _atom_site_occupancy
  Cs  Cs0  1  0.774378  0.774315  0.774662  1
  Cs  Cs1  1  0.228962  0.227514  0.222018  1
  Zr  Zr2  1  0.155280  0.902268  0.802131  1
  Zr  Zr3  1  0.845973  0.100426  0.195580  1
  Zr  Zr4  1  0.099822  0.197944  0.845282  1
  Zr  Zr5  1  0.502666  0.494929  0.501911  1
  Ti  Ti6  1  0.178634  0.861790  0.087338  1
  Ti  Ti7  1  0.911793  0.822254  0.138081  1
  Ti  Ti8  1  0.822084  0.139723  0.911343  1
  C  C9  1  0.002190  0.004609  0.996337  1
  Br  Br10  1  0.219448  0.460664  0.647919  1
  Br  Br11  1  0.771929  0.525962  0.364308  1
  Br  Br12  1  0.339136  0.042200  0.943974  1
  Br  Br13  1  0.674032  0.948693  0.062650  1
  Br  Br14  1  0.933495  0.349752  0.054166  1
  Br  Br15  1  0.716654  0.878590  0.399127  1
  Br  Br16  1  0.348664  0.776158  0.537786  1
  Br  Br17  1  0.598545  0.285897  0.109894  1
  Br  Br18  1  0.296045  0.117334  0.583959  1
  Br  Br19  1  0.108004  0.613100  0.275727  1
  Br  Br20  1  0.944893  0.066882  0.664759  1
  Br  Br21  1  0.401339  0.713468  0.890227  1
  Br  Br22  1  0.880363  0.398094  0.717528  1
  Br  Br23  1  0.056671  0.660632  0.956644  1
  Br  Br24  1  0.469463  0.635789  0.231774  1
  Br  Br25  1  0.643605  0.213073  0.470044  1
  Br  Br26  1  0.521088  0.354250  0.779940  1
  Br  Br27  1  0.054843  0.933690  0.334893  1
