# generated using pymatgen
data_Ho3Bi5O14
_symmetry_space_group_name_H-M   'P 1'
_cell_length_a   6.62382463
_cell_length_b   6.73571618
_cell_length_c   7.79428332
_cell_angle_alpha   106.67046397
_cell_angle_beta   89.49173148
_cell_angle_gamma   98.92373445
_symmetry_Int_Tables_number   1
_chemical_formula_structural   Ho3Bi5O14
_chemical_formula_sum   'Ho3 Bi5 O14'
_cell_volume   328.86984017
_cell_formula_units_Z   1
loop_
 _symmetry_equiv_pos_site_id
 _symmetry_equiv_pos_as_xyz
  1  'x, y, z'
loop_
 _atom_site_type_symbol
 _atom_site_label
 _atom_site_symmetry_multiplicity
 _atom_site_fract_x
 _atom_site_fract_y
 _atom_site_fract_z
 _atom_site_occupancy
  Ho  Ho0  1  0.461678  0.001681  0.251923  1
  Ho  Ho1  1  0.539133  0.995410  0.752274  1
  Ho  Ho2  1  0.263346  0.536440  0.884944  1
  Bi  Bi3  1  0.002853  0.007298  0.502366  1
  Bi  Bi4  1  0.003988  0.001265  0.999108  1
  Bi  Bi5  1  0.736370  0.477891  0.115491  1
  Bi  Bi6  1  0.720818  0.463354  0.613847  1
  Bi  Bi7  1  0.267313  0.528118  0.392247  1
  O  O8  1  0.449511  0.652199  0.164281  1
  O  O9  1  0.537814  0.343585  0.824169  1
  O  O10  1  0.304536  0.919309  0.950728  1
  O  O11  1  0.697759  0.053923  0.049727  1
  O  O12  1  0.300832  0.922172  0.514166  1
  O  O13  1  0.700317  0.082529  0.489588  1
  O  O14  1  0.531168  0.354251  0.349551  1
  O  O15  1  0.454871  0.643497  0.659793  1
  O  O16  1  0.937992  0.668252  0.957838  1
  O  O17  1  0.086260  0.324446  0.030198  1
  O  O18  1  0.095924  0.335886  0.624223  1
  O  O19  1  0.905080  0.681237  0.373040  1
  O  O20  1  0.875066  0.927885  0.731743  1
  O  O21  1  0.127368  0.079373  0.268752  1
