# generated using pymatgen
data_CsNd(SeO4)2
_symmetry_space_group_name_H-M   'P 1'
_cell_length_a   5.59815000
_cell_length_b   5.59815077
_cell_length_c   9.50199200
_cell_angle_alpha   90.00000000
_cell_angle_beta   90.00000000
_cell_angle_gamma   119.99999547
_symmetry_Int_Tables_number   1
_chemical_formula_structural   CsNd(SeO4)2
_chemical_formula_sum   'Cs1 Nd1 Se2 O8'
_cell_volume   257.88995924
_cell_formula_units_Z   1
loop_
 _symmetry_equiv_pos_site_id
 _symmetry_equiv_pos_as_xyz
  1  'x, y, z'
loop_
 _atom_site_type_symbol
 _atom_site_label
 _atom_site_symmetry_multiplicity
 _atom_site_fract_x
 _atom_site_fract_y
 _atom_site_fract_z
 _atom_site_occupancy
  Cs  Cs0  1  0.000000  0.000000  0.500001  1
  Nd  Nd1  1  0.000000  0.000000  0.000000  1
  Se  Se2  1  0.333333  0.666666  0.216653  1
  Se  Se3  1  0.666666  0.333333  0.783347  1
  O  O4  1  0.082026  0.363703  0.154255  1
  O  O5  1  0.636299  0.718325  0.154255  1
  O  O6  1  0.281676  0.917974  0.154255  1
  O  O7  1  0.333333  0.666666  0.389901  1
  O  O8  1  0.666666  0.333333  0.610099  1
  O  O9  1  0.718324  0.082027  0.845745  1
  O  O10  1  0.363703  0.281676  0.845745  1
  O  O11  1  0.917973  0.636298  0.845745  1
