# generated using pymatgen
data_Ac(HoS2)3
_symmetry_space_group_name_H-M   'P 1'
_cell_length_a   4.05460900
_cell_length_b   11.17550839
_cell_length_c   11.44401140
_cell_angle_alpha   71.23766416
_cell_angle_beta   90.00000000
_cell_angle_gamma   90.00000000
_symmetry_Int_Tables_number   1
_chemical_formula_structural   Ac(HoS2)3
_chemical_formula_sum   'Ac2 Ho6 S12'
_cell_volume   490.99914341
_cell_formula_units_Z   2
loop_
 _symmetry_equiv_pos_site_id
 _symmetry_equiv_pos_as_xyz
  1  'x, y, z'
loop_
 _atom_site_type_symbol
 _atom_site_label
 _atom_site_symmetry_multiplicity
 _atom_site_fract_x
 _atom_site_fract_y
 _atom_site_fract_z
 _atom_site_occupancy
  Ac  Ac0  1  0.750000  0.552961  0.802300  1
  Ac  Ac1  1  0.250000  0.447039  0.197700  1
  Ho  Ho2  1  0.750000  0.176511  0.999357  1
  Ho  Ho3  1  0.250000  0.823489  0.000643  1
  Ho  Ho4  1  0.750000  0.948222  0.665982  1
  Ho  Ho5  1  0.250000  0.051778  0.334018  1
  Ho  Ho6  1  0.750000  0.662548  0.409744  1
  Ho  Ho7  1  0.250000  0.337452  0.590256  1
  S  S8  1  0.750000  0.977139  0.889790  1
  S  S9  1  0.250000  0.022861  0.110210  1
  S  S10  1  0.750000  0.298389  0.748027  1
  S  S11  1  0.250000  0.701611  0.251973  1
  S  S12  1  0.750000  0.893105  0.444327  1
  S  S13  1  0.250000  0.106895  0.555673  1
  S  S14  1  0.750000  0.418034  0.412444  1
  S  S15  1  0.250000  0.581966  0.587556  1
  S  S16  1  0.750000  0.224233  0.232008  1
  S  S17  1  0.250000  0.775767  0.767992  1
  S  S18  1  0.750000  0.627145  0.036182  1
  S  S19  1  0.250000  0.372855  0.963818  1
