# generated using pymatgen
data_Li4ScP12Ir16Ru3
_symmetry_space_group_name_H-M   'P 1'
_cell_length_a   12.55250084
_cell_length_b   12.55250071
_cell_length_c   3.90435800
_cell_angle_alpha   90.00000000
_cell_angle_beta   90.00000000
_cell_angle_gamma   120.09028826
_symmetry_Int_Tables_number   1
_chemical_formula_structural   Li4ScP12Ir16Ru3
_chemical_formula_sum   'Li4 Sc1 P12 Ir16 Ru3'
_cell_volume   532.28586716
_cell_formula_units_Z   1
loop_
 _symmetry_equiv_pos_site_id
 _symmetry_equiv_pos_as_xyz
  1  'x, y, z'
loop_
 _atom_site_type_symbol
 _atom_site_label
 _atom_site_symmetry_multiplicity
 _atom_site_fract_x
 _atom_site_fract_y
 _atom_site_fract_z
 _atom_site_occupancy
  Li  Li0  1  0.334337  0.666358  0.000000  1
  Li  Li1  1  0.666358  0.334337  0.000000  1
  Li  Li2  1  0.822400  0.998680  0.500000  1
  Li  Li3  1  0.998680  0.822400  0.500000  1
  Sc  Sc4  1  0.175269  0.175269  0.500000  1
  P  P5  1  0.175592  0.994425  0.000000  1
  P  P6  1  0.994425  0.175592  0.000000  1
  P  P7  1  0.821330  0.821330  0.000000  1
  P  P8  1  0.173145  0.488415  0.500000  1
  P  P9  1  0.512925  0.686226  0.500000  1
  P  P10  1  0.315732  0.827677  0.500000  1
  P  P11  1  0.686226  0.512925  0.500000  1
  P  P12  1  0.827677  0.315732  0.500000  1
  P  P13  1  0.488415  0.173145  0.500000  1
  P  P14  1  0.638472  0.000396  0.000000  1
  P  P15  1  0.000396  0.638472  0.000000  1
  P  P16  1  0.361832  0.361832  0.000000  1
  Ir  Ir17  1  0.357240  0.488835  0.500000  1
  Ir  Ir18  1  0.512141  0.871165  0.500000  1
  Ir  Ir19  1  0.132602  0.642772  0.500000  1
  Ir  Ir20  1  0.871165  0.512141  0.500000  1
  Ir  Ir21  1  0.642772  0.132602  0.500000  1
  Ir  Ir22  1  0.488835  0.357240  0.500000  1
  Ir  Ir23  1  0.179872  0.368695  0.000000  1
  Ir  Ir24  1  0.623174  0.805294  0.000000  1
  Ir  Ir25  1  0.195727  0.818126  0.000000  1
  Ir  Ir26  1  0.805294  0.623174  0.000000  1
  Ir  Ir27  1  0.818126  0.195727  0.000000  1
  Ir  Ir28  1  0.368695  0.179872  0.000000  1
  Ir  Ir29  1  0.289632  0.001523  0.500000  1
  Ir  Ir30  1  0.001523  0.289632  0.500000  1
  Ir  Ir31  1  0.711809  0.711809  0.500000  1
  Ir  Ir32  1  0.002264  0.002264  0.000000  1
  Ru  Ru33  1  0.457181  0.004581  0.000000  1
  Ru  Ru34  1  0.004581  0.457181  0.000000  1
  Ru  Ru35  1  0.544159  0.544159  0.000000  1
