# generated using pymatgen
data_Yb3TmBi3
_symmetry_space_group_name_H-M   'P 1'
_cell_length_a   8.14145453
_cell_length_b   8.34766872
_cell_length_c   8.34766842
_cell_angle_alpha   109.96622243
_cell_angle_beta   108.97156407
_cell_angle_gamma   108.97156688
_symmetry_Int_Tables_number   1
_chemical_formula_structural   Yb3TmBi3
_chemical_formula_sum   'Yb6 Tm2 Bi6'
_cell_volume   439.39130344
_cell_formula_units_Z   2
loop_
 _symmetry_equiv_pos_site_id
 _symmetry_equiv_pos_as_xyz
  1  'x, y, z'
loop_
 _atom_site_type_symbol
 _atom_site_label
 _atom_site_symmetry_multiplicity
 _atom_site_fract_x
 _atom_site_fract_y
 _atom_site_fract_z
 _atom_site_occupancy
  Yb  Yb0  1  0.501134  0.999622  0.647503  1
  Yb  Yb1  1  0.353631  0.352119  0.352497  1
  Yb  Yb2  1  0.501512  0.000378  0.147881  1
  Yb  Yb3  1  0.001512  0.647881  0.500378  1
  Yb  Yb4  1  0.853631  0.852497  0.852119  1
  Yb  Yb5  1  0.001134  0.147503  0.499622  1
  Tm  Tm6  1  0.142190  0.500000  0.000000  1
  Tm  Tm7  1  0.642190  0.500000  0.000000  1
  Bi  Bi8  1  0.377319  0.622071  0.758354  1
  Bi  Bi9  1  0.877319  0.258354  0.122071  1
  Bi  Bi10  1  0.618965  0.741646  0.363717  1
  Bi  Bi11  1  0.118965  0.863717  0.241646  1
  Bi  Bi12  1  0.255248  0.136283  0.877929  1
  Bi  Bi13  1  0.755248  0.377929  0.636283  1
