# generated using pymatgen
data_Pr4MnZn(FeO6)2
_symmetry_space_group_name_H-M   'P 1'
_cell_length_a   5.52882683
_cell_length_b   5.69413219
_cell_length_c   7.81944671
_cell_angle_alpha   90.20576585
_cell_angle_beta   89.95373770
_cell_angle_gamma   90.27471687
_symmetry_Int_Tables_number   1
_chemical_formula_structural   Pr4MnZn(FeO6)2
_chemical_formula_sum   'Pr4 Mn1 Zn1 Fe2 O12'
_cell_volume   246.16631696
_cell_formula_units_Z   1
loop_
 _symmetry_equiv_pos_site_id
 _symmetry_equiv_pos_as_xyz
  1  'x, y, z'
loop_
 _atom_site_type_symbol
 _atom_site_label
 _atom_site_symmetry_multiplicity
 _atom_site_fract_x
 _atom_site_fract_y
 _atom_site_fract_z
 _atom_site_occupancy
  Pr  Pr0  1  0.014579  0.943988  0.747202  1
  Pr  Pr1  1  0.510748  0.550820  0.252563  1
  Pr  Pr2  1  0.489252  0.449180  0.747437  1
  Pr  Pr3  1  0.985421  0.056012  0.252798  1
  Mn  Mn4  1  0.500000  0.000000  0.500000  1
  Zn  Zn5  1  0.000000  0.500000  0.500000  1
  Fe  Fe6  1  0.500000  0.000000  0.000000  1
  Fe  Fe7  1  0.000000  0.500000  0.000000  1
  O  O8  1  0.692997  0.279664  0.453300  1
  O  O9  1  0.221358  0.193909  0.545814  1
  O  O10  1  0.791013  0.795901  0.048158  1
  O  O11  1  0.295703  0.708582  0.953123  1
  O  O12  1  0.307003  0.720336  0.546700  1
  O  O13  1  0.778642  0.806091  0.454186  1
  O  O14  1  0.208987  0.204099  0.951842  1
  O  O15  1  0.704297  0.291418  0.046877  1
  O  O16  1  0.087133  0.475664  0.246871  1
  O  O17  1  0.587650  0.023537  0.744024  1
  O  O18  1  0.412350  0.976463  0.255976  1
  O  O19  1  0.912867  0.524336  0.753129  1
