# generated using pymatgen
data_Dy16TlIn(Co2Ag)2
_symmetry_space_group_name_H-M   'P 1'
_cell_length_a   9.50853043
_cell_length_b   9.45819010
_cell_length_c   9.45819000
_cell_angle_alpha   59.81132821
_cell_angle_beta   59.68674286
_cell_angle_gamma   59.68675074
_symmetry_Int_Tables_number   1
_chemical_formula_structural   Dy16TlIn(Co2Ag)2
_chemical_formula_sum   'Dy16 Tl1 In1 Co4 Ag2'
_cell_volume   597.75702976
_cell_formula_units_Z   1
loop_
 _symmetry_equiv_pos_site_id
 _symmetry_equiv_pos_as_xyz
  1  'x, y, z'
loop_
 _atom_site_type_symbol
 _atom_site_label
 _atom_site_symmetry_multiplicity
 _atom_site_fract_x
 _atom_site_fract_y
 _atom_site_fract_z
 _atom_site_occupancy
  Dy  Dy0  1  0.596825  0.597954  0.597954  1
  Dy  Dy1  1  0.596661  0.598935  0.207878  1
  Dy  Dy2  1  0.596661  0.207878  0.598935  1
  Dy  Dy3  1  0.207443  0.597918  0.597918  1
  Dy  Dy4  1  0.062790  0.437094  0.437094  1
  Dy  Dy5  1  0.439393  0.060013  0.060013  1
  Dy  Dy6  1  0.437726  0.061810  0.438220  1
  Dy  Dy7  1  0.061803  0.437442  0.061679  1
  Dy  Dy8  1  0.437726  0.438220  0.061810  1
  Dy  Dy9  1  0.061803  0.061679  0.437442  1
  Dy  Dy10  1  0.187571  0.812824  0.812824  1
  Dy  Dy11  1  0.809257  0.190296  0.190296  1
  Dy  Dy12  1  0.810185  0.193911  0.811465  1
  Dy  Dy13  1  0.184963  0.811434  0.192339  1
  Dy  Dy14  1  0.810185  0.811465  0.193911  1
  Dy  Dy15  1  0.184963  0.192339  0.811434  1
  Tl  Tl16  1  0.836493  0.830229  0.830229  1
  In  In17  1  0.510208  0.827640  0.827640  1
  Co  Co18  1  0.391164  0.391504  0.391504  1
  Co  Co19  1  0.392266  0.389868  0.826318  1
  Co  Co20  1  0.392266  0.826318  0.389868  1
  Co  Co21  1  0.825899  0.391478  0.391478  1
  Ag  Ag22  1  0.832877  0.831341  0.500411  1
  Ag  Ag23  1  0.832877  0.500411  0.831341  1
