# generated using pymatgen
data_PaTe4Ir
_symmetry_space_group_name_H-M   'P 1'
_cell_length_a   4.10262800
_cell_length_b   12.92537600
_cell_length_c   14.34762400
_cell_angle_alpha   90.00000000
_cell_angle_beta   90.00000000
_cell_angle_gamma   90.00000000
_symmetry_Int_Tables_number   1
_chemical_formula_structural   PaTe4Ir
_chemical_formula_sum   'Pa4 Te16 Ir4'
_cell_volume   760.82594160
_cell_formula_units_Z   4
loop_
 _symmetry_equiv_pos_site_id
 _symmetry_equiv_pos_as_xyz
  1  'x, y, z'
loop_
 _atom_site_type_symbol
 _atom_site_label
 _atom_site_symmetry_multiplicity
 _atom_site_fract_x
 _atom_site_fract_y
 _atom_site_fract_z
 _atom_site_occupancy
  Pa  Pa0  1  0.000000  0.048478  0.004390  1
  Pa  Pa1  1  0.000000  0.263015  0.492441  1
  Pa  Pa2  1  0.500001  0.951523  0.504391  1
  Pa  Pa3  1  0.500001  0.736985  0.992441  1
  Te  Te4  1  0.000000  0.344551  0.085426  1
  Te  Te5  1  0.000000  0.843358  0.120384  1
  Te  Te6  1  0.500001  0.568005  0.124967  1
  Te  Te7  1  0.500001  0.119704  0.141913  1
  Te  Te8  1  0.500001  0.330348  0.353502  1
  Te  Te9  1  0.500001  0.785628  0.368249  1
  Te  Te10  1  0.000000  0.058619  0.378096  1
  Te  Te11  1  0.000000  0.559514  0.406326  1
  Te  Te12  1  0.500001  0.655449  0.585426  1
  Te  Te13  1  0.500001  0.156643  0.620384  1
  Te  Te14  1  0.000000  0.431995  0.624967  1
  Te  Te15  1  0.000000  0.880296  0.641914  1
  Te  Te16  1  0.000000  0.669652  0.853502  1
  Te  Te17  1  0.000000  0.214373  0.868249  1
  Te  Te18  1  0.500001  0.941381  0.878096  1
  Te  Te19  1  0.500001  0.440486  0.906327  1
  Ir  Ir20  1  0.000000  0.531613  0.000031  1
  Ir  Ir21  1  0.000000  0.747154  0.492473  1
  Ir  Ir22  1  0.500001  0.468387  0.500032  1
  Ir  Ir23  1  0.500001  0.252846  0.992473  1
