# generated using pymatgen
data_DyY7Sc12Si15Ag
_symmetry_space_group_name_H-M   'P 1'
_cell_length_a   7.13898359
_cell_length_b   7.38318851
_cell_length_c   14.08874232
_cell_angle_alpha   89.87597195
_cell_angle_beta   89.61347559
_cell_angle_gamma   90.18448080
_symmetry_Int_Tables_number   1
_chemical_formula_structural   DyY7Sc12Si15Ag
_chemical_formula_sum   'Dy1 Y7 Sc12 Si15 Ag1'
_cell_volume   742.57341101
_cell_formula_units_Z   1
loop_
 _symmetry_equiv_pos_site_id
 _symmetry_equiv_pos_as_xyz
  1  'x, y, z'
loop_
 _atom_site_type_symbol
 _atom_site_label
 _atom_site_symmetry_multiplicity
 _atom_site_fract_x
 _atom_site_fract_y
 _atom_site_fract_z
 _atom_site_occupancy
  Dy  Dy0  1  0.493479  0.677918  0.600002  1
  Y  Y1  1  0.012260  0.175048  0.097816  1
  Y  Y2  1  0.987501  0.826018  0.903769  1
  Y  Y3  1  0.487247  0.676441  0.903500  1
  Y  Y4  1  0.988386  0.830930  0.597753  1
  Y  Y5  1  0.512125  0.324134  0.096819  1
  Y  Y6  1  0.009089  0.171562  0.398886  1
  Y  Y7  1  0.512402  0.323281  0.399977  1
  Sc  Sc8  1  0.162985  0.501205  0.753005  1
  Sc  Sc9  1  0.837859  0.498883  0.250864  1
  Sc  Sc10  1  0.337983  0.000030  0.248894  1
  Sc  Sc11  1  0.664564  0.996378  0.751282  1
  Sc  Sc12  1  0.341220  0.173201  0.626858  1
  Sc  Sc13  1  0.665484  0.823273  0.373898  1
  Sc  Sc14  1  0.167477  0.675354  0.372102  1
  Sc  Sc15  1  0.670150  0.824289  0.124791  1
  Sc  Sc16  1  0.825932  0.325312  0.625288  1
  Sc  Sc17  1  0.328692  0.175235  0.876094  1
  Sc  Sc18  1  0.830173  0.322681  0.875927  1
  Sc  Sc19  1  0.169227  0.676547  0.125165  1
  Si  Si20  1  0.035924  0.121345  0.750011  1
  Si  Si21  1  0.965436  0.882681  0.248888  1
  Si  Si22  1  0.466599  0.616420  0.248296  1
  Si  Si23  1  0.534327  0.385059  0.751989  1
  Si  Si24  1  0.284980  0.874088  0.750756  1
  Si  Si25  1  0.712881  0.126883  0.248548  1
  Si  Si26  1  0.214583  0.371779  0.248699  1
  Si  Si27  1  0.787928  0.626912  0.752216  1
  Si  Si28  1  0.835428  0.537877  0.459200  1
  Si  Si29  1  0.338622  0.961977  0.460719  1
  Si  Si30  1  0.843801  0.535553  0.039141  1
  Si  Si31  1  0.658637  0.036109  0.538003  1
  Si  Si32  1  0.155163  0.464394  0.961647  1
  Si  Si33  1  0.656721  0.035203  0.960579  1
  Si  Si34  1  0.342924  0.964400  0.039875  1
  Ag  Ag35  1  0.161814  0.461601  0.538743  1
