# generated using pymatgen
data_TbEr3Ga18Co5Ni
_symmetry_space_group_name_H-M   'P 1'
_cell_length_a   7.37091867
_cell_length_b   7.37194508
_cell_length_c   9.37268501
_cell_angle_alpha   89.94699920
_cell_angle_beta   89.94350690
_cell_angle_gamma   119.87607518
_symmetry_Int_Tables_number   1
_chemical_formula_structural   TbEr3Ga18Co5Ni
_chemical_formula_sum   'Tb1 Er3 Ga18 Co5 Ni1'
_cell_volume   441.60964001
_cell_formula_units_Z   1
loop_
 _symmetry_equiv_pos_site_id
 _symmetry_equiv_pos_as_xyz
  1  'x, y, z'
loop_
 _atom_site_type_symbol
 _atom_site_label
 _atom_site_symmetry_multiplicity
 _atom_site_fract_x
 _atom_site_fract_y
 _atom_site_fract_z
 _atom_site_occupancy
  Tb  Tb0  1  0.502827  0.831529  0.750385  1
  Er  Er1  1  0.497211  0.168432  0.249582  1
  Er  Er2  1  0.168420  0.497206  0.249580  1
  Er  Er3  1  0.831586  0.502760  0.750404  1
  Ga  Ga4  1  0.163374  0.948492  0.750078  1
  Ga  Ga5  1  0.836385  0.051687  0.249917  1
  Ga  Ga6  1  0.051666  0.836375  0.249920  1
  Ga  Ga7  1  0.948802  0.163947  0.750076  1
  Ga  Ga8  1  0.620722  0.620718  0.248864  1
  Ga  Ga9  1  0.379087  0.378817  0.751137  1
  Ga  Ga10  1  0.167047  0.167053  0.058822  1
  Ga  Ga11  1  0.835060  0.834768  0.559325  1
  Ga  Ga12  1  0.833245  0.832945  0.941367  1
  Ga  Ga13  1  0.165217  0.165217  0.440501  1
  Ga  Ga14  1  0.498961  0.834204  0.073094  1
  Ga  Ga15  1  0.501089  0.164727  0.573547  1
  Ga  Ga16  1  0.165431  0.500701  0.927346  1
  Ga  Ga17  1  0.835641  0.498916  0.426286  1
  Ga  Ga18  1  0.501077  0.166159  0.927348  1
  Ga  Ga19  1  0.498952  0.835652  0.426017  1
  Ga  Ga20  1  0.834200  0.498932  0.072821  1
  Ga  Ga21  1  0.163997  0.500729  0.573561  1
  Co  Co22  1  0.171135  0.828863  0.000106  1
  Co  Co23  1  0.499961  0.499924  0.000106  1
  Co  Co24  1  0.828936  0.171189  0.499886  1
  Co  Co25  1  0.828893  0.171218  0.000111  1
  Co  Co26  1  0.171101  0.828895  0.499893  1
  Ni  Ni27  1  0.499977  0.499945  0.499922  1
