# generated using pymatgen
data_Pr3AgHg3Pt2
_symmetry_space_group_name_H-M   'P 1'
_cell_length_a   8.04431800
_cell_length_b   8.04431736
_cell_length_c   3.88605700
_cell_angle_alpha   90.00000000
_cell_angle_beta   90.00000000
_cell_angle_gamma   120.00000265
_symmetry_Int_Tables_number   1
_chemical_formula_structural   Pr3AgHg3Pt2
_chemical_formula_sum   'Pr3 Ag1 Hg3 Pt2'
_cell_volume   217.78010983
_cell_formula_units_Z   1
loop_
 _symmetry_equiv_pos_site_id
 _symmetry_equiv_pos_as_xyz
  1  'x, y, z'
loop_
 _atom_site_type_symbol
 _atom_site_label
 _atom_site_symmetry_multiplicity
 _atom_site_fract_x
 _atom_site_fract_y
 _atom_site_fract_z
 _atom_site_occupancy
  Pr  Pr0  1  0.588330  0.000000  0.000000  1
  Pr  Pr1  1  0.000000  0.588330  0.000000  1
  Pr  Pr2  1  0.411670  0.411670  0.000000  1
  Ag  Ag3  1  0.000000  0.000000  0.000000  1
  Hg  Hg4  1  0.265311  0.000000  0.500000  1
  Hg  Hg5  1  0.000000  0.265311  0.500000  1
  Hg  Hg6  1  0.734689  0.734689  0.500000  1
  Pt  Pt7  1  0.333333  0.666667  0.500000  1
  Pt  Pt8  1  0.666667  0.333333  0.500000  1
