# generated using pymatgen
data_Ca5Bi2PbBr
_symmetry_space_group_name_H-M   'P 1'
_cell_length_a   9.36863700
_cell_length_b   9.50773139
_cell_length_c   7.17998100
_cell_angle_alpha   90.00000000
_cell_angle_beta   90.00000000
_cell_angle_gamma   119.51722847
_symmetry_Int_Tables_number   1
_chemical_formula_structural   Ca5Bi2PbBr
_chemical_formula_sum   'Ca10 Bi4 Pb2 Br2'
_cell_volume   556.54396343
_cell_formula_units_Z   2
loop_
 _symmetry_equiv_pos_site_id
 _symmetry_equiv_pos_as_xyz
  1  'x, y, z'
loop_
 _atom_site_type_symbol
 _atom_site_label
 _atom_site_symmetry_multiplicity
 _atom_site_fract_x
 _atom_site_fract_y
 _atom_site_fract_z
 _atom_site_occupancy
  Ca  Ca0  1  0.749355  0.000000  0.750000  1
  Ca  Ca1  1  0.997017  0.265247  0.250000  1
  Ca  Ca2  1  0.731771  0.734753  0.250000  1
  Ca  Ca3  1  0.330959  0.661918  0.500000  1
  Ca  Ca4  1  0.330959  0.661918  0.000000  1
  Ca  Ca5  1  0.669041  0.338082  0.500000  1
  Ca  Ca6  1  0.669041  0.338082  0.000000  1
  Ca  Ca7  1  0.250645  0.000000  0.250000  1
  Ca  Ca8  1  0.268229  0.265247  0.750000  1
  Ca  Ca9  1  0.002983  0.734753  0.750000  1
  Bi  Bi10  1  0.998062  0.609919  0.250000  1
  Bi  Bi11  1  0.611857  0.609919  0.750000  1
  Bi  Bi12  1  0.001938  0.390081  0.750000  1
  Bi  Bi13  1  0.388143  0.390081  0.250000  1
  Pb  Pb14  1  0.415605  0.000000  0.750000  1
  Pb  Pb15  1  0.584395  0.000000  0.250000  1
  Br  Br16  1  0.000000  0.000000  0.500000  1
  Br  Br17  1  0.000000  0.000000  0.000000  1
