# generated using pymatgen
data_Sc4Tc2(OsRu)3
_symmetry_space_group_name_H-M   'P 1'
_cell_length_a   5.17509803
_cell_length_b   5.17314829
_cell_length_c   8.78292400
_cell_angle_alpha   90.00000000
_cell_angle_beta   90.00000000
_cell_angle_gamma   120.93738745
_symmetry_Int_Tables_number   1
_chemical_formula_structural   Sc4Tc2(OsRu)3
_chemical_formula_sum   'Sc4 Tc2 Os3 Ru3'
_cell_volume   201.68009667
_cell_formula_units_Z   1
loop_
 _symmetry_equiv_pos_site_id
 _symmetry_equiv_pos_as_xyz
  1  'x, y, z'
loop_
 _atom_site_type_symbol
 _atom_site_label
 _atom_site_symmetry_multiplicity
 _atom_site_fract_x
 _atom_site_fract_y
 _atom_site_fract_z
 _atom_site_occupancy
  Sc  Sc0  1  0.335940  0.666932  0.433187  1
  Sc  Sc1  1  0.667106  0.335904  0.566621  1
  Sc  Sc2  1  0.667106  0.335904  0.933379  1
  Sc  Sc3  1  0.335940  0.666932  0.066813  1
  Tc  Tc4  1  0.166764  0.339209  0.750000  1
  Tc  Tc5  1  0.336095  0.170717  0.250000  1
  Os  Os6  1  0.167914  0.828975  0.750000  1
  Os  Os7  1  0.822120  0.655969  0.250000  1
  Os  Os8  1  0.652934  0.827033  0.750000  1
  Ru  Ru9  1  0.012268  0.000501  0.001040  1
  Ru  Ru10  1  0.823541  0.171423  0.250000  1
  Ru  Ru11  1  0.012268  0.000501  0.498960  1
