# generated using pymatgen
data_Sm8GeSBr12
_symmetry_space_group_name_H-M   'P 1'
_cell_length_a   4.14074500
_cell_length_b   13.49694457
_cell_length_c   14.28723800
_cell_angle_alpha   89.98330830
_cell_angle_beta   90.00000000
_cell_angle_gamma   90.00000000
_symmetry_Int_Tables_number   1
_chemical_formula_structural   Sm8GeSBr12
_chemical_formula_sum   'Sm8 Ge1 S1 Br12'
_cell_volume   798.47663334
_cell_formula_units_Z   1
loop_
 _symmetry_equiv_pos_site_id
 _symmetry_equiv_pos_as_xyz
  1  'x, y, z'
loop_
 _atom_site_type_symbol
 _atom_site_label
 _atom_site_symmetry_multiplicity
 _atom_site_fract_x
 _atom_site_fract_y
 _atom_site_fract_z
 _atom_site_occupancy
  Sm  Sm0  1  0.500000  0.115062  0.346351  1
  Sm  Sm1  1  0.500000  0.884938  0.653649  1
  Sm  Sm2  1  0.500000  0.620158  0.160613  1
  Sm  Sm3  1  0.500000  0.379842  0.839387  1
  Sm  Sm4  1  0.000000  0.111214  0.574061  1
  Sm  Sm5  1  0.000000  0.888786  0.425939  1
  Sm  Sm6  1  0.000000  0.620479  0.919316  1
  Sm  Sm7  1  0.000000  0.379521  0.080684  1
  Ge  Ge8  1  0.500000  0.500000  0.000000  1
  S  S9  1  0.500000  0.000000  0.500000  1
  Br  Br10  1  0.500000  0.241614  0.166971  1
  Br  Br11  1  0.500000  0.758386  0.833029  1
  Br  Br12  1  0.500000  0.752393  0.340503  1
  Br  Br13  1  0.500000  0.247607  0.659497  1
  Br  Br14  1  0.000000  0.253090  0.413621  1
  Br  Br15  1  0.000000  0.746910  0.586379  1
  Br  Br16  1  0.000000  0.756498  0.088639  1
  Br  Br17  1  0.000000  0.243502  0.911361  1
  Br  Br18  1  0.000000  0.001092  0.246079  1
  Br  Br19  1  0.000000  0.998908  0.753921  1
  Br  Br20  1  0.000000  0.503233  0.258833  1
  Br  Br21  1  0.000000  0.496767  0.741167  1
