# generated using pymatgen
data_Tm15Lu5(Ir2Rh)4
_symmetry_space_group_name_H-M   'P 1'
_cell_length_a   10.69321516
_cell_length_b   10.69503403
_cell_length_c   6.32715200
_cell_angle_alpha   89.99712317
_cell_angle_beta   89.99015709
_cell_angle_gamma   89.99672088
_symmetry_Int_Tables_number   1
_chemical_formula_structural   Tm15Lu5(Ir2Rh)4
_chemical_formula_sum   'Tm15 Lu5 Ir8 Rh4'
_cell_volume   723.60029678
_cell_formula_units_Z   1
loop_
 _symmetry_equiv_pos_site_id
 _symmetry_equiv_pos_as_xyz
  1  'x, y, z'
loop_
 _atom_site_type_symbol
 _atom_site_label
 _atom_site_symmetry_multiplicity
 _atom_site_fract_x
 _atom_site_fract_y
 _atom_site_fract_z
 _atom_site_occupancy
  Tm  Tm0  1  0.290167  0.912423  0.877696  1
  Tm  Tm1  1  0.709648  0.087794  0.877682  1
  Tm  Tm2  1  0.709696  0.912219  0.377688  1
  Tm  Tm3  1  0.587728  0.790357  0.877752  1
  Tm  Tm4  1  0.587467  0.209676  0.377722  1
  Tm  Tm5  1  0.412036  0.790501  0.377696  1
  Tm  Tm6  1  0.411920  0.209676  0.877692  1
  Tm  Tm7  1  0.209734  0.412143  0.622251  1
  Tm  Tm8  1  0.209732  0.587842  0.122392  1
  Tm  Tm9  1  0.790311  0.412098  0.122333  1
  Tm  Tm10  1  0.790248  0.587849  0.622416  1
  Tm  Tm11  1  0.912172  0.709729  0.122321  1
  Tm  Tm12  1  0.912177  0.290270  0.622469  1
  Tm  Tm13  1  0.087880  0.709790  0.622236  1
  Tm  Tm14  1  0.088220  0.289931  0.122538  1
  Lu  Lu15  1  0.290902  0.087556  0.378112  1
  Lu  Lu16  1  0.000332  0.000148  0.499730  1
  Lu  Lu17  1  0.000031  0.000056  0.999870  1
  Lu  Lu18  1  0.499957  0.499953  0.999988  1
  Lu  Lu19  1  0.499896  0.500011  0.499909  1
  Ir  Ir20  1  0.846803  0.153201  0.249973  1
  Ir  Ir21  1  0.846859  0.846834  0.750016  1
  Ir  Ir22  1  0.153489  0.153020  0.748954  1
  Ir  Ir23  1  0.153436  0.847236  0.250238  1
  Ir  Ir24  1  0.653164  0.346799  0.750020  1
  Ir  Ir25  1  0.653194  0.653162  0.250011  1
  Ir  Ir26  1  0.346774  0.346205  0.250364  1
  Ir  Ir27  1  0.346816  0.653199  0.750053  1
  Rh  Rh28  1  0.499576  0.000239  0.123558  1
  Rh  Rh29  1  0.499531  0.000218  0.622804  1
  Rh  Rh30  1  0.000057  0.499947  0.876768  1
  Rh  Rh31  1  0.000044  0.499915  0.376748  1
