# generated using pymatgen
data_SbSe27
_symmetry_space_group_name_H-M   'P 1'
_cell_length_a   5.49922387
_cell_length_b   15.13054940
_cell_length_c   15.13054978
_cell_angle_alpha   118.55379775
_cell_angle_beta   96.95850283
_cell_angle_gamma   96.95851186
_symmetry_Int_Tables_number   1
_chemical_formula_structural   SbSe27
_chemical_formula_sum   'Sb1 Se27'
_cell_volume   1074.28594261
_cell_formula_units_Z   1
loop_
 _symmetry_equiv_pos_site_id
 _symmetry_equiv_pos_as_xyz
  1  'x, y, z'
loop_
 _atom_site_type_symbol
 _atom_site_label
 _atom_site_symmetry_multiplicity
 _atom_site_fract_x
 _atom_site_fract_y
 _atom_site_fract_z
 _atom_site_occupancy
  Sb  Sb0  1  0.673229  0.000000  0.000000  1
  Se  Se1  1  0.046917  0.120535  0.000000  1
  Se  Se2  1  0.046917  0.000000  0.120535  1
  Se  Se3  1  0.926382  0.879465  0.879465  1
  Se  Se4  1  0.359440  0.374976  0.000000  1
  Se  Se5  1  0.572174  0.740358  0.000000  1
  Se  Se6  1  0.260253  0.510598  0.145296  1
  Se  Se7  1  0.403679  0.763292  0.145178  1
  Se  Se8  1  0.575307  0.659419  0.203953  1
  Se  Se9  1  0.640387  0.381885  0.236708  1
  Se  Se10  1  0.831814  0.259642  0.259642  1
  Se  Se11  1  0.915887  0.544532  0.340580  1
  Se  Se12  1  0.114957  0.854705  0.365302  1
  Se  Se13  1  0.640387  0.236708  0.381885  1
  Se  Se14  1  0.359440  0.000000  0.374976  1
  Se  Se15  1  0.371355  0.796048  0.455468  1
  Se  Se16  1  0.749655  0.634698  0.489403  1
  Se  Se17  1  0.260253  0.145296  0.510598  1
  Se  Se18  1  0.915887  0.340580  0.544532  1
  Se  Se19  1  0.984466  0.625024  0.625024  1
  Se  Se20  1  0.258501  0.854822  0.618115  1
  Se  Se21  1  0.749655  0.489403  0.634698  1
  Se  Se22  1  0.575307  0.203953  0.659419  1
  Se  Se23  1  0.572174  0.000000  0.740358  1
  Se  Se24  1  0.403679  0.145178  0.763292  1
  Se  Se25  1  0.371355  0.455468  0.796048  1
  Se  Se26  1  0.258501  0.618115  0.854822  1
  Se  Se27  1  0.114957  0.365302  0.854705  1
