# generated using pymatgen
data_Co8Re2Mo7W7C4
_symmetry_space_group_name_H-M   'P 1'
_cell_length_a   8.02161675
_cell_length_b   7.98900112
_cell_length_c   7.98417859
_cell_angle_alpha   59.65429277
_cell_angle_beta   59.79028216
_cell_angle_gamma   59.79906294
_symmetry_Int_Tables_number   1
_chemical_formula_structural   Co8Re2Mo7W7C4
_chemical_formula_sum   'Co8 Re2 Mo7 W7 C4'
_cell_volume   359.72805663
_cell_formula_units_Z   1
loop_
 _symmetry_equiv_pos_site_id
 _symmetry_equiv_pos_as_xyz
  1  'x, y, z'
loop_
 _atom_site_type_symbol
 _atom_site_label
 _atom_site_symmetry_multiplicity
 _atom_site_fract_x
 _atom_site_fract_y
 _atom_site_fract_z
 _atom_site_occupancy
  Co  Co0  1  0.919345  0.240664  0.920316  1
  Co  Co1  1  0.246645  0.917529  0.918816  1
  Co  Co2  1  0.919975  0.920123  0.240568  1
  Co  Co3  1  0.003906  0.331458  0.331715  1
  Co  Co4  1  0.330156  0.009340  0.329758  1
  Co  Co5  1  0.917185  0.918197  0.917909  1
  Co  Co6  1  0.332747  0.332339  0.331110  1
  Co  Co7  1  0.330511  0.329936  0.009370  1
  Re  Re8  1  0.625201  0.125042  0.124572  1
  Re  Re9  1  0.125134  0.124644  0.125079  1
  Mo  Mo10  1  0.563780  0.938163  0.559428  1
  Mo  Mo11  1  0.686708  0.311734  0.690525  1
  Mo  Mo12  1  0.686271  0.690415  0.312564  1
  Mo  Mo13  1  0.311982  0.311237  0.690357  1
  Mo  Mo14  1  0.690134  0.309031  0.310426  1
  Mo  Mo15  1  0.314166  0.686369  0.686434  1
  Mo  Mo16  1  0.935685  0.563758  0.563722  1
  W  W17  1  0.124914  0.125030  0.625066  1
  W  W18  1  0.938257  0.939362  0.559042  1
  W  W19  1  0.311261  0.690623  0.311639  1
  W  W20  1  0.563532  0.558923  0.937974  1
  W  W21  1  0.938508  0.559238  0.938329  1
  W  W22  1  0.124942  0.625034  0.125010  1
  W  W23  1  0.559470  0.941414  0.939968  1
  C  C24  1  0.625019  0.625121  0.625250  1
  C  C25  1  0.124560  0.625271  0.625128  1
  C  C26  1  0.625114  0.124718  0.625243  1
  C  C27  1  0.624895  0.625288  0.124684  1
