# generated using pymatgen
data_Nd8Si12IrAu3
_symmetry_space_group_name_H-M   'P 1'
_cell_length_a   8.28038100
_cell_length_b   8.28039351
_cell_length_c   8.61191300
_cell_angle_alpha   90.00008250
_cell_angle_beta   89.99997339
_cell_angle_gamma   119.99964892
_symmetry_Int_Tables_number   1
_chemical_formula_structural   Nd8Si12IrAu3
_chemical_formula_sum   'Nd8 Si12 Ir1 Au3'
_cell_volume   511.36747091
_cell_formula_units_Z   1
loop_
 _symmetry_equiv_pos_site_id
 _symmetry_equiv_pos_as_xyz
  1  'x, y, z'
loop_
 _atom_site_type_symbol
 _atom_site_label
 _atom_site_symmetry_multiplicity
 _atom_site_fract_x
 _atom_site_fract_y
 _atom_site_fract_z
 _atom_site_occupancy
  Nd  Nd0  1  0.000001  0.000001  0.751061  1
  Nd  Nd1  1  0.000001  0.000001  0.248941  1
  Nd  Nd2  1  0.496625  0.503373  0.754241  1
  Nd  Nd3  1  0.496628  0.993253  0.754241  1
  Nd  Nd4  1  0.006750  0.503373  0.754243  1
  Nd  Nd5  1  0.498448  0.501550  0.245820  1
  Nd  Nd6  1  0.003102  0.501550  0.245819  1
  Nd  Nd7  1  0.498449  0.996898  0.245821  1
  Si  Si8  1  0.838246  0.161753  0.999115  1
  Si  Si9  1  0.838245  0.676493  0.999114  1
  Si  Si10  1  0.323507  0.161755  0.999114  1
  Si  Si11  1  0.836316  0.163684  0.500801  1
  Si  Si12  1  0.836316  0.672633  0.500800  1
  Si  Si13  1  0.327368  0.163684  0.500801  1
  Si  Si14  1  0.163426  0.836573  0.499211  1
  Si  Si15  1  0.673149  0.836573  0.499211  1
  Si  Si16  1  0.163426  0.326851  0.499210  1
  Si  Si17  1  0.168924  0.831076  0.001269  1
  Si  Si18  1  0.662148  0.831073  0.001267  1
  Si  Si19  1  0.168926  0.337850  0.001267  1
  Ir  Ir20  1  0.333330  0.666668  0.001711  1
  Au  Au21  1  0.666667  0.333333  0.996917  1
  Au  Au22  1  0.666667  0.333334  0.502971  1
  Au  Au23  1  0.333333  0.666666  0.497036  1
