# generated using pymatgen
data_Na4ZrUBr12
_symmetry_space_group_name_H-M   'P 1'
_cell_length_a   7.32577800
_cell_length_b   7.32577763
_cell_length_c   13.83608100
_cell_angle_alpha   90.00000000
_cell_angle_beta   90.00000000
_cell_angle_gamma   119.99999264
_symmetry_Int_Tables_number   1
_chemical_formula_structural   Na4ZrUBr12
_chemical_formula_sum   'Na4 Zr1 U1 Br12'
_cell_volume   643.05962828
_cell_formula_units_Z   1
loop_
 _symmetry_equiv_pos_site_id
 _symmetry_equiv_pos_as_xyz
  1  'x, y, z'
loop_
 _atom_site_type_symbol
 _atom_site_label
 _atom_site_symmetry_multiplicity
 _atom_site_fract_x
 _atom_site_fract_y
 _atom_site_fract_z
 _atom_site_occupancy
  Na  Na0  1  0.000000  0.000000  0.750000  1
  Na  Na1  1  0.666667  0.333333  0.750000  1
  Na  Na2  1  0.333333  0.666667  0.250000  1
  Na  Na3  1  0.000000  0.000000  0.250000  1
  Zr  Zr4  1  0.333333  0.666667  0.750000  1
  U  U5  1  0.666667  0.333333  0.250000  1
  Br  Br6  1  0.037269  0.370507  0.637816  1
  Br  Br7  1  0.333240  0.962731  0.637816  1
  Br  Br8  1  0.629493  0.666760  0.637816  1
  Br  Br9  1  0.629493  0.962731  0.862184  1
  Br  Br10  1  0.333240  0.370507  0.862184  1
  Br  Br11  1  0.037269  0.666760  0.862184  1
  Br  Br12  1  0.977838  0.333157  0.132826  1
  Br  Br13  1  0.355318  0.022162  0.132826  1
  Br  Br14  1  0.666843  0.644682  0.132826  1
  Br  Br15  1  0.666843  0.022162  0.367174  1
  Br  Br16  1  0.355318  0.333157  0.367174  1
  Br  Br17  1  0.977838  0.644682  0.367174  1
