# generated using pymatgen
data_TbDy4Tm3Pt4
_symmetry_space_group_name_H-M   'P 1'
_cell_length_a   4.75777000
_cell_length_b   7.14217627
_cell_length_c   8.73254600
_cell_angle_alpha   89.78502930
_cell_angle_beta   90.00000000
_cell_angle_gamma   90.00000000
_symmetry_Int_Tables_number   1
_chemical_formula_structural   TbDy4Tm3Pt4
_chemical_formula_sum   'Tb1 Dy4 Tm3 Pt4'
_cell_volume   296.73708990
_cell_formula_units_Z   1
loop_
 _symmetry_equiv_pos_site_id
 _symmetry_equiv_pos_as_xyz
  1  'x, y, z'
loop_
 _atom_site_type_symbol
 _atom_site_label
 _atom_site_symmetry_multiplicity
 _atom_site_fract_x
 _atom_site_fract_y
 _atom_site_fract_z
 _atom_site_occupancy
  Tb  Tb0  1  0.250000  0.488874  0.168336  1
  Dy  Dy1  1  0.750000  0.645182  0.420641  1
  Dy  Dy2  1  0.250000  0.991397  0.331463  1
  Dy  Dy3  1  0.750000  0.011092  0.671092  1
  Dy  Dy4  1  0.750000  0.510391  0.829769  1
  Tm  Tm5  1  0.250000  0.856615  0.921463  1
  Tm  Tm6  1  0.250000  0.355176  0.579398  1
  Tm  Tm7  1  0.750000  0.143506  0.078654  1
  Pt  Pt8  1  0.250000  0.254626  0.906050  1
  Pt  Pt9  1  0.250000  0.755910  0.595865  1
  Pt  Pt10  1  0.750000  0.745058  0.089674  1
  Pt  Pt11  1  0.750000  0.242178  0.407597  1
