# generated using pymatgen
data_NdSi4(IrRh)3
_symmetry_space_group_name_H-M   'P 1'
_cell_length_a   7.03752400
_cell_length_b   7.03752351
_cell_length_c   3.86625900
_cell_angle_alpha   90.00000000
_cell_angle_beta   90.00000000
_cell_angle_gamma   120.00000229
_symmetry_Int_Tables_number   1
_chemical_formula_structural   NdSi4(IrRh)3
_chemical_formula_sum   'Nd1 Si4 Ir3 Rh3'
_cell_volume   165.82931752
_cell_formula_units_Z   1
loop_
 _symmetry_equiv_pos_site_id
 _symmetry_equiv_pos_as_xyz
  1  'x, y, z'
loop_
 _atom_site_type_symbol
 _atom_site_label
 _atom_site_symmetry_multiplicity
 _atom_site_fract_x
 _atom_site_fract_y
 _atom_site_fract_z
 _atom_site_occupancy
  Nd  Nd0  1  0.000000  0.000000  0.000000  1
  Si  Si1  1  0.333334  0.666667  0.000000  1
  Si  Si2  1  0.401446  0.200723  0.500000  1
  Si  Si3  1  0.799278  0.200723  0.500000  1
  Si  Si4  1  0.799278  0.598555  0.500000  1
  Ir  Ir5  1  0.532395  0.064788  0.000000  1
  Ir  Ir6  1  0.532394  0.467606  0.000000  1
  Ir  Ir7  1  0.935212  0.467606  0.000000  1
  Rh  Rh8  1  0.199089  0.398177  0.500000  1
  Rh  Rh9  1  0.199088  0.800911  0.500000  1
  Rh  Rh10  1  0.601823  0.800911  0.500000  1
