# generated using pymatgen
data_La6YbPtBr12
_symmetry_space_group_name_H-M   'P 1'
_cell_length_a   9.74463257
_cell_length_b   9.79539033
_cell_length_c   9.81572583
_cell_angle_alpha   107.56489138
_cell_angle_beta   107.66157275
_cell_angle_gamma   106.49023659
_symmetry_Int_Tables_number   1
_chemical_formula_structural   La6YbPtBr12
_chemical_formula_sum   'La6 Yb1 Pt1 Br12'
_cell_volume   775.07068676
_cell_formula_units_Z   1
loop_
 _symmetry_equiv_pos_site_id
 _symmetry_equiv_pos_as_xyz
  1  'x, y, z'
loop_
 _atom_site_type_symbol
 _atom_site_label
 _atom_site_symmetry_multiplicity
 _atom_site_fract_x
 _atom_site_fract_y
 _atom_site_fract_z
 _atom_site_occupancy
  La  La0  1  0.318427  0.110258  0.027281  1
  La  La1  1  0.024549  0.319626  0.112941  1
  La  La2  1  0.115298  0.027602  0.321114  1
  La  La3  1  0.884702  0.972398  0.678887  1
  La  La4  1  0.975451  0.680375  0.887060  1
  La  La5  1  0.681574  0.889742  0.972720  1
  Yb  Yb6  1  0.500000  0.500000  0.500000  1
  Pt  Pt7  1  0.000000  0.000000  0.000000  1
  Br  Br8  1  0.679237  0.214751  0.066670  1
  Br  Br9  1  0.379393  0.458743  0.176970  1
  Br  Br10  1  0.068041  0.682847  0.213166  1
  Br  Br11  1  0.787215  0.933330  0.316821  1
  Br  Br12  1  0.464679  0.177484  0.382501  1
  Br  Br13  1  0.174225  0.379570  0.460524  1
  Br  Br14  1  0.825775  0.620431  0.539476  1
  Br  Br15  1  0.535321  0.822517  0.617499  1
  Br  Br16  1  0.212786  0.066671  0.683179  1
  Br  Br17  1  0.931959  0.317153  0.786835  1
  Br  Br18  1  0.620608  0.541257  0.823030  1
  Br  Br19  1  0.320764  0.785249  0.933330  1
