# generated using pymatgen
data_Pr2Ge2Os2C
_symmetry_space_group_name_H-M   'P 1'
_cell_length_a   6.02720381
_cell_length_b   6.02720311
_cell_length_c   7.14826283
_cell_angle_alpha   125.32955600
_cell_angle_beta   125.32954841
_cell_angle_gamma   41.16995209
_symmetry_Int_Tables_number   1
_chemical_formula_structural   Pr2Ge2Os2C
_chemical_formula_sum   'Pr2 Ge2 Os2 C1'
_cell_volume   134.42982523
_cell_formula_units_Z   1
loop_
 _symmetry_equiv_pos_site_id
 _symmetry_equiv_pos_as_xyz
  1  'x, y, z'
loop_
 _atom_site_type_symbol
 _atom_site_label
 _atom_site_symmetry_multiplicity
 _atom_site_fract_x
 _atom_site_fract_y
 _atom_site_fract_z
 _atom_site_occupancy
  Pr  Pr0  1  0.561480  0.561480  0.297360  1
  Pr  Pr1  1  0.438520  0.438520  0.702640  1
  Ge  Ge2  1  0.837524  0.837524  0.290564  1
  Ge  Ge3  1  0.162477  0.162477  0.709436  1
  Os  Os4  1  0.198572  0.198572  0.094315  1
  Os  Os5  1  0.801428  0.801428  0.905684  1
  C  C6  1  0.000000  0.000000  0.000000  1
