# generated using pymatgen
data_Hf4Nb4AlAs2P
_symmetry_space_group_name_H-M   'P 1'
_cell_length_a   3.58458900
_cell_length_b   7.07498321
_cell_length_c   8.55442802
_cell_angle_alpha   89.37057858
_cell_angle_beta   90.00000000
_cell_angle_gamma   90.00000000
_symmetry_Int_Tables_number   1
_chemical_formula_structural   Hf4Nb4AlAs2P
_chemical_formula_sum   'Hf4 Nb4 Al1 As2 P1'
_cell_volume   216.93496260
_cell_formula_units_Z   1
loop_
 _symmetry_equiv_pos_site_id
 _symmetry_equiv_pos_as_xyz
  1  'x, y, z'
loop_
 _atom_site_type_symbol
 _atom_site_label
 _atom_site_symmetry_multiplicity
 _atom_site_fract_x
 _atom_site_fract_y
 _atom_site_fract_z
 _atom_site_occupancy
  Hf  Hf0  1  0.250000  0.050175  0.670721  1
  Hf  Hf1  1  0.250000  0.529054  0.831604  1
  Hf  Hf2  1  0.750000  0.459612  0.157353  1
  Hf  Hf3  1  0.750000  0.954135  0.335837  1
  Nb  Nb4  1  0.750000  0.863783  0.937531  1
  Nb  Nb5  1  0.250000  0.634810  0.441452  1
  Nb  Nb6  1  0.750000  0.368312  0.568689  1
  Nb  Nb7  1  0.250000  0.136211  0.053057  1
  Al  Al8  1  0.250000  0.255734  0.358341  1
  As  As9  1  0.250000  0.759248  0.145080  1
  As  As10  1  0.750000  0.749841  0.642693  1
  P  P11  1  0.750000  0.239087  0.857641  1
