# generated using pymatgen
data_YbEr3AlOs7
_symmetry_space_group_name_H-M   'P 1'
_cell_length_a   5.33921600
_cell_length_b   5.33921577
_cell_length_c   8.65599700
_cell_angle_alpha   90.00000000
_cell_angle_beta   90.00000000
_cell_angle_gamma   119.99998906
_symmetry_Int_Tables_number   1
_chemical_formula_structural   YbEr3AlOs7
_chemical_formula_sum   'Yb1 Er3 Al1 Os7'
_cell_volume   213.69912275
_cell_formula_units_Z   1
loop_
 _symmetry_equiv_pos_site_id
 _symmetry_equiv_pos_as_xyz
  1  'x, y, z'
loop_
 _atom_site_type_symbol
 _atom_site_label
 _atom_site_symmetry_multiplicity
 _atom_site_fract_x
 _atom_site_fract_y
 _atom_site_fract_z
 _atom_site_occupancy
  Yb  Yb0  1  0.333333  0.666667  0.063701  1
  Er  Er1  1  0.333333  0.666667  0.425862  1
  Er  Er2  1  0.666667  0.333333  0.570026  1
  Er  Er3  1  0.666667  0.333333  0.938645  1
  Al  Al4  1  0.000000  0.000000  0.501511  1
  Os  Os5  1  0.000000  0.000000  0.999177  1
  Os  Os6  1  0.828902  0.171098  0.251963  1
  Os  Os7  1  0.828902  0.657804  0.251963  1
  Os  Os8  1  0.342196  0.171098  0.251963  1
  Os  Os9  1  0.172039  0.827961  0.748396  1
  Os  Os10  1  0.172039  0.344077  0.748396  1
  Os  Os11  1  0.655923  0.827961  0.748396  1
