# generated using pymatgen
data_Y3Tm3Mn16(CoP6)2
_symmetry_space_group_name_H-M   'P 1'
_cell_length_a   3.63287000
_cell_length_b   10.83843101
_cell_length_c   12.61831602
_cell_angle_alpha   90.00571682
_cell_angle_beta   90.00000000
_cell_angle_gamma   90.00000000
_symmetry_Int_Tables_number   1
_chemical_formula_structural   Y3Tm3Mn16(CoP6)2
_chemical_formula_sum   'Y3 Tm3 Mn16 Co2 P12'
_cell_volume   496.84128056
_cell_formula_units_Z   1
loop_
 _symmetry_equiv_pos_site_id
 _symmetry_equiv_pos_as_xyz
  1  'x, y, z'
loop_
 _atom_site_type_symbol
 _atom_site_label
 _atom_site_symmetry_multiplicity
 _atom_site_fract_x
 _atom_site_fract_y
 _atom_site_fract_z
 _atom_site_occupancy
  Y  Y0  1  0.000000  0.499969  0.531824  1
  Y  Y1  1  0.500000  0.000193  0.468564  1
  Y  Y2  1  0.500000  0.822868  0.206235  1
  Tm  Tm3  1  0.500000  0.177073  0.206332  1
  Tm  Tm4  1  0.000000  0.676495  0.793642  1
  Tm  Tm5  1  0.000000  0.323483  0.793538  1
  Mn  Mn6  1  0.500000  0.499773  0.165806  1
  Mn  Mn7  1  0.000000  0.999955  0.834175  1
  Mn  Mn8  1  0.000000  0.499279  0.992197  1
  Mn  Mn9  1  0.500000  0.000560  0.006782  1
  Mn  Mn10  1  0.500000  0.332709  0.996961  1
  Mn  Mn11  1  0.500000  0.666757  0.996329  1
  Mn  Mn12  1  0.000000  0.167945  0.002694  1
  Mn  Mn13  1  0.000000  0.832767  0.002334  1
  Mn  Mn14  1  0.500000  0.298046  0.432401  1
  Mn  Mn15  1  0.500000  0.701714  0.433031  1
  Mn  Mn16  1  0.000000  0.202203  0.567863  1
  Mn  Mn17  1  0.000000  0.797849  0.568364  1
  Mn  Mn18  1  0.500000  0.880607  0.703145  1
  Mn  Mn19  1  0.500000  0.119441  0.702978  1
  Mn  Mn20  1  0.000000  0.618338  0.297232  1
  Mn  Mn21  1  0.000000  0.380805  0.296930  1
  Co  Co22  1  0.500000  0.499812  0.706855  1
  Co  Co23  1  0.000000  0.001405  0.293629  1
  P  P24  1  0.500000  0.499734  0.880344  1
  P  P25  1  0.000000  0.001416  0.118781  1
  P  P26  1  0.500000  0.499802  0.358573  1
  P  P27  1  0.000000  0.000052  0.641866  1
  P  P28  1  0.500000  0.318054  0.620091  1
  P  P29  1  0.500000  0.681799  0.620405  1
  P  P30  1  0.000000  0.182479  0.380062  1
  P  P31  1  0.000000  0.817966  0.381353  1
  P  P32  1  0.500000  0.844272  0.884386  1
  P  P33  1  0.500000  0.155948  0.884240  1
  P  P34  1  0.000000  0.653997  0.114523  1
  P  P35  1  0.000000  0.344433  0.115533  1
