# generated using pymatgen
data_HfZr5Mn2(Si3Ru2)2
_symmetry_space_group_name_H-M   'P 1'
_cell_length_a   7.64271222
_cell_length_b   7.63779829
_cell_length_c   7.64271128
_cell_angle_alpha   128.01863032
_cell_angle_beta   123.44097193
_cell_angle_gamma   80.40362249
_symmetry_Int_Tables_number   1
_chemical_formula_structural   HfZr5Mn2(Si3Ru2)2
_chemical_formula_sum   'Hf1 Zr5 Mn2 Si6 Ru4'
_cell_volume   282.98061876
_cell_formula_units_Z   1
loop_
 _symmetry_equiv_pos_site_id
 _symmetry_equiv_pos_as_xyz
  1  'x, y, z'
loop_
 _atom_site_type_symbol
 _atom_site_label
 _atom_site_symmetry_multiplicity
 _atom_site_fract_x
 _atom_site_fract_y
 _atom_site_fract_z
 _atom_site_occupancy
  Hf  Hf0  1  0.949289  0.651676  0.202387  1
  Zr  Zr1  1  0.462001  0.678408  0.716407  1
  Zr  Zr2  1  0.538218  0.254675  0.216457  1
  Zr  Zr3  1  0.747939  0.833144  0.585205  1
  Zr  Zr4  1  0.252649  0.838078  0.085430  1
  Zr  Zr5  1  0.050177  0.254440  0.704262  1
  Mn  Mn6  1  0.503259  0.499766  0.002339  1
  Mn  Mn7  1  0.997427  0.499766  0.496507  1
  Si  Si8  1  0.263079  0.272082  0.509003  1
  Si  Si9  1  0.736356  0.242466  0.006111  1
  Si  Si10  1  0.330075  0.586764  0.248027  1
  Si  Si11  1  0.670355  0.916071  0.255300  1
  Si  Si12  1  0.160771  0.916071  0.745716  1
  Si  Si13  1  0.838737  0.586764  0.756689  1
  Ru  Ru14  1  0.105508  0.255886  0.116165  1
  Ru  Ru15  1  0.895507  0.008829  0.149897  1
  Ru  Ru16  1  0.358932  0.008829  0.613322  1
  Ru  Ru17  1  0.639723  0.255886  0.650380  1
