# generated using pymatgen
data_Sr2ScIO3
_symmetry_space_group_name_H-M   'P 1'
_cell_length_a   5.85908311
_cell_length_b   5.85912896
_cell_length_c   17.66742378
_cell_angle_alpha   80.46046631
_cell_angle_beta   80.47855061
_cell_angle_gamma   89.99663672
_symmetry_Int_Tables_number   1
_chemical_formula_structural   Sr2ScIO3
_chemical_formula_sum   'Sr8 Sc4 I4 O12'
_cell_volume   589.64684963
_cell_formula_units_Z   4
loop_
 _symmetry_equiv_pos_site_id
 _symmetry_equiv_pos_as_xyz
  1  'x, y, z'
loop_
 _atom_site_type_symbol
 _atom_site_label
 _atom_site_symmetry_multiplicity
 _atom_site_fract_x
 _atom_site_fract_y
 _atom_site_fract_z
 _atom_site_occupancy
  Sr  Sr0  1  0.142698  0.392795  0.714529  1
  Sr  Sr1  1  0.642700  0.892802  0.714528  1
  Sr  Sr2  1  0.357315  0.107210  0.285484  1
  Sr  Sr3  1  0.857318  0.607186  0.285468  1
  Sr  Sr4  1  0.459988  0.210035  0.079030  1
  Sr  Sr5  1  0.959890  0.709993  0.079037  1
  Sr  Sr6  1  0.040128  0.289994  0.920969  1
  Sr  Sr7  1  0.539976  0.790011  0.920967  1
  Sc  Sc8  1  0.088183  0.838137  0.824144  1
  Sc  Sc9  1  0.411792  0.661858  0.175859  1
  Sc  Sc10  1  0.588200  0.338143  0.824133  1
  Sc  Sc11  1  0.911814  0.161844  0.175859  1
  I  I12  1  0.307972  0.557614  0.384952  1
  I  I13  1  0.807959  0.057626  0.384954  1
  I  I14  1  0.192060  0.942414  0.615043  1
  I  I15  1  0.692063  0.442402  0.615055  1
  O  O16  1  0.469687  0.719657  0.060755  1
  O  O17  1  0.969582  0.219822  0.060753  1
  O  O18  1  0.030431  0.780280  0.939247  1
  O  O19  1  0.530256  0.280152  0.939237  1
  O  O20  1  0.847378  0.597331  0.805770  1
  O  O21  1  0.347411  0.097313  0.805745  1
  O  O22  1  0.347477  0.597441  0.805763  1
  O  O23  1  0.847513  0.097469  0.805740  1
  O  O24  1  0.152499  0.902544  0.194232  1
  O  O25  1  0.652513  0.402556  0.194266  1
  O  O26  1  0.652591  0.902707  0.194229  1
  O  O27  1  0.152607  0.402665  0.194253  1
