# generated using pymatgen
data_Yb2Co5Si4Ir
_symmetry_space_group_name_H-M   'P 1'
_cell_length_a   6.37174573
_cell_length_b   6.37174560
_cell_length_c   6.36736754
_cell_angle_alpha   130.91420935
_cell_angle_beta   115.26107809
_cell_angle_gamma   85.35803542
_symmetry_Int_Tables_number   1
_chemical_formula_structural   Yb2Co5Si4Ir
_chemical_formula_sum   'Yb2 Co5 Si4 Ir1'
_cell_volume   169.05158115
_cell_formula_units_Z   1
loop_
 _symmetry_equiv_pos_site_id
 _symmetry_equiv_pos_as_xyz
  1  'x, y, z'
loop_
 _atom_site_type_symbol
 _atom_site_label
 _atom_site_symmetry_multiplicity
 _atom_site_fract_x
 _atom_site_fract_y
 _atom_site_fract_z
 _atom_site_occupancy
  Yb  Yb0  1  0.250028  0.534471  0.284500  1
  Yb  Yb1  1  0.749972  0.465529  0.715500  1
  Co  Co2  1  0.722626  0.009342  0.721512  1
  Co  Co3  1  0.212171  0.498886  0.721512  1
  Co  Co4  1  0.277374  0.990658  0.278488  1
  Co  Co5  1  0.787829  0.501114  0.278488  1
  Co  Co6  1  0.000000  0.000000  0.500000  1
  Si  Si7  1  0.067368  0.873318  0.795684  1
  Si  Si8  1  0.932632  0.126682  0.204316  1
  Si  Si9  1  0.577634  0.771684  0.204316  1
  Si  Si10  1  0.422366  0.228316  0.795684  1
  Ir  Ir11  1  0.500000  0.000000  0.000000  1
