# generated using pymatgen
data_Tb11CeTc4
_symmetry_space_group_name_H-M   'P 1'
_cell_length_a   6.32155000
_cell_length_b   7.43891993
_cell_length_c   9.33923200
_cell_angle_alpha   90.00000000
_cell_angle_beta   90.00000000
_cell_angle_gamma   90.55335515
_symmetry_Int_Tables_number   1
_chemical_formula_structural   Tb11CeTc4
_chemical_formula_sum   'Tb11 Ce1 Tc4'
_cell_volume   439.16161222
_cell_formula_units_Z   1
loop_
 _symmetry_equiv_pos_site_id
 _symmetry_equiv_pos_as_xyz
  1  'x, y, z'
loop_
 _atom_site_type_symbol
 _atom_site_label
 _atom_site_symmetry_multiplicity
 _atom_site_fract_x
 _atom_site_fract_y
 _atom_site_fract_z
 _atom_site_occupancy
  Tb  Tb0  1  0.335228  0.674065  0.061288  1
  Tb  Tb1  1  0.162808  0.175930  0.437562  1
  Tb  Tb2  1  0.666972  0.324440  0.565866  1
  Tb  Tb3  1  0.833070  0.825464  0.932335  1
  Tb  Tb4  1  0.666972  0.324440  0.934134  1
  Tb  Tb5  1  0.833070  0.825464  0.567665  1
  Tb  Tb6  1  0.335228  0.674065  0.438712  1
  Tb  Tb7  1  0.162808  0.175930  0.062438  1
  Tb  Tb8  1  0.626533  0.043725  0.250000  1
  Tb  Tb9  1  0.129120  0.457254  0.750000  1
  Tb  Tb10  1  0.370840  0.957668  0.750000  1
  Ce  Ce11  1  0.854932  0.561935  0.250000  1
  Tc  Tc12  1  0.013387  0.857372  0.250000  1
  Tc  Tc13  1  0.508497  0.394116  0.250000  1
  Tc  Tc14  1  0.966108  0.115034  0.750000  1
  Tc  Tc15  1  0.534427  0.613100  0.750000  1
