# generated using pymatgen
data_Hf3Fe4Si2MoP2
_symmetry_space_group_name_H-M   'P 1'
_cell_length_a   3.75385800
_cell_length_b   6.22708000
_cell_length_c   7.03130643
_cell_angle_alpha   90.41501201
_cell_angle_beta   90.00000000
_cell_angle_gamma   90.00000000
_symmetry_Int_Tables_number   1
_chemical_formula_structural   Hf3Fe4Si2MoP2
_chemical_formula_sum   'Hf3 Fe4 Si2 Mo1 P2'
_cell_volume   164.35651253
_cell_formula_units_Z   1
loop_
 _symmetry_equiv_pos_site_id
 _symmetry_equiv_pos_as_xyz
  1  'x, y, z'
loop_
 _atom_site_type_symbol
 _atom_site_label
 _atom_site_symmetry_multiplicity
 _atom_site_fract_x
 _atom_site_fract_y
 _atom_site_fract_z
 _atom_site_occupancy
  Hf  Hf0  1  0.750000  0.490261  0.315777  1
  Hf  Hf1  1  0.250000  0.016692  0.810055  1
  Hf  Hf2  1  0.750000  0.984099  0.192188  1
  Fe  Fe3  1  0.750000  0.853898  0.563830  1
  Fe  Fe4  1  0.250000  0.148913  0.431179  1
  Fe  Fe5  1  0.750000  0.341085  0.944880  1
  Fe  Fe6  1  0.250000  0.648005  0.062022  1
  Si  Si7  1  0.750000  0.702948  0.875097  1
  Si  Si8  1  0.750000  0.229694  0.616396  1
  Mo  Mo9  1  0.250000  0.518488  0.673712  1
  P  P10  1  0.250000  0.284128  0.117396  1
  P  P11  1  0.250000  0.781791  0.397468  1
