# generated using pymatgen
data_Tb2Hf(ScGa2)2
_symmetry_space_group_name_H-M   'P 1'
_cell_length_a   7.23351954
_cell_length_b   7.55599540
_cell_length_c   14.41764128
_cell_angle_alpha   90.00043913
_cell_angle_beta   89.97734337
_cell_angle_gamma   89.96244507
_symmetry_Int_Tables_number   1
_chemical_formula_structural   Tb2Hf(ScGa2)2
_chemical_formula_sum   'Tb8 Hf4 Sc8 Ga16'
_cell_volume   788.01671960
_cell_formula_units_Z   4
loop_
 _symmetry_equiv_pos_site_id
 _symmetry_equiv_pos_as_xyz
  1  'x, y, z'
loop_
 _atom_site_type_symbol
 _atom_site_label
 _atom_site_symmetry_multiplicity
 _atom_site_fract_x
 _atom_site_fract_y
 _atom_site_fract_z
 _atom_site_occupancy
  Tb  Tb0  1  0.011172  0.176887  0.094052  1
  Tb  Tb1  1  0.988711  0.822808  0.905721  1
  Tb  Tb2  1  0.489055  0.676264  0.905268  1
  Tb  Tb3  1  0.988608  0.823783  0.594049  1
  Tb  Tb4  1  0.510540  0.323943  0.094400  1
  Tb  Tb5  1  0.011113  0.175755  0.406123  1
  Tb  Tb6  1  0.510519  0.325151  0.405556  1
  Tb  Tb7  1  0.489241  0.676214  0.594341  1
  Hf  Hf8  1  0.329066  0.174375  0.624614  1
  Hf  Hf9  1  0.670952  0.823814  0.376508  1
  Hf  Hf10  1  0.170971  0.674646  0.377149  1
  Hf  Hf11  1  0.670296  0.827261  0.123701  1
  Sc  Sc12  1  0.162800  0.503575  0.750265  1
  Sc  Sc13  1  0.837995  0.496614  0.249735  1
  Sc  Sc14  1  0.337915  0.002956  0.249925  1
  Sc  Sc15  1  0.662703  0.996985  0.750399  1
  Sc  Sc16  1  0.828761  0.324947  0.623295  1
  Sc  Sc17  1  0.329138  0.173780  0.875819  1
  Sc  Sc18  1  0.828734  0.326820  0.876344  1
  Sc  Sc19  1  0.171300  0.674046  0.122732  1
  Ga  Ga20  1  0.032657  0.118488  0.748601  1
  Ga  Ga21  1  0.967024  0.879024  0.250999  1
  Ga  Ga22  1  0.468812  0.621670  0.251269  1
  Ga  Ga23  1  0.530437  0.380994  0.749006  1
  Ga  Ga24  1  0.285296  0.875238  0.748478  1
  Ga  Ga25  1  0.714743  0.123053  0.250477  1
  Ga  Ga26  1  0.215006  0.375287  0.251607  1
  Ga  Ga27  1  0.784559  0.626612  0.749576  1
  Ga  Ga28  1  0.162773  0.462946  0.539687  1
  Ga  Ga29  1  0.840202  0.539524  0.458068  1
  Ga  Ga30  1  0.339692  0.962380  0.459438  1
  Ga  Ga31  1  0.837898  0.538208  0.041545  1
  Ga  Ga32  1  0.658364  0.035811  0.539825  1
  Ga  Ga33  1  0.160440  0.463638  0.959367  1
  Ga  Ga34  1  0.660263  0.034222  0.960430  1
  Ga  Ga35  1  0.342244  0.962282  0.041633  1
