# generated using pymatgen
data_Tb7Dy(HoIn5)4
_symmetry_space_group_name_H-M   'P 1'
_cell_length_a   6.52492106
_cell_length_b   10.43445198
_cell_length_c   12.29427500
_cell_angle_alpha   89.95863066
_cell_angle_beta   90.00795565
_cell_angle_gamma   90.01267902
_symmetry_Int_Tables_number   1
_chemical_formula_structural   Tb7Dy(HoIn5)4
_chemical_formula_sum   'Tb7 Dy1 Ho4 In20'
_cell_volume   837.04287082
_cell_formula_units_Z   1
loop_
 _symmetry_equiv_pos_site_id
 _symmetry_equiv_pos_as_xyz
  1  'x, y, z'
loop_
 _atom_site_type_symbol
 _atom_site_label
 _atom_site_symmetry_multiplicity
 _atom_site_fract_x
 _atom_site_fract_y
 _atom_site_fract_z
 _atom_site_occupancy
  Tb  Tb0  1  0.890130  0.492739  0.142009  1
  Tb  Tb1  1  0.609688  0.007286  0.642078  1
  Tb  Tb2  1  0.109690  0.992889  0.858002  1
  Tb  Tb3  1  0.390069  0.507363  0.357923  1
  Tb  Tb4  1  0.109818  0.507299  0.857732  1
  Tb  Tb5  1  0.390198  0.992626  0.358060  1
  Tb  Tb6  1  0.890183  0.007256  0.141894  1
  Dy  Dy7  1  0.609787  0.492627  0.642228  1
  Ho  Ho8  1  0.350120  0.749828  0.055803  1
  Ho  Ho9  1  0.150071  0.749922  0.555794  1
  Ho  Ho10  1  0.650086  0.250089  0.944091  1
  Ho  Ho11  1  0.850267  0.250096  0.444351  1
  In  In12  1  0.616581  0.749605  0.505936  1
  In  In13  1  0.883887  0.750043  0.005156  1
  In  In14  1  0.383938  0.249948  0.494486  1
  In  In15  1  0.116500  0.250080  0.994778  1
  In  In16  1  0.651780  0.750131  0.245006  1
  In  In17  1  0.847911  0.750214  0.744731  1
  In  In18  1  0.348238  0.249823  0.755007  1
  In  In19  1  0.151539  0.249981  0.255028  1
  In  In20  1  0.123526  0.750069  0.283334  1
  In  In21  1  0.376114  0.750301  0.783612  1
  In  In22  1  0.875958  0.250061  0.716346  1
  In  In23  1  0.623680  0.249921  0.216678  1
  In  In24  1  0.874130  0.543645  0.401101  1
  In  In25  1  0.624882  0.956427  0.901302  1
  In  In26  1  0.125094  0.043673  0.598993  1
  In  In27  1  0.374887  0.456150  0.098846  1
  In  In28  1  0.126021  0.456209  0.598818  1
  In  In29  1  0.375183  0.043708  0.098944  1
  In  In30  1  0.874814  0.956279  0.400895  1
  In  In31  1  0.625226  0.543707  0.901036  1
