# generated using pymatgen
data_Ba4LaNp2O12
_symmetry_space_group_name_H-M   'P 1'
_cell_length_a   10.59363360
_cell_length_b   10.59363375
_cell_length_c   10.59363500
_cell_angle_alpha   33.60598638
_cell_angle_beta   33.60598514
_cell_angle_gamma   33.60599012
_symmetry_Int_Tables_number   1
_chemical_formula_structural   Ba4LaNp2O12
_chemical_formula_sum   'Ba4 La1 Np2 O12'
_cell_volume   324.42496667
_cell_formula_units_Z   1
loop_
 _symmetry_equiv_pos_site_id
 _symmetry_equiv_pos_as_xyz
  1  'x, y, z'
loop_
 _atom_site_type_symbol
 _atom_site_label
 _atom_site_symmetry_multiplicity
 _atom_site_fract_x
 _atom_site_fract_y
 _atom_site_fract_z
 _atom_site_occupancy
  Ba  Ba0  1  0.719584  0.719584  0.719584  1
  Ba  Ba1  1  0.280416  0.280416  0.280416  1
  Ba  Ba2  1  0.860656  0.860656  0.860656  1
  Ba  Ba3  1  0.139344  0.139344  0.139344  1
  La  La4  1  0.000000  0.000000  0.000000  1
  Np  Np5  1  0.578117  0.578117  0.578117  1
  Np  Np6  1  0.421883  0.421883  0.421883  1
  O  O7  1  0.223742  0.693874  0.223742  1
  O  O8  1  0.223742  0.223742  0.693874  1
  O  O9  1  0.693874  0.223742  0.223742  1
  O  O10  1  0.776258  0.306126  0.776258  1
  O  O11  1  0.776258  0.776258  0.306126  1
  O  O12  1  0.306126  0.776258  0.776258  1
  O  O13  1  0.378999  0.874287  0.378999  1
  O  O14  1  0.378999  0.378999  0.874287  1
  O  O15  1  0.874287  0.378999  0.378999  1
  O  O16  1  0.621001  0.125713  0.621001  1
  O  O17  1  0.621001  0.621001  0.125713  1
  O  O18  1  0.125713  0.621001  0.621001  1
