# generated using pymatgen
data_BaYb2Cu2Pt7
_symmetry_space_group_name_H-M   'P 1'
_cell_length_a   9.12847213
_cell_length_b   9.12847258
_cell_length_c   9.12847200
_cell_angle_alpha   34.86409912
_cell_angle_beta   34.86409504
_cell_angle_gamma   34.86409880
_symmetry_Int_Tables_number   1
_chemical_formula_structural   BaYb2Cu2Pt7
_chemical_formula_sum   'Ba1 Yb2 Cu2 Pt7'
_cell_volume   221.88088127
_cell_formula_units_Z   1
loop_
 _symmetry_equiv_pos_site_id
 _symmetry_equiv_pos_as_xyz
  1  'x, y, z'
loop_
 _atom_site_type_symbol
 _atom_site_label
 _atom_site_symmetry_multiplicity
 _atom_site_fract_x
 _atom_site_fract_y
 _atom_site_fract_z
 _atom_site_occupancy
  Ba  Ba0  1  0.000000  0.000000  0.000000  1
  Yb  Yb1  1  0.858228  0.858228  0.858228  1
  Yb  Yb2  1  0.141772  0.141772  0.141772  1
  Cu  Cu3  1  0.666608  0.666608  0.666608  1
  Cu  Cu4  1  0.333392  0.333392  0.333392  1
  Pt  Pt5  1  0.414816  0.414816  0.921152  1
  Pt  Pt6  1  0.921152  0.414816  0.414816  1
  Pt  Pt7  1  0.414816  0.921152  0.414816  1
  Pt  Pt8  1  0.500000  0.500000  0.500000  1
  Pt  Pt9  1  0.585184  0.078848  0.585184  1
  Pt  Pt10  1  0.078848  0.585184  0.585184  1
  Pt  Pt11  1  0.585184  0.585184  0.078848  1
