# generated using pymatgen
data_Zr16Co4Tc3Ir
_symmetry_space_group_name_H-M   'P 1'
_cell_length_a   8.71288613
_cell_length_b   8.70358718
_cell_length_c   8.70358700
_cell_angle_alpha   59.99999690
_cell_angle_beta   60.03529541
_cell_angle_gamma   60.03529561
_symmetry_Int_Tables_number   1
_chemical_formula_structural   Zr16Co4Tc3Ir
_chemical_formula_sum   'Zr16 Co4 Tc3 Ir1'
_cell_volume   466.95504873
_cell_formula_units_Z   1
loop_
 _symmetry_equiv_pos_site_id
 _symmetry_equiv_pos_as_xyz
  1  'x, y, z'
loop_
 _atom_site_type_symbol
 _atom_site_label
 _atom_site_symmetry_multiplicity
 _atom_site_fract_x
 _atom_site_fract_y
 _atom_site_fract_z
 _atom_site_occupancy
  Zr  Zr0  1  0.052303  0.649233  0.649233  1
  Zr  Zr1  1  0.649096  0.051749  0.649578  1
  Zr  Zr2  1  0.649096  0.649578  0.051749  1
  Zr  Zr3  1  0.649096  0.649578  0.649578  1
  Zr  Zr4  1  0.797719  0.797797  0.202242  1
  Zr  Zr5  1  0.202216  0.202548  0.797618  1
  Zr  Zr6  1  0.797719  0.202242  0.797797  1
  Zr  Zr7  1  0.202216  0.797618  0.202548  1
  Zr  Zr8  1  0.202216  0.797618  0.797618  1
  Zr  Zr9  1  0.797719  0.202242  0.202242  1
  Zr  Zr10  1  0.435270  0.435237  0.064747  1
  Zr  Zr11  1  0.066534  0.062076  0.435695  1
  Zr  Zr12  1  0.435270  0.064747  0.435237  1
  Zr  Zr13  1  0.066534  0.435695  0.062076  1
  Zr  Zr14  1  0.066534  0.435695  0.435695  1
  Zr  Zr15  1  0.435270  0.064747  0.064747  1
  Co  Co16  1  0.420159  0.859947  0.859947  1
  Co  Co17  1  0.859298  0.420396  0.860152  1
  Co  Co18  1  0.859298  0.860152  0.420396  1
  Co  Co19  1  0.859298  0.860152  0.860152  1
  Tc  Tc20  1  0.417157  0.746733  0.418055  1
  Tc  Tc21  1  0.417157  0.418055  0.746733  1
  Tc  Tc22  1  0.417157  0.418055  0.418055  1
  Ir  Ir23  1  0.745667  0.418111  0.418111  1
