# generated using pymatgen
data_La4Pr5NdRu4
_symmetry_space_group_name_H-M   'P 1'
_cell_length_a   9.10502034
_cell_length_b   9.10502135
_cell_length_c   7.35056168
_cell_angle_alpha   84.45408475
_cell_angle_beta   84.45407523
_cell_angle_gamma   43.12051466
_symmetry_Int_Tables_number   1
_chemical_formula_structural   La4Pr5NdRu4
_chemical_formula_sum   'La4 Pr5 Nd1 Ru4'
_cell_volume   414.27214625
_cell_formula_units_Z   1
loop_
 _symmetry_equiv_pos_site_id
 _symmetry_equiv_pos_as_xyz
  1  'x, y, z'
loop_
 _atom_site_type_symbol
 _atom_site_label
 _atom_site_symmetry_multiplicity
 _atom_site_fract_x
 _atom_site_fract_y
 _atom_site_fract_z
 _atom_site_occupancy
  La  La0  1  0.017212  0.794780  0.904922  1
  La  La1  1  0.205220  0.982788  0.595078  1
  La  La2  1  0.982853  0.205125  0.095257  1
  La  La3  1  0.794875  0.017147  0.404743  1
  Pr  Pr4  1  0.361727  0.208002  0.815938  1
  Pr  Pr5  1  0.791998  0.638273  0.684062  1
  Pr  Pr6  1  0.638149  0.791950  0.184122  1
  Pr  Pr7  1  0.208050  0.361851  0.315878  1
  Pr  Pr8  1  0.574929  0.425071  0.750000  1
  Nd  Nd9  1  0.425380  0.574620  0.250000  1
  Ru  Ru10  1  0.165427  0.611845  0.585698  1
  Ru  Ru11  1  0.388155  0.834573  0.914302  1
  Ru  Ru12  1  0.834367  0.388342  0.413926  1
  Ru  Ru13  1  0.611658  0.165633  0.086074  1
