# generated using pymatgen
data_TmCo(Sn2Ru)3
_symmetry_space_group_name_H-M   'P 1'
_cell_length_a   6.96748335
_cell_length_b   6.86636879
_cell_length_c   6.85621914
_cell_angle_alpha   120.22505794
_cell_angle_beta   120.71268691
_cell_angle_gamma   89.70030374
_symmetry_Int_Tables_number   1
_chemical_formula_structural   TmCo(Sn2Ru)3
_chemical_formula_sum   'Tm1 Co1 Sn6 Ru3'
_cell_volume   229.23319608
_cell_formula_units_Z   1
loop_
 _symmetry_equiv_pos_site_id
 _symmetry_equiv_pos_as_xyz
  1  'x, y, z'
loop_
 _atom_site_type_symbol
 _atom_site_label
 _atom_site_symmetry_multiplicity
 _atom_site_fract_x
 _atom_site_fract_y
 _atom_site_fract_z
 _atom_site_occupancy
  Tm  Tm0  1  0.985576  0.016833  0.000000  1
  Co  Co1  1  0.407948  0.747037  0.000000  1
  Sn  Sn2  1  0.465264  0.107154  0.000000  1
  Sn  Sn3  1  0.120912  0.467587  0.000000  1
  Sn  Sn4  1  0.878134  0.879543  0.343349  1
  Sn  Sn5  1  0.534784  0.536193  0.656651  1
  Sn  Sn6  1  0.007995  0.511503  0.516799  1
  Sn  Sn7  1  0.491195  0.994703  0.483201  1
  Ru  Ru8  1  0.756529  0.392948  0.000000  1
  Ru  Ru9  1  0.254885  0.252303  0.658109  1
  Ru  Ru10  1  0.596776  0.594194  0.341891  1
