# generated using pymatgen
data_KSc(ReH9)2
_symmetry_space_group_name_H-M   'P 1'
_cell_length_a   5.14275378
_cell_length_b   5.14276106
_cell_length_c   8.76220000
_cell_angle_alpha   93.42765093
_cell_angle_beta   86.56530157
_cell_angle_gamma   125.50171709
_symmetry_Int_Tables_number   1
_chemical_formula_structural   KSc(ReH9)2
_chemical_formula_sum   'K1 Sc1 Re2 H18'
_cell_volume   188.23294109
_cell_formula_units_Z   1
loop_
 _symmetry_equiv_pos_site_id
 _symmetry_equiv_pos_as_xyz
  1  'x, y, z'
loop_
 _atom_site_type_symbol
 _atom_site_label
 _atom_site_symmetry_multiplicity
 _atom_site_fract_x
 _atom_site_fract_y
 _atom_site_fract_z
 _atom_site_occupancy
  K  K0  1  0.000000  0.000000  0.000000  1
  Sc  Sc1  1  0.000000  0.000000  0.500000  1
  Re  Re2  1  0.338295  0.661156  0.706089  1
  Re  Re3  1  0.661705  0.338844  0.293911  1
  H  H4  1  0.386880  0.612449  0.515103  1
  H  H5  1  0.613120  0.387551  0.484897  1
  H  H6  1  0.420362  0.579371  0.870501  1
  H  H7  1  0.579638  0.420629  0.129499  1
  H  H8  1  0.471789  0.964472  0.836803  1
  H  H9  1  0.964934  0.472170  0.163089  1
  H  H10  1  0.606699  0.023431  0.635336  1
  H  H11  1  0.024059  0.607305  0.364593  1
  H  H12  1  0.528211  0.035528  0.163197  1
  H  H13  1  0.035066  0.527830  0.836911  1
  H  H14  1  0.393301  0.976569  0.364664  1
  H  H15  1  0.975941  0.392695  0.635407  1
  H  H16  1  0.709342  0.728246  0.697564  1
  H  H17  1  0.728581  0.709810  0.302384  1
  H  H18  1  0.290658  0.271754  0.302436  1
  H  H19  1  0.271419  0.290190  0.697616  1
  H  H20  1  0.154085  0.845547  0.672805  1
  H  H21  1  0.845915  0.154453  0.327195  1
