# generated using pymatgen
data_LaPr5Zn4Pd12Rh
_symmetry_space_group_name_H-M   'P 1'
_cell_length_a   8.41042201
_cell_length_b   8.41055366
_cell_length_c   8.41055433
_cell_angle_alpha   110.01967600
_cell_angle_beta   109.19851594
_cell_angle_gamma   109.19851944
_symmetry_Int_Tables_number   1
_chemical_formula_structural   LaPr5Zn4Pd12Rh
_chemical_formula_sum   'La1 Pr5 Zn4 Pd12 Rh1'
_cell_volume   457.93770823
_cell_formula_units_Z   1
loop_
 _symmetry_equiv_pos_site_id
 _symmetry_equiv_pos_as_xyz
  1  'x, y, z'
loop_
 _atom_site_type_symbol
 _atom_site_label
 _atom_site_symmetry_multiplicity
 _atom_site_fract_x
 _atom_site_fract_y
 _atom_site_fract_z
 _atom_site_occupancy
  La  La0  1  0.999984  0.704075  0.704075  1
  Pr  Pr1  1  0.701325  0.701800  0.000479  1
  Pr  Pr2  1  0.298686  0.000484  0.299162  1
  Pr  Pr3  1  0.000007  0.296218  0.296218  1
  Pr  Pr4  1  0.298686  0.299162  0.000484  1
  Pr  Pr5  1  0.701325  0.000479  0.701800  1
  Zn  Zn6  1  0.000001  0.000766  0.499138  1
  Zn  Zn7  1  0.000001  0.499138  0.000766  1
  Zn  Zn8  1  0.501631  0.000766  0.000766  1
  Zn  Zn9  1  0.498372  0.499139  0.499139  1
  Pd  Pd10  1  0.331558  0.331658  0.663215  1
  Pd  Pd11  1  0.668442  0.000101  0.331659  1
  Pd  Pd12  1  0.000000  0.668538  0.331755  1
  Pd  Pd13  1  0.668442  0.331659  0.000101  1
  Pd  Pd14  1  0.331558  0.663215  0.331658  1
  Pd  Pd15  1  0.000000  0.331755  0.668538  1
  Pd  Pd16  1  0.331736  0.668385  0.000124  1
  Pd  Pd17  1  0.331736  0.000124  0.668385  1
  Pd  Pd18  1  0.663217  0.331755  0.331755  1
  Pd  Pd19  1  0.668261  0.668386  0.336644  1
  Pd  Pd20  1  0.668261  0.336644  0.668386  1
  Pd  Pd21  1  0.336780  0.668538  0.668538  1
  Rh  Rh22  1  0.999992  0.997218  0.997218  1
