# generated using pymatgen
data_La5Dy(Sn3Hg2)2
_symmetry_space_group_name_H-M   'P 1'
_cell_length_a   6.68342557
_cell_length_b   6.68342606
_cell_length_c   10.50512300
_cell_angle_alpha   90.00000000
_cell_angle_beta   90.00000000
_cell_angle_gamma   102.91774940
_symmetry_Int_Tables_number   1
_chemical_formula_structural   La5Dy(Sn3Hg2)2
_chemical_formula_sum   'La5 Dy1 Sn6 Hg4'
_cell_volume   457.36908035
_cell_formula_units_Z   1
loop_
 _symmetry_equiv_pos_site_id
 _symmetry_equiv_pos_as_xyz
  1  'x, y, z'
loop_
 _atom_site_type_symbol
 _atom_site_label
 _atom_site_symmetry_multiplicity
 _atom_site_fract_x
 _atom_site_fract_y
 _atom_site_fract_z
 _atom_site_occupancy
  La  La0  1  0.373966  0.373966  0.750000  1
  La  La1  1  0.205298  0.795257  0.499472  1
  La  La2  1  0.205298  0.795257  0.000528  1
  La  La3  1  0.795257  0.205298  0.499472  1
  La  La4  1  0.795257  0.205298  0.000528  1
  Dy  Dy5  1  0.631553  0.631553  0.250000  1
  Sn  Sn6  1  0.014472  0.014472  0.250000  1
  Sn  Sn7  1  0.980731  0.980731  0.750000  1
  Sn  Sn8  1  0.489732  0.061159  0.250000  1
  Sn  Sn9  1  0.930871  0.512486  0.750000  1
  Sn  Sn10  1  0.512486  0.930871  0.750000  1
  Sn  Sn11  1  0.061159  0.489732  0.250000  1
  Hg  Hg12  1  0.315276  0.315276  0.048494  1
  Hg  Hg13  1  0.686683  0.686683  0.961258  1
  Hg  Hg14  1  0.315276  0.315276  0.451506  1
  Hg  Hg15  1  0.686683  0.686683  0.538742  1
