# generated using pymatgen
data_CaCe(Ga2Ag)2
_symmetry_space_group_name_H-M   'P 1'
_cell_length_a   4.43709600
_cell_length_b   7.05837415
_cell_length_c   10.49553500
_cell_angle_alpha   89.53330008
_cell_angle_beta   90.00000000
_cell_angle_gamma   90.00000000
_symmetry_Int_Tables_number   1
_chemical_formula_structural   CaCe(Ga2Ag)2
_chemical_formula_sum   'Ca2 Ce2 Ga8 Ag4'
_cell_volume   328.69543671
_cell_formula_units_Z   2
loop_
 _symmetry_equiv_pos_site_id
 _symmetry_equiv_pos_as_xyz
  1  'x, y, z'
loop_
 _atom_site_type_symbol
 _atom_site_label
 _atom_site_symmetry_multiplicity
 _atom_site_fract_x
 _atom_site_fract_y
 _atom_site_fract_z
 _atom_site_occupancy
  Ca  Ca0  1  0.250000  0.777208  0.829433  1
  Ca  Ca1  1  0.750000  0.222792  0.170567  1
  Ce  Ce2  1  0.750000  0.717871  0.328344  1
  Ce  Ce3  1  0.250000  0.282129  0.671656  1
  Ga  Ga4  1  0.250000  0.924092  0.153537  1
  Ga  Ga5  1  0.750000  0.075908  0.846463  1
  Ga  Ga6  1  0.750000  0.577278  0.648556  1
  Ga  Ga7  1  0.250000  0.422722  0.351444  1
  Ga  Ga8  1  0.250000  0.706347  0.536693  1
  Ga  Ga9  1  0.750000  0.293653  0.463307  1
  Ga  Ga10  1  0.750000  0.803229  0.036712  1
  Ga  Ga11  1  0.250000  0.196771  0.963288  1
  Ag  Ag12  1  0.250000  0.540478  0.097115  1
  Ag  Ag13  1  0.750000  0.459522  0.902885  1
  Ag  Ag14  1  0.750000  0.958705  0.598847  1
  Ag  Ag15  1  0.250000  0.041295  0.401153  1
