# generated using pymatgen
data_Hf16Tc3Ni4Hg
_symmetry_space_group_name_H-M   'P 1'
_cell_length_a   8.70225282
_cell_length_b   8.70225220
_cell_length_c   8.70225316
_cell_angle_alpha   60.06203507
_cell_angle_beta   60.06203792
_cell_angle_gamma   60.06203533
_symmetry_Int_Tables_number   1
_chemical_formula_structural   Hf16Tc3Ni4Hg
_chemical_formula_sum   'Hf16 Tc3 Ni4 Hg1'
_cell_volume   466.64890389
_cell_formula_units_Z   1
loop_
 _symmetry_equiv_pos_site_id
 _symmetry_equiv_pos_as_xyz
  1  'x, y, z'
loop_
 _atom_site_type_symbol
 _atom_site_label
 _atom_site_symmetry_multiplicity
 _atom_site_fract_x
 _atom_site_fract_y
 _atom_site_fract_z
 _atom_site_occupancy
  Hf  Hf0  1  0.691626  0.100753  0.100753  1
  Hf  Hf1  1  0.100753  0.691626  0.100753  1
  Hf  Hf2  1  0.100753  0.100753  0.691626  1
  Hf  Hf3  1  0.103312  0.103312  0.103312  1
  Hf  Hf4  1  0.315430  0.315430  0.698492  1
  Hf  Hf5  1  0.686245  0.686245  0.314593  1
  Hf  Hf6  1  0.315430  0.698492  0.315430  1
  Hf  Hf7  1  0.686245  0.314593  0.686245  1
  Hf  Hf8  1  0.698492  0.315430  0.315430  1
  Hf  Hf9  1  0.314593  0.686245  0.686245  1
  Hf  Hf10  1  0.951817  0.951817  0.547322  1
  Hf  Hf11  1  0.554353  0.554353  0.939880  1
  Hf  Hf12  1  0.951817  0.547322  0.951817  1
  Hf  Hf13  1  0.554353  0.939880  0.554353  1
  Hf  Hf14  1  0.547322  0.951817  0.951817  1
  Hf  Hf15  1  0.939880  0.554353  0.554353  1
  Tc  Tc16  1  0.992253  0.333378  0.333378  1
  Tc  Tc17  1  0.333378  0.992253  0.333378  1
  Tc  Tc18  1  0.333378  0.333378  0.992253  1
  Ni  Ni19  1  0.324044  0.890661  0.890661  1
  Ni  Ni20  1  0.890661  0.324044  0.890661  1
  Ni  Ni21  1  0.890661  0.890661  0.324044  1
  Ni  Ni22  1  0.891704  0.891704  0.891704  1
  Hg  Hg23  1  0.331499  0.331499  0.331499  1
