# generated using pymatgen
data_Y5Ho11Cd4OsPd3
_symmetry_space_group_name_H-M   'P 1'
_cell_length_a   9.69937086
_cell_length_b   9.69906653
_cell_length_c   9.69906641
_cell_angle_alpha   59.48491100
_cell_angle_beta   59.48582389
_cell_angle_gamma   59.48582304
_symmetry_Int_Tables_number   1
_chemical_formula_structural   Y5Ho11Cd4OsPd3
_chemical_formula_sum   'Y5 Ho11 Cd4 Os1 Pd3'
_cell_volume   637.64137228
_cell_formula_units_Z   1
loop_
 _symmetry_equiv_pos_site_id
 _symmetry_equiv_pos_as_xyz
  1  'x, y, z'
loop_
 _atom_site_type_symbol
 _atom_site_label
 _atom_site_symmetry_multiplicity
 _atom_site_fract_x
 _atom_site_fract_y
 _atom_site_fract_z
 _atom_site_occupancy
  Y  Y0  1  0.558430  0.937448  0.937448  1
  Y  Y1  1  0.566111  0.934730  0.565854  1
  Y  Y2  1  0.937400  0.558463  0.937201  1
  Y  Y3  1  0.566111  0.565854  0.934730  1
  Y  Y4  1  0.937400  0.937201  0.558463  1
  Ho  Ho5  1  0.353076  0.353394  0.353394  1
  Ho  Ho6  1  0.350442  0.350467  0.944733  1
  Ho  Ho7  1  0.350442  0.944733  0.350467  1
  Ho  Ho8  1  0.944728  0.350565  0.350565  1
  Ho  Ho9  1  0.816533  0.188311  0.188311  1
  Ho  Ho10  1  0.188077  0.810535  0.810535  1
  Ho  Ho11  1  0.188108  0.816469  0.188489  1
  Ho  Ho12  1  0.810617  0.188279  0.810435  1
  Ho  Ho13  1  0.188108  0.188489  0.816469  1
  Ho  Ho14  1  0.810617  0.810435  0.188279  1
  Ho  Ho15  1  0.935173  0.565737  0.565737  1
  Cd  Cd16  1  0.580645  0.580527  0.580527  1
  Cd  Cd17  1  0.581060  0.581077  0.254155  1
  Cd  Cd18  1  0.581060  0.254155  0.581077  1
  Cd  Cd19  1  0.253930  0.581108  0.581108  1
  Os  Os20  1  0.143874  0.143870  0.143870  1
  Pd  Pd21  1  0.144524  0.144665  0.568946  1
  Pd  Pd22  1  0.144524  0.568946  0.144665  1
  Pd  Pd23  1  0.569007  0.144541  0.144541  1
