# generated using pymatgen
data_Er12Si12Ru3Pt
_symmetry_space_group_name_H-M   'P 1'
_cell_length_a   4.19715700
_cell_length_b   10.64254802
_cell_length_c   12.25157509
_cell_angle_alpha   90.08918617
_cell_angle_beta   90.00000000
_cell_angle_gamma   90.00000000
_symmetry_Int_Tables_number   1
_chemical_formula_structural   Er12Si12Ru3Pt
_chemical_formula_sum   'Er12 Si12 Ru3 Pt1'
_cell_volume   547.25814450
_cell_formula_units_Z   1
loop_
 _symmetry_equiv_pos_site_id
 _symmetry_equiv_pos_as_xyz
  1  'x, y, z'
loop_
 _atom_site_type_symbol
 _atom_site_label
 _atom_site_symmetry_multiplicity
 _atom_site_fract_x
 _atom_site_fract_y
 _atom_site_fract_z
 _atom_site_occupancy
  Er  Er0  1  0.250000  0.880072  0.021625  1
  Er  Er1  1  0.250000  0.621155  0.520391  1
  Er  Er2  1  0.750000  0.122079  0.981272  1
  Er  Er3  1  0.750000  0.381050  0.478218  1
  Er  Er4  1  0.250000  0.920278  0.604898  1
  Er  Er5  1  0.250000  0.579568  0.104187  1
  Er  Er6  1  0.750000  0.078521  0.396573  1
  Er  Er7  1  0.750000  0.420700  0.895646  1
  Er  Er8  1  0.250000  0.660123  0.799709  1
  Er  Er9  1  0.250000  0.838311  0.299183  1
  Er  Er10  1  0.750000  0.339049  0.200209  1
  Er  Er11  1  0.750000  0.161836  0.698084  1
  Si  Si12  1  0.250000  0.017685  0.823911  1
  Si  Si13  1  0.250000  0.488122  0.321418  1
  Si  Si14  1  0.750000  0.988790  0.179013  1
  Si  Si15  1  0.750000  0.510094  0.678972  1
  Si  Si16  1  0.250000  0.250197  0.839947  1
  Si  Si17  1  0.250000  0.249122  0.340570  1
  Si  Si18  1  0.750000  0.750087  0.159042  1
  Si  Si19  1  0.750000  0.747004  0.655764  1
  Si  Si20  1  0.250000  0.202690  0.542568  1
  Si  Si21  1  0.250000  0.299473  0.043739  1
  Si  Si22  1  0.750000  0.801021  0.456034  1
  Si  Si23  1  0.750000  0.694992  0.958771  1
  Ru  Ru24  1  0.250000  0.391172  0.679748  1
  Ru  Ru25  1  0.250000  0.107890  0.179633  1
  Ru  Ru26  1  0.750000  0.609495  0.320043  1
  Pt  Pt27  1  0.750000  0.889426  0.820833  1
