# generated using pymatgen
data_Mn3Zn4Mo3N2
_symmetry_space_group_name_H-M   'P 1'
_cell_length_a   6.72956634
_cell_length_b   6.69302900
_cell_length_c   6.60050017
_cell_angle_alpha   90.00000000
_cell_angle_beta   89.90573569
_cell_angle_gamma   90.00000000
_symmetry_Int_Tables_number   1
_chemical_formula_structural   Mn3Zn4Mo3N2
_chemical_formula_sum   'Mn6 Zn8 Mo6 N4'
_cell_volume   297.29393163
_cell_formula_units_Z   2
loop_
 _symmetry_equiv_pos_site_id
 _symmetry_equiv_pos_as_xyz
  1  'x, y, z'
loop_
 _atom_site_type_symbol
 _atom_site_label
 _atom_site_symmetry_multiplicity
 _atom_site_fract_x
 _atom_site_fract_y
 _atom_site_fract_z
 _atom_site_occupancy
  Mn  Mn0  1  0.454761  0.124070  0.208353  1
  Mn  Mn1  1  0.545239  0.624070  0.291647  1
  Mn  Mn2  1  0.377232  0.792128  0.957442  1
  Mn  Mn3  1  0.870672  0.706757  0.042575  1
  Mn  Mn4  1  0.129328  0.206757  0.457425  1
  Mn  Mn5  1  0.622768  0.292128  0.542558  1
  Zn  Zn6  1  0.184954  0.820618  0.321439  1
  Zn  Zn7  1  0.320786  0.175282  0.824577  1
  Zn  Zn8  1  0.815046  0.320618  0.178561  1
  Zn  Zn9  1  0.679214  0.675282  0.675423  1
  Zn  Zn10  1  0.567371  0.431474  0.928542  1
  Zn  Zn11  1  0.432629  0.931474  0.571458  1
  Zn  Zn12  1  0.928837  0.572244  0.422703  1
  Zn  Zn13  1  0.071163  0.072244  0.077297  1
  Mo  Mo14  1  0.789877  0.957835  0.366241  1
  Mo  Mo15  1  0.710302  0.036401  0.880771  1
  Mo  Mo16  1  0.210123  0.457835  0.133759  1
  Mo  Mo17  1  0.289698  0.536401  0.619229  1
  Mo  Mo18  1  0.962809  0.378140  0.789635  1
  Mo  Mo19  1  0.037191  0.878140  0.710365  1
  N  N20  1  0.872169  0.141403  0.608496  1
  N  N21  1  0.611165  0.863648  0.124955  1
  N  N22  1  0.127831  0.641403  0.891504  1
  N  N23  1  0.388835  0.363648  0.375045  1
