# generated using pymatgen
data_Ho2LuGa6(CuNi2)3
_symmetry_space_group_name_H-M   'P 1'
_cell_length_a   4.04367000
_cell_length_b   8.84991912
_cell_length_c   8.89237677
_cell_angle_alpha   119.84217847
_cell_angle_beta   90.00000000
_cell_angle_gamma   90.00000000
_symmetry_Int_Tables_number   1
_chemical_formula_structural   Ho2LuGa6(CuNi2)3
_chemical_formula_sum   'Ho2 Lu1 Ga6 Cu3 Ni6'
_cell_volume   276.02725418
_cell_formula_units_Z   1
loop_
 _symmetry_equiv_pos_site_id
 _symmetry_equiv_pos_as_xyz
  1  'x, y, z'
loop_
 _atom_site_type_symbol
 _atom_site_label
 _atom_site_symmetry_multiplicity
 _atom_site_fract_x
 _atom_site_fract_y
 _atom_site_fract_z
 _atom_site_occupancy
  Ho  Ho0  1  0.500000  0.333135  0.666182  1
  Ho  Ho1  1  0.500000  0.666954  0.333818  1
  Lu  Lu2  1  0.000000  0.998449  0.000000  1
  Ga  Ga3  1  0.000000  0.515174  0.000000  1
  Ga  Ga4  1  0.000000  0.485857  0.484339  1
  Ga  Ga5  1  0.000000  0.001518  0.515661  1
  Ga  Ga6  1  0.500000  0.277521  0.000000  1
  Ga  Ga7  1  0.500000  0.721633  0.722280  1
  Ga  Ga8  1  0.500000  0.999352  0.277720  1
  Cu  Cu9  1  0.500000  0.708633  0.000000  1
  Cu  Cu10  1  0.500000  0.292502  0.292017  1
  Cu  Cu11  1  0.500000  0.000484  0.707983  1
  Ni  Ni12  1  0.000000  0.174479  0.368013  1
  Ni  Ni13  1  0.000000  0.194832  0.825414  1
  Ni  Ni14  1  0.000000  0.628259  0.803027  1
  Ni  Ni15  1  0.000000  0.806468  0.631987  1
  Ni  Ni16  1  0.000000  0.369418  0.174586  1
  Ni  Ni17  1  0.000000  0.825233  0.196973  1
