# generated using pymatgen
data_U4Mn4(ReGe2)3
_symmetry_space_group_name_H-M   'P 1'
_cell_length_a   7.10716223
_cell_length_b   7.11078597
_cell_length_c   7.11078600
_cell_angle_alpha   109.79917535
_cell_angle_beta   109.31772202
_cell_angle_gamma   109.31772649
_symmetry_Int_Tables_number   1
_chemical_formula_structural   U4Mn4(ReGe2)3
_chemical_formula_sum   'U4 Mn4 Re3 Ge6'
_cell_volume   276.56006935
_cell_formula_units_Z   1
loop_
 _symmetry_equiv_pos_site_id
 _symmetry_equiv_pos_as_xyz
  1  'x, y, z'
loop_
 _atom_site_type_symbol
 _atom_site_label
 _atom_site_symmetry_multiplicity
 _atom_site_fract_x
 _atom_site_fract_y
 _atom_site_fract_z
 _atom_site_occupancy
  U  U0  1  0.500000  0.499881  0.500119  1
  U  U1  1  0.000000  0.999592  0.499513  1
  U  U2  1  0.500000  0.999881  0.000119  1
  U  U3  1  0.000000  0.500487  0.000408  1
  Mn  Mn4  1  0.750947  0.249750  0.501197  1
  Mn  Mn5  1  0.500000  0.251570  0.748430  1
  Mn  Mn6  1  0.500000  0.751570  0.248430  1
  Mn  Mn7  1  0.249053  0.498803  0.750250  1
  Re  Re8  1  0.747611  0.498229  0.249382  1
  Re  Re9  1  0.252389  0.750618  0.501771  1
  Re  Re10  1  0.000000  0.999785  0.000215  1
  Ge  Ge11  1  0.309716  0.315985  0.993732  1
  Ge  Ge12  1  0.000000  0.306808  0.318696  1
  Ge  Ge13  1  0.000000  0.681304  0.693192  1
  Ge  Ge14  1  0.690284  0.006268  0.684015  1
  Ge  Ge15  1  0.322465  0.005967  0.316497  1
  Ge  Ge16  1  0.677535  0.683503  0.994033  1
