# generated using pymatgen
data_Co2SnBi(Pt2O7)2
_symmetry_space_group_name_H-M   'P 1'
_cell_length_a   7.07668805
_cell_length_b   7.12253364
_cell_length_c   7.12345901
_cell_angle_alpha   60.72225158
_cell_angle_beta   60.21696604
_cell_angle_gamma   60.21270055
_symmetry_Int_Tables_number   1
_chemical_formula_structural   Co2SnBi(Pt2O7)2
_chemical_formula_sum   'Co2 Sn1 Bi1 Pt4 O14'
_cell_volume   256.07856410
_cell_formula_units_Z   1
loop_
 _symmetry_equiv_pos_site_id
 _symmetry_equiv_pos_as_xyz
  1  'x, y, z'
loop_
 _atom_site_type_symbol
 _atom_site_label
 _atom_site_symmetry_multiplicity
 _atom_site_fract_x
 _atom_site_fract_y
 _atom_site_fract_z
 _atom_site_occupancy
  Co  Co0  1  0.625000  0.125000  0.125000  1
  Co  Co1  1  0.125000  0.125000  0.125000  1
  Sn  Sn2  1  0.125000  0.625000  0.125000  1
  Bi  Bi3  1  0.125000  0.125000  0.625000  1
  Pt  Pt4  1  0.625000  0.625000  0.125000  1
  Pt  Pt5  1  0.625000  0.125000  0.625000  1
  Pt  Pt6  1  0.125000  0.625000  0.625000  1
  Pt  Pt7  1  0.625000  0.625000  0.625000  1
  O  O8  1  0.252562  0.266166  0.228709  1
  O  O9  1  0.997438  0.983834  0.021291  1
  O  O10  1  0.541776  0.965347  0.524538  1
  O  O11  1  0.280688  0.713610  0.281993  1
  O  O12  1  0.526291  0.536390  0.968007  1
  O  O13  1  0.966058  0.542558  0.525326  1
  O  O14  1  0.529070  0.969540  0.972320  1
  O  O15  1  0.968339  0.965347  0.524538  1
  O  O16  1  0.969312  0.536390  0.968007  1
  O  O17  1  0.720930  0.280460  0.277680  1
  O  O18  1  0.283942  0.707442  0.724674  1
  O  O19  1  0.708224  0.284653  0.725462  1
  O  O20  1  0.281661  0.284653  0.725462  1
  O  O21  1  0.723709  0.713610  0.281993  1
