# generated using pymatgen
data_Tm2ThFe9
_symmetry_space_group_name_H-M   'P 1'
_cell_length_a   8.69749197
_cell_length_b   8.69749207
_cell_length_c   8.69749175
_cell_angle_alpha   34.03524560
_cell_angle_beta   34.03524539
_cell_angle_gamma   34.03524762
_symmetry_Int_Tables_number   1
_chemical_formula_structural   Tm2ThFe9
_chemical_formula_sum   'Tm2 Th1 Fe9'
_cell_volume   183.73146387
_cell_formula_units_Z   1
loop_
 _symmetry_equiv_pos_site_id
 _symmetry_equiv_pos_as_xyz
  1  'x, y, z'
loop_
 _atom_site_type_symbol
 _atom_site_label
 _atom_site_symmetry_multiplicity
 _atom_site_fract_x
 _atom_site_fract_y
 _atom_site_fract_z
 _atom_site_occupancy
  Tm  Tm0  1  0.142823  0.142823  0.142823  1
  Tm  Tm1  1  0.857177  0.857177  0.857177  1
  Th  Th2  1  0.000000  0.000000  0.000000  1
  Fe  Fe3  1  0.332379  0.332379  0.332379  1
  Fe  Fe4  1  0.667621  0.667621  0.667621  1
  Fe  Fe5  1  0.500000  0.500000  0.500000  1
  Fe  Fe6  1  0.583451  0.083551  0.583448  1
  Fe  Fe7  1  0.583450  0.583450  0.083549  1
  Fe  Fe8  1  0.083551  0.583451  0.583448  1
  Fe  Fe9  1  0.916450  0.416550  0.416550  1
  Fe  Fe10  1  0.416549  0.416549  0.916452  1
  Fe  Fe11  1  0.416550  0.916450  0.416550  1
