# generated using pymatgen
data_Y2ReTcOs2
_symmetry_space_group_name_H-M   'P 1'
_cell_length_a   5.39559203
_cell_length_b   5.21661002
_cell_length_c   8.99897700
_cell_angle_alpha   90.00000000
_cell_angle_beta   90.00000000
_cell_angle_gamma   118.90862226
_symmetry_Int_Tables_number   1
_chemical_formula_structural   Y2ReTcOs2
_chemical_formula_sum   'Y4 Re2 Tc2 Os4'
_cell_volume   221.72930029
_cell_formula_units_Z   2
loop_
 _symmetry_equiv_pos_site_id
 _symmetry_equiv_pos_as_xyz
  1  'x, y, z'
loop_
 _atom_site_type_symbol
 _atom_site_label
 _atom_site_symmetry_multiplicity
 _atom_site_fract_x
 _atom_site_fract_y
 _atom_site_fract_z
 _atom_site_occupancy
  Y  Y0  1  0.327559  0.663780  0.436290  1
  Y  Y1  1  0.669486  0.334743  0.563329  1
  Y  Y2  1  0.669486  0.334743  0.936671  1
  Y  Y3  1  0.327559  0.663780  0.063710  1
  Re  Re4  1  0.833325  0.170076  0.250000  1
  Re  Re5  1  0.833325  0.663248  0.250000  1
  Tc  Tc6  1  0.172866  0.828784  0.750000  1
  Tc  Tc7  1  0.172866  0.344082  0.750000  1
  Os  Os8  1  0.991871  0.995935  0.501157  1
  Os  Os9  1  0.991871  0.995935  0.998843  1
  Os  Os10  1  0.352024  0.176012  0.250000  1
  Os  Os11  1  0.657764  0.828882  0.750000  1
