# generated using pymatgen
data_SrTb3Pt2(RhO7)2
_symmetry_space_group_name_H-M   'P 1'
_cell_length_a   7.30605600
_cell_length_b   7.31706078
_cell_length_c   7.31706126
_cell_angle_alpha   60.02265381
_cell_angle_beta   60.09753844
_cell_angle_gamma   60.09753926
_symmetry_Int_Tables_number   1
_chemical_formula_structural   SrTb3Pt2(RhO7)2
_chemical_formula_sum   'Sr1 Tb3 Pt2 Rh2 O14'
_cell_volume   277.04771873
_cell_formula_units_Z   1
loop_
 _symmetry_equiv_pos_site_id
 _symmetry_equiv_pos_as_xyz
  1  'x, y, z'
loop_
 _atom_site_type_symbol
 _atom_site_label
 _atom_site_symmetry_multiplicity
 _atom_site_fract_x
 _atom_site_fract_y
 _atom_site_fract_z
 _atom_site_occupancy
  Sr  Sr0  1  0.625000  0.625000  0.625000  1
  Tb  Tb1  1  0.625000  0.625000  0.125000  1
  Tb  Tb2  1  0.625000  0.125000  0.625000  1
  Tb  Tb3  1  0.125000  0.625000  0.625000  1
  Pt  Pt4  1  0.125000  0.125000  0.125000  1
  Pt  Pt5  1  0.625000  0.125000  0.125000  1
  Rh  Rh6  1  0.125000  0.625000  0.125000  1
  Rh  Rh7  1  0.125000  0.125000  0.625000  1
  O  O8  1  0.059650  0.452889  0.452889  1
  O  O9  1  0.793364  0.792843  0.194001  1
  O  O10  1  0.787839  0.213084  0.213084  1
  O  O11  1  0.456636  0.055999  0.457157  1
  O  O12  1  0.039341  0.459424  0.039727  1
  O  O13  1  0.757192  0.756176  0.756176  1
  O  O14  1  0.039341  0.039727  0.459424  1
  O  O15  1  0.210659  0.790576  0.210273  1
  O  O16  1  0.210659  0.210273  0.790576  1
  O  O17  1  0.492808  0.493824  0.493824  1
  O  O18  1  0.793364  0.194001  0.792843  1
  O  O19  1  0.462161  0.036916  0.036916  1
  O  O20  1  0.456636  0.457157  0.055999  1
  O  O21  1  0.190350  0.797111  0.797111  1
