# generated using pymatgen
data_Nd2Np5UH24
_symmetry_space_group_name_H-M   'P 1'
_cell_length_a   6.72379100
_cell_length_b   6.69661000
_cell_length_c   6.68372500
_cell_angle_alpha   90.00000000
_cell_angle_beta   90.00000000
_cell_angle_gamma   90.00000000
_symmetry_Int_Tables_number   1
_chemical_formula_structural   Nd2Np5UH24
_chemical_formula_sum   'Nd2 Np5 U1 H24'
_cell_volume   300.94545251
_cell_formula_units_Z   1
loop_
 _symmetry_equiv_pos_site_id
 _symmetry_equiv_pos_as_xyz
  1  'x, y, z'
loop_
 _atom_site_type_symbol
 _atom_site_label
 _atom_site_symmetry_multiplicity
 _atom_site_fract_x
 _atom_site_fract_y
 _atom_site_fract_z
 _atom_site_occupancy
  Nd  Nd0  1  0.248827  0.000000  0.500000  1
  Nd  Nd1  1  0.751173  0.000000  0.500000  1
  Np  Np2  1  0.000000  0.000000  0.000000  1
  Np  Np3  1  0.000000  0.500000  0.249408  1
  Np  Np4  1  0.000000  0.500000  0.750592  1
  Np  Np5  1  0.500000  0.749889  0.000000  1
  Np  Np6  1  0.500000  0.250111  0.000000  1
  U  U7  1  0.500000  0.500000  0.500000  1
  H  H8  1  0.000000  0.159726  0.294155  1
  H  H9  1  0.500000  0.205922  0.659490  1
  H  H10  1  0.500000  0.794078  0.340510  1
  H  H11  1  0.806383  0.647859  0.500000  1
  H  H12  1  0.193617  0.647859  0.500000  1
  H  H13  1  0.344696  0.500000  0.802771  1
  H  H14  1  0.655304  0.500000  0.802771  1
  H  H15  1  0.306867  0.000000  0.147764  1
  H  H16  1  0.155143  0.303038  0.000000  1
  H  H17  1  0.844857  0.696962  0.000000  1
  H  H18  1  0.306867  0.000000  0.852236  1
  H  H19  1  0.844857  0.303038  0.000000  1
  H  H20  1  0.693133  0.000000  0.147764  1
  H  H21  1  0.693133  0.000000  0.852236  1
  H  H22  1  0.155143  0.696962  0.000000  1
  H  H23  1  0.000000  0.840274  0.705845  1
  H  H24  1  0.000000  0.159726  0.705845  1
  H  H25  1  0.000000  0.840274  0.294155  1
  H  H26  1  0.655304  0.500000  0.197229  1
  H  H27  1  0.344696  0.500000  0.197229  1
  H  H28  1  0.806383  0.352141  0.500000  1
  H  H29  1  0.193617  0.352141  0.500000  1
  H  H30  1  0.500000  0.794078  0.659490  1
  H  H31  1  0.500000  0.205922  0.340510  1
