# generated using pymatgen
data_Tb5Lu(MoO7)2
_symmetry_space_group_name_H-M   'P 1'
_cell_length_a   6.41070728
_cell_length_b   6.51822293
_cell_length_c   7.48643539
_cell_angle_alpha   89.94803071
_cell_angle_beta   89.97309891
_cell_angle_gamma   108.86358071
_symmetry_Int_Tables_number   1
_chemical_formula_structural   Tb5Lu(MoO7)2
_chemical_formula_sum   'Tb5 Lu1 Mo2 O14'
_cell_volume   296.02927143
_cell_formula_units_Z   1
loop_
 _symmetry_equiv_pos_site_id
 _symmetry_equiv_pos_as_xyz
  1  'x, y, z'
loop_
 _atom_site_type_symbol
 _atom_site_label
 _atom_site_symmetry_multiplicity
 _atom_site_fract_x
 _atom_site_fract_y
 _atom_site_fract_z
 _atom_site_occupancy
  Tb  Tb0  1  0.000707  0.533473  0.244855  1
  Tb  Tb1  1  0.475194  0.467615  0.999482  1
  Tb  Tb2  1  0.519427  0.524023  0.497129  1
  Tb  Tb3  1  0.538166  0.999188  0.754030  1
  Tb  Tb4  1  0.998398  0.467596  0.746495  1
  Lu  Lu5  1  0.462132  0.998093  0.256763  1
  Mo  Mo6  1  0.001770  0.001642  0.497856  1
  Mo  Mo7  1  0.998219  0.998765  0.001155  1
  O  O8  1  0.928027  0.074234  0.749370  1
  O  O9  1  0.629799  0.357483  0.746478  1
  O  O10  1  0.312111  0.047302  0.533295  1
  O  O11  1  0.918581  0.679805  0.967867  1
  O  O12  1  0.621897  0.356053  0.253426  1
  O  O13  1  0.911880  0.672255  0.525112  1
  O  O14  1  0.323055  0.074093  0.975815  1
  O  O15  1  0.088568  0.331250  0.024600  1
  O  O16  1  0.677257  0.927214  0.466377  1
  O  O17  1  0.373103  0.634489  0.751975  1
  O  O18  1  0.695903  0.962443  0.046572  1
  O  O19  1  0.079468  0.319466  0.466398  1
  O  O20  1  0.369886  0.648588  0.245190  1
  O  O21  1  0.076453  0.924931  0.249760  1
