# generated using pymatgen
data_Nd14Y2Cd4Ru3Au
_symmetry_space_group_name_H-M   'P 1'
_cell_length_a   9.98024953
_cell_length_b   9.94768866
_cell_length_c   9.98024963
_cell_angle_alpha   59.79956407
_cell_angle_beta   59.89410832
_cell_angle_gamma   59.79955908
_symmetry_Int_Tables_number   1
_chemical_formula_structural   Nd14Y2Cd4Ru3Au
_chemical_formula_sum   'Nd14 Y2 Cd4 Ru3 Au1'
_cell_volume   697.94456960
_cell_formula_units_Z   1
loop_
 _symmetry_equiv_pos_site_id
 _symmetry_equiv_pos_as_xyz
  1  'x, y, z'
loop_
 _atom_site_type_symbol
 _atom_site_label
 _atom_site_symmetry_multiplicity
 _atom_site_fract_x
 _atom_site_fract_y
 _atom_site_fract_z
 _atom_site_occupancy
  Nd  Nd0  1  0.438958  0.436644  0.061170  1
  Nd  Nd1  1  0.065715  0.055698  0.439907  1
  Nd  Nd2  1  0.439907  0.055698  0.065715  1
  Nd  Nd3  1  0.855575  0.840300  0.855575  1
  Nd  Nd4  1  0.688884  0.322534  0.298249  1
  Nd  Nd5  1  0.061170  0.436644  0.438958  1
  Nd  Nd6  1  0.312630  0.687779  0.687453  1
  Nd  Nd7  1  0.298249  0.322534  0.688884  1
  Nd  Nd8  1  0.857396  0.840291  0.449529  1
  Nd  Nd9  1  0.687453  0.687779  0.312630  1
  Nd  Nd10  1  0.449529  0.840291  0.857396  1
  Nd  Nd11  1  0.061884  0.436104  0.061884  1
  Nd  Nd12  1  0.843169  0.461276  0.843169  1
  Nd  Nd13  1  0.441111  0.054653  0.441111  1
  Y  Y14  1  0.310019  0.688993  0.310019  1
  Y  Y15  1  0.691438  0.318340  0.691438  1
  Cd  Cd16  1  0.081355  0.757409  0.081355  1
  Cd  Cd17  1  0.077217  0.082420  0.759946  1
  Cd  Cd18  1  0.759946  0.082420  0.077217  1
  Cd  Cd19  1  0.080215  0.078843  0.080215  1
  Ru  Ru20  1  0.637017  0.645838  0.637017  1
  Ru  Ru21  1  0.638801  0.646899  0.078264  1
  Ru  Ru22  1  0.078264  0.646899  0.638801  1
  Au  Au23  1  0.644098  0.073716  0.644098  1
