# generated using pymatgen
data_Dy2Er10Co5Pb
_symmetry_space_group_name_H-M   'P 1'
_cell_length_a   8.24930538
_cell_length_b   8.24946796
_cell_length_c   8.24337214
_cell_angle_alpha   110.82628354
_cell_angle_beta   110.69960390
_cell_angle_gamma   106.94850563
_symmetry_Int_Tables_number   1
_chemical_formula_structural   Dy2Er10Co5Pb
_chemical_formula_sum   'Dy2 Er10 Co5 Pb1'
_cell_volume   431.04602004
_cell_formula_units_Z   1
loop_
 _symmetry_equiv_pos_site_id
 _symmetry_equiv_pos_as_xyz
  1  'x, y, z'
loop_
 _atom_site_type_symbol
 _atom_site_label
 _atom_site_symmetry_multiplicity
 _atom_site_fract_x
 _atom_site_fract_y
 _atom_site_fract_z
 _atom_site_occupancy
  Dy  Dy0  1  0.289101  0.184287  0.473386  1
  Dy  Dy1  1  0.710899  0.815713  0.526614  1
  Er  Er2  1  0.288435  0.814786  0.103218  1
  Er  Er3  1  0.711565  0.185214  0.896782  1
  Er  Er4  1  0.620815  0.312766  0.306853  1
  Er  Er5  1  0.379185  0.687234  0.693147  1
  Er  Er6  1  0.005947  0.313993  0.693158  1
  Er  Er7  1  0.994053  0.686007  0.306842  1
  Er  Er8  1  0.208679  0.403089  0.193261  1
  Er  Er9  1  0.791321  0.596911  0.806739  1
  Er  Er10  1  0.209819  0.015405  0.806694  1
  Er  Er11  1  0.790181  0.984595  0.193306  1
  Co  Co12  1  0.999316  0.376677  0.375991  1
  Co  Co13  1  0.000684  0.623323  0.624009  1
  Co  Co14  1  0.387881  0.887879  0.499993  1
  Co  Co15  1  0.612119  0.112121  0.500007  1
  Co  Co16  1  0.000000  0.000000  0.000000  1
  Pb  Pb17  1  0.500000  0.500000  0.000000  1
