# generated using pymatgen
data_Li2Sn3RuSe8
_symmetry_space_group_name_H-M   'P 1'
_cell_length_a   7.85940948
_cell_length_b   7.85941023
_cell_length_c   7.85940900
_cell_angle_alpha   60.28394304
_cell_angle_beta   60.28393994
_cell_angle_gamma   60.28394827
_symmetry_Int_Tables_number   1
_chemical_formula_structural   Li2Sn3RuSe8
_chemical_formula_sum   'Li2 Sn3 Ru1 Se8'
_cell_volume   345.49093201
_cell_formula_units_Z   1
loop_
 _symmetry_equiv_pos_site_id
 _symmetry_equiv_pos_as_xyz
  1  'x, y, z'
loop_
 _atom_site_type_symbol
 _atom_site_label
 _atom_site_symmetry_multiplicity
 _atom_site_fract_x
 _atom_site_fract_y
 _atom_site_fract_z
 _atom_site_occupancy
  Li  Li0  1  0.380395  0.380395  0.380395  1
  Li  Li1  1  0.619605  0.619605  0.619605  1
  Sn  Sn2  1  0.000000  0.500000  0.000000  1
  Sn  Sn3  1  0.000000  0.000000  0.500000  1
  Sn  Sn4  1  0.500000  0.000000  0.000000  1
  Ru  Ru5  1  0.000000  0.000000  0.000000  1
  Se  Se6  1  0.773605  0.217033  0.773605  1
  Se  Se7  1  0.749675  0.749675  0.749675  1
  Se  Se8  1  0.782967  0.226395  0.226395  1
  Se  Se9  1  0.226395  0.226395  0.782967  1
  Se  Se10  1  0.226395  0.782967  0.226395  1
  Se  Se11  1  0.250325  0.250325  0.250325  1
  Se  Se12  1  0.217033  0.773605  0.773605  1
  Se  Se13  1  0.773605  0.773605  0.217033  1
