# generated using pymatgen
data_Mn3CuP6SN12
_symmetry_space_group_name_H-M   'P 1'
_cell_length_a   7.18583281
_cell_length_b   7.18841227
_cell_length_c   7.18841206
_cell_angle_alpha   109.47849452
_cell_angle_beta   109.46395484
_cell_angle_gamma   109.46394777
_symmetry_Int_Tables_number   1
_chemical_formula_structural   Mn3CuP6SN12
_chemical_formula_sum   'Mn3 Cu1 P6 S1 N12'
_cell_volume   285.86440579
_cell_formula_units_Z   1
loop_
 _symmetry_equiv_pos_site_id
 _symmetry_equiv_pos_as_xyz
  1  'x, y, z'
loop_
 _atom_site_type_symbol
 _atom_site_label
 _atom_site_symmetry_multiplicity
 _atom_site_fract_x
 _atom_site_fract_y
 _atom_site_fract_z
 _atom_site_occupancy
  Mn  Mn0  1  0.000803  0.669481  0.000000  1
  Mn  Mn1  1  0.331323  0.330520  0.330520  1
  Mn  Mn2  1  0.000803  0.000000  0.669481  1
  Cu  Cu3  1  0.676324  0.000000  0.000000  1
  P  P4  1  0.749854  0.497490  0.249353  1
  P  P5  1  0.500501  0.750647  0.248137  1
  P  P6  1  0.749854  0.249353  0.497490  1
  P  P7  1  0.252364  0.751863  0.502510  1
  P  P8  1  0.500501  0.248137  0.750647  1
  P  P9  1  0.252364  0.502510  0.751863  1
  S  S10  1  0.988344  0.000000  0.000000  1
  N  N11  1  0.726670  0.447063  0.000000  1
  N  N12  1  0.445048  0.729043  0.000000  1
  N  N13  1  0.716006  0.270958  0.270958  1
  N  N14  1  0.273008  0.717176  0.272887  1
  N  N15  1  0.555831  0.555710  0.282825  1
  N  N16  1  0.726670  0.000000  0.447063  1
  N  N17  1  0.000121  0.727114  0.444289  1
  N  N18  1  0.555831  0.282825  0.555710  1
  N  N19  1  0.279606  0.552936  0.552936  1
  N  N20  1  0.273008  0.272887  0.717176  1
  N  N21  1  0.445048  0.000000  0.729043  1
  N  N22  1  0.000121  0.444289  0.727114  1
