# generated using pymatgen
data_YbHo3PtRh3O14
_symmetry_space_group_name_H-M   'P 1'
_cell_length_a   7.22004221
_cell_length_b   7.22004228
_cell_length_c   7.21917413
_cell_angle_alpha   59.99602409
_cell_angle_beta   59.99602416
_cell_angle_gamma   59.99999785
_symmetry_Int_Tables_number   1
_chemical_formula_structural   YbHo3PtRh3O14
_chemical_formula_sum   'Yb1 Ho3 Pt1 Rh3 O14'
_cell_volume   266.08836683
_cell_formula_units_Z   1
loop_
 _symmetry_equiv_pos_site_id
 _symmetry_equiv_pos_as_xyz
  1  'x, y, z'
loop_
 _atom_site_type_symbol
 _atom_site_label
 _atom_site_symmetry_multiplicity
 _atom_site_fract_x
 _atom_site_fract_y
 _atom_site_fract_z
 _atom_site_occupancy
  Yb  Yb0  1  0.625000  0.625000  0.125000  1
  Ho  Ho1  1  0.625000  0.625000  0.625000  1
  Ho  Ho2  1  0.625000  0.125000  0.625000  1
  Ho  Ho3  1  0.125000  0.625000  0.625000  1
  Pt  Pt4  1  0.125000  0.125000  0.625000  1
  Rh  Rh5  1  0.125000  0.125000  0.125000  1
  Rh  Rh6  1  0.625000  0.125000  0.125000  1
  Rh  Rh7  1  0.125000  0.625000  0.125000  1
  O  O8  1  0.036636  0.462751  0.463976  1
  O  O9  1  0.792490  0.792490  0.212506  1
  O  O10  1  0.792490  0.202514  0.212506  1
  O  O11  1  0.462751  0.036636  0.463976  1
  O  O12  1  0.752293  0.752293  0.743121  1
  O  O13  1  0.036636  0.036636  0.463976  1
  O  O14  1  0.047486  0.457510  0.037494  1
  O  O15  1  0.787249  0.213364  0.786024  1
  O  O16  1  0.202514  0.792490  0.212506  1
  O  O17  1  0.213364  0.213364  0.786024  1
  O  O18  1  0.497707  0.497707  0.506879  1
  O  O19  1  0.457510  0.047486  0.037494  1
  O  O20  1  0.457510  0.457510  0.037494  1
  O  O21  1  0.213364  0.787249  0.786024  1
