# generated using pymatgen
data_Yb3YNi2(OsO6)2
_symmetry_space_group_name_H-M   'P 1'
_cell_length_a   5.31721386
_cell_length_b   5.62621545
_cell_length_c   7.65382053
_cell_angle_alpha   89.97489031
_cell_angle_beta   90.58519683
_cell_angle_gamma   90.06030898
_symmetry_Int_Tables_number   1
_chemical_formula_structural   Yb3YNi2(OsO6)2
_chemical_formula_sum   'Yb3 Y1 Ni2 Os2 O12'
_cell_volume   228.95800313
_cell_formula_units_Z   1
loop_
 _symmetry_equiv_pos_site_id
 _symmetry_equiv_pos_as_xyz
  1  'x, y, z'
loop_
 _atom_site_type_symbol
 _atom_site_label
 _atom_site_symmetry_multiplicity
 _atom_site_fract_x
 _atom_site_fract_y
 _atom_site_fract_z
 _atom_site_occupancy
  Yb  Yb0  1  0.520164  0.569071  0.248100  1
  Yb  Yb1  1  0.020050  0.931108  0.748208  1
  Yb  Yb2  1  0.479352  0.429603  0.753109  1
  Y  Y3  1  0.979245  0.072588  0.252669  1
  Ni  Ni4  1  0.497448  0.998798  0.997342  1
  Ni  Ni5  1  0.000728  0.505354  0.502187  1
  Os  Os6  1  0.497889  0.998360  0.503331  1
  Os  Os7  1  0.001288  0.501961  0.997184  1
  O  O8  1  0.687879  0.287310  0.440336  1
  O  O9  1  0.818855  0.796421  0.057587  1
  O  O10  1  0.320214  0.705769  0.556690  1
  O  O11  1  0.182628  0.207638  0.946092  1
  O  O12  1  0.198147  0.188587  0.548983  1
  O  O13  1  0.299091  0.690345  0.949215  1
  O  O14  1  0.801965  0.811786  0.445096  1
  O  O15  1  0.704778  0.306451  0.053487  1
  O  O16  1  0.104404  0.464409  0.245207  1
  O  O17  1  0.386169  0.964335  0.255157  1
  O  O18  1  0.605901  0.035175  0.744025  1
  O  O19  1  0.893799  0.534931  0.755990  1
