# generated using pymatgen
data_Cs2Mn3AgF12
_symmetry_space_group_name_H-M   'P 1'
_cell_length_a   7.52848882
_cell_length_b   7.71739890
_cell_length_c   10.72456022
_cell_angle_alpha   90.18176437
_cell_angle_beta   88.48092070
_cell_angle_gamma   89.52938523
_symmetry_Int_Tables_number   1
_chemical_formula_structural   Cs2Mn3AgF12
_chemical_formula_sum   'Cs4 Mn6 Ag2 F24'
_cell_volume   622.85713582
_cell_formula_units_Z   2
loop_
 _symmetry_equiv_pos_site_id
 _symmetry_equiv_pos_as_xyz
  1  'x, y, z'
loop_
 _atom_site_type_symbol
 _atom_site_label
 _atom_site_symmetry_multiplicity
 _atom_site_fract_x
 _atom_site_fract_y
 _atom_site_fract_z
 _atom_site_occupancy
  Cs  Cs0  1  0.504386  0.747721  0.614498  1
  Cs  Cs1  1  0.495614  0.252279  0.385502  1
  Cs  Cs2  1  0.017588  0.258991  0.138554  1
  Cs  Cs3  1  0.982412  0.741009  0.861446  1
  Mn  Mn4  1  0.805972  0.748235  0.220313  1
  Mn  Mn5  1  0.194028  0.251765  0.779687  1
  Mn  Mn6  1  0.000000  0.500000  0.500000  1
  Mn  Mn7  1  0.000000  0.000000  0.500000  1
  Mn  Mn8  1  0.500000  0.000000  0.000000  1
  Mn  Mn9  1  0.500000  0.500000  0.000000  1
  Ag  Ag10  1  0.713088  0.238709  0.743464  1
  Ag  Ag11  1  0.286912  0.761291  0.256536  1
  F  F12  1  0.025778  0.729283  0.134377  1
  F  F13  1  0.974222  0.270717  0.865623  1
  F  F14  1  0.594210  0.768434  0.313667  1
  F  F15  1  0.405790  0.231566  0.686333  1
  F  F16  1  0.773900  0.441498  0.563452  1
  F  F17  1  0.226100  0.558502  0.436548  1
  F  F18  1  0.762071  0.043716  0.546508  1
  F  F19  1  0.237929  0.956284  0.453492  1
  F  F20  1  0.628390  0.954840  0.850854  1
  F  F21  1  0.371610  0.045160  0.149146  1
  F  F22  1  0.620803  0.532015  0.847145  1
  F  F23  1  0.379197  0.467985  0.152855  1
  F  F24  1  0.586808  0.231400  0.997689  1
  F  F25  1  0.413192  0.768600  0.002311  1
  F  F26  1  0.288737  0.443039  0.912650  1
  F  F27  1  0.711263  0.556961  0.087350  1
  F  F28  1  0.264997  0.071359  0.891702  1
  F  F29  1  0.735003  0.928641  0.108298  1
  F  F30  1  0.068591  0.053287  0.666149  1
  F  F31  1  0.931409  0.946713  0.333851  1
  F  F32  1  0.962270  0.732357  0.560608  1
  F  F33  1  0.037730  0.267643  0.439392  1
  F  F34  1  0.122350  0.440847  0.675719  1
  F  F35  1  0.877650  0.559153  0.324281  1
