# generated using pymatgen
data_Ti5In(PtRh4)2
_symmetry_space_group_name_H-M   'P 1'
_cell_length_a   4.08377800
_cell_length_b   5.48578467
_cell_length_c   10.80968016
_cell_angle_alpha   90.31235543
_cell_angle_beta   90.00000000
_cell_angle_gamma   90.00000000
_symmetry_Int_Tables_number   1
_chemical_formula_structural   Ti5In(PtRh4)2
_chemical_formula_sum   'Ti5 In1 Pt2 Rh8'
_cell_volume   242.16271214
_cell_formula_units_Z   1
loop_
 _symmetry_equiv_pos_site_id
 _symmetry_equiv_pos_as_xyz
  1  'x, y, z'
loop_
 _atom_site_type_symbol
 _atom_site_label
 _atom_site_symmetry_multiplicity
 _atom_site_fract_x
 _atom_site_fract_y
 _atom_site_fract_z
 _atom_site_occupancy
  Ti  Ti0  1  0.000000  0.000000  0.000000  1
  Ti  Ti1  1  0.500000  0.340565  0.140781  1
  Ti  Ti2  1  0.500000  0.659435  0.859219  1
  Ti  Ti3  1  0.500000  0.819440  0.358575  1
  Ti  Ti4  1  0.500000  0.180560  0.641425  1
  In  In5  1  0.000000  0.500000  0.500000  1
  Pt  Pt6  1  0.000000  0.072438  0.240433  1
  Pt  Pt7  1  0.000000  0.927562  0.759567  1
  Rh  Rh8  1  0.000000  0.000000  0.500000  1
  Rh  Rh9  1  0.000000  0.500000  0.000000  1
  Rh  Rh10  1  0.000000  0.571901  0.250343  1
  Rh  Rh11  1  0.000000  0.428099  0.749657  1
  Rh  Rh12  1  0.500000  0.285405  0.377485  1
  Rh  Rh13  1  0.500000  0.714595  0.622515  1
  Rh  Rh14  1  0.500000  0.810809  0.105489  1
  Rh  Rh15  1  0.500000  0.189191  0.894511  1
