# generated using pymatgen
data_Y2Ho2Al18MoPd5
_symmetry_space_group_name_H-M   'P 1'
_cell_length_a   7.63185055
_cell_length_b   7.63666323
_cell_length_c   9.53249235
_cell_angle_alpha   89.67995360
_cell_angle_beta   89.63288384
_cell_angle_gamma   118.87876593
_symmetry_Int_Tables_number   1
_chemical_formula_structural   Y2Ho2Al18MoPd5
_chemical_formula_sum   'Y2 Ho2 Al18 Mo1 Pd5'
_cell_volume   486.44872598
_cell_formula_units_Z   1
loop_
 _symmetry_equiv_pos_site_id
 _symmetry_equiv_pos_as_xyz
  1  'x, y, z'
loop_
 _atom_site_type_symbol
 _atom_site_label
 _atom_site_symmetry_multiplicity
 _atom_site_fract_x
 _atom_site_fract_y
 _atom_site_fract_z
 _atom_site_occupancy
  Y  Y0  1  0.995198  0.677648  0.247849  1
  Y  Y1  1  0.004806  0.322348  0.752151  1
  Ho  Ho2  1  0.678018  0.994888  0.247519  1
  Ho  Ho3  1  0.322002  0.005117  0.752479  1
  Al  Al4  1  0.134266  0.134291  0.248471  1
  Al  Al5  1  0.865736  0.865701  0.751543  1
  Al  Al6  1  0.002119  0.334297  0.076610  1
  Al  Al7  1  0.997886  0.665719  0.923393  1
  Al  Al8  1  0.998461  0.661414  0.578952  1
  Al  Al9  1  0.339370  0.001760  0.421523  1
  Al  Al10  1  0.001542  0.338570  0.421049  1
  Al  Al11  1  0.660631  0.998233  0.578476  1
  Al  Al12  1  0.664950  0.997558  0.923840  1
  Al  Al13  1  0.335037  0.002434  0.076156  1
  Al  Al14  1  0.333321  0.333021  0.554030  1
  Al  Al15  1  0.666681  0.666975  0.445966  1
  Al  Al16  1  0.668113  0.668319  0.052148  1
  Al  Al17  1  0.331890  0.331679  0.947852  1
  Al  Al18  1  0.343429  0.551226  0.250138  1
  Al  Al19  1  0.656574  0.448767  0.749862  1
  Al  Al20  1  0.550915  0.342190  0.250156  1
  Al  Al21  1  0.449088  0.657802  0.749841  1
  Mo  Mo22  1  0.999964  0.000043  0.000012  1
  Pd  Pd23  1  0.672332  0.327680  0.000008  1
  Pd  Pd24  1  0.327659  0.672296  0.000002  1
  Pd  Pd25  1  0.327858  0.672229  0.499972  1
  Pd  Pd26  1  0.672142  0.327766  0.500035  1
  Pd  Pd27  1  0.000011  0.000031  0.499966  1
