# generated using pymatgen
data_LaPr2Ho(MoO6)2
_symmetry_space_group_name_H-M   'P 1'
_cell_length_a   10.25512373
_cell_length_b   10.25512502
_cell_length_c   5.55205803
_cell_angle_alpha   75.01319889
_cell_angle_beta   75.01319670
_cell_angle_gamma   68.60232673
_symmetry_Int_Tables_number   1
_chemical_formula_structural   LaPr2Ho(MoO6)2
_chemical_formula_sum   'La2 Pr4 Ho2 Mo4 O24'
_cell_volume   516.32541205
_cell_formula_units_Z   2
loop_
 _symmetry_equiv_pos_site_id
 _symmetry_equiv_pos_as_xyz
  1  'x, y, z'
loop_
 _atom_site_type_symbol
 _atom_site_label
 _atom_site_symmetry_multiplicity
 _atom_site_fract_x
 _atom_site_fract_y
 _atom_site_fract_z
 _atom_site_occupancy
  La  La0  1  0.638229  0.361771  0.750000  1
  La  La1  1  0.361771  0.638229  0.250000  1
  Pr  Pr2  1  0.714242  0.946621  0.880539  1
  Pr  Pr3  1  0.285758  0.053379  0.119461  1
  Pr  Pr4  1  0.053379  0.285758  0.619461  1
  Pr  Pr5  1  0.946621  0.714242  0.380539  1
  Ho  Ho6  1  0.101037  0.898963  0.750000  1
  Ho  Ho7  1  0.898963  0.101037  0.250000  1
  Mo  Mo8  1  0.506522  0.799577  0.564123  1
  Mo  Mo9  1  0.493478  0.200423  0.435877  1
  Mo  Mo10  1  0.200423  0.493478  0.935877  1
  Mo  Mo11  1  0.799577  0.506522  0.064123  1
  O  O12  1  0.695070  0.160355  0.561001  1
  O  O13  1  0.304930  0.839645  0.438999  1
  O  O14  1  0.839645  0.304930  0.938999  1
  O  O15  1  0.160355  0.695070  0.061001  1
  O  O16  1  0.386536  0.831468  0.870260  1
  O  O17  1  0.613464  0.168532  0.129740  1
  O  O18  1  0.168532  0.613464  0.629740  1
  O  O19  1  0.831468  0.386536  0.370260  1
  O  O20  1  0.675550  0.790301  0.633932  1
  O  O21  1  0.324450  0.209699  0.366068  1
  O  O22  1  0.209699  0.324450  0.866068  1
  O  O23  1  0.790301  0.675550  0.133932  1
  O  O24  1  0.477090  0.072040  0.735650  1
  O  O25  1  0.522910  0.927960  0.264350  1
  O  O26  1  0.927960  0.522910  0.764350  1
  O  O27  1  0.072040  0.477090  0.235650  1
  O  O28  1  0.543741  0.619909  0.518442  1
  O  O29  1  0.456259  0.380091  0.481558  1
  O  O30  1  0.380091  0.456259  0.981558  1
  O  O31  1  0.619909  0.543741  0.018442  1
  O  O32  1  0.895420  0.930721  0.074433  1
  O  O33  1  0.104580  0.069279  0.925567  1
  O  O34  1  0.069279  0.104580  0.425567  1
  O  O35  1  0.930721  0.895420  0.574433  1
