# generated using pymatgen
data_Y4Al15Ga2SiRh6
_symmetry_space_group_name_H-M   'P 1'
_cell_length_a   7.54429784
_cell_length_b   7.52297972
_cell_length_c   9.48663747
_cell_angle_alpha   90.02054499
_cell_angle_beta   89.91648105
_cell_angle_gamma   119.43822243
_symmetry_Int_Tables_number   1
_chemical_formula_structural   Y4Al15Ga2SiRh6
_chemical_formula_sum   'Y4 Al15 Ga2 Si1 Rh6'
_cell_volume   468.90179766
_cell_formula_units_Z   1
loop_
 _symmetry_equiv_pos_site_id
 _symmetry_equiv_pos_as_xyz
  1  'x, y, z'
loop_
 _atom_site_type_symbol
 _atom_site_label
 _atom_site_symmetry_multiplicity
 _atom_site_fract_x
 _atom_site_fract_y
 _atom_site_fract_z
 _atom_site_occupancy
  Y  Y0  1  0.993523  0.665736  0.247221  1
  Y  Y1  1  0.005375  0.326598  0.754481  1
  Y  Y2  1  0.679623  0.002446  0.246649  1
  Y  Y3  1  0.326295  0.005646  0.750298  1
  Al  Al4  1  0.997545  0.668497  0.924046  1
  Al  Al5  1  0.998789  0.664578  0.573546  1
  Al  Al6  1  0.335356  0.999447  0.425632  1
  Al  Al7  1  0.002644  0.335396  0.430730  1
  Al  Al8  1  0.663947  0.998811  0.573446  1
  Al  Al9  1  0.659112  0.993757  0.923761  1
  Al  Al10  1  0.334747  0.000216  0.074900  1
  Al  Al11  1  0.335029  0.334013  0.553255  1
  Al  Al12  1  0.666978  0.667513  0.446551  1
  Al  Al13  1  0.666045  0.666949  0.054680  1
  Al  Al14  1  0.337228  0.334459  0.947884  1
  Al  Al15  1  0.338633  0.550372  0.250215  1
  Al  Al16  1  0.662418  0.449726  0.750156  1
  Al  Al17  1  0.546747  0.338407  0.249934  1
  Al  Al18  1  0.448627  0.659295  0.749324  1
  Ga  Ga19  1  0.133492  0.130305  0.250293  1
  Ga  Ga20  1  0.866635  0.868813  0.749694  1
  Si  Si21  1  0.002562  0.337067  0.073176  1
  Rh  Rh22  1  0.679237  0.329070  0.001792  1
  Rh  Rh23  1  0.320236  0.663960  0.000393  1
  Rh  Rh24  1  0.328165  0.671180  0.499436  1
  Rh  Rh25  1  0.672049  0.328646  0.498537  1
  Rh  Rh26  1  0.998930  0.008495  0.000446  1
  Rh  Rh27  1  0.000036  0.000599  0.499523  1
