# generated using pymatgen
data_Er3Pa(ReB6)2
_symmetry_space_group_name_H-M   'P 1'
_cell_length_a   3.68582900
_cell_length_b   9.13912440
_cell_length_c   11.50546811
_cell_angle_alpha   90.32788451
_cell_angle_beta   90.00000000
_cell_angle_gamma   90.00000000
_symmetry_Int_Tables_number   1
_chemical_formula_structural   Er3Pa(ReB6)2
_chemical_formula_sum   'Er6 Pa2 Re4 B24'
_cell_volume   387.55822075
_cell_formula_units_Z   2
loop_
 _symmetry_equiv_pos_site_id
 _symmetry_equiv_pos_as_xyz
  1  'x, y, z'
loop_
 _atom_site_type_symbol
 _atom_site_label
 _atom_site_symmetry_multiplicity
 _atom_site_fract_x
 _atom_site_fract_y
 _atom_site_fract_z
 _atom_site_occupancy
  Er  Er0  1  0.000000  0.823754  0.085652  1
  Er  Er1  1  0.000000  0.176246  0.914348  1
  Er  Er2  1  0.000000  0.944807  0.372362  1
  Er  Er3  1  0.000000  0.055193  0.627638  1
  Er  Er4  1  0.000000  0.443809  0.126332  1
  Er  Er5  1  0.000000  0.556191  0.873668  1
  Pa  Pa6  1  0.000000  0.321393  0.412995  1
  Pa  Pa7  1  0.000000  0.678607  0.587005  1
  Re  Re8  1  0.000000  0.635848  0.324167  1
  Re  Re9  1  0.000000  0.364152  0.675833  1
  Re  Re10  1  0.000000  0.140325  0.181552  1
  Re  Re11  1  0.000000  0.859675  0.818448  1
  B  B12  1  0.500000  0.553559  0.432952  1
  B  B13  1  0.500000  0.446441  0.567048  1
  B  B14  1  0.500000  0.053174  0.066947  1
  B  B15  1  0.500000  0.946826  0.933053  1
  B  B16  1  0.500000  0.748905  0.419461  1
  B  B17  1  0.500000  0.251095  0.580539  1
  B  B18  1  0.500000  0.248163  0.079844  1
  B  B19  1  0.500000  0.751837  0.920156  1
  B  B20  1  0.500000  0.792023  0.265171  1
  B  B21  1  0.500000  0.207977  0.734829  1
  B  B22  1  0.500000  0.292237  0.233641  1
  B  B23  1  0.500000  0.707763  0.766359  1
  B  B24  1  0.500000  0.631485  0.184954  1
  B  B25  1  0.500000  0.368515  0.815046  1
  B  B26  1  0.500000  0.131802  0.314122  1
  B  B27  1  0.500000  0.868198  0.685878  1
  B  B28  1  0.500000  0.981657  0.212061  1
  B  B29  1  0.500000  0.018343  0.787939  1
  B  B30  1  0.500000  0.482836  0.286248  1
  B  B31  1  0.500000  0.517164  0.713752  1
  B  B32  1  0.500000  0.604639  0.029235  1
  B  B33  1  0.500000  0.395361  0.970765  1
  B  B34  1  0.500000  0.108979  0.469822  1
  B  B35  1  0.500000  0.891021  0.530178  1
