# generated using pymatgen
data_EuAlCdPt3
_symmetry_space_group_name_H-M   'P 1'
_cell_length_a   5.24976327
_cell_length_b   5.24976099
_cell_length_c   5.24976113
_cell_angle_alpha   64.40375579
_cell_angle_beta   64.40375317
_cell_angle_gamma   64.40376822
_symmetry_Int_Tables_number   1
_chemical_formula_structural   EuAlCdPt3
_chemical_formula_sum   'Eu1 Al1 Cd1 Pt3'
_cell_volume   112.19563273
_cell_formula_units_Z   1
loop_
 _symmetry_equiv_pos_site_id
 _symmetry_equiv_pos_as_xyz
  1  'x, y, z'
loop_
 _atom_site_type_symbol
 _atom_site_label
 _atom_site_symmetry_multiplicity
 _atom_site_fract_x
 _atom_site_fract_y
 _atom_site_fract_z
 _atom_site_occupancy
  Eu  Eu0  1  0.747394  0.747394  0.747394  1
  Al  Al1  1  0.126629  0.126629  0.126629  1
  Cd  Cd2  1  0.496214  0.496214  0.496214  1
  Pt  Pt3  1  0.624504  0.127630  0.127630  1
  Pt  Pt4  1  0.127630  0.624504  0.127630  1
  Pt  Pt5  1  0.127630  0.127630  0.624504  1
