# generated using pymatgen
data_DyMoF7
_symmetry_space_group_name_H-M   'P 1'
_cell_length_a   5.76255400
_cell_length_b   6.03341618
_cell_length_c   8.30949844
_cell_angle_alpha   103.11364912
_cell_angle_beta   90.00000000
_cell_angle_gamma   90.00000000
_symmetry_Int_Tables_number   1
_chemical_formula_structural   DyMoF7
_chemical_formula_sum   'Dy2 Mo2 F14'
_cell_volume   281.36965293
_cell_formula_units_Z   2
loop_
 _symmetry_equiv_pos_site_id
 _symmetry_equiv_pos_as_xyz
  1  'x, y, z'
loop_
 _atom_site_type_symbol
 _atom_site_label
 _atom_site_symmetry_multiplicity
 _atom_site_fract_x
 _atom_site_fract_y
 _atom_site_fract_z
 _atom_site_occupancy
  Dy  Dy0  1  0.703164  0.652452  0.689299  1
  Dy  Dy1  1  0.203164  0.347548  0.310701  1
  Mo  Mo2  1  0.704724  0.814910  0.224272  1
  Mo  Mo3  1  0.204724  0.185090  0.775728  1
  F  F4  1  0.940068  0.493545  0.492432  1
  F  F5  1  0.440068  0.506455  0.507568  1
  F  F6  1  0.436052  0.924192  0.757635  1
  F  F7  1  0.936052  0.075808  0.242365  1
  F  F8  1  0.948883  0.958205  0.756455  1
  F  F9  1  0.448883  0.041795  0.243545  1
  F  F10  1  0.967050  0.442424  0.797946  1
  F  F11  1  0.467050  0.557576  0.202054  1
  F  F12  1  0.700639  0.776151  0.981879  1
  F  F13  1  0.200639  0.223849  0.018121  1
  F  F14  1  0.705846  0.865077  0.466761  1
  F  F15  1  0.205846  0.134923  0.533239  1
  F  F16  1  0.469935  0.400602  0.795048  1
  F  F17  1  0.969935  0.599398  0.204952  1
