# generated using pymatgen
data_YbDy3Al23SiPt9
_symmetry_space_group_name_H-M   'P 1'
_cell_length_a   7.53300803
_cell_length_b   7.52873921
_cell_length_c   13.10906800
_cell_angle_alpha   84.50162600
_cell_angle_beta   100.99399748
_cell_angle_gamma   119.91238251
_symmetry_Int_Tables_number   1
_chemical_formula_structural   YbDy3Al23SiPt9
_chemical_formula_sum   'Yb1 Dy3 Al23 Si1 Pt9'
_cell_volume   632.60286517
_cell_formula_units_Z   1
loop_
 _symmetry_equiv_pos_site_id
 _symmetry_equiv_pos_as_xyz
  1  'x, y, z'
loop_
 _atom_site_type_symbol
 _atom_site_label
 _atom_site_symmetry_multiplicity
 _atom_site_fract_x
 _atom_site_fract_y
 _atom_site_fract_z
 _atom_site_occupancy
  Yb  Yb0  1  0.939584  0.326361  0.807502  1
  Dy  Dy1  1  0.732181  0.000059  0.191791  1
  Dy  Dy2  1  0.262367  0.002128  0.808035  1
  Dy  Dy3  1  0.062234  0.666970  0.191820  1
  Al  Al4  1  0.190352  0.129605  0.183684  1
  Al  Al5  1  0.981997  0.664937  0.943878  1
  Al  Al6  1  0.019568  0.334519  0.053713  1
  Al  Al7  1  0.400705  0.670181  0.816229  1
  Al  Al8  1  0.600050  0.335219  0.183746  1
  Al  Al9  1  0.882793  0.661464  0.669795  1
  Al  Al10  1  0.117501  0.334445  0.330147  1
  Al  Al11  1  0.604943  0.457990  0.815796  1
  Al  Al12  1  0.395948  0.540835  0.183944  1
  Al  Al13  1  0.230738  0.341547  0.669323  1
  Al  Al14  1  0.769626  0.659940  0.330809  1
  Al  Al15  1  0.853393  0.332581  0.559584  1
  Al  Al16  1  0.185453  0.999311  0.558869  1
  Al  Al17  1  0.814263  0.000486  0.442785  1
  Al  Al18  1  0.352651  0.000579  0.055451  1
  Al  Al19  1  0.648017  0.002402  0.943407  1
  Al  Al20  1  0.555007  0.995851  0.670468  1
  Al  Al21  1  0.442886  0.005895  0.329931  1
  Al  Al22  1  0.520070  0.667137  0.561073  1
  Al  Al23  1  0.478921  0.332099  0.437450  1
  Al  Al24  1  0.685660  0.669185  0.049994  1
  Al  Al25  1  0.321265  0.336788  0.954019  1
  Al  Al26  1  0.145835  0.666513  0.440646  1
  Si  Si27  1  0.803145  0.861459  0.816391  1
  Pt  Pt28  1  0.331806  0.674657  0.999730  1
  Pt  Pt29  1  0.545313  0.326387  0.636651  1
  Pt  Pt30  1  0.454339  0.675472  0.362701  1
  Pt  Pt31  1  0.886189  0.004499  0.642960  1
  Pt  Pt32  1  0.111020  0.991718  0.361326  1
  Pt  Pt33  1  0.673410  0.330918  0.000047  1
  Pt  Pt34  1  0.206320  0.667833  0.638540  1
  Pt  Pt35  1  0.795640  0.332424  0.361482  1
  Pt  Pt36  1  0.998814  0.999607  0.996289  1
