# generated using pymatgen
data_Pr4TiSn15Ir8
_symmetry_space_group_name_H-M   'P 1'
_cell_length_a   4.52446500
_cell_length_b   7.26595278
_cell_length_c   18.53972887
_cell_angle_alpha   89.47189208
_cell_angle_beta   90.00000000
_cell_angle_gamma   90.00000000
_symmetry_Int_Tables_number   1
_chemical_formula_structural   Pr4TiSn15Ir8
_chemical_formula_sum   'Pr4 Ti1 Sn15 Ir8'
_cell_volume   609.45933584
_cell_formula_units_Z   1
loop_
 _symmetry_equiv_pos_site_id
 _symmetry_equiv_pos_as_xyz
  1  'x, y, z'
loop_
 _atom_site_type_symbol
 _atom_site_label
 _atom_site_symmetry_multiplicity
 _atom_site_fract_x
 _atom_site_fract_y
 _atom_site_fract_z
 _atom_site_occupancy
  Pr  Pr0  1  0.250000  0.994902  0.858939  1
  Pr  Pr1  1  0.250000  0.502315  0.357538  1
  Pr  Pr2  1  0.750000  0.009383  0.143190  1
  Pr  Pr3  1  0.750000  0.497295  0.641557  1
  Ti  Ti4  1  0.250000  0.324150  0.183658  1
  Sn  Sn5  1  0.250000  0.197271  0.681959  1
  Sn  Sn6  1  0.750000  0.696562  0.819102  1
  Sn  Sn7  1  0.750000  0.807067  0.316519  1
  Sn  Sn8  1  0.250000  0.721729  0.192381  1
  Sn  Sn9  1  0.250000  0.776684  0.693685  1
  Sn  Sn10  1  0.750000  0.276296  0.806196  1
  Sn  Sn11  1  0.750000  0.224103  0.298354  1
  Sn  Sn12  1  0.250000  0.859585  0.034758  1
  Sn  Sn13  1  0.250000  0.633669  0.530808  1
  Sn  Sn14  1  0.750000  0.131855  0.969704  1
  Sn  Sn15  1  0.750000  0.364861  0.465797  1
  Sn  Sn16  1  0.250000  0.513869  0.934764  1
  Sn  Sn17  1  0.250000  0.982002  0.428708  1
  Sn  Sn18  1  0.750000  0.468790  0.072800  1
  Sn  Sn19  1  0.750000  0.019553  0.566349  1
  Ir  Ir20  1  0.250000  0.244098  0.043780  1
  Ir  Ir21  1  0.250000  0.247941  0.533663  1
  Ir  Ir22  1  0.750000  0.742659  0.967515  1
  Ir  Ir23  1  0.750000  0.750476  0.464366  1
  Ir  Ir24  1  0.250000  0.027285  0.278469  1
  Ir  Ir25  1  0.250000  0.482215  0.786550  1
  Ir  Ir26  1  0.750000  0.982847  0.713518  1
  Ir  Ir27  1  0.750000  0.520537  0.215372  1
