# generated using pymatgen
data_Dy3Y2Tm11(InIr)4
_symmetry_space_group_name_H-M   'P 1'
_cell_length_a   9.58181661
_cell_length_b   9.58507988
_cell_length_c   9.58917491
_cell_angle_alpha   59.92184049
_cell_angle_beta   59.94535368
_cell_angle_gamma   59.95798794
_symmetry_Int_Tables_number   1
_chemical_formula_structural   Dy3Y2Tm11(InIr)4
_chemical_formula_sum   'Dy3 Y2 Tm11 In4 Ir4'
_cell_volume   621.92121429
_cell_formula_units_Z   1
loop_
 _symmetry_equiv_pos_site_id
 _symmetry_equiv_pos_as_xyz
  1  'x, y, z'
loop_
 _atom_site_type_symbol
 _atom_site_label
 _atom_site_symmetry_multiplicity
 _atom_site_fract_x
 _atom_site_fract_y
 _atom_site_fract_z
 _atom_site_occupancy
  Dy  Dy0  1  0.190746  0.810201  0.190015  1
  Dy  Dy1  1  0.811013  0.809693  0.189733  1
  Dy  Dy2  1  0.191043  0.190255  0.810153  1
  Y  Y3  1  0.809682  0.191896  0.191952  1
  Y  Y4  1  0.811277  0.189223  0.810259  1
  Tm  Tm5  1  0.598140  0.597401  0.597193  1
  Tm  Tm6  1  0.599228  0.600849  0.203840  1
  Tm  Tm7  1  0.599234  0.203814  0.600776  1
  Tm  Tm8  1  0.203802  0.599653  0.599577  1
  Tm  Tm9  1  0.058480  0.440135  0.439907  1
  Tm  Tm10  1  0.438227  0.059977  0.059980  1
  Tm  Tm11  1  0.439404  0.058299  0.441067  1
  Tm  Tm12  1  0.059537  0.439945  0.059076  1
  Tm  Tm13  1  0.439334  0.441252  0.058301  1
  Tm  Tm14  1  0.059538  0.059065  0.439796  1
  Tm  Tm15  1  0.191683  0.808437  0.808833  1
  In  In16  1  0.834581  0.832457  0.832589  1
  In  In17  1  0.832700  0.832302  0.502361  1
  In  In18  1  0.832691  0.502342  0.832351  1
  In  In19  1  0.500770  0.832309  0.832354  1
  Ir  Ir20  1  0.391168  0.390797  0.390804  1
  Ir  Ir21  1  0.390295  0.391961  0.826690  1
  Ir  Ir22  1  0.390573  0.826761  0.391838  1
  Ir  Ir23  1  0.826856  0.390975  0.390555  1
