# generated using pymatgen
data_Tb3Pr(CuP)6
_symmetry_space_group_name_H-M   'P 1'
_cell_length_a   3.91113700
_cell_length_b   10.76664100
_cell_length_c   13.00764500
_cell_angle_alpha   90.00000000
_cell_angle_beta   90.00000000
_cell_angle_gamma   90.00000000
_symmetry_Int_Tables_number   1
_chemical_formula_structural   Tb3Pr(CuP)6
_chemical_formula_sum   'Tb6 Pr2 Cu12 P12'
_cell_volume   547.74943323
_cell_formula_units_Z   2
loop_
 _symmetry_equiv_pos_site_id
 _symmetry_equiv_pos_as_xyz
  1  'x, y, z'
loop_
 _atom_site_type_symbol
 _atom_site_label
 _atom_site_symmetry_multiplicity
 _atom_site_fract_x
 _atom_site_fract_y
 _atom_site_fract_z
 _atom_site_occupancy
  Tb  Tb0  1  0.250000  0.569784  0.293051  1
  Tb  Tb1  1  0.750000  0.069784  0.206949  1
  Tb  Tb2  1  0.250000  0.841373  0.500804  1
  Tb  Tb3  1  0.750000  0.341373  0.999196  1
  Tb  Tb4  1  0.250000  0.657420  0.003806  1
  Tb  Tb5  1  0.750000  0.157420  0.496194  1
  Pr  Pr6  1  0.250000  0.931283  0.793656  1
  Pr  Pr7  1  0.750000  0.431283  0.706344  1
  Cu  Cu8  1  0.250000  0.400709  0.511381  1
  Cu  Cu9  1  0.750000  0.900709  0.988619  1
  Cu  Cu10  1  0.250000  0.099144  0.014494  1
  Cu  Cu11  1  0.750000  0.599144  0.485506  1
  Cu  Cu12  1  0.250000  0.272919  0.332005  1
  Cu  Cu13  1  0.750000  0.772919  0.167995  1
  Cu  Cu14  1  0.250000  0.228231  0.833297  1
  Cu  Cu15  1  0.750000  0.728231  0.666703  1
  Cu  Cu16  1  0.250000  0.860531  0.278453  1
  Cu  Cu17  1  0.750000  0.360531  0.221547  1
  Cu  Cu18  1  0.250000  0.640377  0.779922  1
  Cu  Cu19  1  0.750000  0.140377  0.720078  1
  P  P20  1  0.250000  0.235220  0.643211  1
  P  P21  1  0.750000  0.735220  0.856789  1
  P  P22  1  0.250000  0.260049  0.145076  1
  P  P23  1  0.750000  0.760049  0.354924  1
  P  P24  1  0.250000  0.606331  0.598353  1
  P  P25  1  0.750000  0.106331  0.901647  1
  P  P26  1  0.250000  0.896617  0.099451  1
  P  P27  1  0.750000  0.396617  0.400549  1
  P  P28  1  0.250000  0.057669  0.367511  1
  P  P29  1  0.750000  0.557669  0.132489  1
  P  P30  1  0.250000  0.442343  0.873110  1
  P  P31  1  0.750000  0.942343  0.626890  1
