# generated using pymatgen
data_Sr2Ir(RhO4)2
_symmetry_space_group_name_H-M   'P 1'
_cell_length_a   6.58026457
_cell_length_b   6.58026545
_cell_length_c   5.38804353
_cell_angle_alpha   72.18318867
_cell_angle_beta   72.18318241
_cell_angle_gamma   58.07569529
_symmetry_Int_Tables_number   1
_chemical_formula_structural   Sr2Ir(RhO4)2
_chemical_formula_sum   'Sr2 Ir1 Rh2 O8'
_cell_volume   185.49228850
_cell_formula_units_Z   1
loop_
 _symmetry_equiv_pos_site_id
 _symmetry_equiv_pos_as_xyz
  1  'x, y, z'
loop_
 _atom_site_type_symbol
 _atom_site_label
 _atom_site_symmetry_multiplicity
 _atom_site_fract_x
 _atom_site_fract_y
 _atom_site_fract_z
 _atom_site_occupancy
  Sr  Sr0  1  0.719083  0.720854  0.334234  1
  Sr  Sr1  1  0.279146  0.280917  0.665766  1
  Ir  Ir2  1  0.255920  0.744080  0.000000  1
  Rh  Rh3  1  0.997157  0.002843  0.500000  1
  Rh  Rh4  1  0.747243  0.252757  0.000000  1
  O  O5  1  0.398768  0.402808  0.960212  1
  O  O6  1  0.597192  0.601232  0.039788  1
  O  O7  1  0.908684  0.904984  0.909356  1
  O  O8  1  0.095016  0.091316  0.090644  1
  O  O9  1  0.316370  0.878218  0.619684  1
  O  O10  1  0.881847  0.318206  0.609251  1
  O  O11  1  0.121782  0.683630  0.380316  1
  O  O12  1  0.681794  0.118153  0.390749  1
