# generated using pymatgen
data_SmTm3Fe4(WO6)4
_symmetry_space_group_name_H-M   'P 1'
_cell_length_a   5.21336542
_cell_length_b   7.42681187
_cell_length_c   11.09281290
_cell_angle_alpha   90.14599145
_cell_angle_beta   90.13858380
_cell_angle_gamma   89.94714291
_symmetry_Int_Tables_number   1
_chemical_formula_structural   SmTm3Fe4(WO6)4
_chemical_formula_sum   'Sm1 Tm3 Fe4 W4 O24'
_cell_volume   429.49628850
_cell_formula_units_Z   1
loop_
 _symmetry_equiv_pos_site_id
 _symmetry_equiv_pos_as_xyz
  1  'x, y, z'
loop_
 _atom_site_type_symbol
 _atom_site_label
 _atom_site_symmetry_multiplicity
 _atom_site_fract_x
 _atom_site_fract_y
 _atom_site_fract_z
 _atom_site_occupancy
  Sm  Sm0  1  0.458986  0.751197  0.955607  1
  Tm  Tm1  1  0.548555  0.251216  0.045623  1
  Tm  Tm2  1  0.045699  0.751068  0.454787  1
  Tm  Tm3  1  0.954152  0.251131  0.544517  1
  Fe  Fe4  1  0.043790  0.998252  0.140522  1
  Fe  Fe5  1  0.544512  0.495863  0.361459  1
  Fe  Fe6  1  0.456595  0.996648  0.637599  1
  Fe  Fe7  1  0.958042  0.493502  0.860540  1
  W  W8  1  0.052905  0.505191  0.144194  1
  W  W9  1  0.552389  0.006602  0.357968  1
  W  W10  1  0.447492  0.506505  0.640547  1
  W  W11  1  0.949077  0.010257  0.856783  1
  O  O12  1  0.758743  0.967791  0.021009  1
  O  O13  1  0.764522  0.539818  0.030013  1
  O  O14  1  0.169236  0.748512  0.118832  1
  O  O15  1  0.929520  0.257712  0.146680  1
  O  O16  1  0.379412  0.431649  0.206150  1
  O  O17  1  0.395435  0.068505  0.211294  1
  O  O18  1  0.893908  0.567852  0.290098  1
  O  O19  1  0.876064  0.931014  0.294450  1
  O  O20  1  0.429197  0.758610  0.357151  1
  O  O21  1  0.679857  0.248246  0.385200  1
  O  O22  1  0.260621  0.047212  0.470856  1
  O  O23  1  0.252898  0.459477  0.478850  1
  O  O24  1  0.747036  0.959643  0.520082  1
  O  O25  1  0.739191  0.547306  0.528092  1
  O  O26  1  0.318980  0.748795  0.615004  1
  O  O27  1  0.570621  0.258838  0.640972  1
  O  O28  1  0.124548  0.431361  0.705687  1
  O  O29  1  0.108092  0.070800  0.711290  1
  O  O30  1  0.610158  0.566469  0.785518  1
  O  O31  1  0.625212  0.937368  0.790891  1
  O  O32  1  0.056293  0.759179  0.856780  1
  O  O33  1  0.816204  0.250212  0.883610  1
  O  O34  1  0.238405  0.051158  0.970531  1
  O  O35  1  0.243648  0.455437  0.980815  1
