# generated using pymatgen
data_Th4Cu2SiRh10
_symmetry_space_group_name_H-M   'P 1'
_cell_length_a   7.27869462
_cell_length_b   7.32988598
_cell_length_c   7.32988636
_cell_angle_alpha   108.36691799
_cell_angle_beta   110.17312216
_cell_angle_gamma   110.17312093
_symmetry_Int_Tables_number   1
_chemical_formula_structural   Th4Cu2SiRh10
_chemical_formula_sum   'Th4 Cu2 Si1 Rh10'
_cell_volume   299.84936137
_cell_formula_units_Z   1
loop_
 _symmetry_equiv_pos_site_id
 _symmetry_equiv_pos_as_xyz
  1  'x, y, z'
loop_
 _atom_site_type_symbol
 _atom_site_label
 _atom_site_symmetry_multiplicity
 _atom_site_fract_x
 _atom_site_fract_y
 _atom_site_fract_z
 _atom_site_occupancy
  Th  Th0  1  0.011571  0.005785  0.505785  1
  Th  Th1  1  0.011571  0.505785  0.005785  1
  Th  Th2  1  0.487942  0.983424  0.983424  1
  Th  Th3  1  0.487942  0.504518  0.504518  1
  Cu  Cu4  1  0.749377  0.250968  0.498409  1
  Cu  Cu5  1  0.749377  0.498409  0.250968  1
  Si  Si6  1  0.001888  0.000944  0.000944  1
  Rh  Rh7  1  0.507929  0.253964  0.753964  1
  Rh  Rh8  1  0.240669  0.494807  0.745862  1
  Rh  Rh9  1  0.240669  0.745862  0.494807  1
  Rh  Rh10  1  0.507929  0.753964  0.253964  1
  Rh  Rh11  1  0.731676  0.722200  0.009476  1
  Rh  Rh12  1  0.289315  0.009058  0.280257  1
  Rh  Rh13  1  0.980577  0.267475  0.267475  1
  Rh  Rh14  1  0.289315  0.280257  0.009058  1
  Rh  Rh15  1  0.731676  0.009476  0.722200  1
  Rh  Rh16  1  0.980577  0.713103  0.713103  1
