# generated using pymatgen
data_Pr14Y2Cd4Ru3Au
_symmetry_space_group_name_H-M   'P 1'
_cell_length_a   10.02251825
_cell_length_b   9.98199483
_cell_length_c   10.02251811
_cell_angle_alpha   59.86114663
_cell_angle_beta   60.01384769
_cell_angle_gamma   59.86114176
_symmetry_Int_Tables_number   1
_chemical_formula_structural   Pr14Y2Cd4Ru3Au
_chemical_formula_sum   'Pr14 Y2 Cd4 Ru3 Au1'
_cell_volume   707.59799112
_cell_formula_units_Z   1
loop_
 _symmetry_equiv_pos_site_id
 _symmetry_equiv_pos_as_xyz
  1  'x, y, z'
loop_
 _atom_site_type_symbol
 _atom_site_label
 _atom_site_symmetry_multiplicity
 _atom_site_fract_x
 _atom_site_fract_y
 _atom_site_fract_z
 _atom_site_occupancy
  Pr  Pr0  1  0.439565  0.437391  0.060225  1
  Pr  Pr1  1  0.065448  0.055665  0.440126  1
  Pr  Pr2  1  0.440126  0.055665  0.065448  1
  Pr  Pr3  1  0.855528  0.840715  0.855528  1
  Pr  Pr4  1  0.688895  0.322932  0.298196  1
  Pr  Pr5  1  0.060225  0.437391  0.439565  1
  Pr  Pr6  1  0.313026  0.687613  0.687084  1
  Pr  Pr7  1  0.298196  0.322932  0.688895  1
  Pr  Pr8  1  0.857894  0.840046  0.449047  1
  Pr  Pr9  1  0.687084  0.687613  0.313026  1
  Pr  Pr10  1  0.449047  0.840046  0.857894  1
  Pr  Pr11  1  0.061692  0.436357  0.061692  1
  Pr  Pr12  1  0.843102  0.460711  0.843102  1
  Pr  Pr13  1  0.441330  0.054887  0.441330  1
  Y  Y14  1  0.310101  0.689385  0.310101  1
  Y  Y15  1  0.691412  0.318689  0.691412  1
  Cd  Cd16  1  0.081338  0.757738  0.081338  1
  Cd  Cd17  1  0.077161  0.082099  0.760217  1
  Cd  Cd18  1  0.760217  0.082099  0.077161  1
  Cd  Cd19  1  0.080148  0.078414  0.080148  1
  Ru  Ru20  1  0.637562  0.643633  0.637562  1
  Ru  Ru21  1  0.637665  0.646746  0.079071  1
  Ru  Ru22  1  0.079071  0.646746  0.637665  1
  Au  Au23  1  0.644164  0.074485  0.644164  1
