# generated using pymatgen
data_Pr12Rh3AuI12
_symmetry_space_group_name_H-M   'P 1'
_cell_length_a   11.02939088
_cell_length_b   11.02961732
_cell_length_c   11.02958131
_cell_angle_alpha   109.86925208
_cell_angle_beta   109.86899243
_cell_angle_gamma   109.86897534
_symmetry_Int_Tables_number   1
_chemical_formula_structural   Pr12Rh3AuI12
_chemical_formula_sum   'Pr12 Rh3 Au1 I12'
_cell_volume   1017.37952159
_cell_formula_units_Z   1
loop_
 _symmetry_equiv_pos_site_id
 _symmetry_equiv_pos_as_xyz
  1  'x, y, z'
loop_
 _atom_site_type_symbol
 _atom_site_label
 _atom_site_symmetry_multiplicity
 _atom_site_fract_x
 _atom_site_fract_y
 _atom_site_fract_z
 _atom_site_occupancy
  Pr  Pr0  1  0.459724  0.487461  0.223723  1
  Pr  Pr1  1  0.750004  0.228348  0.271656  1
  Pr  Pr2  1  0.750004  0.020420  0.479584  1
  Pr  Pr3  1  0.223749  0.459749  0.487460  1
  Pr  Pr4  1  0.271654  0.749964  0.228312  1
  Pr  Pr5  1  0.040276  0.276276  0.012538  1
  Pr  Pr6  1  0.012540  0.040252  0.276250  1
  Pr  Pr7  1  0.479547  0.749962  0.020412  1
  Pr  Pr8  1  0.487458  0.223751  0.459750  1
  Pr  Pr9  1  0.020452  0.479584  0.750031  1
  Pr  Pr10  1  0.276249  0.012542  0.040250  1
  Pr  Pr11  1  0.228344  0.271688  0.750031  1
  Rh  Rh12  1  0.501497  0.998464  0.249986  1
  Rh  Rh13  1  0.998507  0.250015  0.501537  1
  Rh  Rh14  1  0.250001  0.501511  0.998493  1
  Au  Au15  1  0.249999  0.250010  0.249990  1
  I  I16  1  0.250000  0.759798  0.740200  1
  I  I17  1  0.514984  0.506494  0.756506  1
  I  I18  1  0.985014  0.743494  0.993505  1
  I  I19  1  0.740206  0.250006  0.759810  1
  I  I20  1  0.993513  0.985020  0.743504  1
  I  I21  1  0.250001  0.993457  0.506545  1
  I  I22  1  0.756502  0.514992  0.506493  1
  I  I23  1  0.506537  0.250003  0.993454  1
  I  I24  1  0.759794  0.740191  0.249995  1
  I  I25  1  0.743498  0.993508  0.985008  1
  I  I26  1  0.993462  0.506545  0.249997  1
  I  I27  1  0.506487  0.756496  0.514980  1
