# generated using pymatgen
data_Cs4Ga2Au7
_symmetry_space_group_name_H-M   'P 1'
_cell_length_a   10.59296879
_cell_length_b   10.59296830
_cell_length_c   10.59296847
_cell_angle_alpha   37.83352765
_cell_angle_beta   37.83353033
_cell_angle_gamma   37.83353198
_symmetry_Int_Tables_number   1
_chemical_formula_structural   Cs4Ga2Au7
_chemical_formula_sum   'Cs4 Ga2 Au7'
_cell_volume   401.29999552
_cell_formula_units_Z   1
loop_
 _symmetry_equiv_pos_site_id
 _symmetry_equiv_pos_as_xyz
  1  'x, y, z'
loop_
 _atom_site_type_symbol
 _atom_site_label
 _atom_site_symmetry_multiplicity
 _atom_site_fract_x
 _atom_site_fract_y
 _atom_site_fract_z
 _atom_site_occupancy
  Cs  Cs0  1  0.811951  0.811951  0.811951  1
  Cs  Cs1  1  0.684430  0.684430  0.684430  1
  Cs  Cs2  1  0.315570  0.315570  0.315570  1
  Cs  Cs3  1  0.188049  0.188049  0.188049  1
  Ga  Ga4  1  0.451947  0.451947  0.451947  1
  Ga  Ga5  1  0.548053  0.548053  0.548053  1
  Au  Au6  1  0.779218  0.779218  0.203772  1
  Au  Au7  1  0.220782  0.796228  0.220782  1
  Au  Au8  1  0.779218  0.203772  0.779218  1
  Au  Au9  1  0.796228  0.220782  0.220782  1
  Au  Au10  1  0.203772  0.779218  0.779218  1
  Au  Au11  1  0.000000  0.000000  0.000000  1
  Au  Au12  1  0.220782  0.220782  0.796228  1
