# generated using pymatgen
data_Pr4LuP12Ru19
_symmetry_space_group_name_H-M   'P 1'
_cell_length_a   12.63640400
_cell_length_b   12.63640411
_cell_length_c   4.01980200
_cell_angle_alpha   90.00000000
_cell_angle_beta   90.00000000
_cell_angle_gamma   119.99999972
_symmetry_Int_Tables_number   1
_chemical_formula_structural   Pr4LuP12Ru19
_chemical_formula_sum   'Pr4 Lu1 P12 Ru19'
_cell_volume   555.88160554
_cell_formula_units_Z   1
loop_
 _symmetry_equiv_pos_site_id
 _symmetry_equiv_pos_as_xyz
  1  'x, y, z'
loop_
 _atom_site_type_symbol
 _atom_site_label
 _atom_site_symmetry_multiplicity
 _atom_site_fract_x
 _atom_site_fract_y
 _atom_site_fract_z
 _atom_site_occupancy
  Pr  Pr0  1  0.816115  0.000414  0.500000  1
  Pr  Pr1  1  0.999586  0.815700  0.500000  1
  Pr  Pr2  1  0.184300  0.183885  0.500000  1
  Pr  Pr3  1  0.666667  0.333333  0.000000  1
  Lu  Lu4  1  0.333333  0.666667  0.000000  1
  P  P5  1  0.187427  0.998114  0.000000  1
  P  P6  1  0.001886  0.189313  0.000000  1
  P  P7  1  0.810687  0.812573  0.000000  1
  P  P8  1  0.520193  0.695660  0.500000  1
  P  P9  1  0.304340  0.824533  0.500000  1
  P  P10  1  0.175467  0.479807  0.500000  1
  P  P11  1  0.475549  0.170468  0.500000  1
  P  P12  1  0.694919  0.524451  0.500000  1
  P  P13  1  0.829532  0.305081  0.500000  1
  P  P14  1  0.625364  0.000494  0.000000  1
  P  P15  1  0.999506  0.624870  0.000000  1
  P  P16  1  0.375130  0.374636  0.000000  1
  Ru  Ru17  1  0.445637  0.999693  0.000000  1
  Ru  Ru18  1  0.000307  0.445944  0.000000  1
  Ru  Ru19  1  0.554056  0.554363  0.000000  1
  Ru  Ru20  1  0.285512  0.997631  0.500000  1
  Ru  Ru21  1  0.002369  0.287881  0.500000  1
  Ru  Ru22  1  0.712119  0.714488  0.500000  1
  Ru  Ru23  1  0.617381  0.804537  0.000000  1
  Ru  Ru24  1  0.195463  0.812844  0.000000  1
  Ru  Ru25  1  0.187156  0.382619  0.000000  1
  Ru  Ru26  1  0.378353  0.183362  0.000000  1
  Ru  Ru27  1  0.805009  0.621647  0.000000  1
  Ru  Ru28  1  0.816638  0.194991  0.000000  1
  Ru  Ru29  1  0.504215  0.872596  0.500000  1
  Ru  Ru30  1  0.127404  0.631619  0.500000  1
  Ru  Ru31  1  0.368381  0.495785  0.500000  1
  Ru  Ru32  1  0.490242  0.367160  0.500000  1
  Ru  Ru33  1  0.876918  0.509758  0.500000  1
  Ru  Ru34  1  0.632840  0.123082  0.500000  1
  Ru  Ru35  1  0.000000  0.000000  0.000000  1
