# generated using pymatgen
data_Cs8Zr6MnCl20
_symmetry_space_group_name_H-M   'P 1'
_cell_length_a   12.02235985
_cell_length_b   12.02236002
_cell_length_c   12.02235900
_cell_angle_alpha   60.00000006
_cell_angle_beta   59.99999959
_cell_angle_gamma   60.00000179
_symmetry_Int_Tables_number   1
_chemical_formula_structural   Cs8Zr6MnCl20
_chemical_formula_sum   'Cs8 Zr6 Mn1 Cl20'
_cell_volume   1228.72346306
_cell_formula_units_Z   1
loop_
 _symmetry_equiv_pos_site_id
 _symmetry_equiv_pos_as_xyz
  1  'x, y, z'
loop_
 _atom_site_type_symbol
 _atom_site_label
 _atom_site_symmetry_multiplicity
 _atom_site_fract_x
 _atom_site_fract_y
 _atom_site_fract_z
 _atom_site_occupancy
  Cs  Cs0  1  0.359801  0.359801  0.359801  1
  Cs  Cs1  1  0.640199  0.640199  0.640199  1
  Cs  Cs2  1  0.359801  0.359801  0.920597  1
  Cs  Cs3  1  0.359801  0.920597  0.359801  1
  Cs  Cs4  1  0.640199  0.640199  0.079403  1
  Cs  Cs5  1  0.640199  0.079403  0.640199  1
  Cs  Cs6  1  0.920597  0.359801  0.359801  1
  Cs  Cs7  1  0.079403  0.640199  0.640199  1
  Zr  Zr8  1  0.857712  0.142288  0.142288  1
  Zr  Zr9  1  0.142288  0.857712  0.857712  1
  Zr  Zr10  1  0.142288  0.857712  0.142288  1
  Zr  Zr11  1  0.857712  0.142288  0.857712  1
  Zr  Zr12  1  0.142288  0.142288  0.857712  1
  Zr  Zr13  1  0.857712  0.857712  0.142288  1
  Mn  Mn14  1  0.000000  0.000000  0.000000  1
  Cl  Cl15  1  0.310690  0.000000  0.000000  1
  Cl  Cl16  1  0.689310  0.000000  0.000000  1
  Cl  Cl17  1  0.000000  0.310690  0.689310  1
  Cl  Cl18  1  0.000000  0.689310  0.310690  1
  Cl  Cl19  1  0.000000  0.310690  0.000000  1
  Cl  Cl20  1  0.689310  0.000000  0.310690  1
  Cl  Cl21  1  0.000000  0.689310  0.000000  1
  Cl  Cl22  1  0.310690  0.000000  0.689310  1
  Cl  Cl23  1  0.000000  0.000000  0.310690  1
  Cl  Cl24  1  0.000000  0.000000  0.689310  1
  Cl  Cl25  1  0.689310  0.310690  0.000000  1
  Cl  Cl26  1  0.310690  0.689310  0.000000  1
  Cl  Cl27  1  0.696050  0.303950  0.303950  1
  Cl  Cl28  1  0.303950  0.696050  0.696050  1
  Cl  Cl29  1  0.303950  0.696050  0.303950  1
  Cl  Cl30  1  0.696050  0.303950  0.696050  1
  Cl  Cl31  1  0.303950  0.303950  0.696050  1
  Cl  Cl32  1  0.696050  0.696050  0.303950  1
  Cl  Cl33  1  0.250000  0.250000  0.250000  1
  Cl  Cl34  1  0.750000  0.750000  0.750000  1
