# generated using pymatgen
data_Hf5GaSnBi
_symmetry_space_group_name_H-M   'P 1'
_cell_length_a   5.56368286
_cell_length_b   8.36791715
_cell_length_c   8.37768600
_cell_angle_alpha   83.66229430
_cell_angle_beta   70.60652009
_cell_angle_gamma   70.58297912
_symmetry_Int_Tables_number   1
_chemical_formula_structural   Hf5GaSnBi
_chemical_formula_sum   'Hf10 Ga2 Sn2 Bi2'
_cell_volume   346.97981545
_cell_formula_units_Z   2
loop_
 _symmetry_equiv_pos_site_id
 _symmetry_equiv_pos_as_xyz
  1  'x, y, z'
loop_
 _atom_site_type_symbol
 _atom_site_label
 _atom_site_symmetry_multiplicity
 _atom_site_fract_x
 _atom_site_fract_y
 _atom_site_fract_z
 _atom_site_occupancy
  Hf  Hf0  1  0.070651  0.142432  0.716267  1
  Hf  Hf1  1  0.929349  0.857568  0.283733  1
  Hf  Hf2  1  0.788055  0.289919  0.133971  1
  Hf  Hf3  1  0.422026  0.289919  0.866029  1
  Hf  Hf4  1  0.211945  0.710081  0.866029  1
  Hf  Hf5  1  0.577974  0.710081  0.133971  1
  Hf  Hf6  1  0.713082  0.857568  0.716267  1
  Hf  Hf7  1  0.286918  0.142432  0.283733  1
  Hf  Hf8  1  0.246336  0.500000  0.500000  1
  Hf  Hf9  1  0.753664  0.500000  0.500000  1
  Ga  Ga10  1  0.250000  0.000000  0.000000  1
  Ga  Ga11  1  0.750000  0.000000  0.000000  1
  Sn  Sn12  1  0.164247  0.500000  0.171506  1
  Sn  Sn13  1  0.835753  0.500000  0.828494  1
  Bi  Bi14  1  0.333683  0.832634  0.500000  1
  Bi  Bi15  1  0.666317  0.167366  0.500000  1
