# generated using pymatgen
data_Tb2YGa2Ag3Ge
_symmetry_space_group_name_H-M   'P 1'
_cell_length_a   7.27569219
_cell_length_b   7.27934118
_cell_length_c   4.16683600
_cell_angle_alpha   90.00000000
_cell_angle_beta   90.00000000
_cell_angle_gamma   119.95749869
_symmetry_Int_Tables_number   1
_chemical_formula_structural   Tb2YGa2Ag3Ge
_chemical_formula_sum   'Tb2 Y1 Ga2 Ag3 Ge1'
_cell_volume   191.20060770
_cell_formula_units_Z   1
loop_
 _symmetry_equiv_pos_site_id
 _symmetry_equiv_pos_as_xyz
  1  'x, y, z'
loop_
 _atom_site_type_symbol
 _atom_site_label
 _atom_site_symmetry_multiplicity
 _atom_site_fract_x
 _atom_site_fract_y
 _atom_site_fract_z
 _atom_site_occupancy
  Tb  Tb0  1  0.584145  0.003784  0.000000  1
  Tb  Tb1  1  0.996181  0.580590  0.000000  1
  Y  Y2  1  0.419076  0.415459  0.000000  1
  Ga  Ga3  1  0.333468  0.666562  0.500000  1
  Ga  Ga4  1  0.000269  0.000231  0.000000  1
  Ag  Ag5  1  0.245053  0.994708  0.500000  1
  Ag  Ag6  1  0.005159  0.250037  0.500000  1
  Ag  Ag7  1  0.749962  0.755107  0.500000  1
  Ge  Ge8  1  0.666686  0.333522  0.500000  1
