# generated using pymatgen
data_Hf8Nb4(Ga3Sn)3
_symmetry_space_group_name_H-M   'P 1'
_cell_length_a   5.58580100
_cell_length_b   8.65618319
_cell_length_c   9.26791630
_cell_angle_alpha   89.78522627
_cell_angle_beta   90.00000000
_cell_angle_gamma   90.00000000
_symmetry_Int_Tables_number   1
_chemical_formula_structural   Hf8Nb4(Ga3Sn)3
_chemical_formula_sum   'Hf8 Nb4 Ga9 Sn3'
_cell_volume   448.11651485
_cell_formula_units_Z   1
loop_
 _symmetry_equiv_pos_site_id
 _symmetry_equiv_pos_as_xyz
  1  'x, y, z'
loop_
 _atom_site_type_symbol
 _atom_site_label
 _atom_site_symmetry_multiplicity
 _atom_site_fract_x
 _atom_site_fract_y
 _atom_site_fract_z
 _atom_site_occupancy
  Hf  Hf0  1  0.750000  0.468497  0.613457  1
  Hf  Hf1  1  0.250000  0.530268  0.377618  1
  Hf  Hf2  1  0.750000  0.967853  0.389743  1
  Hf  Hf3  1  0.250000  0.031585  0.611535  1
  Hf  Hf4  1  0.750000  0.373957  0.193275  1
  Hf  Hf5  1  0.250000  0.623249  0.810916  1
  Hf  Hf6  1  0.750000  0.871010  0.803583  1
  Hf  Hf7  1  0.250000  0.136551  0.192500  1
  Nb  Nb8  1  0.002774  0.744815  0.118958  1
  Nb  Nb9  1  0.497084  0.254075  0.884611  1
  Nb  Nb10  1  0.002916  0.254075  0.884611  1
  Nb  Nb11  1  0.497226  0.744815  0.118958  1
  Ga  Ga12  1  0.003363  0.747659  0.571067  1
  Ga  Ga13  1  0.500819  0.250688  0.429177  1
  Ga  Ga14  1  0.999181  0.250688  0.429177  1
  Ga  Ga15  1  0.496637  0.747659  0.571067  1
  Ga  Ga16  1  0.250000  0.451213  0.079782  1
  Ga  Ga17  1  0.750000  0.138354  0.651560  1
  Ga  Ga18  1  0.250000  0.866058  0.349001  1
  Ga  Ga19  1  0.750000  0.636317  0.351569  1
  Ga  Ga20  1  0.250000  0.364196  0.647592  1
  Sn  Sn21  1  0.750000  0.047438  0.082722  1
  Sn  Sn22  1  0.250000  0.950890  0.918033  1
  Sn  Sn23  1  0.750000  0.548087  0.919486  1
