# generated using pymatgen
data_Rb5Y2InI12
_symmetry_space_group_name_H-M   'P 1'
_cell_length_a   9.41474994
_cell_length_b   8.84232142
_cell_length_c   15.42193000
_cell_angle_alpha   55.58624675
_cell_angle_beta   89.92559564
_cell_angle_gamma   90.17710003
_symmetry_Int_Tables_number   1
_chemical_formula_structural   Rb5Y2InI12
_chemical_formula_sum   'Rb5 Y2 In1 I12'
_cell_volume   1059.13440035
_cell_formula_units_Z   1
loop_
 _symmetry_equiv_pos_site_id
 _symmetry_equiv_pos_as_xyz
  1  'x, y, z'
loop_
 _atom_site_type_symbol
 _atom_site_label
 _atom_site_symmetry_multiplicity
 _atom_site_fract_x
 _atom_site_fract_y
 _atom_site_fract_z
 _atom_site_occupancy
  Rb  Rb0  1  0.500000  0.500000  0.000000  1
  Rb  Rb1  1  0.070031  0.723326  0.753533  1
  Rb  Rb2  1  0.929969  0.276674  0.246467  1
  Rb  Rb3  1  0.571121  0.278393  0.744205  1
  Rb  Rb4  1  0.428879  0.721607  0.255795  1
  Y  Y5  1  0.500000  0.000000  0.500000  1
  Y  Y6  1  0.000000  0.000000  0.000000  1
  In  In7  1  0.000000  0.500000  0.500000  1
  I  I8  1  0.774016  0.767493  0.567996  1
  I  I9  1  0.225984  0.232507  0.432004  1
  I  I10  1  0.274328  0.229657  0.930669  1
  I  I11  1  0.725672  0.770343  0.069331  1
  I  I12  1  0.448754  0.891801  0.724208  1
  I  I13  1  0.551246  0.108199  0.275792  1
  I  I14  1  0.950119  0.113231  0.772700  1
  I  I15  1  0.049881  0.886769  0.227300  1
  I  I16  1  0.323719  0.664965  0.549541  1
  I  I17  1  0.676281  0.335035  0.450459  1
  I  I18  1  0.829365  0.334065  0.949904  1
  I  I19  1  0.170635  0.665935  0.050096  1
