# generated using pymatgen
data_SmDy5Hf2(Co4P3)4
_symmetry_space_group_name_H-M   'P 1'
_cell_length_a   3.72732800
_cell_length_b   10.70783500
_cell_length_c   12.41133300
_cell_angle_alpha   90.00000000
_cell_angle_beta   90.00000000
_cell_angle_gamma   90.00000000
_symmetry_Int_Tables_number   1
_chemical_formula_structural   SmDy5Hf2(Co4P3)4
_chemical_formula_sum   'Sm1 Dy5 Hf2 Co16 P12'
_cell_volume   495.35632218
_cell_formula_units_Z   1
loop_
 _symmetry_equiv_pos_site_id
 _symmetry_equiv_pos_as_xyz
  1  'x, y, z'
loop_
 _atom_site_type_symbol
 _atom_site_label
 _atom_site_symmetry_multiplicity
 _atom_site_fract_x
 _atom_site_fract_y
 _atom_site_fract_z
 _atom_site_occupancy
  Sm  Sm0  1  0.000000  0.500000  0.529277  1
  Dy  Dy1  1  0.500000  0.000000  0.471237  1
  Dy  Dy2  1  0.500000  0.821957  0.204585  1
  Dy  Dy3  1  0.500000  0.178043  0.204585  1
  Dy  Dy4  1  0.000000  0.678220  0.795815  1
  Dy  Dy5  1  0.000000  0.321780  0.795815  1
  Hf  Hf6  1  0.500000  0.500000  0.156057  1
  Hf  Hf7  1  0.000000  0.000000  0.843026  1
  Co  Co8  1  0.500000  0.500000  0.705227  1
  Co  Co9  1  0.000000  0.000000  0.296421  1
  Co  Co10  1  0.000000  0.500000  0.987050  1
  Co  Co11  1  0.500000  0.000000  0.013086  1
  Co  Co12  1  0.500000  0.331802  0.993543  1
  Co  Co13  1  0.500000  0.668198  0.993543  1
  Co  Co14  1  0.000000  0.167894  0.006458  1
  Co  Co15  1  0.000000  0.832106  0.006458  1
  Co  Co16  1  0.500000  0.293743  0.432530  1
  Co  Co17  1  0.500000  0.706257  0.432530  1
  Co  Co18  1  0.000000  0.203471  0.566997  1
  Co  Co19  1  0.000000  0.796529  0.566997  1
  Co  Co20  1  0.500000  0.878416  0.703417  1
  Co  Co21  1  0.500000  0.121584  0.703417  1
  Co  Co22  1  0.000000  0.622322  0.296252  1
  Co  Co23  1  0.000000  0.377678  0.296252  1
  P  P24  1  0.500000  0.500000  0.884323  1
  P  P25  1  0.000000  0.000000  0.116114  1
  P  P26  1  0.500000  0.500000  0.359564  1
  P  P27  1  0.000000  0.000000  0.638395  1
  P  P28  1  0.500000  0.307835  0.616248  1
  P  P29  1  0.500000  0.692165  0.616248  1
  P  P30  1  0.000000  0.189838  0.384275  1
  P  P31  1  0.000000  0.810162  0.384275  1
  P  P32  1  0.500000  0.838800  0.893372  1
  P  P33  1  0.500000  0.161200  0.893372  1
  P  P34  1  0.000000  0.661645  0.106621  1
  P  P35  1  0.000000  0.338355  0.106621  1
