# generated using pymatgen
data_Nd10Ir2I15
_symmetry_space_group_name_H-M   'P 1'
_cell_length_a   10.10383370
_cell_length_b   10.98549498
_cell_length_c   11.82717600
_cell_angle_alpha   92.28734935
_cell_angle_beta   114.14832088
_cell_angle_gamma   110.46634180
_symmetry_Int_Tables_number   1
_chemical_formula_structural   Nd10Ir2I15
_chemical_formula_sum   'Nd10 Ir2 I15'
_cell_volume   1096.26926323
_cell_formula_units_Z   1
loop_
 _symmetry_equiv_pos_site_id
 _symmetry_equiv_pos_as_xyz
  1  'x, y, z'
loop_
 _atom_site_type_symbol
 _atom_site_label
 _atom_site_symmetry_multiplicity
 _atom_site_fract_x
 _atom_site_fract_y
 _atom_site_fract_z
 _atom_site_occupancy
  Nd  Nd0  1  0.226415  0.577496  0.050183  1
  Nd  Nd1  1  0.773585  0.422504  0.949817  1
  Nd  Nd2  1  0.294496  0.899776  0.272528  1
  Nd  Nd3  1  0.705504  0.100224  0.727472  1
  Nd  Nd4  1  0.087276  0.544115  0.329597  1
  Nd  Nd5  1  0.912724  0.455885  0.670403  1
  Nd  Nd6  1  0.833068  0.750229  0.177043  1
  Nd  Nd7  1  0.166932  0.249771  0.822957  1
  Nd  Nd8  1  0.973961  0.792572  0.902195  1
  Nd  Nd9  1  0.026039  0.207428  0.097805  1
  Ir  Ir10  1  0.031437  0.670629  0.117544  1
  Ir  Ir11  1  0.968563  0.329371  0.882456  1
  I  I12  1  0.339198  0.443406  0.302135  1
  I  I13  1  0.660802  0.556594  0.697865  1
  I  I14  1  0.211844  0.739155  0.816942  1
  I  I15  1  0.788156  0.260845  0.183058  1
  I  I16  1  0.142896  0.386106  0.584569  1
  I  I17  1  0.857104  0.613894  0.415431  1
  I  I18  1  0.388133  0.800380  0.531480  1
  I  I19  1  0.611867  0.199620  0.468520  1
  I  I20  1  0.262945  0.087789  0.055390  1
  I  I21  1  0.737055  0.912211  0.944610  1
  I  I22  1  0.562991  0.845533  0.227847  1
  I  I23  1  0.437009  0.154467  0.772153  1
  I  I24  1  0.092940  0.038939  0.338634  1
  I  I25  1  0.907060  0.961061  0.661366  1
  I  I26  1  0.500000  0.500000  0.000000  1
