# generated using pymatgen
data_SrTa8CuS16
_symmetry_space_group_name_H-M   'P 1'
_cell_length_a   6.71060300
_cell_length_b   6.71060267
_cell_length_c   13.78087400
_cell_angle_alpha   90.00000000
_cell_angle_beta   90.00000000
_cell_angle_gamma   120.00000657
_symmetry_Int_Tables_number   1
_chemical_formula_structural   SrTa8CuS16
_chemical_formula_sum   'Sr1 Ta8 Cu1 S16'
_cell_volume   537.44055712
_cell_formula_units_Z   1
loop_
 _symmetry_equiv_pos_site_id
 _symmetry_equiv_pos_as_xyz
  1  'x, y, z'
loop_
 _atom_site_type_symbol
 _atom_site_label
 _atom_site_symmetry_multiplicity
 _atom_site_fract_x
 _atom_site_fract_y
 _atom_site_fract_z
 _atom_site_occupancy
  Sr  Sr0  1  0.000000  0.000000  0.500000  1
  Ta  Ta1  1  0.505521  0.494479  0.774859  1
  Ta  Ta2  1  0.011038  0.505521  0.225141  1
  Ta  Ta3  1  0.494479  0.988962  0.225141  1
  Ta  Ta4  1  0.505521  0.011038  0.774859  1
  Ta  Ta5  1  0.988962  0.494479  0.774859  1
  Ta  Ta6  1  0.494479  0.505521  0.225141  1
  Ta  Ta7  1  0.000000  0.000000  0.775885  1
  Ta  Ta8  1  0.000000  0.000000  0.224115  1
  Cu  Cu9  1  0.000000  0.000000  0.000000  1
  S  S10  1  0.832090  0.167910  0.337335  1
  S  S11  1  0.832090  0.664178  0.337335  1
  S  S12  1  0.335822  0.167910  0.337335  1
  S  S13  1  0.661690  0.830844  0.886282  1
  S  S14  1  0.167910  0.335822  0.662665  1
  S  S15  1  0.169156  0.830844  0.886282  1
  S  S16  1  0.169156  0.338310  0.886282  1
  S  S17  1  0.830844  0.169156  0.113718  1
  S  S18  1  0.338310  0.169156  0.113718  1
  S  S19  1  0.664178  0.832090  0.662665  1
  S  S20  1  0.333333  0.666667  0.110524  1
  S  S21  1  0.666667  0.333333  0.657715  1
  S  S22  1  0.666667  0.333333  0.889476  1
  S  S23  1  0.333333  0.666667  0.342285  1
  S  S24  1  0.830844  0.661690  0.113718  1
  S  S25  1  0.167910  0.832090  0.662665  1
