# generated using pymatgen
data_Pr3NdMn2(Fe3O10)2
_symmetry_space_group_name_H-M   'P 1'
_cell_length_a   5.88762012
_cell_length_b   7.65026497
_cell_length_c   8.74085896
_cell_angle_alpha   89.94690980
_cell_angle_beta   90.00636267
_cell_angle_gamma   89.97738967
_symmetry_Int_Tables_number   1
_chemical_formula_structural   Pr3NdMn2(Fe3O10)2
_chemical_formula_sum   'Pr3 Nd1 Mn2 Fe6 O20'
_cell_volume   393.70429053
_cell_formula_units_Z   1
loop_
 _symmetry_equiv_pos_site_id
 _symmetry_equiv_pos_as_xyz
  1  'x, y, z'
loop_
 _atom_site_type_symbol
 _atom_site_label
 _atom_site_symmetry_multiplicity
 _atom_site_fract_x
 _atom_site_fract_y
 _atom_site_fract_z
 _atom_site_occupancy
  Pr  Pr0  1  0.998940  0.360470  0.671553  1
  Pr  Pr1  1  0.998979  0.639146  0.328377  1
  Pr  Pr2  1  0.000975  0.860934  0.828769  1
  Nd  Nd3  1  0.000925  0.139768  0.171600  1
  Mn  Mn4  1  0.747265  0.499547  0.000167  1
  Mn  Mn5  1  0.252753  0.000188  0.499612  1
  Fe  Fe6  1  0.500492  0.110183  0.856521  1
  Fe  Fe7  1  0.500498  0.890663  0.143738  1
  Fe  Fe8  1  0.499472  0.609942  0.643539  1
  Fe  Fe9  1  0.499494  0.389635  0.356096  1
  Fe  Fe10  1  0.254086  0.499605  0.000189  1
  Fe  Fe11  1  0.746071  0.000140  0.499749  1
  O  O12  1  0.248654  0.901485  0.292734  1
  O  O13  1  0.249290  0.099354  0.706745  1
  O  O14  1  0.751359  0.399029  0.206635  1
  O  O15  1  0.750722  0.599352  0.793417  1
  O  O16  1  0.750326  0.097171  0.708270  1
  O  O17  1  0.751001  0.903984  0.291214  1
  O  O18  1  0.249665  0.596984  0.792039  1
  O  O19  1  0.249064  0.401233  0.207956  1
  O  O20  1  0.508402  0.344578  0.931503  1
  O  O21  1  0.508510  0.655540  0.068873  1
  O  O22  1  0.491470  0.844445  0.568216  1
  O  O23  1  0.491643  0.155511  0.431662  1
  O  O24  1  0.277811  0.001032  0.000870  1
  O  O25  1  0.721438  0.500082  0.499813  1
  O  O26  1  0.722580  0.001008  0.001048  1
  O  O27  1  0.278018  0.500018  0.499933  1
  O  O28  1  0.009891  0.159181  0.446039  1
  O  O29  1  0.009706  0.841168  0.552444  1
  O  O30  1  0.990315  0.658529  0.052611  1
  O  O31  1  0.990187  0.340094  0.948067  1
