# generated using pymatgen
data_Tb3DyTcRu7
_symmetry_space_group_name_H-M   'P 1'
_cell_length_a   5.21038984
_cell_length_b   5.42130921
_cell_length_c   9.05178501
_cell_angle_alpha   89.99999979
_cell_angle_beta   89.99456616
_cell_angle_gamma   121.34836932
_symmetry_Int_Tables_number   1
_chemical_formula_structural   Tb3DyTcRu7
_chemical_formula_sum   'Tb3 Dy1 Tc1 Ru7'
_cell_volume   218.36178626
_cell_formula_units_Z   1
loop_
 _symmetry_equiv_pos_site_id
 _symmetry_equiv_pos_as_xyz
  1  'x, y, z'
loop_
 _atom_site_type_symbol
 _atom_site_label
 _atom_site_symmetry_multiplicity
 _atom_site_fract_x
 _atom_site_fract_y
 _atom_site_fract_z
 _atom_site_occupancy
  Tb  Tb0  1  0.656664  0.328331  0.565268  1
  Tb  Tb1  1  0.656604  0.328302  0.934501  1
  Tb  Tb2  1  0.328665  0.664333  0.067152  1
  Dy  Dy3  1  0.328967  0.664485  0.432737  1
  Tc  Tc4  1  0.683900  0.841950  0.749679  1
  Ru  Ru5  1  0.979840  0.989920  0.499320  1
  Ru  Ru6  1  0.980171  0.990086  0.000689  1
  Ru  Ru7  1  0.836314  0.167739  0.250471  1
  Ru  Ru8  1  0.836314  0.668575  0.250471  1
  Ru  Ru9  1  0.353751  0.176875  0.250465  1
  Ru  Ru10  1  0.179406  0.827355  0.749623  1
  Ru  Ru11  1  0.179406  0.352051  0.749623  1
