# generated using pymatgen
data_LiLa2TaS6
_symmetry_space_group_name_H-M   'P 1'
_cell_length_a   6.51324277
_cell_length_b   7.20082800
_cell_length_c   11.31195130
_cell_angle_alpha   90.00000000
_cell_angle_beta   124.33771308
_cell_angle_gamma   90.00000000
_symmetry_Int_Tables_number   1
_chemical_formula_structural   LiLa2TaS6
_chemical_formula_sum   'Li2 La4 Ta2 S12'
_cell_volume   438.08039404
_cell_formula_units_Z   2
loop_
 _symmetry_equiv_pos_site_id
 _symmetry_equiv_pos_as_xyz
  1  'x, y, z'
loop_
 _atom_site_type_symbol
 _atom_site_label
 _atom_site_symmetry_multiplicity
 _atom_site_fract_x
 _atom_site_fract_y
 _atom_site_fract_z
 _atom_site_occupancy
  Li  Li0  1  0.000000  0.500000  0.000000  1
  Li  Li1  1  0.000000  0.000000  0.500000  1
  La  La2  1  0.214777  0.099371  0.246968  1
  La  La3  1  0.785222  0.599371  0.253031  1
  La  La4  1  0.214778  0.400628  0.746969  1
  La  La5  1  0.785222  0.900629  0.753031  1
  Ta  Ta6  1  0.500000  0.000000  0.000000  1
  Ta  Ta7  1  0.500000  0.500000  0.500000  1
  S  S8  1  0.135642  0.179550  0.946064  1
  S  S9  1  0.273716  0.701464  0.945102  1
  S  S10  1  0.637735  0.974535  0.249547  1
  S  S11  1  0.362264  0.474535  0.250453  1
  S  S12  1  0.726285  0.201465  0.554898  1
  S  S13  1  0.864358  0.679550  0.553936  1
  S  S14  1  0.135643  0.320449  0.446064  1
  S  S15  1  0.273716  0.798535  0.445102  1
  S  S16  1  0.637735  0.525464  0.749547  1
  S  S17  1  0.362264  0.025464  0.750453  1
  S  S18  1  0.726285  0.298535  0.054898  1
  S  S19  1  0.864358  0.820449  0.053936  1
