# generated using pymatgen
data_TbHoRe2F14
_symmetry_space_group_name_H-M   'P 1'
_cell_length_a   5.63165700
_cell_length_b   8.94415193
_cell_length_c   12.05357078
_cell_angle_alpha   62.55663998
_cell_angle_beta   90.00000000
_cell_angle_gamma   90.00000000
_symmetry_Int_Tables_number   1
_chemical_formula_structural   TbHoRe2F14
_chemical_formula_sum   'Tb2 Ho2 Re4 F28'
_cell_volume   538.81941024
_cell_formula_units_Z   2
loop_
 _symmetry_equiv_pos_site_id
 _symmetry_equiv_pos_as_xyz
  1  'x, y, z'
loop_
 _atom_site_type_symbol
 _atom_site_label
 _atom_site_symmetry_multiplicity
 _atom_site_fract_x
 _atom_site_fract_y
 _atom_site_fract_z
 _atom_site_occupancy
  Tb  Tb0  1  0.758255  0.813391  0.764937  1
  Tb  Tb1  1  0.258255  0.186609  0.735063  1
  Ho  Ho2  1  0.242105  0.185404  0.235108  1
  Ho  Ho3  1  0.742105  0.814596  0.264892  1
  Re  Re4  1  0.756494  0.272453  0.958220  1
  Re  Re5  1  0.256494  0.727547  0.541780  1
  Re  Re6  1  0.242908  0.725640  0.045116  1
  Re  Re7  1  0.742908  0.274360  0.454884  1
  F  F8  1  0.451761  0.706486  0.920437  1
  F  F9  1  0.951761  0.293514  0.579563  1
  F  F10  1  0.547801  0.292655  0.082444  1
  F  F11  1  0.047801  0.707345  0.417556  1
  F  F12  1  0.453748  0.282237  0.546563  1
  F  F13  1  0.953748  0.717763  0.953437  1
  F  F14  1  0.547680  0.719916  0.450945  1
  F  F15  1  0.047680  0.280084  0.049055  1
  F  F16  1  0.768287  0.520537  0.858599  1
  F  F17  1  0.268287  0.479463  0.641401  1
  F  F18  1  0.232427  0.477158  0.143488  1
  F  F19  1  0.732427  0.522842  0.356512  1
  F  F20  1  0.757437  0.024324  0.055156  1
  F  F21  1  0.257437  0.975676  0.444844  1
  F  F22  1  0.241409  0.973642  0.947377  1
  F  F23  1  0.741409  0.026358  0.552623  1
  F  F24  1  0.976575  0.730246  0.639946  1
  F  F25  1  0.476575  0.269754  0.860054  1
  F  F26  1  0.020764  0.269457  0.355979  1
  F  F27  1  0.520764  0.730543  0.144021  1
  F  F28  1  0.038987  0.745341  0.172360  1
  F  F29  1  0.538987  0.254659  0.327640  1
  F  F30  1  0.957566  0.253893  0.829690  1
  F  F31  1  0.457566  0.746107  0.670310  1
  F  F32  1  0.425271  0.973317  0.233357  1
  F  F33  1  0.925271  0.026683  0.266643  1
  F  F34  1  0.580524  0.029207  0.767860  1
  F  F35  1  0.080524  0.970793  0.732140  1
