# generated using pymatgen
data_Er8Si12IrPt3
_symmetry_space_group_name_H-M   'P 1'
_cell_length_a   8.15004700
_cell_length_b   8.15004611
_cell_length_c   7.85943900
_cell_angle_alpha   90.00000000
_cell_angle_beta   90.00000000
_cell_angle_gamma   119.99999957
_symmetry_Int_Tables_number   1
_chemical_formula_structural   Er8Si12IrPt3
_chemical_formula_sum   'Er8 Si12 Ir1 Pt3'
_cell_volume   452.10817500
_cell_formula_units_Z   1
loop_
 _symmetry_equiv_pos_site_id
 _symmetry_equiv_pos_as_xyz
  1  'x, y, z'
loop_
 _atom_site_type_symbol
 _atom_site_label
 _atom_site_symmetry_multiplicity
 _atom_site_fract_x
 _atom_site_fract_y
 _atom_site_fract_z
 _atom_site_occupancy
  Er  Er0  1  0.982206  0.491104  0.247878  1
  Er  Er1  1  0.508896  0.491104  0.247878  1
  Er  Er2  1  0.488699  0.977398  0.751934  1
  Er  Er3  1  0.022602  0.511301  0.751934  1
  Er  Er4  1  0.488699  0.511301  0.751934  1
  Er  Er5  1  0.508896  0.017794  0.247878  1
  Er  Er6  1  0.000000  0.000000  0.750751  1
  Er  Er7  1  0.000000  0.000000  0.250600  1
  Si  Si8  1  0.165055  0.834945  0.500133  1
  Si  Si9  1  0.165055  0.330109  0.500133  1
  Si  Si10  1  0.669891  0.834945  0.500133  1
  Si  Si11  1  0.328997  0.164499  0.999279  1
  Si  Si12  1  0.834903  0.669806  0.500506  1
  Si  Si13  1  0.835501  0.164499  0.999279  1
  Si  Si14  1  0.835501  0.671003  0.999279  1
  Si  Si15  1  0.166880  0.333759  0.001460  1
  Si  Si16  1  0.666241  0.833120  0.001460  1
  Si  Si17  1  0.330194  0.165097  0.500506  1
  Si  Si18  1  0.834903  0.165097  0.500506  1
  Si  Si19  1  0.166880  0.833120  0.001460  1
  Ir  Ir20  1  0.333333  0.666667  0.033398  1
  Pt  Pt21  1  0.666667  0.333333  0.966385  1
  Pt  Pt22  1  0.666667  0.333333  0.534252  1
  Pt  Pt23  1  0.333333  0.666667  0.461046  1
