# generated using pymatgen
data_Ce4CoSi7
_symmetry_space_group_name_H-M   'P 1'
_cell_length_a   8.06895500
_cell_length_b   8.06895524
_cell_length_c   4.13223900
_cell_angle_alpha   90.00000000
_cell_angle_beta   90.00000000
_cell_angle_gamma   120.00000312
_symmetry_Int_Tables_number   1
_chemical_formula_structural   Ce4CoSi7
_chemical_formula_sum   'Ce4 Co1 Si7'
_cell_volume   232.99717215
_cell_formula_units_Z   1
loop_
 _symmetry_equiv_pos_site_id
 _symmetry_equiv_pos_as_xyz
  1  'x, y, z'
loop_
 _atom_site_type_symbol
 _atom_site_label
 _atom_site_symmetry_multiplicity
 _atom_site_fract_x
 _atom_site_fract_y
 _atom_site_fract_z
 _atom_site_occupancy
  Ce  Ce0  1  0.501510  0.498490  0.000000  1
  Ce  Ce1  1  0.996980  0.498490  0.000000  1
  Ce  Ce2  1  0.501510  0.003020  0.000000  1
  Ce  Ce3  1  0.000000  0.000000  0.000000  1
  Co  Co4  1  0.666667  0.333333  0.500000  1
  Si  Si5  1  0.827753  0.655504  0.500000  1
  Si  Si6  1  0.165361  0.834639  0.500000  1
  Si  Si7  1  0.669278  0.834639  0.500000  1
  Si  Si8  1  0.165361  0.330722  0.500000  1
  Si  Si9  1  0.827753  0.172247  0.500000  1
  Si  Si10  1  0.344496  0.172247  0.500000  1
  Si  Si11  1  0.333333  0.666667  0.500000  1
