# generated using pymatgen
data_Dy8CdAgRh2
_symmetry_space_group_name_H-M   'P 1'
_cell_length_a   9.57965287
_cell_length_b   9.57309971
_cell_length_c   9.57309985
_cell_angle_alpha   60.03670054
_cell_angle_beta   59.97735329
_cell_angle_gamma   59.97735554
_symmetry_Int_Tables_number   1
_chemical_formula_structural   Dy8CdAgRh2
_chemical_formula_sum   'Dy16 Cd2 Ag2 Rh4'
_cell_volume   620.74243749
_cell_formula_units_Z   2
loop_
 _symmetry_equiv_pos_site_id
 _symmetry_equiv_pos_as_xyz
  1  'x, y, z'
loop_
 _atom_site_type_symbol
 _atom_site_label
 _atom_site_symmetry_multiplicity
 _atom_site_fract_x
 _atom_site_fract_y
 _atom_site_fract_z
 _atom_site_occupancy
  Dy  Dy0  1  0.562732  0.565735  0.935765  1
  Dy  Dy1  1  0.149805  0.550770  0.149622  1
  Dy  Dy2  1  0.688864  0.311136  0.311136  1
  Dy  Dy3  1  0.935569  0.564431  0.564431  1
  Dy  Dy4  1  0.935768  0.565735  0.935765  1
  Dy  Dy5  1  0.688685  0.689341  0.311329  1
  Dy  Dy6  1  0.563864  0.936136  0.936136  1
  Dy  Dy7  1  0.150847  0.149953  0.149953  1
  Dy  Dy8  1  0.310645  0.689341  0.311329  1
  Dy  Dy9  1  0.549247  0.149953  0.149953  1
  Dy  Dy10  1  0.310645  0.311329  0.689341  1
  Dy  Dy11  1  0.310656  0.689344  0.689344  1
  Dy  Dy12  1  0.149805  0.149622  0.550770  1
  Dy  Dy13  1  0.688685  0.311329  0.689341  1
  Dy  Dy14  1  0.935768  0.935765  0.565735  1
  Dy  Dy15  1  0.562732  0.935765  0.565735  1
  Cd  Cd16  1  0.919994  0.918664  0.241347  1
  Cd  Cd17  1  0.919994  0.241347  0.918664  1
  Ag  Ag18  1  0.918671  0.917868  0.917868  1
  Ag  Ag19  1  0.245592  0.917868  0.917868  1
  Rh  Rh20  1  0.357861  0.357170  0.927108  1
  Rh  Rh21  1  0.358381  0.357144  0.357144  1
  Rh  Rh22  1  0.927330  0.357144  0.357144  1
  Rh  Rh23  1  0.357861  0.927108  0.357170  1
