# generated using pymatgen
data_V2Fe2IrPt3
_symmetry_space_group_name_H-M   'P 1'
_cell_length_a   5.41291014
_cell_length_b   5.41290899
_cell_length_c   3.80788800
_cell_angle_alpha   90.00000000
_cell_angle_beta   90.00000000
_cell_angle_gamma   91.03844799
_symmetry_Int_Tables_number   1
_chemical_formula_structural   V2Fe2IrPt3
_chemical_formula_sum   'V2 Fe2 Ir1 Pt3'
_cell_volume   111.55123264
_cell_formula_units_Z   1
loop_
 _symmetry_equiv_pos_site_id
 _symmetry_equiv_pos_as_xyz
  1  'x, y, z'
loop_
 _atom_site_type_symbol
 _atom_site_label
 _atom_site_symmetry_multiplicity
 _atom_site_fract_x
 _atom_site_fract_y
 _atom_site_fract_z
 _atom_site_occupancy
  V  V0  1  0.995822  0.995822  0.000000  1
  V  V1  1  0.504319  0.504319  0.000000  1
  Fe  Fe2  1  0.249813  0.750144  0.500000  1
  Fe  Fe3  1  0.750144  0.249813  0.500000  1
  Ir  Ir4  1  0.749568  0.749568  0.500000  1
  Pt  Pt5  1  0.499890  0.000225  0.000000  1
  Pt  Pt6  1  0.000225  0.499890  0.000000  1
  Pt  Pt7  1  0.250219  0.250219  0.500000  1
