# generated using pymatgen
data_PrNd(SiPt2)2
_symmetry_space_group_name_H-M   'P 1'
_cell_length_a   4.12032104
_cell_length_b   4.22429700
_cell_length_c   9.32602876
_cell_angle_alpha   90.00000000
_cell_angle_beta   102.76214477
_cell_angle_gamma   90.00000000
_symmetry_Int_Tables_number   1
_chemical_formula_structural   PrNd(SiPt2)2
_chemical_formula_sum   'Pr1 Nd1 Si2 Pt4'
_cell_volume   158.31369298
_cell_formula_units_Z   1
loop_
 _symmetry_equiv_pos_site_id
 _symmetry_equiv_pos_as_xyz
  1  'x, y, z'
loop_
 _atom_site_type_symbol
 _atom_site_label
 _atom_site_symmetry_multiplicity
 _atom_site_fract_x
 _atom_site_fract_y
 _atom_site_fract_z
 _atom_site_occupancy
  Pr  Pr0  1  0.399070  0.750000  0.798139  1
  Nd  Nd1  1  0.601153  0.250000  0.202305  1
  Si  Si2  1  0.822168  0.250000  0.644337  1
  Si  Si3  1  0.177601  0.750000  0.355202  1
  Pt  Pt4  1  0.952727  0.250000  0.905455  1
  Pt  Pt5  1  0.047804  0.750000  0.095608  1
  Pt  Pt6  1  0.250583  0.250000  0.501163  1
  Pt  Pt7  1  0.748894  0.750000  0.497791  1
