# generated using pymatgen
data_Ho6Er10Cd4IrPd3
_symmetry_space_group_name_H-M   'P 1'
_cell_length_a   9.62779052
_cell_length_b   9.60009822
_cell_length_c   9.60009800
_cell_angle_alpha   60.00000077
_cell_angle_beta   60.09510208
_cell_angle_gamma   60.09510229
_symmetry_Int_Tables_number   1
_chemical_formula_structural   Ho6Er10Cd4IrPd3
_chemical_formula_sum   'Ho6 Er10 Cd4 Ir1 Pd3'
_cell_volume   628.32707122
_cell_formula_units_Z   1
loop_
 _symmetry_equiv_pos_site_id
 _symmetry_equiv_pos_as_xyz
  1  'x, y, z'
loop_
 _atom_site_type_symbol
 _atom_site_label
 _atom_site_symmetry_multiplicity
 _atom_site_fract_x
 _atom_site_fract_y
 _atom_site_fract_z
 _atom_site_occupancy
  Ho  Ho0  1  0.183145  0.816649  0.816649  1
  Ho  Ho1  1  0.817319  0.184721  0.184721  1
  Ho  Ho2  1  0.817319  0.184721  0.813237  1
  Ho  Ho3  1  0.183145  0.816649  0.183557  1
  Ho  Ho4  1  0.817319  0.813237  0.184721  1
  Ho  Ho5  1  0.183145  0.183557  0.816649  1
  Er  Er6  1  0.605109  0.599091  0.599091  1
  Er  Er7  1  0.605109  0.599091  0.196711  1
  Er  Er8  1  0.605109  0.196711  0.599091  1
  Er  Er9  1  0.191998  0.602668  0.602668  1
  Er  Er10  1  0.057290  0.438428  0.438428  1
  Er  Er11  1  0.439567  0.060749  0.060749  1
  Er  Er12  1  0.439567  0.060749  0.438936  1
  Er  Er13  1  0.057290  0.438428  0.065854  1
  Er  Er14  1  0.439567  0.438936  0.060749  1
  Er  Er15  1  0.057290  0.065854  0.438428  1
  Cd  Cd16  1  0.832042  0.831554  0.831554  1
  Cd  Cd17  1  0.832042  0.831554  0.504847  1
  Cd  Cd18  1  0.832042  0.504847  0.831554  1
  Cd  Cd19  1  0.505289  0.831570  0.831570  1
  Ir  Ir20  1  0.821267  0.392911  0.392911  1
  Pd  Pd21  1  0.392677  0.393557  0.393557  1
  Pd  Pd22  1  0.392677  0.393557  0.820211  1
  Pd  Pd23  1  0.392677  0.820211  0.393557  1
