# generated using pymatgen
data_MnVHgO5
_symmetry_space_group_name_H-M   'P 1'
_cell_length_a   6.31830900
_cell_length_b   8.46981900
_cell_length_c   8.62469300
_cell_angle_alpha   90.00000000
_cell_angle_beta   90.00000000
_cell_angle_gamma   90.00000000
_symmetry_Int_Tables_number   1
_chemical_formula_structural   MnVHgO5
_chemical_formula_sum   'Mn4 V4 Hg4 O20'
_cell_volume   461.54987335
_cell_formula_units_Z   4
loop_
 _symmetry_equiv_pos_site_id
 _symmetry_equiv_pos_as_xyz
  1  'x, y, z'
loop_
 _atom_site_type_symbol
 _atom_site_label
 _atom_site_symmetry_multiplicity
 _atom_site_fract_x
 _atom_site_fract_y
 _atom_site_fract_z
 _atom_site_occupancy
  Mn  Mn0  1  0.000000  0.000000  0.500000  1
  Mn  Mn1  1  0.500000  0.500000  0.000000  1
  Mn  Mn2  1  0.500000  0.000000  0.500000  1
  Mn  Mn3  1  0.000000  0.500000  0.000000  1
  V  V4  1  0.750000  0.321586  0.714940  1
  V  V5  1  0.750000  0.821586  0.785060  1
  V  V6  1  0.250000  0.678414  0.285060  1
  V  V7  1  0.250000  0.178414  0.214940  1
  Hg  Hg8  1  0.250000  0.567123  0.662663  1
  Hg  Hg9  1  0.250000  0.067123  0.837337  1
  Hg  Hg10  1  0.750000  0.432877  0.337337  1
  Hg  Hg11  1  0.750000  0.932877  0.162663  1
  O  O12  1  0.524061  0.342891  0.831048  1
  O  O13  1  0.975939  0.842891  0.668952  1
  O  O14  1  0.024061  0.657109  0.168952  1
  O  O15  1  0.475939  0.157109  0.331048  1
  O  O16  1  0.475939  0.657109  0.168952  1
  O  O17  1  0.024061  0.157109  0.331048  1
  O  O18  1  0.975939  0.342891  0.831048  1
  O  O19  1  0.524061  0.842891  0.668952  1
  O  O20  1  0.750000  0.140160  0.624310  1
  O  O21  1  0.750000  0.640160  0.875690  1
  O  O22  1  0.250000  0.859840  0.375690  1
  O  O23  1  0.250000  0.359840  0.124310  1
  O  O24  1  0.250000  0.091406  0.599305  1
  O  O25  1  0.250000  0.591406  0.900695  1
  O  O26  1  0.750000  0.908594  0.400695  1
  O  O27  1  0.750000  0.408594  0.099305  1
  O  O28  1  0.750000  0.470569  0.570608  1
  O  O29  1  0.750000  0.970569  0.929392  1
  O  O30  1  0.250000  0.529431  0.429392  1
  O  O31  1  0.250000  0.029431  0.070608  1
