# generated using pymatgen
data_Ho20Ga3Si8Hg
_symmetry_space_group_name_H-M   'P 1'
_cell_length_a   7.46000600
_cell_length_b   7.46000600
_cell_length_c   13.94579500
_cell_angle_alpha   90.00000000
_cell_angle_beta   90.00000000
_cell_angle_gamma   90.00000000
_symmetry_Int_Tables_number   1
_chemical_formula_structural   Ho20Ga3Si8Hg
_chemical_formula_sum   'Ho20 Ga3 Si8 Hg1'
_cell_volume   776.10705345
_cell_formula_units_Z   1
loop_
 _symmetry_equiv_pos_site_id
 _symmetry_equiv_pos_as_xyz
  1  'x, y, z'
loop_
 _atom_site_type_symbol
 _atom_site_label
 _atom_site_symmetry_multiplicity
 _atom_site_fract_x
 _atom_site_fract_y
 _atom_site_fract_z
 _atom_site_occupancy
  Ho  Ho0  1  0.816832  0.838797  0.609087  1
  Ho  Ho1  1  0.180852  0.834610  0.106466  1
  Ho  Ho2  1  0.167533  0.821542  0.391219  1
  Ho  Ho3  1  0.000000  0.500000  0.733399  1
  Ho  Ho4  1  0.832467  0.178458  0.391219  1
  Ho  Ho5  1  0.678458  0.667533  0.391219  1
  Ho  Ho6  1  0.661203  0.316832  0.609087  1
  Ho  Ho7  1  0.338797  0.683168  0.609087  1
  Ho  Ho8  1  0.000000  0.500000  0.234462  1
  Ho  Ho9  1  0.665390  0.680852  0.106466  1
  Ho  Ho10  1  0.680816  0.334713  0.893630  1
  Ho  Ho11  1  0.834713  0.819184  0.893630  1
  Ho  Ho12  1  0.321542  0.332467  0.391219  1
  Ho  Ho13  1  0.183168  0.161203  0.609087  1
  Ho  Ho14  1  0.819148  0.165390  0.106466  1
  Ho  Ho15  1  0.319184  0.665287  0.893630  1
  Ho  Ho16  1  0.334610  0.319148  0.106466  1
  Ho  Ho17  1  0.500000  0.000000  0.262543  1
  Ho  Ho18  1  0.165287  0.180816  0.893630  1
  Ho  Ho19  1  0.500000  0.000000  0.768492  1
  Ga  Ga20  1  0.500000  0.000000  0.494171  1
  Ga  Ga21  1  0.500000  0.000000  0.995827  1
  Ga  Ga22  1  0.000000  0.500000  0.004672  1
  Si  Si23  1  0.622316  0.378509  0.248464  1
  Si  Si24  1  0.121521  0.877524  0.751951  1
  Si  Si25  1  0.377524  0.378479  0.751951  1
  Si  Si26  1  0.377684  0.621491  0.248464  1
  Si  Si27  1  0.878509  0.877684  0.248464  1
  Si  Si28  1  0.622476  0.621521  0.751951  1
  Si  Si29  1  0.878479  0.122476  0.751951  1
  Si  Si30  1  0.121491  0.122316  0.248464  1
  Hg  Hg31  1  0.000000  0.500000  0.503167  1
