# generated using pymatgen
data_Ho5Lu11Cd4TcNi3
_symmetry_space_group_name_H-M   'P 1'
_cell_length_a   9.45877620
_cell_length_b   9.45042037
_cell_length_c   9.45041993
_cell_angle_alpha   59.34567216
_cell_angle_beta   59.37446786
_cell_angle_gamma   59.37446869
_symmetry_Int_Tables_number   1
_chemical_formula_structural   Ho5Lu11Cd4TcNi3
_chemical_formula_sum   'Ho5 Lu11 Cd4 Tc1 Ni3'
_cell_volume   588.70533702
_cell_formula_units_Z   1
loop_
 _symmetry_equiv_pos_site_id
 _symmetry_equiv_pos_as_xyz
  1  'x, y, z'
loop_
 _atom_site_type_symbol
 _atom_site_label
 _atom_site_symmetry_multiplicity
 _atom_site_fract_x
 _atom_site_fract_y
 _atom_site_fract_z
 _atom_site_occupancy
  Ho  Ho0  1  0.554403  0.940927  0.940927  1
  Ho  Ho1  1  0.565125  0.935797  0.564371  1
  Ho  Ho2  1  0.940957  0.554586  0.940017  1
  Ho  Ho3  1  0.565125  0.564371  0.935797  1
  Ho  Ho4  1  0.940957  0.940017  0.554586  1
  Lu  Lu5  1  0.345971  0.346704  0.346704  1
  Lu  Lu6  1  0.351955  0.352392  0.955040  1
  Lu  Lu7  1  0.351955  0.955040  0.352392  1
  Lu  Lu8  1  0.954135  0.352673  0.352673  1
  Lu  Lu9  1  0.811576  0.186340  0.186340  1
  Lu  Lu10  1  0.185794  0.812297  0.812297  1
  Lu  Lu11  1  0.185891  0.811276  0.187002  1
  Lu  Lu12  1  0.812690  0.186097  0.811869  1
  Lu  Lu13  1  0.185891  0.187002  0.811276  1
  Lu  Lu14  1  0.812690  0.811869  0.186097  1
  Lu  Lu15  1  0.937163  0.563819  0.563819  1
  Cd  Cd16  1  0.580388  0.579319  0.579319  1
  Cd  Cd17  1  0.579130  0.579303  0.256865  1
  Cd  Cd18  1  0.579130  0.256865  0.579303  1
  Cd  Cd19  1  0.255873  0.579404  0.579404  1
  Tc  Tc20  1  0.144239  0.144293  0.144293  1
  Ni  Ni21  1  0.141524  0.142118  0.575733  1
  Ni  Ni22  1  0.141524  0.575733  0.142118  1
  Ni  Ni23  1  0.575914  0.141758  0.141758  1
