# generated using pymatgen
data_Zr6TiV(Os2N)2
_symmetry_space_group_name_H-M   'P 1'
_cell_length_a   8.62341947
_cell_length_b   8.62341925
_cell_length_c   8.63323100
_cell_angle_alpha   59.96235848
_cell_angle_beta   59.96235932
_cell_angle_gamma   59.90441418
_symmetry_Int_Tables_number   1
_chemical_formula_structural   Zr6TiV(Os2N)2
_chemical_formula_sum   'Zr12 Ti2 V2 Os8 N4'
_cell_volume   453.37304611
_cell_formula_units_Z   2
loop_
 _symmetry_equiv_pos_site_id
 _symmetry_equiv_pos_as_xyz
  1  'x, y, z'
loop_
 _atom_site_type_symbol
 _atom_site_label
 _atom_site_symmetry_multiplicity
 _atom_site_fract_x
 _atom_site_fract_y
 _atom_site_fract_z
 _atom_site_occupancy
  Zr  Zr0  1  0.810281  0.810281  0.189719  1
  Zr  Zr1  1  0.189858  0.189858  0.810142  1
  Zr  Zr2  1  0.810217  0.189283  0.810311  1
  Zr  Zr3  1  0.189283  0.810217  0.190189  1
  Zr  Zr4  1  0.189283  0.810217  0.810311  1
  Zr  Zr5  1  0.810217  0.189283  0.190189  1
  Zr  Zr6  1  0.439719  0.439719  0.060281  1
  Zr  Zr7  1  0.060142  0.060142  0.439858  1
  Zr  Zr8  1  0.439783  0.060717  0.439689  1
  Zr  Zr9  1  0.060717  0.439783  0.059811  1
  Zr  Zr10  1  0.060717  0.439783  0.439689  1
  Zr  Zr11  1  0.439783  0.060717  0.059811  1
  Ti  Ti12  1  0.625000  0.625000  0.125000  1
  Ti  Ti13  1  0.625000  0.625000  0.625000  1
  V  V14  1  0.125000  0.625000  0.625000  1
  V  V15  1  0.625000  0.125000  0.625000  1
  Os  Os16  1  0.744291  0.414052  0.420828  1
  Os  Os17  1  0.414052  0.744291  0.420828  1
  Os  Os18  1  0.416746  0.416746  0.742731  1
  Os  Os19  1  0.416746  0.416746  0.423776  1
  Os  Os20  1  0.505709  0.835948  0.829172  1
  Os  Os21  1  0.835948  0.505709  0.829172  1
  Os  Os22  1  0.833254  0.833254  0.507269  1
  Os  Os23  1  0.833254  0.833254  0.826224  1
  N  N24  1  0.625000  0.125000  0.125000  1
  N  N25  1  0.125000  0.625000  0.125000  1
  N  N26  1  0.125000  0.125000  0.625000  1
  N  N27  1  0.125000  0.125000  0.125000  1
