# generated using pymatgen
data_Sb4IrRh3S4
_symmetry_space_group_name_H-M   'P 1'
_cell_length_a   6.10788331
_cell_length_b   6.10788331
_cell_length_c   6.10788331
_cell_angle_alpha   90.05308788
_cell_angle_beta   90.05308788
_cell_angle_gamma   89.94691212
_symmetry_Int_Tables_number   1
_chemical_formula_structural   Sb4IrRh3S4
_chemical_formula_sum   'Sb4 Ir1 Rh3 S4'
_cell_volume   227.86185845
_cell_formula_units_Z   1
loop_
 _symmetry_equiv_pos_site_id
 _symmetry_equiv_pos_as_xyz
  1  'x, y, z'
loop_
 _atom_site_type_symbol
 _atom_site_label
 _atom_site_symmetry_multiplicity
 _atom_site_fract_x
 _atom_site_fract_y
 _atom_site_fract_z
 _atom_site_occupancy
  Sb  Sb0  1  0.878250  0.378250  0.121750  1
  Sb  Sb1  1  0.377462  0.122846  0.878838  1
  Sb  Sb2  1  0.121162  0.877462  0.377154  1
  Sb  Sb3  1  0.622846  0.621162  0.622538  1
  Ir  Ir4  1  0.512518  0.012518  0.487482  1
  Rh  Rh5  1  0.013055  0.486862  0.512416  1
  Rh  Rh6  1  0.487584  0.513055  0.013138  1
  Rh  Rh7  1  0.986862  0.987584  0.986945  1
  S  S8  1  0.117317  0.617317  0.882683  1
  S  S9  1  0.617334  0.884770  0.119162  1
  S  S10  1  0.880838  0.117334  0.615230  1
  S  S11  1  0.384770  0.380838  0.382666  1
