# generated using pymatgen
data_NdY(SeO3)3
_symmetry_space_group_name_H-M   'P 1'
_cell_length_a   7.24993979
_cell_length_b   8.29727767
_cell_length_c   9.21974698
_cell_angle_alpha   70.89636133
_cell_angle_beta   70.11917351
_cell_angle_gamma   66.17517801
_symmetry_Int_Tables_number   1
_chemical_formula_structural   NdY(SeO3)3
_chemical_formula_sum   'Nd2 Y2 Se6 O18'
_cell_volume   465.34207186
_cell_formula_units_Z   2
loop_
 _symmetry_equiv_pos_site_id
 _symmetry_equiv_pos_as_xyz
  1  'x, y, z'
loop_
 _atom_site_type_symbol
 _atom_site_label
 _atom_site_symmetry_multiplicity
 _atom_site_fract_x
 _atom_site_fract_y
 _atom_site_fract_z
 _atom_site_occupancy
  Nd  Nd0  1  0.333077  0.729955  0.590752  1
  Nd  Nd1  1  0.666923  0.270045  0.409248  1
  Y  Y2  1  0.740518  0.735962  0.800950  1
  Y  Y3  1  0.259482  0.264038  0.199050  1
  Se  Se4  1  0.426354  0.780726  0.194366  1
  Se  Se5  1  0.573646  0.219274  0.805634  1
  Se  Se6  1  0.149818  0.747213  0.967271  1
  Se  Se7  1  0.850182  0.252787  0.032729  1
  Se  Se8  1  0.887064  0.756047  0.418663  1
  Se  Se9  1  0.112936  0.243953  0.581337  1
  O  O10  1  0.644799  0.793296  0.049486  1
  O  O11  1  0.355201  0.206704  0.950514  1
  O  O12  1  0.363577  0.947150  0.296589  1
  O  O13  1  0.636423  0.052850  0.703411  1
  O  O14  1  0.514572  0.600903  0.345545  1
  O  O15  1  0.485428  0.399097  0.654455  1
  O  O16  1  0.170448  0.563579  0.120132  1
  O  O17  1  0.829552  0.436421  0.879868  1
  O  O18  1  0.404303  0.711080  0.852064  1
  O  O19  1  0.595697  0.288920  0.147936  1
  O  O20  1  0.340561  0.249187  0.434475  1
  O  O21  1  0.659439  0.750813  0.565525  1
  O  O22  1  0.972581  0.292599  0.442083  1
  O  O23  1  0.027419  0.707401  0.557917  1
  O  O24  1  0.151875  0.021536  0.657818  1
  O  O25  1  0.848125  0.978464  0.342182  1
  O  O26  1  0.938409  0.302964  0.161458  1
  O  O27  1  0.061591  0.697036  0.838542  1
