# generated using pymatgen
data_Tb2YPa(GaNi)4
_symmetry_space_group_name_H-M   'P 1'
_cell_length_a   4.25387500
_cell_length_b   6.85135539
_cell_length_c   7.42243357
_cell_angle_alpha   90.30945902
_cell_angle_beta   90.00000000
_cell_angle_gamma   90.00000000
_symmetry_Int_Tables_number   1
_chemical_formula_structural   Tb2YPa(GaNi)4
_chemical_formula_sum   'Tb2 Y1 Pa1 Ga4 Ni4'
_cell_volume   216.32225631
_cell_formula_units_Z   1
loop_
 _symmetry_equiv_pos_site_id
 _symmetry_equiv_pos_as_xyz
  1  'x, y, z'
loop_
 _atom_site_type_symbol
 _atom_site_label
 _atom_site_symmetry_multiplicity
 _atom_site_fract_x
 _atom_site_fract_y
 _atom_site_fract_z
 _atom_site_occupancy
  Tb  Tb0  1  0.250000  0.516723  0.698344  1
  Tb  Tb1  1  0.750000  0.483975  0.298185  1
  Y  Y2  1  0.750000  0.984949  0.203747  1
  Pa  Pa3  1  0.250000  0.017861  0.801872  1
  Ga  Ga4  1  0.250000  0.180818  0.418118  1
  Ga  Ga5  1  0.250000  0.680044  0.079499  1
  Ga  Ga6  1  0.750000  0.818181  0.575873  1
  Ga  Ga7  1  0.750000  0.326060  0.922288  1
  Ni  Ni8  1  0.250000  0.783175  0.408602  1
  Ni  Ni9  1  0.250000  0.279750  0.085479  1
  Ni  Ni10  1  0.750000  0.197057  0.601896  1
  Ni  Ni11  1  0.750000  0.731409  0.906097  1
