# generated using pymatgen
data_Ba4NaAs10(Ir2Ru3)2
_symmetry_space_group_name_H-M   'P 1'
_cell_length_a   9.13862996
_cell_length_b   9.13047900
_cell_length_c   9.13332020
_cell_angle_alpha   118.84864887
_cell_angle_beta   118.90469106
_cell_angle_gamma   91.94627473
_symmetry_Int_Tables_number   1
_chemical_formula_structural   Ba4NaAs10(Ir2Ru3)2
_chemical_formula_sum   'Ba4 Na1 As10 Ir4 Ru6'
_cell_volume   547.73192594
_cell_formula_units_Z   1
loop_
 _symmetry_equiv_pos_site_id
 _symmetry_equiv_pos_as_xyz
  1  'x, y, z'
loop_
 _atom_site_type_symbol
 _atom_site_label
 _atom_site_symmetry_multiplicity
 _atom_site_fract_x
 _atom_site_fract_y
 _atom_site_fract_z
 _atom_site_occupancy
  Ba  Ba0  1  0.197395  0.607358  0.805288  1
  Ba  Ba1  1  0.392234  0.197781  0.591544  1
  Ba  Ba2  1  0.607695  0.803140  0.409063  1
  Ba  Ba3  1  0.803240  0.392931  0.194841  1
  Na  Na4  1  0.000140  0.999390  0.999771  1
  As  As5  1  0.446394  0.050231  0.201333  1
  As  As6  1  0.645548  0.646848  0.000440  1
  As  As7  1  0.847535  0.246990  0.800644  1
  As  As8  1  0.047218  0.846363  0.600019  1
  As  As9  1  0.248135  0.444381  0.397367  1
  As  As10  1  0.355725  0.353514  0.003678  1
  As  As11  1  0.554196  0.953263  0.800748  1
  As  As12  1  0.749526  0.552102  0.596946  1
  As  As13  1  0.953788  0.153027  0.400791  1
  As  As14  1  0.151600  0.752996  0.197809  1
  Ir  Ir15  1  0.650277  0.950646  0.101539  1
  Ir  Ir16  1  0.847311  0.549567  0.899184  1
  Ir  Ir17  1  0.051637  0.150089  0.701385  1
  Ir  Ir18  1  0.250242  0.749478  0.498453  1
  Ru  Ru19  1  0.350027  0.048685  0.898788  1
  Ru  Ru20  1  0.549111  0.650484  0.701108  1
  Ru  Ru21  1  0.751414  0.250653  0.501447  1
  Ru  Ru22  1  0.949573  0.849443  0.299466  1
  Ru  Ru23  1  0.149863  0.450454  0.098602  1
  Ru  Ru24  1  0.450180  0.350188  0.299744  1
