# generated using pymatgen
data_NaPaPd6
_symmetry_space_group_name_H-M   'P 1'
_cell_length_a   5.82046400
_cell_length_b   5.82046427
_cell_length_c   4.65340300
_cell_angle_alpha   90.00000000
_cell_angle_beta   90.00000000
_cell_angle_gamma   119.99999845
_symmetry_Int_Tables_number   1
_chemical_formula_structural   NaPaPd6
_chemical_formula_sum   'Na1 Pa1 Pd6'
_cell_volume   136.52636871
_cell_formula_units_Z   1
loop_
 _symmetry_equiv_pos_site_id
 _symmetry_equiv_pos_as_xyz
  1  'x, y, z'
loop_
 _atom_site_type_symbol
 _atom_site_label
 _atom_site_symmetry_multiplicity
 _atom_site_fract_x
 _atom_site_fract_y
 _atom_site_fract_z
 _atom_site_occupancy
  Na  Na0  1  0.666667  0.333333  0.250000  1
  Pa  Pa1  1  0.333333  0.666667  0.750000  1
  Pd  Pd2  1  0.835287  0.164713  0.750000  1
  Pd  Pd3  1  0.329425  0.164713  0.750000  1
  Pd  Pd4  1  0.835287  0.670575  0.750000  1
  Pd  Pd5  1  0.166056  0.833944  0.250000  1
  Pd  Pd6  1  0.667888  0.833944  0.250000  1
  Pd  Pd7  1  0.166056  0.332112  0.250000  1
