# generated using pymatgen
data_SmTm4(In2Pt)2
_symmetry_space_group_name_H-M   'P 1'
_cell_length_a   3.58652900
_cell_length_b   8.14386400
_cell_length_c   18.23300100
_cell_angle_alpha   90.00000000
_cell_angle_beta   90.00000000
_cell_angle_gamma   90.00000000
_symmetry_Int_Tables_number   1
_chemical_formula_structural   SmTm4(In2Pt)2
_chemical_formula_sum   'Sm2 Tm8 In8 Pt4'
_cell_volume   532.55322018
_cell_formula_units_Z   2
loop_
 _symmetry_equiv_pos_site_id
 _symmetry_equiv_pos_as_xyz
  1  'x, y, z'
loop_
 _atom_site_type_symbol
 _atom_site_label
 _atom_site_symmetry_multiplicity
 _atom_site_fract_x
 _atom_site_fract_y
 _atom_site_fract_z
 _atom_site_occupancy
  Sm  Sm0  1  0.000000  0.000000  0.000000  1
  Sm  Sm1  1  0.000000  0.500000  0.500000  1
  Tm  Tm2  1  0.000000  0.119018  0.413761  1
  Tm  Tm3  1  0.000000  0.880982  0.586239  1
  Tm  Tm4  1  0.000000  0.380982  0.913761  1
  Tm  Tm5  1  0.000000  0.619018  0.086239  1
  Tm  Tm6  1  0.000000  0.243121  0.220661  1
  Tm  Tm7  1  0.000000  0.756879  0.779339  1
  Tm  Tm8  1  0.000000  0.256879  0.720661  1
  Tm  Tm9  1  0.000000  0.743121  0.279339  1
  In  In10  1  0.500000  0.423782  0.349658  1
  In  In11  1  0.500000  0.576218  0.650342  1
  In  In12  1  0.500000  0.076218  0.849658  1
  In  In13  1  0.500000  0.923782  0.150342  1
  In  In14  1  0.500000  0.297852  0.067321  1
  In  In15  1  0.500000  0.702148  0.932679  1
  In  In16  1  0.500000  0.202148  0.567321  1
  In  In17  1  0.500000  0.797852  0.432679  1
  Pt  Pt18  1  0.500000  0.025173  0.303587  1
  Pt  Pt19  1  0.500000  0.974827  0.696413  1
  Pt  Pt20  1  0.500000  0.474827  0.803587  1
  Pt  Pt21  1  0.500000  0.525173  0.196413  1
