# generated using pymatgen
data_Yb4InSnPd10
_symmetry_space_group_name_H-M   'P 1'
_cell_length_a   4.28480200
_cell_length_b   5.79630807
_cell_length_c   11.40612003
_cell_angle_alpha   89.79676874
_cell_angle_beta   90.00000000
_cell_angle_gamma   90.00000000
_symmetry_Int_Tables_number   1
_chemical_formula_structural   Yb4InSnPd10
_chemical_formula_sum   'Yb4 In1 Sn1 Pd10'
_cell_volume   283.28098465
_cell_formula_units_Z   1
loop_
 _symmetry_equiv_pos_site_id
 _symmetry_equiv_pos_as_xyz
  1  'x, y, z'
loop_
 _atom_site_type_symbol
 _atom_site_label
 _atom_site_symmetry_multiplicity
 _atom_site_fract_x
 _atom_site_fract_y
 _atom_site_fract_z
 _atom_site_occupancy
  Yb  Yb0  1  0.500000  0.310758  0.861212  1
  Yb  Yb1  1  0.500000  0.811471  0.640201  1
  Yb  Yb2  1  0.500000  0.689242  0.138788  1
  Yb  Yb3  1  0.500000  0.188529  0.359799  1
  In  In4  1  0.000000  0.000000  0.000000  1
  Sn  Sn5  1  0.000000  0.500000  0.500000  1
  Pd  Pd6  1  0.500000  0.700182  0.387541  1
  Pd  Pd7  1  0.500000  0.299818  0.612459  1
  Pd  Pd8  1  0.000000  0.058413  0.751875  1
  Pd  Pd9  1  0.500000  0.797398  0.886025  1
  Pd  Pd10  1  0.000000  0.442211  0.252307  1
  Pd  Pd11  1  0.000000  0.941587  0.248125  1
  Pd  Pd12  1  0.000000  0.557789  0.747693  1
  Pd  Pd13  1  0.000000  0.500000  0.000000  1
  Pd  Pd14  1  0.000000  0.000000  0.500000  1
  Pd  Pd15  1  0.500000  0.202602  0.113975  1
