# generated using pymatgen
data_ErLu3B12OsW
_symmetry_space_group_name_H-M   'P 1'
_cell_length_a   3.58050900
_cell_length_b   9.12590037
_cell_length_c   11.51509501
_cell_angle_alpha   89.83347810
_cell_angle_beta   90.00000000
_cell_angle_gamma   90.00000000
_symmetry_Int_Tables_number   1
_chemical_formula_structural   ErLu3B12OsW
_chemical_formula_sum   'Er2 Lu6 B24 Os2 W2'
_cell_volume   376.25838242
_cell_formula_units_Z   2
loop_
 _symmetry_equiv_pos_site_id
 _symmetry_equiv_pos_as_xyz
  1  'x, y, z'
loop_
 _atom_site_type_symbol
 _atom_site_label
 _atom_site_symmetry_multiplicity
 _atom_site_fract_x
 _atom_site_fract_y
 _atom_site_fract_z
 _atom_site_occupancy
  Er  Er0  1  0.000000  0.321340  0.413904  1
  Er  Er1  1  0.000000  0.678660  0.586096  1
  Lu  Lu2  1  0.000000  0.820591  0.086203  1
  Lu  Lu3  1  0.000000  0.179409  0.913797  1
  Lu  Lu4  1  0.000000  0.945044  0.371291  1
  Lu  Lu5  1  0.000000  0.054956  0.628709  1
  Lu  Lu6  1  0.000000  0.442512  0.127052  1
  Lu  Lu7  1  0.000000  0.557488  0.872948  1
  B  B8  1  0.500000  0.551434  0.434317  1
  B  B9  1  0.500000  0.448566  0.565683  1
  B  B10  1  0.500000  0.053713  0.065871  1
  B  B11  1  0.500000  0.946287  0.934129  1
  B  B12  1  0.500000  0.752600  0.421302  1
  B  B13  1  0.500000  0.247400  0.578698  1
  B  B14  1  0.500000  0.249427  0.080027  1
  B  B15  1  0.500000  0.750573  0.919973  1
  B  B16  1  0.500000  0.796874  0.262410  1
  B  B17  1  0.500000  0.203126  0.737589  1
  B  B18  1  0.500000  0.290694  0.233189  1
  B  B19  1  0.500000  0.709306  0.766812  1
  B  B20  1  0.500000  0.631518  0.180795  1
  B  B21  1  0.500000  0.368482  0.819205  1
  B  B22  1  0.500000  0.129817  0.313614  1
  B  B23  1  0.500000  0.870183  0.686386  1
  B  B24  1  0.500000  0.982247  0.211428  1
  B  B25  1  0.500000  0.017753  0.788572  1
  B  B26  1  0.500000  0.476983  0.285569  1
  B  B27  1  0.500000  0.523017  0.714431  1
  B  B28  1  0.500000  0.603031  0.027459  1
  B  B29  1  0.500000  0.396969  0.972541  1
  B  B30  1  0.500000  0.101127  0.471141  1
  B  B31  1  0.500000  0.898873  0.528859  1
  Os  Os32  1  0.000000  0.137629  0.177794  1
  Os  Os33  1  0.000000  0.862371  0.822206  1
  W  W34  1  0.000000  0.639141  0.318762  1
  W  W35  1  0.000000  0.360859  0.681238  1
