# generated using pymatgen
data_Pr6MnCo16TcP12
_symmetry_space_group_name_H-M   'P 1'
_cell_length_a   3.78794100
_cell_length_b   10.75270300
_cell_length_c   12.48342200
_cell_angle_alpha   90.00000000
_cell_angle_beta   90.00000000
_cell_angle_gamma   90.00000000
_symmetry_Int_Tables_number   1
_chemical_formula_structural   Pr6MnCo16TcP12
_chemical_formula_sum   'Pr6 Mn1 Co16 Tc1 P12'
_cell_volume   508.45732497
_cell_formula_units_Z   1
loop_
 _symmetry_equiv_pos_site_id
 _symmetry_equiv_pos_as_xyz
  1  'x, y, z'
loop_
 _atom_site_type_symbol
 _atom_site_label
 _atom_site_symmetry_multiplicity
 _atom_site_fract_x
 _atom_site_fract_y
 _atom_site_fract_z
 _atom_site_occupancy
  Pr  Pr0  1  0.000000  0.500000  0.523738  1
  Pr  Pr1  1  0.500000  0.000000  0.478227  1
  Pr  Pr2  1  0.500000  0.818206  0.205607  1
  Pr  Pr3  1  0.500000  0.181794  0.205607  1
  Pr  Pr4  1  0.000000  0.681635  0.794283  1
  Pr  Pr5  1  0.000000  0.318365  0.794283  1
  Mn  Mn6  1  0.000000  0.000000  0.848110  1
  Co  Co7  1  0.500000  0.500000  0.704278  1
  Co  Co8  1  0.000000  0.000000  0.294886  1
  Co  Co9  1  0.000000  0.500000  0.989020  1
  Co  Co10  1  0.500000  0.000000  0.011387  1
  Co  Co11  1  0.500000  0.333580  0.993421  1
  Co  Co12  1  0.500000  0.666420  0.993421  1
  Co  Co13  1  0.000000  0.168157  0.004696  1
  Co  Co14  1  0.000000  0.831843  0.004696  1
  Co  Co15  1  0.500000  0.297153  0.429746  1
  Co  Co16  1  0.500000  0.702847  0.429746  1
  Co  Co17  1  0.000000  0.203545  0.569155  1
  Co  Co18  1  0.000000  0.796455  0.569155  1
  Co  Co19  1  0.500000  0.880790  0.710644  1
  Co  Co20  1  0.500000  0.119210  0.710644  1
  Co  Co21  1  0.000000  0.617813  0.290159  1
  Co  Co22  1  0.000000  0.382187  0.290159  1
  Tc  Tc23  1  0.500000  0.500000  0.154944  1
  P  P24  1  0.500000  0.500000  0.886459  1
  P  P25  1  0.000000  0.000000  0.111569  1
  P  P26  1  0.500000  0.500000  0.343053  1
  P  P27  1  0.000000  0.000000  0.658615  1
  P  P28  1  0.500000  0.305099  0.613500  1
  P  P29  1  0.500000  0.694901  0.613500  1
  P  P30  1  0.000000  0.194195  0.385973  1
  P  P31  1  0.000000  0.805805  0.385973  1
  P  P32  1  0.500000  0.847214  0.896198  1
  P  P33  1  0.500000  0.152786  0.896198  1
  P  P34  1  0.000000  0.652555  0.104476  1
  P  P35  1  0.000000  0.347445  0.104476  1
