# generated using pymatgen
data_NdIn2(SnIr)4
_symmetry_space_group_name_H-M   'P 1'
_cell_length_a   7.03173567
_cell_length_b   7.03173545
_cell_length_c   7.00614850
_cell_angle_alpha   120.27915229
_cell_angle_beta   120.27915483
_cell_angle_gamma   89.72741823
_symmetry_Int_Tables_number   1
_chemical_formula_structural   NdIn2(SnIr)4
_chemical_formula_sum   'Nd1 In2 Sn4 Ir4'
_cell_volume   243.46628440
_cell_formula_units_Z   1
loop_
 _symmetry_equiv_pos_site_id
 _symmetry_equiv_pos_as_xyz
  1  'x, y, z'
loop_
 _atom_site_type_symbol
 _atom_site_label
 _atom_site_symmetry_multiplicity
 _atom_site_fract_x
 _atom_site_fract_y
 _atom_site_fract_z
 _atom_site_occupancy
  Nd  Nd0  1  0.998353  0.998353  0.000000  1
  In  In1  1  0.876154  0.538165  0.000000  1
  In  In2  1  0.538165  0.876154  0.000000  1
  Sn  Sn3  1  0.462025  0.462025  0.335762  1
  Sn  Sn4  1  0.499743  0.999742  0.500001  1
  Sn  Sn5  1  0.999742  0.499743  0.500001  1
  Sn  Sn6  1  0.126264  0.126264  0.664240  1
  Ir  Ir7  1  0.602852  0.248857  0.000000  1
  Ir  Ir8  1  0.248857  0.602852  0.000000  1
  Ir  Ir9  1  0.760253  0.760253  0.372660  1
  Ir  Ir10  1  0.387594  0.387594  0.627341  1
