# generated using pymatgen
data_Sr2IrRh3
_symmetry_space_group_name_H-M   'P 1'
_cell_length_a   5.46267896
_cell_length_b   5.46267832
_cell_length_c   5.46267821
_cell_angle_alpha   60.98188417
_cell_angle_beta   60.98189115
_cell_angle_gamma   60.98188781
_symmetry_Int_Tables_number   1
_chemical_formula_structural   Sr2IrRh3
_chemical_formula_sum   'Sr2 Ir1 Rh3'
_cell_volume   117.81582943
_cell_formula_units_Z   1
loop_
 _symmetry_equiv_pos_site_id
 _symmetry_equiv_pos_as_xyz
  1  'x, y, z'
loop_
 _atom_site_type_symbol
 _atom_site_label
 _atom_site_symmetry_multiplicity
 _atom_site_fract_x
 _atom_site_fract_y
 _atom_site_fract_z
 _atom_site_occupancy
  Sr  Sr0  1  0.374118  0.374118  0.374118  1
  Sr  Sr1  1  0.625882  0.625882  0.625882  1
  Ir  Ir2  1  0.000000  0.000000  0.000000  1
  Rh  Rh3  1  0.500001  0.000000  0.000000  1
  Rh  Rh4  1  0.000000  0.500001  0.000000  1
  Rh  Rh5  1  0.000000  0.000000  0.500001  1
