# generated using pymatgen
data_Y3ScHg5
_symmetry_space_group_name_H-M   'P 1'
_cell_length_a   8.20360096
_cell_length_b   8.20360179
_cell_length_c   8.20359968
_cell_angle_alpha   66.53164864
_cell_angle_beta   66.53165667
_cell_angle_gamma   66.53163910
_symmetry_Int_Tables_number   1
_chemical_formula_structural   Y3ScHg5
_chemical_formula_sum   'Y6 Sc2 Hg10'
_cell_volume   445.29404579
_cell_formula_units_Z   2
loop_
 _symmetry_equiv_pos_site_id
 _symmetry_equiv_pos_as_xyz
  1  'x, y, z'
loop_
 _atom_site_type_symbol
 _atom_site_label
 _atom_site_symmetry_multiplicity
 _atom_site_fract_x
 _atom_site_fract_y
 _atom_site_fract_z
 _atom_site_occupancy
  Y  Y0  1  0.889607  0.187376  0.620372  1
  Y  Y1  1  0.620372  0.889607  0.187376  1
  Y  Y2  1  0.187376  0.620372  0.889607  1
  Y  Y3  1  0.110393  0.812624  0.379628  1
  Y  Y4  1  0.379628  0.110393  0.812624  1
  Y  Y5  1  0.812624  0.379628  0.110393  1
  Sc  Sc6  1  0.659461  0.659461  0.659461  1
  Sc  Sc7  1  0.340539  0.340539  0.340539  1
  Hg  Hg8  1  0.000000  0.000000  0.000000  1
  Hg  Hg9  1  0.500000  0.500000  0.500000  1
  Hg  Hg10  1  0.809874  0.809874  0.809874  1
  Hg  Hg11  1  0.190126  0.190126  0.190126  1
  Hg  Hg12  1  0.941731  0.556984  0.314243  1
  Hg  Hg13  1  0.314243  0.941731  0.556984  1
  Hg  Hg14  1  0.556984  0.314243  0.941731  1
  Hg  Hg15  1  0.058269  0.443016  0.685757  1
  Hg  Hg16  1  0.685757  0.058269  0.443016  1
  Hg  Hg17  1  0.443016  0.685757  0.058269  1
