# generated using pymatgen
data_CaPr2(HoSi2)2
_symmetry_space_group_name_H-M   'P 1'
_cell_length_a   7.47527700
_cell_length_b   7.86693500
_cell_length_c   14.92508100
_cell_angle_alpha   90.00000000
_cell_angle_beta   90.00000000
_cell_angle_gamma   90.00000000
_symmetry_Int_Tables_number   1
_chemical_formula_structural   CaPr2(HoSi2)2
_chemical_formula_sum   'Ca4 Pr8 Ho8 Si16'
_cell_volume   877.70697353
_cell_formula_units_Z   4
loop_
 _symmetry_equiv_pos_site_id
 _symmetry_equiv_pos_as_xyz
  1  'x, y, z'
loop_
 _atom_site_type_symbol
 _atom_site_label
 _atom_site_symmetry_multiplicity
 _atom_site_fract_x
 _atom_site_fract_y
 _atom_site_fract_z
 _atom_site_occupancy
  Ca  Ca0  1  0.656969  0.989544  0.750000  1
  Ca  Ca1  1  0.843031  0.489544  0.250000  1
  Ca  Ca2  1  0.343031  0.010456  0.250000  1
  Ca  Ca3  1  0.156969  0.510456  0.750000  1
  Pr  Pr4  1  0.021506  0.180188  0.401998  1
  Pr  Pr5  1  0.521506  0.319812  0.401998  1
  Pr  Pr6  1  0.478494  0.680188  0.901998  1
  Pr  Pr7  1  0.478494  0.680188  0.598002  1
  Pr  Pr8  1  0.978494  0.819812  0.598002  1
  Pr  Pr9  1  0.978494  0.819812  0.901998  1
  Pr  Pr10  1  0.521506  0.319812  0.098002  1
  Pr  Pr11  1  0.021506  0.180188  0.098002  1
  Ho  Ho12  1  0.324928  0.181199  0.622860  1
  Ho  Ho13  1  0.675072  0.818801  0.377140  1
  Ho  Ho14  1  0.175072  0.681199  0.377140  1
  Ho  Ho15  1  0.824928  0.318801  0.877140  1
  Ho  Ho16  1  0.824928  0.318801  0.622860  1
  Ho  Ho17  1  0.324928  0.181199  0.877140  1
  Ho  Ho18  1  0.175072  0.681199  0.122860  1
  Ho  Ho19  1  0.675072  0.818801  0.122860  1
  Si  Si20  1  0.269825  0.889034  0.750000  1
  Si  Si21  1  0.465090  0.608616  0.250000  1
  Si  Si22  1  0.034910  0.108616  0.750000  1
  Si  Si23  1  0.534910  0.391384  0.750000  1
  Si  Si24  1  0.149759  0.466201  0.534890  1
  Si  Si25  1  0.965090  0.891384  0.250000  1
  Si  Si26  1  0.730175  0.110966  0.250000  1
  Si  Si27  1  0.850241  0.533799  0.034890  1
  Si  Si28  1  0.350241  0.966201  0.034890  1
  Si  Si29  1  0.149759  0.466201  0.965110  1
  Si  Si30  1  0.649759  0.033799  0.534890  1
  Si  Si31  1  0.350241  0.966201  0.465110  1
  Si  Si32  1  0.850241  0.533799  0.465110  1
  Si  Si33  1  0.769825  0.610966  0.750000  1
  Si  Si34  1  0.230175  0.389034  0.250000  1
  Si  Si35  1  0.649759  0.033799  0.965110  1
