# generated using pymatgen
data_CeHoB6Os
_symmetry_space_group_name_H-M   'P 1'
_cell_length_a   3.68730000
_cell_length_b   9.19926800
_cell_length_c   11.57692100
_cell_angle_alpha   90.00000000
_cell_angle_beta   90.00000000
_cell_angle_gamma   90.00000000
_symmetry_Int_Tables_number   1
_chemical_formula_structural   CeHoB6Os
_chemical_formula_sum   'Ce4 Ho4 B24 Os4'
_cell_volume   392.69449608
_cell_formula_units_Z   4
loop_
 _symmetry_equiv_pos_site_id
 _symmetry_equiv_pos_as_xyz
  1  'x, y, z'
loop_
 _atom_site_type_symbol
 _atom_site_label
 _atom_site_symmetry_multiplicity
 _atom_site_fract_x
 _atom_site_fract_y
 _atom_site_fract_z
 _atom_site_occupancy
  Ce  Ce0  1  0.000000  0.322649  0.413527  1
  Ce  Ce1  1  0.000000  0.677351  0.586473  1
  Ce  Ce2  1  0.000000  0.822649  0.086473  1
  Ce  Ce3  1  0.000000  0.177351  0.913527  1
  Ho  Ho4  1  0.000000  0.944263  0.373866  1
  Ho  Ho5  1  0.000000  0.055737  0.626134  1
  Ho  Ho6  1  0.000000  0.444263  0.126134  1
  Ho  Ho7  1  0.000000  0.555737  0.873866  1
  B  B8  1  0.500000  0.554149  0.432392  1
  B  B9  1  0.500000  0.445851  0.567608  1
  B  B10  1  0.500000  0.054149  0.067608  1
  B  B11  1  0.500000  0.945851  0.932392  1
  B  B12  1  0.500000  0.748564  0.419396  1
  B  B13  1  0.500000  0.251436  0.580604  1
  B  B14  1  0.500000  0.248564  0.080604  1
  B  B15  1  0.500000  0.751436  0.919396  1
  B  B16  1  0.500000  0.791266  0.266838  1
  B  B17  1  0.500000  0.208734  0.733162  1
  B  B18  1  0.500000  0.291266  0.233162  1
  B  B19  1  0.500000  0.708734  0.766838  1
  B  B20  1  0.500000  0.631945  0.185467  1
  B  B21  1  0.500000  0.368055  0.814533  1
  B  B22  1  0.500000  0.131945  0.314533  1
  B  B23  1  0.500000  0.868055  0.685467  1
  B  B24  1  0.500000  0.983962  0.213590  1
  B  B25  1  0.500000  0.016038  0.786410  1
  B  B26  1  0.500000  0.483962  0.286410  1
  B  B27  1  0.500000  0.516038  0.713590  1
  B  B28  1  0.500000  0.607686  0.029797  1
  B  B29  1  0.500000  0.392314  0.970203  1
  B  B30  1  0.500000  0.107686  0.470203  1
  B  B31  1  0.500000  0.892314  0.529797  1
  Os  Os32  1  0.000000  0.638422  0.320942  1
  Os  Os33  1  0.000000  0.361578  0.679058  1
  Os  Os34  1  0.000000  0.138422  0.179058  1
  Os  Os35  1  0.000000  0.861578  0.820942  1
