# generated using pymatgen
data_Tb3TmInIr
_symmetry_space_group_name_H-M   'P 1'
_cell_length_a   9.66176911
_cell_length_b   9.65614855
_cell_length_c   9.67370701
_cell_angle_alpha   119.93970218
_cell_angle_beta   90.13918881
_cell_angle_gamma   119.98086408
_symmetry_Int_Tables_number   1
_chemical_formula_structural   Tb3TmInIr
_chemical_formula_sum   'Tb12 Tm4 In4 Ir4'
_cell_volume   638.16191043
_cell_formula_units_Z   4
loop_
 _symmetry_equiv_pos_site_id
 _symmetry_equiv_pos_as_xyz
  1  'x, y, z'
loop_
 _atom_site_type_symbol
 _atom_site_label
 _atom_site_symmetry_multiplicity
 _atom_site_fract_x
 _atom_site_fract_y
 _atom_site_fract_z
 _atom_site_occupancy
  Tb  Tb0  1  0.650301  0.300666  0.348202  1
  Tb  Tb1  1  0.048367  0.698938  0.349504  1
  Tb  Tb2  1  0.650303  0.697839  0.348201  1
  Tb  Tb3  1  0.059756  0.118654  0.558617  1
  Tb  Tb4  1  0.059755  0.499718  0.558617  1
  Tb  Tb5  1  0.438485  0.498622  0.558760  1
  Tb  Tb6  1  0.810524  0.000858  0.810503  1
  Tb  Tb7  1  0.810522  0.620166  0.810504  1
  Tb  Tb8  1  0.061088  0.500932  0.940779  1
  Tb  Tb9  1  0.439394  0.499753  0.940514  1
  Tb  Tb10  1  0.439395  0.880156  0.940516  1
  Tb  Tb11  1  0.650093  0.301668  0.953242  1
  Tm  Tm12  1  0.810489  0.000791  0.191096  1
  Tm  Tm13  1  0.190203  0.000748  0.190186  1
  Tm  Tm14  1  0.190205  0.379643  0.190188  1
  Tm  Tm15  1  0.190901  0.000620  0.810332  1
  In  In16  1  0.416977  0.834128  0.251280  1
  In  In17  1  0.748513  0.165654  0.582796  1
  In  In18  1  0.417035  0.834110  0.582724  1
  In  In19  1  0.417035  0.165650  0.582725  1
  Ir  Ir20  1  0.420200  0.280043  0.139884  1
  Ir  Ir21  1  0.859957  0.281546  0.141895  1
  Ir  Ir22  1  0.859955  0.720304  0.141896  1
  Ir  Ir23  1  0.860553  0.718799  0.577045  1
