# generated using pymatgen
data_Ho5TmB14OsW
_symmetry_space_group_name_H-M   'P 1'
_cell_length_a   8.06341358
_cell_length_b   8.06341337
_cell_length_c   9.36903785
_cell_angle_alpha   89.92967981
_cell_angle_beta   90.07031959
_cell_angle_gamma   155.03141874
_symmetry_Int_Tables_number   1
_chemical_formula_structural   Ho5TmB14OsW
_chemical_formula_sum   'Ho5 Tm1 B14 Os1 W1'
_cell_volume   257.14003011
_cell_formula_units_Z   1
loop_
 _symmetry_equiv_pos_site_id
 _symmetry_equiv_pos_as_xyz
  1  'x, y, z'
loop_
 _atom_site_type_symbol
 _atom_site_label
 _atom_site_symmetry_multiplicity
 _atom_site_fract_x
 _atom_site_fract_y
 _atom_site_fract_z
 _atom_site_occupancy
  Ho  Ho0  1  0.893792  0.106208  0.437993  1
  Ho  Ho1  1  0.107381  0.892619  0.558336  1
  Ho  Ho2  1  0.893695  0.106305  0.061936  1
  Ho  Ho3  1  0.243858  0.756142  0.249931  1
  Ho  Ho4  1  0.754333  0.245667  0.750088  1
  Tm  Tm5  1  0.107019  0.892981  0.942599  1
  B  B6  1  0.726645  0.273355  0.464896  1
  B  B7  1  0.271839  0.728161  0.531996  1
  B  B8  1  0.726185  0.273815  0.034737  1
  B  B9  1  0.271239  0.728761  0.967682  1
  B  B10  1  0.631737  0.368263  0.150557  1
  B  B11  1  0.365199  0.634801  0.852511  1
  B  B12  1  0.631775  0.368225  0.348616  1
  B  B13  1  0.365276  0.634724  0.647530  1
  B  B14  1  0.520839  0.479161  0.096161  1
  B  B15  1  0.481309  0.518691  0.909500  1
  B  B16  1  0.520769  0.479231  0.403289  1
  B  B17  1  0.481031  0.518969  0.591134  1
  B  B18  1  0.456742  0.543258  0.249768  1
  B  B19  1  0.547485  0.452515  0.750828  1
  Os  Os20  1  0.053766  0.946234  0.249673  1
  W  W21  1  0.948091  0.051909  0.750240  1
