# generated using pymatgen
data_Nd2Sm4CoI10
_symmetry_space_group_name_H-M   'P 1'
_cell_length_a   7.89395986
_cell_length_b   9.91116288
_cell_length_c   9.85291314
_cell_angle_alpha   107.01610806
_cell_angle_beta   96.55624569
_cell_angle_gamma   105.01181837
_symmetry_Int_Tables_number   1
_chemical_formula_structural   Nd2Sm4CoI10
_chemical_formula_sum   'Nd2 Sm4 Co1 I10'
_cell_volume   696.74727419
_cell_formula_units_Z   1
loop_
 _symmetry_equiv_pos_site_id
 _symmetry_equiv_pos_as_xyz
  1  'x, y, z'
loop_
 _atom_site_type_symbol
 _atom_site_label
 _atom_site_symmetry_multiplicity
 _atom_site_fract_x
 _atom_site_fract_y
 _atom_site_fract_z
 _atom_site_occupancy
  Nd  Nd0  1  0.887586  0.958861  0.231629  1
  Nd  Nd1  1  0.112414  0.041139  0.768371  1
  Sm  Sm2  1  0.031106  0.715509  0.914664  1
  Sm  Sm3  1  0.968894  0.284491  0.085336  1
  Sm  Sm4  1  0.653874  0.876382  0.835221  1
  Sm  Sm5  1  0.346126  0.123618  0.164779  1
  Co  Co6  1  0.000000  0.000000  0.000000  1
  I  I7  1  0.649194  0.550003  0.728658  1
  I  I8  1  0.350806  0.449997  0.271342  1
  I  I9  1  0.738867  0.912083  0.540504  1
  I  I10  1  0.261133  0.087917  0.459496  1
  I  I11  1  0.084978  0.372919  0.820216  1
  I  I12  1  0.915022  0.627081  0.179784  1
  I  I13  1  0.452285  0.815833  0.092026  1
  I  I14  1  0.547715  0.184167  0.907974  1
  I  I15  1  0.222230  0.741622  0.654847  1
  I  I16  1  0.777770  0.258378  0.345153  1
