# generated using pymatgen
data_La4YOs2
_symmetry_space_group_name_H-M   'P 1'
_cell_length_a   6.73796800
_cell_length_b   7.35552501
_cell_length_c   9.00962060
_cell_angle_alpha   94.72780095
_cell_angle_beta   111.95831776
_cell_angle_gamma   90.00000211
_symmetry_Int_Tables_number   1
_chemical_formula_structural   La4YOs2
_chemical_formula_sum   'La8 Y2 Os4'
_cell_volume   412.49693806
_cell_formula_units_Z   2
loop_
 _symmetry_equiv_pos_site_id
 _symmetry_equiv_pos_as_xyz
  1  'x, y, z'
loop_
 _atom_site_type_symbol
 _atom_site_label
 _atom_site_symmetry_multiplicity
 _atom_site_fract_x
 _atom_site_fract_y
 _atom_site_fract_z
 _atom_site_occupancy
  La  La0  1  0.981083  0.908288  0.182112  1
  La  La1  1  0.798970  0.591712  0.817888  1
  La  La2  1  0.018917  0.091712  0.817888  1
  La  La3  1  0.201030  0.408288  0.182112  1
  La  La4  1  0.635578  0.819077  0.424689  1
  La  La5  1  0.210889  0.680923  0.575311  1
  La  La6  1  0.364422  0.180923  0.575311  1
  La  La7  1  0.789111  0.319077  0.424689  1
  Y  Y8  1  0.435695  0.750000  0.000000  1
  Y  Y9  1  0.564305  0.250000  0.000000  1
  Os  Os10  1  0.822903  0.574268  0.217216  1
  Os  Os11  1  0.605687  0.925732  0.782784  1
  Os  Os12  1  0.177097  0.425732  0.782784  1
  Os  Os13  1  0.394313  0.074268  0.217216  1
