# generated using pymatgen
data_Tb5Tm5Lu6(InRh)4
_symmetry_space_group_name_H-M   'P 1'
_cell_length_a   9.56457556
_cell_length_b   9.55528517
_cell_length_c   9.54644657
_cell_angle_alpha   60.17562436
_cell_angle_beta   59.98296561
_cell_angle_gamma   59.96866022
_symmetry_Int_Tables_number   1
_chemical_formula_structural   Tb5Tm5Lu6(InRh)4
_chemical_formula_sum   'Tb5 Tm5 Lu6 In4 Rh4'
_cell_volume   617.51841676
_cell_formula_units_Z   1
loop_
 _symmetry_equiv_pos_site_id
 _symmetry_equiv_pos_as_xyz
  1  'x, y, z'
loop_
 _atom_site_type_symbol
 _atom_site_label
 _atom_site_symmetry_multiplicity
 _atom_site_fract_x
 _atom_site_fract_y
 _atom_site_fract_z
 _atom_site_occupancy
  Tb  Tb0  1  0.062600  0.062749  0.434754  1
  Tb  Tb1  1  0.436363  0.064101  0.434122  1
  Tb  Tb2  1  0.062287  0.435255  0.062562  1
  Tb  Tb3  1  0.049906  0.650460  0.649545  1
  Tb  Tb4  1  0.435477  0.434393  0.064701  1
  Tm  Tm5  1  0.058434  0.441197  0.440518  1
  Tm  Tm6  1  0.809736  0.190833  0.811019  1
  Tm  Tm7  1  0.189121  0.813076  0.813196  1
  Tm  Tm8  1  0.649698  0.645216  0.050725  1
  Tm  Tm9  1  0.650069  0.654133  0.653934  1
  Lu  Lu10  1  0.650297  0.049210  0.645526  1
  Lu  Lu11  1  0.188379  0.813197  0.188007  1
  Lu  Lu12  1  0.189520  0.188367  0.812544  1
  Lu  Lu13  1  0.809793  0.811056  0.190795  1
  Lu  Lu14  1  0.443067  0.054493  0.054658  1
  Lu  Lu15  1  0.813299  0.187689  0.187919  1
  In  In16  1  0.417673  0.417291  0.417177  1
  In  In17  1  0.749006  0.417223  0.418334  1
  In  In18  1  0.419347  0.747089  0.417526  1
  In  In19  1  0.419442  0.416932  0.748242  1
  Rh  Rh20  1  0.858449  0.858873  0.423065  1
  Rh  Rh21  1  0.850954  0.861338  0.861799  1
  Rh  Rh22  1  0.426782  0.862259  0.861437  1
  Rh  Rh23  1  0.860300  0.423572  0.857896  1
