# generated using pymatgen
data_PaNi3GePd
_symmetry_space_group_name_H-M   'P 1'
_cell_length_a   4.87937756
_cell_length_b   4.87937786
_cell_length_c   4.87937658
_cell_angle_alpha   62.68135411
_cell_angle_beta   62.68135258
_cell_angle_gamma   62.68135516
_symmetry_Int_Tables_number   1
_chemical_formula_structural   PaNi3GePd
_chemical_formula_sum   'Pa1 Ni3 Ge1 Pd1'
_cell_volume   87.04625590
_cell_formula_units_Z   1
loop_
 _symmetry_equiv_pos_site_id
 _symmetry_equiv_pos_as_xyz
  1  'x, y, z'
loop_
 _atom_site_type_symbol
 _atom_site_label
 _atom_site_symmetry_multiplicity
 _atom_site_fract_x
 _atom_site_fract_y
 _atom_site_fract_z
 _atom_site_occupancy
  Pa  Pa0  1  0.995024  0.995024  0.995024  1
  Ni  Ni1  1  0.875811  0.376645  0.376645  1
  Ni  Ni2  1  0.376645  0.875811  0.376645  1
  Ni  Ni3  1  0.376645  0.376645  0.875811  1
  Ge  Ge4  1  0.380000  0.380000  0.380000  1
  Pd  Pd5  1  0.745875  0.745875  0.745875  1
