# generated using pymatgen
data_Cs5AcF9
_symmetry_space_group_name_H-M   'P 1'
_cell_length_a   8.47742000
_cell_length_b   8.47741939
_cell_length_c   11.98784900
_cell_angle_alpha   90.00000000
_cell_angle_beta   90.00000000
_cell_angle_gamma   116.51570194
_symmetry_Int_Tables_number   1
_chemical_formula_structural   Cs5AcF9
_chemical_formula_sum   'Cs10 Ac2 F18'
_cell_volume   770.90427749
_cell_formula_units_Z   2
loop_
 _symmetry_equiv_pos_site_id
 _symmetry_equiv_pos_as_xyz
  1  'x, y, z'
loop_
 _atom_site_type_symbol
 _atom_site_label
 _atom_site_symmetry_multiplicity
 _atom_site_fract_x
 _atom_site_fract_y
 _atom_site_fract_z
 _atom_site_occupancy
  Cs  Cs0  1  0.133287  0.347373  0.900790  1
  Cs  Cs1  1  0.866713  0.652627  0.400790  1
  Cs  Cs2  1  0.652627  0.866713  0.900790  1
  Cs  Cs3  1  0.347373  0.133287  0.400790  1
  Cs  Cs4  1  0.113761  0.394204  0.554461  1
  Cs  Cs5  1  0.886239  0.605796  0.054461  1
  Cs  Cs6  1  0.605796  0.886239  0.554461  1
  Cs  Cs7  1  0.394204  0.113761  0.054461  1
  Cs  Cs8  1  0.583491  0.416509  0.714225  1
  Cs  Cs9  1  0.416509  0.583491  0.214225  1
  Ac  Ac10  1  0.161333  0.838667  0.746820  1
  Ac  Ac11  1  0.838667  0.161333  0.246820  1
  F  F12  1  0.480128  0.044063  0.768637  1
  F  F13  1  0.519872  0.955937  0.268637  1
  F  F14  1  0.955937  0.519872  0.768637  1
  F  F15  1  0.044063  0.480128  0.268637  1
  F  F16  1  0.214897  0.144757  0.680167  1
  F  F17  1  0.785103  0.855243  0.180167  1
  F  F18  1  0.855243  0.785103  0.680167  1
  F  F19  1  0.144757  0.214897  0.180167  1
  F  F20  1  0.516766  0.483234  0.962728  1
  F  F21  1  0.483234  0.516766  0.462728  1
  F  F22  1  0.246563  0.753437  0.941864  1
  F  F23  1  0.753437  0.246563  0.441864  1
  F  F24  1  0.949913  0.050087  0.404132  1
  F  F25  1  0.050087  0.949913  0.904132  1
  F  F26  1  0.797761  0.202239  0.046548  1
  F  F27  1  0.202239  0.797761  0.546548  1
  F  F28  1  0.655836  0.344164  0.230070  1
  F  F29  1  0.344164  0.655836  0.730070  1
