# generated using pymatgen
data_K2TbYbB24
_symmetry_space_group_name_H-M   'P 1'
_cell_length_a   4.15651100
_cell_length_b   4.15651100
_cell_length_c   16.67489000
_cell_angle_alpha   90.00000000
_cell_angle_beta   90.00000000
_cell_angle_gamma   90.00000000
_symmetry_Int_Tables_number   1
_chemical_formula_structural   K2TbYbB24
_chemical_formula_sum   'K2 Tb1 Yb1 B24'
_cell_volume   288.08513266
_cell_formula_units_Z   1
loop_
 _symmetry_equiv_pos_site_id
 _symmetry_equiv_pos_as_xyz
  1  'x, y, z'
loop_
 _atom_site_type_symbol
 _atom_site_label
 _atom_site_symmetry_multiplicity
 _atom_site_fract_x
 _atom_site_fract_y
 _atom_site_fract_z
 _atom_site_occupancy
  K  K0  1  0.000000  0.000000  0.248200  1
  K  K1  1  0.000000  0.000000  0.751800  1
  Tb  Tb2  1  0.000000  0.000000  0.500000  1
  Yb  Yb3  1  0.000000  0.000000  0.000000  1
  B  B4  1  0.200081  0.500000  0.123128  1
  B  B5  1  0.201225  0.500000  0.377733  1
  B  B6  1  0.201225  0.500000  0.622267  1
  B  B7  1  0.200081  0.500000  0.876872  1
  B  B8  1  0.500000  0.500000  0.198777  1
  B  B9  1  0.500000  0.500000  0.451029  1
  B  B10  1  0.500000  0.500000  0.698501  1
  B  B11  1  0.500000  0.500000  0.950811  1
  B  B12  1  0.500000  0.200081  0.123128  1
  B  B13  1  0.500000  0.201225  0.377733  1
  B  B14  1  0.500000  0.201225  0.622267  1
  B  B15  1  0.500000  0.200081  0.876872  1
  B  B16  1  0.500000  0.500000  0.049189  1
  B  B17  1  0.500000  0.500000  0.301499  1
  B  B18  1  0.500000  0.500000  0.548971  1
  B  B19  1  0.500000  0.500000  0.801223  1
  B  B20  1  0.500000  0.799919  0.123128  1
  B  B21  1  0.500000  0.798775  0.377733  1
  B  B22  1  0.500000  0.798775  0.622267  1
  B  B23  1  0.500000  0.799919  0.876872  1
  B  B24  1  0.799919  0.500000  0.123128  1
  B  B25  1  0.798775  0.500000  0.377733  1
  B  B26  1  0.798775  0.500000  0.622267  1
  B  B27  1  0.799919  0.500000  0.876872  1
