# generated using pymatgen
data_Nd2AlCo6SiB2
_symmetry_space_group_name_H-M   'P 1'
_cell_length_a   5.26672000
_cell_length_b   5.26672023
_cell_length_c   6.58367500
_cell_angle_alpha   90.00000000
_cell_angle_beta   90.00000000
_cell_angle_gamma   120.00001113
_symmetry_Int_Tables_number   1
_chemical_formula_structural   Nd2AlCo6SiB2
_chemical_formula_sum   'Nd2 Al1 Co6 Si1 B2'
_cell_volume   158.15373253
_cell_formula_units_Z   1
loop_
 _symmetry_equiv_pos_site_id
 _symmetry_equiv_pos_as_xyz
  1  'x, y, z'
loop_
 _atom_site_type_symbol
 _atom_site_label
 _atom_site_symmetry_multiplicity
 _atom_site_fract_x
 _atom_site_fract_y
 _atom_site_fract_z
 _atom_site_occupancy
  Nd  Nd0  1  0.000000  0.000000  0.000000  1
  Nd  Nd1  1  0.000000  0.000000  0.500000  1
  Al  Al2  1  0.666667  0.333333  0.000000  1
  Co  Co3  1  0.498018  0.996036  0.709960  1
  Co  Co4  1  0.003964  0.501982  0.290040  1
  Co  Co5  1  0.498018  0.996036  0.290040  1
  Co  Co6  1  0.498018  0.501982  0.709960  1
  Co  Co7  1  0.498018  0.501982  0.290040  1
  Co  Co8  1  0.003964  0.501982  0.709960  1
  Si  Si9  1  0.333333  0.666667  0.000000  1
  B  B10  1  0.333333  0.666667  0.500000  1
  B  B11  1  0.666667  0.333333  0.500000  1
