# generated using pymatgen
data_Li3TbY2Si2Pb
_symmetry_space_group_name_H-M   'P 1'
_cell_length_a   7.17180510
_cell_length_b   7.16230195
_cell_length_c   4.32176800
_cell_angle_alpha   90.00000000
_cell_angle_beta   90.00000000
_cell_angle_gamma   119.95616317
_symmetry_Int_Tables_number   1
_chemical_formula_structural   Li3TbY2Si2Pb
_chemical_formula_sum   'Li3 Tb1 Y2 Si2 Pb1'
_cell_volume   192.33789422
_cell_formula_units_Z   1
loop_
 _symmetry_equiv_pos_site_id
 _symmetry_equiv_pos_as_xyz
  1  'x, y, z'
loop_
 _atom_site_type_symbol
 _atom_site_label
 _atom_site_symmetry_multiplicity
 _atom_site_fract_x
 _atom_site_fract_y
 _atom_site_fract_z
 _atom_site_occupancy
  Li  Li0  1  0.247208  0.000018  0.500000  1
  Li  Li1  1  0.752792  0.752810  0.500000  1
  Li  Li2  1  0.000000  0.247116  0.500000  1
  Tb  Tb3  1  0.000000  0.554895  0.000000  1
  Y  Y4  1  0.554719  0.999937  0.000000  1
  Y  Y5  1  0.445281  0.445218  0.000000  1
  Si  Si6  1  0.333639  0.666793  0.500000  1
  Si  Si7  1  0.666361  0.333153  0.500000  1
  Pb  Pb8  1  0.000000  0.000060  0.000000  1
