# generated using pymatgen
data_Th6FeReAu6
_symmetry_space_group_name_H-M   'P 1'
_cell_length_a   8.23397613
_cell_length_b   8.23397710
_cell_length_c   8.23397729
_cell_angle_alpha   114.09428065
_cell_angle_beta   114.09426949
_cell_angle_gamma   114.09425202
_symmetry_Int_Tables_number   1
_chemical_formula_structural   Th6FeReAu6
_chemical_formula_sum   'Th6 Fe1 Re1 Au6'
_cell_volume   336.78217470
_cell_formula_units_Z   1
loop_
 _symmetry_equiv_pos_site_id
 _symmetry_equiv_pos_as_xyz
  1  'x, y, z'
loop_
 _atom_site_type_symbol
 _atom_site_label
 _atom_site_symmetry_multiplicity
 _atom_site_fract_x
 _atom_site_fract_y
 _atom_site_fract_z
 _atom_site_occupancy
  Th  Th0  1  0.044338  0.384293  0.276844  1
  Th  Th1  1  0.384293  0.276844  0.044338  1
  Th  Th2  1  0.723156  0.955662  0.615707  1
  Th  Th3  1  0.276844  0.044338  0.384293  1
  Th  Th4  1  0.615707  0.723156  0.955662  1
  Th  Th5  1  0.955662  0.615707  0.723156  1
  Fe  Fe6  1  0.000000  0.000000  0.000000  1
  Re  Re7  1  0.500000  0.500000  0.500000  1
  Au  Au8  1  0.420942  0.929194  0.763806  1
  Au  Au9  1  0.929194  0.763806  0.420942  1
  Au  Au10  1  0.236194  0.579058  0.070806  1
  Au  Au11  1  0.763806  0.420942  0.929194  1
  Au  Au12  1  0.070806  0.236194  0.579058  1
  Au  Au13  1  0.579058  0.070806  0.236194  1
