# generated using pymatgen
data_TbEr(B4Ir)2
_symmetry_space_group_name_H-M   'P 1'
_cell_length_a   3.57222100
_cell_length_b   5.97044830
_cell_length_c   11.57968646
_cell_angle_alpha   89.92091810
_cell_angle_beta   90.00000000
_cell_angle_gamma   90.00000000
_symmetry_Int_Tables_number   1
_chemical_formula_structural   TbEr(B4Ir)2
_chemical_formula_sum   'Tb2 Er2 B16 Ir4'
_cell_volume   246.96854777
_cell_formula_units_Z   2
loop_
 _symmetry_equiv_pos_site_id
 _symmetry_equiv_pos_as_xyz
  1  'x, y, z'
loop_
 _atom_site_type_symbol
 _atom_site_label
 _atom_site_symmetry_multiplicity
 _atom_site_fract_x
 _atom_site_fract_y
 _atom_site_fract_z
 _atom_site_occupancy
  Tb  Tb0  1  0.500000  0.631360  0.351108  1
  Tb  Tb1  1  0.500000  0.368640  0.648892  1
  Er  Er2  1  0.500000  0.130999  0.148133  1
  Er  Er3  1  0.500000  0.869001  0.851867  1
  B  B4  1  0.000000  0.474216  0.191389  1
  B  B5  1  0.000000  0.525784  0.808611  1
  B  B6  1  0.000000  0.976317  0.306807  1
  B  B7  1  0.000000  0.023683  0.693193  1
  B  B8  1  0.000000  0.289864  0.311458  1
  B  B9  1  0.000000  0.710136  0.688542  1
  B  B10  1  0.000000  0.792210  0.186869  1
  B  B11  1  0.000000  0.207790  0.813131  1
  B  B12  1  0.000000  0.362947  0.469613  1
  B  B13  1  0.000000  0.637053  0.530387  1
  B  B14  1  0.000000  0.864563  0.030521  1
  B  B15  1  0.000000  0.135437  0.969479  1
  B  B16  1  0.000000  0.386943  0.046300  1
  B  B17  1  0.000000  0.613057  0.953700  1
  B  B18  1  0.000000  0.888241  0.453467  1
  B  B19  1  0.000000  0.111759  0.546533  1
  Ir  Ir20  1  0.500000  0.142845  0.402709  1
  Ir  Ir21  1  0.500000  0.857155  0.597291  1
  Ir  Ir22  1  0.500000  0.644421  0.096050  1
  Ir  Ir23  1  0.500000  0.355579  0.903950  1
