# generated using pymatgen
data_Eu2VMoO6
_symmetry_space_group_name_H-M   'P 1'
_cell_length_a   5.58849772
_cell_length_b   5.75024597
_cell_length_c   7.96366300
_cell_angle_alpha   90.00000000
_cell_angle_beta   90.00000000
_cell_angle_gamma   90.61573520
_symmetry_Int_Tables_number   1
_chemical_formula_structural   Eu2VMoO6
_chemical_formula_sum   'Eu4 V2 Mo2 O12'
_cell_volume   255.89941614
_cell_formula_units_Z   2
loop_
 _symmetry_equiv_pos_site_id
 _symmetry_equiv_pos_as_xyz
  1  'x, y, z'
loop_
 _atom_site_type_symbol
 _atom_site_label
 _atom_site_symmetry_multiplicity
 _atom_site_fract_x
 _atom_site_fract_y
 _atom_site_fract_z
 _atom_site_occupancy
  Eu  Eu0  1  0.987499  0.051620  0.250000  1
  Eu  Eu1  1  0.494580  0.458439  0.750000  1
  Eu  Eu2  1  0.505420  0.541561  0.250000  1
  Eu  Eu3  1  0.012501  0.948380  0.750000  1
  V  V4  1  0.000000  0.500000  0.000000  1
  V  V5  1  0.000000  0.500000  0.500000  1
  Mo  Mo6  1  0.500000  0.000000  0.000000  1
  Mo  Mo7  1  0.500000  0.000000  0.500000  1
  O  O8  1  0.598760  0.038384  0.750000  1
  O  O9  1  0.209352  0.201416  0.546983  1
  O  O10  1  0.209352  0.201416  0.953017  1
  O  O11  1  0.705419  0.299150  0.043444  1
  O  O12  1  0.705419  0.299150  0.456556  1
  O  O13  1  0.082434  0.469327  0.250000  1
  O  O14  1  0.917566  0.530673  0.750000  1
  O  O15  1  0.294581  0.700850  0.956556  1
  O  O16  1  0.294581  0.700850  0.543444  1
  O  O17  1  0.790648  0.798584  0.046983  1
  O  O18  1  0.790648  0.798584  0.453017  1
  O  O19  1  0.401240  0.961616  0.250000  1
