# generated using pymatgen
data_SmEr5Sc2(Co4P3)4
_symmetry_space_group_name_H-M   'P 1'
_cell_length_a   3.72121300
_cell_length_b   10.66192300
_cell_length_c   12.35350900
_cell_angle_alpha   90.00000000
_cell_angle_beta   90.00000000
_cell_angle_gamma   90.00000000
_symmetry_Int_Tables_number   1
_chemical_formula_structural   SmEr5Sc2(Co4P3)4
_chemical_formula_sum   'Sm1 Er5 Sc2 Co16 P12'
_cell_volume   490.12900852
_cell_formula_units_Z   1
loop_
 _symmetry_equiv_pos_site_id
 _symmetry_equiv_pos_as_xyz
  1  'x, y, z'
loop_
 _atom_site_type_symbol
 _atom_site_label
 _atom_site_symmetry_multiplicity
 _atom_site_fract_x
 _atom_site_fract_y
 _atom_site_fract_z
 _atom_site_occupancy
  Sm  Sm0  1  0.750000  0.250000  0.471460  1
  Er  Er1  1  0.250000  0.750000  0.527683  1
  Er  Er2  1  0.250000  0.926909  0.794413  1
  Er  Er3  1  0.250000  0.573091  0.794413  1
  Er  Er4  1  0.750000  0.072373  0.205086  1
  Er  Er5  1  0.750000  0.427627  0.205086  1
  Sc  Sc6  1  0.250000  0.250000  0.844369  1
  Sc  Sc7  1  0.750000  0.750000  0.157682  1
  Co  Co8  1  0.250000  0.250000  0.292121  1
  Co  Co9  1  0.750000  0.750000  0.705543  1
  Co  Co10  1  0.750000  0.250000  0.012234  1
  Co  Co11  1  0.250000  0.750000  0.987514  1
  Co  Co12  1  0.250000  0.419066  0.005295  1
  Co  Co13  1  0.250000  0.080934  0.005295  1
  Co  Co14  1  0.750000  0.581390  0.994666  1
  Co  Co15  1  0.750000  0.918610  0.994666  1
  Co  Co16  1  0.250000  0.456696  0.567646  1
  Co  Co17  1  0.250000  0.043304  0.567646  1
  Co  Co18  1  0.750000  0.547352  0.432860  1
  Co  Co19  1  0.750000  0.952648  0.432860  1
  Co  Co20  1  0.250000  0.871771  0.296445  1
  Co  Co21  1  0.250000  0.628229  0.296445  1
  Co  Co22  1  0.750000  0.126944  0.703978  1
  Co  Co23  1  0.750000  0.373056  0.703978  1
  P  P24  1  0.250000  0.250000  0.113774  1
  P  P25  1  0.750000  0.750000  0.885351  1
  P  P26  1  0.250000  0.250000  0.642193  1
  P  P27  1  0.750000  0.750000  0.360679  1
  P  P28  1  0.250000  0.442507  0.383321  1
  P  P29  1  0.250000  0.057493  0.383321  1
  P  P30  1  0.750000  0.560826  0.616064  1
  P  P31  1  0.750000  0.939174  0.616064  1
  P  P32  1  0.250000  0.910716  0.107661  1
  P  P33  1  0.250000  0.589284  0.107661  1
  P  P34  1  0.750000  0.088588  0.892267  1
  P  P35  1  0.750000  0.411412  0.892267  1
