# generated using pymatgen
data_Tb4PtPb2Au3
_symmetry_space_group_name_H-M   'P 1'
_cell_length_a   8.19998122
_cell_length_b   8.19998228
_cell_length_c   3.61793300
_cell_angle_alpha   90.00000000
_cell_angle_beta   90.00000000
_cell_angle_gamma   90.11750587
_symmetry_Int_Tables_number   1
_chemical_formula_structural   Tb4PtPb2Au3
_chemical_formula_sum   'Tb4 Pt1 Pb2 Au3'
_cell_volume   243.26822057
_cell_formula_units_Z   1
loop_
 _symmetry_equiv_pos_site_id
 _symmetry_equiv_pos_as_xyz
  1  'x, y, z'
loop_
 _atom_site_type_symbol
 _atom_site_label
 _atom_site_symmetry_multiplicity
 _atom_site_fract_x
 _atom_site_fract_y
 _atom_site_fract_z
 _atom_site_occupancy
  Tb  Tb0  1  0.678288  0.178288  0.500000  1
  Tb  Tb1  1  0.154064  0.328360  0.500000  1
  Tb  Tb2  1  0.828360  0.654064  0.500000  1
  Tb  Tb3  1  0.334843  0.834843  0.500000  1
  Pt  Pt4  1  0.875660  0.375660  0.000000  1
  Pb  Pb5  1  0.998248  0.998698  0.000000  1
  Pb  Pb6  1  0.498698  0.498248  0.000000  1
  Au  Au7  1  0.376005  0.128550  0.000000  1
  Au  Au8  1  0.127285  0.627285  0.000000  1
  Au  Au9  1  0.628550  0.876005  0.000000  1
