# generated using pymatgen
data_La4TbHo5Ir4
_symmetry_space_group_name_H-M   'P 1'
_cell_length_a   6.58382729
_cell_length_b   7.24425259
_cell_length_c   8.86312341
_cell_angle_alpha   96.92926411
_cell_angle_beta   111.78879574
_cell_angle_gamma   90.11178669
_symmetry_Int_Tables_number   1
_chemical_formula_structural   La4TbHo5Ir4
_chemical_formula_sum   'La4 Tb1 Ho5 Ir4'
_cell_volume   389.15749723
_cell_formula_units_Z   1
loop_
 _symmetry_equiv_pos_site_id
 _symmetry_equiv_pos_as_xyz
  1  'x, y, z'
loop_
 _atom_site_type_symbol
 _atom_site_label
 _atom_site_symmetry_multiplicity
 _atom_site_fract_x
 _atom_site_fract_y
 _atom_site_fract_z
 _atom_site_occupancy
  La  La0  1  0.975664  0.918470  0.194458  1
  La  La1  1  0.780821  0.581451  0.805444  1
  La  La2  1  0.024618  0.081747  0.805603  1
  La  La3  1  0.218938  0.418344  0.194582  1
  Tb  Tb4  1  0.641614  0.816698  0.433486  1
  Ho  Ho5  1  0.208323  0.682666  0.566494  1
  Ho  Ho6  1  0.358520  0.183538  0.567077  1
  Ho  Ho7  1  0.791815  0.317175  0.433694  1
  Ho  Ho8  1  0.429901  0.750321  0.999765  1
  Ho  Ho9  1  0.570077  0.249585  0.999881  1
  Ir  Ir10  1  0.815715  0.575235  0.226392  1
  Ir  Ir11  1  0.588489  0.924637  0.773809  1
  Ir  Ir12  1  0.184496  0.424237  0.773056  1
  Ir  Ir13  1  0.411010  0.075895  0.226258  1
