# generated using pymatgen
data_NaNdTmGa8Ag3
_symmetry_space_group_name_H-M   'P 1'
_cell_length_a   4.38186701
_cell_length_b   8.35038817
_cell_length_c   8.35038942
_cell_angle_alpha   71.30497975
_cell_angle_beta   74.78895765
_cell_angle_gamma   74.78896132
_symmetry_Int_Tables_number   1
_chemical_formula_structural   NaNdTmGa8Ag3
_chemical_formula_sum   'Na1 Nd1 Tm1 Ga8 Ag3'
_cell_volume   273.91903725
_cell_formula_units_Z   1
loop_
 _symmetry_equiv_pos_site_id
 _symmetry_equiv_pos_as_xyz
  1  'x, y, z'
loop_
 _atom_site_type_symbol
 _atom_site_label
 _atom_site_symmetry_multiplicity
 _atom_site_fract_x
 _atom_site_fract_y
 _atom_site_fract_z
 _atom_site_occupancy
  Na  Na0  1  0.196577  0.803423  0.803423  1
  Nd  Nd1  1  0.498744  0.501256  0.501256  1
  Tm  Tm2  1  0.799229  0.200771  0.200771  1
  Ga  Ga3  1  0.359119  0.358079  0.923682  1
  Ga  Ga4  1  0.645173  0.635670  0.073983  1
  Ga  Ga5  1  0.359119  0.923682  0.358079  1
  Ga  Ga6  1  0.645173  0.073983  0.635670  1
  Ga  Ga7  1  0.160629  0.468197  0.210546  1
  Ga  Ga8  1  0.836400  0.530649  0.796551  1
  Ga  Ga9  1  0.160629  0.210546  0.468197  1
  Ga  Ga10  1  0.836400  0.796551  0.530649  1
  Ag  Ag11  1  0.499688  0.000312  0.000312  1
  Ag  Ag12  1  0.001560  0.803258  0.193622  1
  Ag  Ag13  1  0.001560  0.193622  0.803258  1
