# generated using pymatgen
data_Tb2CeHo2(SiB4)2
_symmetry_space_group_name_H-M   'P 1'
_cell_length_a   7.25108206
_cell_length_b   7.25108101
_cell_length_c   8.14883101
_cell_angle_alpha   89.99172616
_cell_angle_beta   89.99172357
_cell_angle_gamma   90.09635242
_symmetry_Int_Tables_number   1
_chemical_formula_structural   Tb2CeHo2(SiB4)2
_chemical_formula_sum   'Tb4 Ce2 Ho4 Si4 B16'
_cell_volume   428.45011658
_cell_formula_units_Z   2
loop_
 _symmetry_equiv_pos_site_id
 _symmetry_equiv_pos_as_xyz
  1  'x, y, z'
loop_
 _atom_site_type_symbol
 _atom_site_label
 _atom_site_symmetry_multiplicity
 _atom_site_fract_x
 _atom_site_fract_y
 _atom_site_fract_z
 _atom_site_occupancy
  Tb  Tb0  1  0.319077  0.819014  0.223520  1
  Tb  Tb1  1  0.680986  0.180923  0.776480  1
  Tb  Tb2  1  0.180403  0.319988  0.777149  1
  Tb  Tb3  1  0.180012  0.319597  0.222851  1
  Ce  Ce4  1  0.682443  0.182359  0.229374  1
  Ce  Ce5  1  0.317641  0.817557  0.770626  1
  Ho  Ho6  1  0.819384  0.680159  0.221117  1
  Ho  Ho7  1  0.819841  0.680616  0.778883  1
  Ho  Ho8  1  0.999721  0.999580  0.499970  1
  Ho  Ho9  1  0.500420  0.500279  0.500030  1
  Si  Si10  1  0.114182  0.615200  0.500409  1
  Si  Si11  1  0.884800  0.385818  0.499591  1
  Si  Si12  1  0.385509  0.114491  0.500000  1
  Si  Si13  1  0.615384  0.884616  0.500000  1
  B  B14  1  0.172221  0.038743  0.999424  1
  B  B15  1  0.827368  0.960568  0.000567  1
  B  B16  1  0.960046  0.171803  0.000199  1
  B  B17  1  0.328197  0.539954  0.999801  1
  B  B18  1  0.039304  0.827731  0.999800  1
  B  B19  1  0.672269  0.460696  0.000200  1
  B  B20  1  0.539432  0.672632  0.999433  1
  B  B21  1  0.461257  0.327779  0.000576  1
  B  B22  1  0.090619  0.591102  0.998467  1
  B  B23  1  0.908898  0.409381  0.001533  1
  B  B24  1  0.409674  0.090326  0.000000  1
  B  B25  1  0.590418  0.909582  0.000000  1
  B  B26  1  0.998692  0.999513  0.161382  1
  B  B27  1  0.000616  0.999299  0.838633  1
  B  B28  1  0.500487  0.501308  0.838618  1
  B  B29  1  0.500701  0.499384  0.161367  1
