# generated using pymatgen
data_Hf3Ti(MnAs)4
_symmetry_space_group_name_H-M   'P 1'
_cell_length_a   6.52837965
_cell_length_b   3.68225900
_cell_length_c   7.66961775
_cell_angle_alpha   90.00000000
_cell_angle_beta   90.15137664
_cell_angle_gamma   90.00000000
_symmetry_Int_Tables_number   1
_chemical_formula_structural   Hf3Ti(MnAs)4
_chemical_formula_sum   'Hf3 Ti1 Mn4 As4'
_cell_volume   184.37071427
_cell_formula_units_Z   1
loop_
 _symmetry_equiv_pos_site_id
 _symmetry_equiv_pos_as_xyz
  1  'x, y, z'
loop_
 _atom_site_type_symbol
 _atom_site_label
 _atom_site_symmetry_multiplicity
 _atom_site_fract_x
 _atom_site_fract_y
 _atom_site_fract_z
 _atom_site_occupancy
  Hf  Hf0  1  0.537238  0.249999  0.173482  1
  Hf  Hf1  1  0.040792  0.249999  0.325745  1
  Hf  Hf2  1  0.964106  0.750000  0.677580  1
  Ti  Ti3  1  0.461883  0.750000  0.825219  1
  Mn  Mn4  1  0.865328  0.750000  0.058968  1
  Mn  Mn5  1  0.365192  0.750000  0.440300  1
  Mn  Mn6  1  0.634143  0.249999  0.560587  1
  Mn  Mn7  1  0.132045  0.249999  0.939047  1
  As  As8  1  0.241672  0.750000  0.124528  1
  As  As9  1  0.740258  0.750000  0.370100  1
  As  As10  1  0.267241  0.249999  0.636709  1
  As  As11  1  0.750102  0.249999  0.867734  1
