# generated using pymatgen
data_NaPrSnI6
_symmetry_space_group_name_H-M   'P 1'
_cell_length_a   8.74174959
_cell_length_b   8.74171450
_cell_length_c   8.74163556
_cell_angle_alpha   54.57257611
_cell_angle_beta   54.57331798
_cell_angle_gamma   54.57241494
_symmetry_Int_Tables_number   1
_chemical_formula_structural   NaPrSnI6
_chemical_formula_sum   'Na1 Pr1 Sn1 I6'
_cell_volume   412.61007180
_cell_formula_units_Z   1
loop_
 _symmetry_equiv_pos_site_id
 _symmetry_equiv_pos_as_xyz
  1  'x, y, z'
loop_
 _atom_site_type_symbol
 _atom_site_label
 _atom_site_symmetry_multiplicity
 _atom_site_fract_x
 _atom_site_fract_y
 _atom_site_fract_z
 _atom_site_occupancy
  Na  Na0  1  0.669624  0.669617  0.669623  1
  Pr  Pr1  1  0.999659  0.999670  0.999671  1
  Sn  Sn2  1  0.331659  0.331655  0.331658  1
  I  I3  1  0.244855  0.593307  0.920448  1
  I  I4  1  0.593298  0.920457  0.244853  1
  I  I5  1  0.920462  0.244853  0.593287  1
  I  I6  1  0.746878  0.400045  0.093528  1
  I  I7  1  0.400031  0.093529  0.746881  1
  I  I8  1  0.093537  0.746867  0.400050  1
