# generated using pymatgen
data_Li2Pr8Sm9Si16Ag
_symmetry_space_group_name_H-M   'P 1'
_cell_length_a   7.47690900
_cell_length_b   7.99054591
_cell_length_c   15.01773100
_cell_angle_alpha   90.00000000
_cell_angle_beta   90.00000000
_cell_angle_gamma   90.15144717
_symmetry_Int_Tables_number   1
_chemical_formula_structural   Li2Pr8Sm9Si16Ag
_chemical_formula_sum   'Li2 Pr8 Sm9 Si16 Ag1'
_cell_volume   897.22496676
_cell_formula_units_Z   1
loop_
 _symmetry_equiv_pos_site_id
 _symmetry_equiv_pos_as_xyz
  1  'x, y, z'
loop_
 _atom_site_type_symbol
 _atom_site_label
 _atom_site_symmetry_multiplicity
 _atom_site_fract_x
 _atom_site_fract_y
 _atom_site_fract_z
 _atom_site_occupancy
  Li  Li0  1  0.844045  0.473833  0.250000  1
  Li  Li1  1  0.343180  0.021019  0.250000  1
  Pr  Pr2  1  0.030298  0.190329  0.396535  1
  Pr  Pr3  1  0.531861  0.310931  0.393929  1
  Pr  Pr4  1  0.477736  0.693737  0.899216  1
  Pr  Pr5  1  0.477736  0.693737  0.600784  1
  Pr  Pr6  1  0.967219  0.823449  0.601132  1
  Pr  Pr7  1  0.967219  0.823449  0.898868  1
  Pr  Pr8  1  0.531861  0.310931  0.106071  1
  Pr  Pr9  1  0.030298  0.190329  0.103465  1
  Sm  Sm10  1  0.332639  0.175888  0.626341  1
  Sm  Sm11  1  0.678107  0.815409  0.371123  1
  Sm  Sm12  1  0.175377  0.679076  0.373081  1
  Sm  Sm13  1  0.813322  0.309323  0.874079  1
  Sm  Sm14  1  0.813322  0.309323  0.625921  1
  Sm  Sm15  1  0.332639  0.175888  0.873659  1
  Sm  Sm16  1  0.175377  0.679076  0.126919  1
  Sm  Sm17  1  0.678107  0.815409  0.128877  1
  Sm  Sm18  1  0.146157  0.509117  0.750000  1
  Si  Si19  1  0.260645  0.877579  0.750000  1
  Si  Si20  1  0.477273  0.584096  0.250000  1
  Si  Si21  1  0.029548  0.100145  0.750000  1
  Si  Si22  1  0.521185  0.419935  0.750000  1
  Si  Si23  1  0.141018  0.474725  0.540520  1
  Si  Si24  1  0.981204  0.915121  0.250000  1
  Si  Si25  1  0.741230  0.117071  0.250000  1
  Si  Si26  1  0.850593  0.532692  0.032899  1
  Si  Si27  1  0.352250  0.968211  0.038082  1
  Si  Si28  1  0.141018  0.474725  0.959480  1
  Si  Si29  1  0.645923  0.033946  0.528211  1
  Si  Si30  1  0.352250  0.968211  0.461918  1
  Si  Si31  1  0.850593  0.532692  0.467101  1
  Si  Si32  1  0.767640  0.619795  0.750000  1
  Si  Si33  1  0.237484  0.380632  0.250000  1
  Si  Si34  1  0.645923  0.033946  0.971789  1
  Ag  Ag35  1  0.657720  0.966226  0.750000  1
