# generated using pymatgen
data_SrLaCd2Au3
_symmetry_space_group_name_H-M   'P 1'
_cell_length_a   4.56689100
_cell_length_b   8.52548500
_cell_length_c   9.29714900
_cell_angle_alpha   90.00000000
_cell_angle_beta   90.00000000
_cell_angle_gamma   90.00000000
_symmetry_Int_Tables_number   1
_chemical_formula_structural   SrLaCd2Au3
_chemical_formula_sum   'Sr2 La2 Cd4 Au6'
_cell_volume   361.98413110
_cell_formula_units_Z   2
loop_
 _symmetry_equiv_pos_site_id
 _symmetry_equiv_pos_as_xyz
  1  'x, y, z'
loop_
 _atom_site_type_symbol
 _atom_site_label
 _atom_site_symmetry_multiplicity
 _atom_site_fract_x
 _atom_site_fract_y
 _atom_site_fract_z
 _atom_site_occupancy
  Sr  Sr0  1  0.500000  0.000000  0.737538  1
  Sr  Sr1  1  0.000000  0.500000  0.262462  1
  La  La2  1  0.000000  0.000000  0.339826  1
  La  La3  1  0.500000  0.500000  0.660174  1
  Cd  Cd4  1  0.000000  0.311275  0.897523  1
  Cd  Cd5  1  0.500000  0.188725  0.102477  1
  Cd  Cd6  1  0.000000  0.688725  0.897523  1
  Cd  Cd7  1  0.500000  0.811275  0.102477  1
  Au  Au8  1  0.000000  0.744961  0.592514  1
  Au  Au9  1  0.500000  0.755039  0.407486  1
  Au  Au10  1  0.500000  0.500000  0.994298  1
  Au  Au11  1  0.000000  0.000000  0.005702  1
  Au  Au12  1  0.500000  0.244961  0.407486  1
  Au  Au13  1  0.000000  0.255039  0.592514  1
