# generated using pymatgen
data_CaCeAs2(RhO)2
_symmetry_space_group_name_H-M   'P 1'
_cell_length_a   4.05793700
_cell_length_b   4.05793700
_cell_length_c   8.42484400
_cell_angle_alpha   90.00000000
_cell_angle_beta   90.00000000
_cell_angle_gamma   90.00000000
_symmetry_Int_Tables_number   1
_chemical_formula_structural   CaCeAs2(RhO)2
_chemical_formula_sum   'Ca1 Ce1 As2 Rh2 O2'
_cell_volume   138.73066513
_cell_formula_units_Z   1
loop_
 _symmetry_equiv_pos_site_id
 _symmetry_equiv_pos_as_xyz
  1  'x, y, z'
loop_
 _atom_site_type_symbol
 _atom_site_label
 _atom_site_symmetry_multiplicity
 _atom_site_fract_x
 _atom_site_fract_y
 _atom_site_fract_z
 _atom_site_occupancy
  Ca  Ca0  1  0.250002  0.250002  0.132976  1
  Ce  Ce1  1  0.750000  0.750000  0.878750  1
  As  As2  1  0.750000  0.750000  0.335761  1
  As  As3  1  0.250002  0.250002  0.665868  1
  Rh  Rh4  1  0.750000  0.250002  0.499236  1
  Rh  Rh5  1  0.250002  0.750000  0.499236  1
  O  O6  1  0.750000  0.250002  0.994088  1
  O  O7  1  0.250002  0.750000  0.994088  1
