# generated using pymatgen
data_Hf4Ta4Ge3P
_symmetry_space_group_name_H-M   'P 1'
_cell_length_a   3.61980600
_cell_length_b   6.98782382
_cell_length_c   8.51294417
_cell_angle_alpha   89.37774002
_cell_angle_beta   90.00000000
_cell_angle_gamma   90.00000000
_symmetry_Int_Tables_number   1
_chemical_formula_structural   Hf4Ta4Ge3P
_chemical_formula_sum   'Hf4 Ta4 Ge3 P1'
_cell_volume   215.31853414
_cell_formula_units_Z   1
loop_
 _symmetry_equiv_pos_site_id
 _symmetry_equiv_pos_as_xyz
  1  'x, y, z'
loop_
 _atom_site_type_symbol
 _atom_site_label
 _atom_site_symmetry_multiplicity
 _atom_site_fract_x
 _atom_site_fract_y
 _atom_site_fract_z
 _atom_site_occupancy
  Hf  Hf0  1  0.250000  0.045774  0.671457  1
  Hf  Hf1  1  0.250000  0.533267  0.835577  1
  Hf  Hf2  1  0.750000  0.458690  0.163891  1
  Hf  Hf3  1  0.750000  0.955693  0.335154  1
  Ta  Ta4  1  0.750000  0.870468  0.938941  1
  Ta  Ta5  1  0.250000  0.631394  0.441451  1
  Ta  Ta6  1  0.750000  0.363971  0.563353  1
  Ta  Ta7  1  0.250000  0.141238  0.052116  1
  Ge  Ge8  1  0.250000  0.252224  0.356370  1
  Ge  Ge9  1  0.250000  0.757883  0.142855  1
  Ge  Ge10  1  0.750000  0.746395  0.643463  1
  P  P11  1  0.750000  0.243002  0.855374  1
