# generated using pymatgen
data_Y6B14MoRu
_symmetry_space_group_name_H-M   'P 1'
_cell_length_a   8.12287208
_cell_length_b   8.12287293
_cell_length_c   9.40824300
_cell_angle_alpha   90.00000000
_cell_angle_beta   90.00000000
_cell_angle_gamma   155.03684955
_symmetry_Int_Tables_number   1
_chemical_formula_structural   Y6B14MoRu
_chemical_formula_sum   'Y6 B14 Mo1 Ru1'
_cell_volume   261.98508235
_cell_formula_units_Z   1
loop_
 _symmetry_equiv_pos_site_id
 _symmetry_equiv_pos_as_xyz
  1  'x, y, z'
loop_
 _atom_site_type_symbol
 _atom_site_label
 _atom_site_symmetry_multiplicity
 _atom_site_fract_x
 _atom_site_fract_y
 _atom_site_fract_z
 _atom_site_occupancy
  Y  Y0  1  0.256870  0.743130  0.250000  1
  Y  Y1  1  0.744576  0.255424  0.750000  1
  Y  Y2  1  0.605745  0.394255  0.061962  1
  Y  Y3  1  0.393292  0.606708  0.941153  1
  Y  Y4  1  0.393292  0.606708  0.558847  1
  Y  Y5  1  0.605745  0.394255  0.438038  1
  B  B6  1  0.978809  0.021191  0.096752  1
  B  B7  1  0.019512  0.980488  0.908340  1
  B  B8  1  0.019512  0.980488  0.591660  1
  B  B9  1  0.978809  0.021191  0.403248  1
  B  B10  1  0.773527  0.226473  0.035241  1
  B  B11  1  0.227870  0.772130  0.967899  1
  B  B12  1  0.227870  0.772130  0.532101  1
  B  B13  1  0.773527  0.226473  0.464759  1
  B  B14  1  0.868777  0.131223  0.151792  1
  B  B15  1  0.134384  0.865616  0.852242  1
  B  B16  1  0.134384  0.865616  0.647758  1
  B  B17  1  0.868777  0.131223  0.348208  1
  B  B18  1  0.041318  0.958682  0.250000  1
  B  B19  1  0.954957  0.045043  0.750000  1
  Mo  Mo20  1  0.552726  0.447274  0.750000  1
  Ru  Ru21  1  0.445715  0.554285  0.250000  1
