# generated using pymatgen
data_Li2Tb3ZnPd2Ru
_symmetry_space_group_name_H-M   'P 1'
_cell_length_a   7.20321618
_cell_length_b   7.21589788
_cell_length_c   4.01290400
_cell_angle_alpha   90.00000000
_cell_angle_beta   90.00000000
_cell_angle_gamma   120.86035829
_symmetry_Int_Tables_number   1
_chemical_formula_structural   Li2Tb3ZnPd2Ru
_chemical_formula_sum   'Li2 Tb3 Zn1 Pd2 Ru1'
_cell_volume   179.05045520
_cell_formula_units_Z   1
loop_
 _symmetry_equiv_pos_site_id
 _symmetry_equiv_pos_as_xyz
  1  'x, y, z'
loop_
 _atom_site_type_symbol
 _atom_site_label
 _atom_site_symmetry_multiplicity
 _atom_site_fract_x
 _atom_site_fract_y
 _atom_site_fract_z
 _atom_site_occupancy
  Li  Li0  1  0.999582  0.763765  0.500000  1
  Li  Li1  1  0.235875  0.235108  0.500000  1
  Tb  Tb2  1  0.010530  0.415228  0.000000  1
  Tb  Tb3  1  0.578399  0.597168  0.000000  1
  Tb  Tb4  1  0.412837  0.986211  0.000000  1
  Zn  Zn5  1  0.757028  0.997199  0.500000  1
  Pd  Pd6  1  0.997574  0.001615  0.000000  1
  Pd  Pd7  1  0.669166  0.331993  0.500000  1
  Ru  Ru8  1  0.339008  0.671713  0.500000  1
