# generated using pymatgen
data_Pr3Sc(WN3)4
_symmetry_space_group_name_H-M   'P 1'
_cell_length_a   7.31876930
_cell_length_b   7.31876989
_cell_length_c   6.23712098
_cell_angle_alpha   75.88993134
_cell_angle_beta   75.88992446
_cell_angle_gamma   83.66982299
_symmetry_Int_Tables_number   1
_chemical_formula_structural   Pr3Sc(WN3)4
_chemical_formula_sum   'Pr3 Sc1 W4 N12'
_cell_volume   313.77315717
_cell_formula_units_Z   1
loop_
 _symmetry_equiv_pos_site_id
 _symmetry_equiv_pos_as_xyz
  1  'x, y, z'
loop_
 _atom_site_type_symbol
 _atom_site_label
 _atom_site_symmetry_multiplicity
 _atom_site_fract_x
 _atom_site_fract_y
 _atom_site_fract_z
 _atom_site_occupancy
  Pr  Pr0  1  0.696609  0.303391  0.750000  1
  Pr  Pr1  1  0.084772  0.915228  0.750000  1
  Pr  Pr2  1  0.306465  0.693535  0.250000  1
  Sc  Sc3  1  0.905708  0.094292  0.250000  1
  W  W4  1  0.383249  0.198006  0.249798  1
  W  W5  1  0.622492  0.802328  0.737576  1
  W  W6  1  0.801994  0.616751  0.250202  1
  W  W7  1  0.197672  0.377508  0.762424  1
  N  N8  1  0.625757  0.108386  0.172273  1
  N  N9  1  0.359122  0.331694  0.488476  1
  N  N10  1  0.997341  0.217880  0.879075  1
  N  N11  1  0.387915  0.893031  0.842312  1
  N  N12  1  0.782120  0.002659  0.620925  1
  N  N13  1  0.106969  0.612085  0.657688  1
  N  N14  1  0.891614  0.374243  0.327727  1
  N  N15  1  0.624530  0.646609  0.523467  1
  N  N16  1  0.668306  0.640878  0.011524  1
  N  N17  1  0.353391  0.375470  0.976533  1
  N  N18  1  0.991119  0.787145  0.164729  1
  N  N19  1  0.212855  0.008881  0.335271  1
