# generated using pymatgen
data_CaMo2Se2O11
_symmetry_space_group_name_H-M   'P 1'
_cell_length_a   8.17198608
_cell_length_b   8.06914338
_cell_length_c   8.72526618
_cell_angle_alpha   84.74704586
_cell_angle_beta   113.08640552
_cell_angle_gamma   111.40906557
_symmetry_Int_Tables_number   1
_chemical_formula_structural   CaMo2Se2O11
_chemical_formula_sum   'Ca2 Mo4 Se4 O22'
_cell_volume   491.85936855
_cell_formula_units_Z   2
loop_
 _symmetry_equiv_pos_site_id
 _symmetry_equiv_pos_as_xyz
  1  'x, y, z'
loop_
 _atom_site_type_symbol
 _atom_site_label
 _atom_site_symmetry_multiplicity
 _atom_site_fract_x
 _atom_site_fract_y
 _atom_site_fract_z
 _atom_site_occupancy
  Ca  Ca0  1  0.564988  0.771024  0.521049  1
  Ca  Ca1  1  0.435012  0.228976  0.478951  1
  Mo  Mo2  1  0.717676  0.620709  0.200120  1
  Mo  Mo3  1  0.282324  0.379291  0.799880  1
  Mo  Mo4  1  0.712805  0.026725  0.943496  1
  Mo  Mo5  1  0.287195  0.973275  0.056504  1
  Se  Se6  1  0.747621  0.450024  0.845429  1
  Se  Se7  1  0.252379  0.549976  0.154571  1
  Se  Se8  1  0.752757  0.217904  0.322511  1
  Se  Se9  1  0.247243  0.782096  0.677489  1
  O  O10  1  0.933395  0.603023  0.228322  1
  O  O11  1  0.066605  0.396977  0.771678  1
  O  O12  1  0.753834  0.723975  0.385298  1
  O  O13  1  0.246166  0.276025  0.614702  1
  O  O14  1  0.726238  0.826912  0.076414  1
  O  O15  1  0.273762  0.173088  0.923586  1
  O  O16  1  0.636615  0.370224  0.298420  1
  O  O17  1  0.363385  0.629776  0.701580  1
  O  O18  1  0.596909  0.476293  0.935931  1
  O  O19  1  0.403091  0.523707  0.064069  1
  O  O20  1  0.930477  0.188372  0.058576  1
  O  O21  1  0.069523  0.811628  0.941424  1
  O  O22  1  0.739494  0.943602  0.779964  1
  O  O23  1  0.260506  0.056398  0.220036  1
  O  O24  1  0.625317  0.218712  0.792371  1
  O  O25  1  0.374683  0.781288  0.207629  1
  O  O26  1  0.600698  0.094100  0.128038  1
  O  O27  1  0.399302  0.905900  0.871962  1
  O  O28  1  0.659626  0.515377  0.650938  1
  O  O29  1  0.340374  0.484623  0.349062  1
  O  O30  1  0.666275  0.091696  0.456982  1
  O  O31  1  0.333725  0.908304  0.543018  1
