# generated using pymatgen
data_PrTh3Al10(Ga4Ir3)2
_symmetry_space_group_name_H-M   'P 1'
_cell_length_a   7.66268647
_cell_length_b   7.66023458
_cell_length_c   9.60338057
_cell_angle_alpha   90.09014480
_cell_angle_beta   89.85770293
_cell_angle_gamma   119.66436314
_symmetry_Int_Tables_number   1
_chemical_formula_structural   PrTh3Al10(Ga4Ir3)2
_chemical_formula_sum   'Pr1 Th3 Al10 Ga8 Ir6'
_cell_volume   489.81878550
_cell_formula_units_Z   1
loop_
 _symmetry_equiv_pos_site_id
 _symmetry_equiv_pos_as_xyz
  1  'x, y, z'
loop_
 _atom_site_type_symbol
 _atom_site_label
 _atom_site_symmetry_multiplicity
 _atom_site_fract_x
 _atom_site_fract_y
 _atom_site_fract_z
 _atom_site_occupancy
  Pr  Pr0  1  0.328690  0.003710  0.751027  1
  Th  Th1  1  0.995766  0.668788  0.245508  1
  Th  Th2  1  0.003598  0.331978  0.754682  1
  Th  Th3  1  0.670893  0.996325  0.248455  1
  Al  Al4  1  0.997801  0.667542  0.571243  1
  Al  Al5  1  0.334551  0.003109  0.429509  1
  Al  Al6  1  0.004831  0.335165  0.429513  1
  Al  Al7  1  0.663139  0.996612  0.573643  1
  Al  Al8  1  0.661115  0.993705  0.925060  1
  Al  Al9  1  0.336235  0.005814  0.071443  1
  Al  Al10  1  0.335607  0.333981  0.552536  1
  Al  Al11  1  0.663999  0.664048  0.449235  1
  Al  Al12  1  0.663581  0.663225  0.049243  1
  Al  Al13  1  0.336123  0.334443  0.948765  1
  Ga  Ga14  1  0.136012  0.132408  0.250729  1
  Ga  Ga15  1  0.867847  0.869834  0.749310  1
  Ga  Ga16  1  0.003177  0.333639  0.078918  1
  Ga  Ga17  1  0.999962  0.669655  0.920594  1
  Ga  Ga18  1  0.343690  0.544529  0.250851  1
  Ga  Ga19  1  0.656226  0.451983  0.749247  1
  Ga  Ga20  1  0.543319  0.341157  0.250191  1
  Ga  Ga21  1  0.455044  0.658904  0.749799  1
  Ir  Ir22  1  0.669360  0.327348  0.000880  1
  Ir  Ir23  1  0.332494  0.672672  0.002585  1
  Ir  Ir24  1  0.327391  0.670212  0.498943  1
  Ir  Ir25  1  0.674572  0.329982  0.497803  1
  Ir  Ir26  1  0.997390  0.999490  0.002384  1
  Ir  Ir27  1  0.997588  0.999746  0.497903  1
