# generated using pymatgen
data_ZnFeCu2(SO4)4
_symmetry_space_group_name_H-M   'P 1'
_cell_length_a   4.98891373
_cell_length_b   6.94179784
_cell_length_c   8.53380992
_cell_angle_alpha   90.03836752
_cell_angle_beta   90.04768661
_cell_angle_gamma   83.57603333
_symmetry_Int_Tables_number   1
_chemical_formula_structural   ZnFeCu2(SO4)4
_chemical_formula_sum   'Zn1 Fe1 Cu2 S4 O16'
_cell_volume   293.68735960
_cell_formula_units_Z   1
loop_
 _symmetry_equiv_pos_site_id
 _symmetry_equiv_pos_as_xyz
  1  'x, y, z'
loop_
 _atom_site_type_symbol
 _atom_site_label
 _atom_site_symmetry_multiplicity
 _atom_site_fract_x
 _atom_site_fract_y
 _atom_site_fract_z
 _atom_site_occupancy
  Zn  Zn0  1  0.500000  0.500000  0.500000  1
  Fe  Fe1  1  0.000000  0.000000  0.000000  1
  Cu  Cu2  1  0.000000  0.500000  0.000000  1
  Cu  Cu3  1  0.500000  0.000000  0.500000  1
  S  S4  1  0.953901  0.724264  0.681231  1
  S  S5  1  0.455900  0.226562  0.817017  1
  S  S6  1  0.046099  0.275736  0.318769  1
  S  S7  1  0.544100  0.773438  0.182983  1
  O  O8  1  0.182657  0.445412  0.362165  1
  O  O9  1  0.682987  0.587362  0.123241  1
  O  O10  1  0.817429  0.911387  0.621582  1
  O  O11  1  0.322786  0.055480  0.859916  1
  O  O12  1  0.817343  0.554588  0.637835  1
  O  O13  1  0.317013  0.412638  0.876759  1
  O  O14  1  0.182571  0.088613  0.378418  1
  O  O15  1  0.677214  0.944520  0.140084  1
  O  O16  1  0.260846  0.790717  0.129978  1
  O  O17  1  0.762143  0.294003  0.370372  1
  O  O18  1  0.739154  0.209283  0.870022  1
  O  O19  1  0.237857  0.705997  0.629628  1
  O  O20  1  0.554357  0.758592  0.362383  1
  O  O21  1  0.057096  0.260314  0.139218  1
  O  O22  1  0.445643  0.241408  0.637617  1
  O  O23  1  0.942904  0.739686  0.860782  1
