# generated using pymatgen
data_NaTbGePt3
_symmetry_space_group_name_H-M   'P 1'
_cell_length_a   5.54471622
_cell_length_b   5.54471631
_cell_length_c   5.21568603
_cell_angle_alpha   57.89026172
_cell_angle_beta   57.89026276
_cell_angle_gamma   59.99999089
_symmetry_Int_Tables_number   1
_chemical_formula_structural   NaTbGePt3
_chemical_formula_sum   'Na1 Tb1 Ge1 Pt3'
_cell_volume   109.63354719
_cell_formula_units_Z   1
loop_
 _symmetry_equiv_pos_site_id
 _symmetry_equiv_pos_as_xyz
  1  'x, y, z'
loop_
 _atom_site_type_symbol
 _atom_site_label
 _atom_site_symmetry_multiplicity
 _atom_site_fract_x
 _atom_site_fract_y
 _atom_site_fract_z
 _atom_site_occupancy
  Na  Na0  1  0.751285  0.751285  0.746143  1
  Tb  Tb1  1  0.502725  0.502725  0.491826  1
  Ge  Ge2  1  0.123329  0.123329  0.630014  1
  Pt  Pt3  1  0.123567  0.123567  0.127339  1
  Pt  Pt4  1  0.625528  0.123567  0.127339  1
  Pt  Pt5  1  0.123567  0.625528  0.127339  1
