# generated using pymatgen
data_Ta4Co2PtSe12
_symmetry_space_group_name_H-M   'P 1'
_cell_length_a   7.31406413
_cell_length_b   7.31406428
_cell_length_c   19.43629950
_cell_angle_alpha   69.71831119
_cell_angle_beta   69.71831050
_cell_angle_gamma   27.08448414
_symmetry_Int_Tables_number   1
_chemical_formula_structural   Ta4Co2PtSe12
_chemical_formula_sum   'Ta4 Co2 Pt1 Se12'
_cell_volume   442.29081943
_cell_formula_units_Z   1
loop_
 _symmetry_equiv_pos_site_id
 _symmetry_equiv_pos_as_xyz
  1  'x, y, z'
loop_
 _atom_site_type_symbol
 _atom_site_label
 _atom_site_symmetry_multiplicity
 _atom_site_fract_x
 _atom_site_fract_y
 _atom_site_fract_z
 _atom_site_occupancy
  Ta  Ta0  1  0.623250  0.623250  0.848913  1
  Ta  Ta1  1  0.376750  0.376750  0.151087  1
  Ta  Ta2  1  0.745707  0.745707  0.590720  1
  Ta  Ta3  1  0.254293  0.254293  0.409280  1
  Co  Co4  1  0.229489  0.229489  0.716700  1
  Co  Co5  1  0.770511  0.770511  0.283300  1
  Pt  Pt6  1  0.000000  0.000000  0.000000  1
  Se  Se7  1  0.973965  0.973965  0.881148  1
  Se  Se8  1  0.026035  0.026035  0.118852  1
  Se  Se9  1  0.628270  0.628270  0.394460  1
  Se  Se10  1  0.371730  0.371730  0.605540  1
  Se  Se11  1  0.134098  0.134098  0.550582  1
  Se  Se12  1  0.865902  0.865902  0.449418  1
  Se  Se13  1  0.805519  0.805519  0.764395  1
  Se  Se14  1  0.194481  0.194481  0.235605  1
  Se  Se15  1  0.182905  0.182905  0.926784  1
  Se  Se16  1  0.817095  0.817095  0.073216  1
  Se  Se17  1  0.607733  0.607733  0.718796  1
  Se  Se18  1  0.392267  0.392267  0.281204  1
