# generated using pymatgen
data_Zr5TlHgBi2
_symmetry_space_group_name_H-M   'P 1'
_cell_length_a   8.92223700
_cell_length_b   8.92223743
_cell_length_c   6.03031900
_cell_angle_alpha   90.00000000
_cell_angle_beta   90.00000000
_cell_angle_gamma   119.85332803
_symmetry_Int_Tables_number   1
_chemical_formula_structural   Zr5TlHgBi2
_chemical_formula_sum   'Zr10 Tl2 Hg2 Bi4'
_cell_volume   416.34986268
_cell_formula_units_Z   2
loop_
 _symmetry_equiv_pos_site_id
 _symmetry_equiv_pos_as_xyz
  1  'x, y, z'
loop_
 _atom_site_type_symbol
 _atom_site_label
 _atom_site_symmetry_multiplicity
 _atom_site_fract_x
 _atom_site_fract_y
 _atom_site_fract_z
 _atom_site_occupancy
  Zr  Zr0  1  0.720575  0.005330  0.250000  1
  Zr  Zr1  1  0.005330  0.720575  0.250000  1
  Zr  Zr2  1  0.280405  0.280405  0.250000  1
  Zr  Zr3  1  0.277719  0.999031  0.750000  1
  Zr  Zr4  1  0.999031  0.277719  0.750000  1
  Zr  Zr5  1  0.722025  0.722025  0.750000  1
  Zr  Zr6  1  0.331455  0.666039  0.497570  1
  Zr  Zr7  1  0.666039  0.331455  0.497570  1
  Zr  Zr8  1  0.666039  0.331455  0.002430  1
  Zr  Zr9  1  0.331455  0.666039  0.002430  1
  Tl  Tl10  1  0.379168  0.000647  0.250000  1
  Tl  Tl11  1  0.000647  0.379168  0.250000  1
  Hg  Hg12  1  0.001687  0.001687  0.496867  1
  Hg  Hg13  1  0.001687  0.001687  0.003133  1
  Bi  Bi14  1  0.620176  0.620176  0.250000  1
  Bi  Bi15  1  0.615552  0.999166  0.750000  1
  Bi  Bi16  1  0.999166  0.615552  0.750000  1
  Bi  Bi17  1  0.381841  0.381841  0.750000  1
