# generated using pymatgen
data_Nd16Y(ErIr4)3
_symmetry_space_group_name_H-M   'P 1'
_cell_length_a   11.20600700
_cell_length_b   11.20600700
_cell_length_c   6.51852700
_cell_angle_alpha   90.00000000
_cell_angle_beta   90.00000000
_cell_angle_gamma   90.00000000
_symmetry_Int_Tables_number   1
_chemical_formula_structural   Nd16Y(ErIr4)3
_chemical_formula_sum   'Nd16 Y1 Er3 Ir12'
_cell_volume   818.56137423
_cell_formula_units_Z   1
loop_
 _symmetry_equiv_pos_site_id
 _symmetry_equiv_pos_as_xyz
  1  'x, y, z'
loop_
 _atom_site_type_symbol
 _atom_site_label
 _atom_site_symmetry_multiplicity
 _atom_site_fract_x
 _atom_site_fract_y
 _atom_site_fract_z
 _atom_site_occupancy
  Nd  Nd0  1  0.289110  0.087688  0.379711  1
  Nd  Nd1  1  0.288931  0.912407  0.879779  1
  Nd  Nd2  1  0.711069  0.087593  0.879779  1
  Nd  Nd3  1  0.710890  0.912312  0.379711  1
  Nd  Nd4  1  0.587567  0.788906  0.879728  1
  Nd  Nd5  1  0.587592  0.211119  0.379730  1
  Nd  Nd6  1  0.412408  0.788881  0.379730  1
  Nd  Nd7  1  0.412433  0.211094  0.879728  1
  Nd  Nd8  1  0.211119  0.412408  0.620270  1
  Nd  Nd9  1  0.211094  0.587567  0.120272  1
  Nd  Nd10  1  0.788906  0.412433  0.120272  1
  Nd  Nd11  1  0.788881  0.587592  0.620270  1
  Nd  Nd12  1  0.912407  0.711069  0.120221  1
  Nd  Nd13  1  0.912312  0.289110  0.620289  1
  Nd  Nd14  1  0.087688  0.710890  0.620289  1
  Nd  Nd15  1  0.087593  0.288931  0.120221  1
  Y  Y16  1  0.000000  0.000000  0.500000  1
  Er  Er17  1  0.000000  0.000000  0.000000  1
  Er  Er18  1  0.500000  0.500000  0.000000  1
  Er  Er19  1  0.500000  0.500000  0.500000  1
  Ir  Ir20  1  0.850862  0.149163  0.249033  1
  Ir  Ir21  1  0.850837  0.850862  0.750967  1
  Ir  Ir22  1  0.149163  0.149138  0.750967  1
  Ir  Ir23  1  0.149138  0.850837  0.249033  1
  Ir  Ir24  1  0.648594  0.351408  0.750016  1
  Ir  Ir25  1  0.648592  0.648594  0.249984  1
  Ir  Ir26  1  0.351408  0.351406  0.249984  1
  Ir  Ir27  1  0.351406  0.648592  0.750016  1
  Ir  Ir28  1  0.500000  0.000000  0.118899  1
  Ir  Ir29  1  0.500000  0.000000  0.618855  1
  Ir  Ir30  1  0.000000  0.500000  0.881101  1
  Ir  Ir31  1  0.000000  0.500000  0.381145  1
