# generated using pymatgen
data_Tb14Ho2ZnIn3Rh4
_symmetry_space_group_name_H-M   'P 1'
_cell_length_a   9.65454909
_cell_length_b   9.64889596
_cell_length_c   9.64889616
_cell_angle_alpha   60.10348075
_cell_angle_beta   60.08654930
_cell_angle_gamma   60.08654956
_symmetry_Int_Tables_number   1
_chemical_formula_structural   Tb14Ho2ZnIn3Rh4
_chemical_formula_sum   'Tb14 Ho2 Zn1 In3 Rh4'
_cell_volume   636.91068803
_cell_formula_units_Z   1
loop_
 _symmetry_equiv_pos_site_id
 _symmetry_equiv_pos_as_xyz
  1  'x, y, z'
loop_
 _atom_site_type_symbol
 _atom_site_label
 _atom_site_symmetry_multiplicity
 _atom_site_fract_x
 _atom_site_fract_y
 _atom_site_fract_z
 _atom_site_occupancy
  Tb  Tb0  1  0.188915  0.189308  0.812339  1
  Tb  Tb1  1  0.647834  0.053115  0.647635  1
  Tb  Tb2  1  0.062012  0.062447  0.438327  1
  Tb  Tb3  1  0.436486  0.435863  0.068280  1
  Tb  Tb4  1  0.651370  0.650779  0.650779  1
  Tb  Tb5  1  0.812290  0.188905  0.188905  1
  Tb  Tb6  1  0.189758  0.810390  0.810390  1
  Tb  Tb7  1  0.052813  0.647642  0.647642  1
  Tb  Tb8  1  0.438814  0.062055  0.062055  1
  Tb  Tb9  1  0.436486  0.068280  0.435863  1
  Tb  Tb10  1  0.062012  0.438327  0.062447  1
  Tb  Tb11  1  0.647834  0.647635  0.053115  1
  Tb  Tb12  1  0.188915  0.812339  0.189308  1
  Tb  Tb13  1  0.068169  0.436055  0.436055  1
  Ho  Ho14  1  0.809897  0.810490  0.190207  1
  Ho  Ho15  1  0.809897  0.190207  0.810490  1
  Zn  Zn16  1  0.416816  0.416901  0.416901  1
  In  In17  1  0.418050  0.417922  0.743674  1
  In  In18  1  0.418050  0.743674  0.417922  1
  In  In19  1  0.743849  0.417955  0.417955  1
  Rh  Rh20  1  0.858130  0.426599  0.857955  1
  Rh  Rh21  1  0.856309  0.857015  0.857015  1
  Rh  Rh22  1  0.858130  0.857955  0.426599  1
  Rh  Rh23  1  0.427166  0.858144  0.858144  1
