# generated using pymatgen
data_DyHo11ZnCo4Sn
_symmetry_space_group_name_H-M   'P 1'
_cell_length_a   8.28581475
_cell_length_b   8.26478903
_cell_length_c   8.26478901
_cell_angle_alpha   111.88505904
_cell_angle_beta   109.35711972
_cell_angle_gamma   107.11001684
_symmetry_Int_Tables_number   1
_chemical_formula_structural   DyHo11ZnCo4Sn
_chemical_formula_sum   'Dy1 Ho11 Zn1 Co4 Sn1'
_cell_volume   435.45014422
_cell_formula_units_Z   1
loop_
 _symmetry_equiv_pos_site_id
 _symmetry_equiv_pos_as_xyz
  1  'x, y, z'
loop_
 _atom_site_type_symbol
 _atom_site_label
 _atom_site_symmetry_multiplicity
 _atom_site_fract_x
 _atom_site_fract_y
 _atom_site_fract_z
 _atom_site_occupancy
  Dy  Dy0  1  0.428339  0.228161  0.200178  1
  Ho  Ho1  1  0.571487  0.771955  0.799532  1
  Ho  Ho2  1  0.027643  0.228243  0.799400  1
  Ho  Ho3  1  0.971730  0.771491  0.200240  1
  Ho  Ho4  1  0.181692  0.284177  0.465946  1
  Ho  Ho5  1  0.818504  0.716306  0.534577  1
  Ho  Ho6  1  0.181692  0.715743  0.897515  1
  Ho  Ho7  1  0.818504  0.283929  0.102198  1
  Ho  Ho8  1  0.323244  0.635138  0.311183  1
  Ho  Ho9  1  0.676850  0.365311  0.689354  1
  Ho  Ho10  1  0.323244  0.012060  0.688106  1
  Ho  Ho11  1  0.676850  0.987497  0.311539  1
  Zn  Zn12  1  0.999235  0.999568  0.999667  1
  Co  Co13  1  0.345527  0.999664  0.345863  1
  Co  Co14  1  0.654442  0.000217  0.654225  1
  Co  Co15  1  0.114659  0.614877  0.499782  1
  Co  Co16  1  0.886171  0.385590  0.500581  1
  Sn  Sn17  1  0.500186  0.500072  0.000114  1
