# generated using pymatgen
data_Dy2Tm2Co11(Ni3P4)3
_symmetry_space_group_name_H-M   'P 1'
_cell_length_a   3.67013700
_cell_length_b   10.25566740
_cell_length_c   11.81231022
_cell_angle_alpha   89.90088391
_cell_angle_beta   90.00000000
_cell_angle_gamma   90.00000000
_symmetry_Int_Tables_number   1
_chemical_formula_structural   Dy2Tm2Co11(Ni3P4)3
_chemical_formula_sum   'Dy2 Tm2 Co11 Ni9 P12'
_cell_volume   444.61119943
_cell_formula_units_Z   1
loop_
 _symmetry_equiv_pos_site_id
 _symmetry_equiv_pos_as_xyz
  1  'x, y, z'
loop_
 _atom_site_type_symbol
 _atom_site_label
 _atom_site_symmetry_multiplicity
 _atom_site_fract_x
 _atom_site_fract_y
 _atom_site_fract_z
 _atom_site_occupancy
  Dy  Dy0  1  0.750000  0.418649  0.296080  1
  Dy  Dy1  1  0.750000  0.081404  0.796579  1
  Tm  Tm2  1  0.250000  0.581594  0.703363  1
  Tm  Tm3  1  0.250000  0.918441  0.204544  1
  Co  Co4  1  0.250000  0.277957  0.675674  1
  Co  Co5  1  0.750000  0.777615  0.824079  1
  Co  Co6  1  0.750000  0.722945  0.323809  1
  Co  Co7  1  0.250000  0.879833  0.698051  1
  Co  Co8  1  0.250000  0.620969  0.197424  1
  Co  Co9  1  0.750000  0.118550  0.302010  1
  Co  Co10  1  0.750000  0.381937  0.801180  1
  Co  Co11  1  0.250000  0.467186  0.931703  1
  Co  Co12  1  0.250000  0.031544  0.432655  1
  Co  Co13  1  0.750000  0.534164  0.066351  1
  Co  Co14  1  0.750000  0.966194  0.567349  1
  Ni  Ni15  1  0.250000  0.711985  0.988710  1
  Ni  Ni16  1  0.250000  0.786095  0.490272  1
  Ni  Ni17  1  0.750000  0.284925  0.008401  1
  Ni  Ni18  1  0.750000  0.213358  0.510646  1
  Ni  Ni19  1  0.250000  0.409529  0.485439  1
  Ni  Ni20  1  0.250000  0.091353  0.987395  1
  Ni  Ni21  1  0.750000  0.592545  0.516059  1
  Ni  Ni22  1  0.750000  0.907260  0.015955  1
  Ni  Ni23  1  0.250000  0.223113  0.176517  1
  P  P24  1  0.250000  0.424147  0.112231  1
  P  P25  1  0.250000  0.078998  0.612920  1
  P  P26  1  0.750000  0.579559  0.885197  1
  P  P27  1  0.750000  0.920110  0.386540  1
  P  P28  1  0.250000  0.271792  0.865256  1
  P  P29  1  0.250000  0.228032  0.368644  1
  P  P30  1  0.750000  0.730010  0.135102  1
  P  P31  1  0.750000  0.770584  0.634930  1
  P  P32  1  0.250000  0.606163  0.387472  1
  P  P33  1  0.250000  0.894351  0.887584  1
  P  P34  1  0.750000  0.395728  0.612323  1
  P  P35  1  0.750000  0.101384  0.111555  1
