# generated using pymatgen
data_Nd4Ti4CrFe3O20
_symmetry_space_group_name_H-M   'P 1'
_cell_length_a   7.66560700
_cell_length_b   8.77478000
_cell_length_c   5.89900100
_cell_angle_alpha   90.00000000
_cell_angle_beta   90.00000000
_cell_angle_gamma   90.00216203
_symmetry_Int_Tables_number   1
_chemical_formula_structural   Nd4Ti4CrFe3O20
_chemical_formula_sum   'Nd4 Ti4 Cr1 Fe3 O20'
_cell_volume   396.79049156
_cell_formula_units_Z   1
loop_
 _symmetry_equiv_pos_site_id
 _symmetry_equiv_pos_as_xyz
  1  'x, y, z'
loop_
 _atom_site_type_symbol
 _atom_site_label
 _atom_site_symmetry_multiplicity
 _atom_site_fract_x
 _atom_site_fract_y
 _atom_site_fract_z
 _atom_site_occupancy
  Nd  Nd0  1  0.139191  0.172032  0.999598  1
  Nd  Nd1  1  0.640450  0.328908  0.999653  1
  Nd  Nd2  1  0.359549  0.671092  0.999653  1
  Nd  Nd3  1  0.860809  0.827968  0.999598  1
  Ti  Ti4  1  0.881418  0.143546  0.500467  1
  Ti  Ti5  1  0.380676  0.356882  0.500383  1
  Ti  Ti6  1  0.619323  0.643119  0.500383  1
  Ti  Ti7  1  0.118582  0.856455  0.500467  1
  Cr  Cr8  1  0.000000  0.500000  0.750386  1
  Fe  Fe9  1  0.500000  0.000000  0.246525  1
  Fe  Fe10  1  0.000000  0.500000  0.245508  1
  Fe  Fe11  1  0.500000  0.000000  0.753508  1
  O  O12  1  0.666367  0.055140  0.999935  1
  O  O13  1  0.164583  0.444955  0.998518  1
  O  O14  1  0.835418  0.555045  0.998518  1
  O  O15  1  0.333634  0.944859  0.999935  1
  O  O16  1  0.395141  0.214311  0.254946  1
  O  O17  1  0.895742  0.285799  0.255213  1
  O  O18  1  0.104257  0.714201  0.255213  1
  O  O19  1  0.604858  0.785689  0.254946  1
  O  O20  1  0.000000  0.000000  0.285278  1
  O  O21  1  0.500000  0.500000  0.284615  1
  O  O22  1  0.660989  0.075569  0.500285  1
  O  O23  1  0.160417  0.426052  0.500994  1
  O  O24  1  0.839583  0.573948  0.500994  1
  O  O25  1  0.339012  0.924431  0.500285  1
  O  O26  1  0.000000  0.000000  0.715564  1
  O  O27  1  0.500000  0.500000  0.715317  1
  O  O28  1  0.395782  0.214239  0.745277  1
  O  O29  1  0.896655  0.287152  0.746375  1
  O  O30  1  0.103344  0.712848  0.746375  1
  O  O31  1  0.604217  0.785761  0.745277  1
