# generated using pymatgen
data_Na(GdB8)3
_symmetry_space_group_name_H-M   'P 1'
_cell_length_a   7.11525099
_cell_length_b   7.11525145
_cell_length_c   5.85455700
_cell_angle_alpha   90.00000000
_cell_angle_beta   90.00000000
_cell_angle_gamma   109.19864769
_symmetry_Int_Tables_number   1
_chemical_formula_structural   Na(GdB8)3
_chemical_formula_sum   'Na1 Gd3 B24'
_cell_volume   279.91308252
_cell_formula_units_Z   1
loop_
 _symmetry_equiv_pos_site_id
 _symmetry_equiv_pos_as_xyz
  1  'x, y, z'
loop_
 _atom_site_type_symbol
 _atom_site_label
 _atom_site_symmetry_multiplicity
 _atom_site_fract_x
 _atom_site_fract_y
 _atom_site_fract_z
 _atom_site_occupancy
  Na  Na0  1  0.000000  0.000000  0.000000  1
  Gd  Gd1  1  0.751866  0.248134  0.500000  1
  Gd  Gd2  1  0.500000  0.500000  0.000000  1
  Gd  Gd3  1  0.248134  0.751866  0.500000  1
  B  B4  1  0.175364  0.325502  0.649819  1
  B  B5  1  0.924192  0.575116  0.148946  1
  B  B6  1  0.674498  0.824636  0.649819  1
  B  B7  1  0.424884  0.075808  0.148946  1
  B  B8  1  0.175364  0.325502  0.350181  1
  B  B9  1  0.924192  0.575116  0.851054  1
  B  B10  1  0.674498  0.824636  0.350181  1
  B  B11  1  0.424884  0.075808  0.851054  1
  B  B12  1  0.400221  0.400221  0.500000  1
  B  B13  1  0.148967  0.650958  0.000000  1
  B  B14  1  0.899634  0.899634  0.500000  1
  B  B15  1  0.650958  0.148967  0.000000  1
  B  B16  1  0.325502  0.175364  0.649819  1
  B  B17  1  0.075808  0.424884  0.148946  1
  B  B18  1  0.824636  0.674498  0.649819  1
  B  B19  1  0.575116  0.924192  0.148946  1
  B  B20  1  0.100366  0.100366  0.500000  1
  B  B21  1  0.851033  0.349042  0.000000  1
  B  B22  1  0.599779  0.599779  0.500000  1
  B  B23  1  0.349042  0.851033  0.000000  1
  B  B24  1  0.325502  0.175364  0.350181  1
  B  B25  1  0.075808  0.424884  0.851054  1
  B  B26  1  0.824636  0.674498  0.350181  1
  B  B27  1  0.575116  0.924192  0.851054  1
