# generated using pymatgen
data_Nd12Th4Cd3HgIr4
_symmetry_space_group_name_H-M   'P 1'
_cell_length_a   9.98843287
_cell_length_b   9.98843328
_cell_length_c   9.98843291
_cell_angle_alpha   59.92856363
_cell_angle_beta   59.92856526
_cell_angle_gamma   59.92856587
_symmetry_Int_Tables_number   1
_chemical_formula_structural   Nd12Th4Cd3HgIr4
_chemical_formula_sum   'Nd12 Th4 Cd3 Hg1 Ir4'
_cell_volume   703.51411004
_cell_formula_units_Z   1
loop_
 _symmetry_equiv_pos_site_id
 _symmetry_equiv_pos_as_xyz
  1  'x, y, z'
loop_
 _atom_site_type_symbol
 _atom_site_label
 _atom_site_symmetry_multiplicity
 _atom_site_fract_x
 _atom_site_fract_y
 _atom_site_fract_z
 _atom_site_occupancy
  Nd  Nd0  1  0.809011  0.190765  0.190765  1
  Nd  Nd1  1  0.189220  0.809688  0.809688  1
  Nd  Nd2  1  0.190765  0.809011  0.190765  1
  Nd  Nd3  1  0.809688  0.189220  0.809688  1
  Nd  Nd4  1  0.190765  0.190765  0.809011  1
  Nd  Nd5  1  0.809688  0.809688  0.189220  1
  Nd  Nd6  1  0.939849  0.561731  0.561731  1
  Nd  Nd7  1  0.559419  0.938204  0.938204  1
  Nd  Nd8  1  0.561731  0.939849  0.561731  1
  Nd  Nd9  1  0.938204  0.559419  0.938204  1
  Nd  Nd10  1  0.561731  0.561731  0.939849  1
  Nd  Nd11  1  0.938204  0.938204  0.559419  1
  Th  Th12  1  0.346158  0.346158  0.346158  1
  Th  Th13  1  0.347725  0.347725  0.957504  1
  Th  Th14  1  0.347725  0.957504  0.347725  1
  Th  Th15  1  0.957504  0.347725  0.347725  1
  Cd  Cd16  1  0.580231  0.580231  0.259215  1
  Cd  Cd17  1  0.580231  0.259215  0.580231  1
  Cd  Cd18  1  0.259215  0.580231  0.580231  1
  Hg  Hg19  1  0.583306  0.583306  0.583306  1
  Ir  Ir20  1  0.145621  0.145621  0.145621  1
  Ir  Ir21  1  0.145229  0.145229  0.563546  1
  Ir  Ir22  1  0.145229  0.563546  0.145229  1
  Ir  Ir23  1  0.563546  0.145229  0.145229  1
