# generated using pymatgen
data_Tm4Lu4Re3B24Rh
_symmetry_space_group_name_H-M   'P 1'
_cell_length_a   3.62550700
_cell_length_b   9.06984745
_cell_length_c   11.43932903
_cell_angle_alpha   90.13620639
_cell_angle_beta   90.00000000
_cell_angle_gamma   90.00000000
_symmetry_Int_Tables_number   1
_chemical_formula_structural   Tm4Lu4Re3B24Rh
_chemical_formula_sum   'Tm4 Lu4 Re3 B24 Rh1'
_cell_volume   376.15605323
_cell_formula_units_Z   1
loop_
 _symmetry_equiv_pos_site_id
 _symmetry_equiv_pos_as_xyz
  1  'x, y, z'
loop_
 _atom_site_type_symbol
 _atom_site_label
 _atom_site_symmetry_multiplicity
 _atom_site_fract_x
 _atom_site_fract_y
 _atom_site_fract_z
 _atom_site_occupancy
  Tm  Tm0  1  0.500000  0.318014  0.415506  1
  Tm  Tm1  1  0.500000  0.678410  0.591238  1
  Tm  Tm2  1  0.500000  0.177345  0.912645  1
  Tm  Tm3  1  0.500000  0.826737  0.081373  1
  Lu  Lu4  1  0.500000  0.441843  0.128297  1
  Lu  Lu5  1  0.500000  0.555873  0.871815  1
  Lu  Lu6  1  0.500000  0.055117  0.628606  1
  Lu  Lu7  1  0.500000  0.944462  0.370751  1
  Re  Re8  1  0.500000  0.139026  0.180458  1
  Re  Re9  1  0.500000  0.860716  0.820523  1
  Re  Re10  1  0.500000  0.361765  0.677962  1
  B  B11  1  0.000000  0.100561  0.471674  1
  B  B12  1  0.000000  0.896266  0.527783  1
  B  B13  1  0.000000  0.398573  0.972515  1
  B  B14  1  0.000000  0.602590  0.028877  1
  B  B15  1  0.000000  0.131086  0.315895  1
  B  B16  1  0.000000  0.868212  0.684374  1
  B  B17  1  0.000000  0.369010  0.815277  1
  B  B18  1  0.000000  0.632157  0.183189  1
  B  B19  1  0.000000  0.053568  0.066257  1
  B  B20  1  0.000000  0.946824  0.933070  1
  B  B21  1  0.000000  0.446525  0.566107  1
  B  B22  1  0.000000  0.554278  0.434040  1
  B  B23  1  0.000000  0.483108  0.287531  1
  B  B24  1  0.000000  0.518516  0.712835  1
  B  B25  1  0.000000  0.017772  0.786585  1
  B  B26  1  0.000000  0.982269  0.212570  1
  B  B27  1  0.000000  0.250885  0.080631  1
  B  B28  1  0.000000  0.749931  0.919489  1
  B  B29  1  0.000000  0.248843  0.580355  1
  B  B30  1  0.000000  0.750521  0.420674  1
  B  B31  1  0.000000  0.293713  0.235522  1
  B  B32  1  0.000000  0.706477  0.765541  1
  B  B33  1  0.000000  0.206658  0.734455  1
  B  B34  1  0.000000  0.792825  0.264797  1
  Rh  Rh35  1  0.500000  0.639524  0.320783  1
