# generated using pymatgen
data_Hf7Fe2Co6Si14W
_symmetry_space_group_name_H-M   'P 1'
_cell_length_a   9.36658673
_cell_length_b   9.36621718
_cell_length_c   9.38263704
_cell_angle_alpha   94.15150999
_cell_angle_beta   94.15130429
_cell_angle_gamma   148.75441047
_symmetry_Int_Tables_number   1
_chemical_formula_structural   Hf7Fe2Co6Si14W
_chemical_formula_sum   'Hf7 Fe2 Co6 Si14 W1'
_cell_volume   411.25001814
_cell_formula_units_Z   1
loop_
 _symmetry_equiv_pos_site_id
 _symmetry_equiv_pos_as_xyz
  1  'x, y, z'
loop_
 _atom_site_type_symbol
 _atom_site_label
 _atom_site_symmetry_multiplicity
 _atom_site_fract_x
 _atom_site_fract_y
 _atom_site_fract_z
 _atom_site_occupancy
  Hf  Hf0  1  0.864749  0.864753  0.729478  1
  Hf  Hf1  1  0.137227  0.861866  0.999577  1
  Hf  Hf2  1  0.862346  0.137706  0.999579  1
  Hf  Hf3  1  0.303195  0.498940  0.804314  1
  Hf  Hf4  1  0.695011  0.502444  0.198648  1
  Hf  Hf5  1  0.503639  0.696214  0.198657  1
  Hf  Hf6  1  0.501122  0.305376  0.804322  1
  Fe  Fe7  1  0.101669  0.601656  0.203321  1
  Fe  Fe8  1  0.399007  0.899022  0.798018  1
  Co  Co9  1  0.897585  0.103056  0.498272  1
  Co  Co10  1  0.600664  0.395196  0.498279  1
  Co  Co11  1  0.602652  0.102663  0.205311  1
  Co  Co12  1  0.897951  0.397937  0.795893  1
  Co  Co13  1  0.101430  0.898683  0.498316  1
  Co  Co14  1  0.396882  0.599630  0.498326  1
  Si  Si15  1  0.285780  0.285809  0.571686  1
  Si  Si16  1  0.711369  0.711398  0.422686  1
  Si  Si17  1  0.290501  0.709715  0.001019  1
  Si  Si18  1  0.710533  0.291316  0.001023  1
  Si  Si19  1  0.095593  0.505346  0.593559  1
  Si  Si20  1  0.912646  0.502976  0.406692  1
  Si  Si21  1  0.494087  0.903732  0.406696  1
  Si  Si22  1  0.497968  0.088197  0.593560  1
  Si  Si23  1  0.249589  0.249680  0.005048  1
  Si  Si24  1  0.755454  0.755367  0.005045  1
  Si  Si25  1  0.296476  0.999634  0.300588  1
  Si  Si26  1  0.695445  0.997665  0.697124  1
  Si  Si27  1  0.001702  0.699464  0.697139  1
  Si  Si28  1  0.004086  0.300915  0.300618  1
  W  W29  1  0.133639  0.133645  0.267206  1
