# generated using pymatgen
data_Nd3Ho3CoBr10
_symmetry_space_group_name_H-M   'P 1'
_cell_length_a   7.45612371
_cell_length_b   9.31139514
_cell_length_c   9.44070503
_cell_angle_alpha   108.16839337
_cell_angle_beta   96.22752670
_cell_angle_gamma   104.30767148
_symmetry_Int_Tables_number   1
_chemical_formula_structural   Nd3Ho3CoBr10
_chemical_formula_sum   'Nd3 Ho3 Co1 Br10'
_cell_volume   591.06508796
_cell_formula_units_Z   1
loop_
 _symmetry_equiv_pos_site_id
 _symmetry_equiv_pos_as_xyz
  1  'x, y, z'
loop_
 _atom_site_type_symbol
 _atom_site_label
 _atom_site_symmetry_multiplicity
 _atom_site_fract_x
 _atom_site_fract_y
 _atom_site_fract_z
 _atom_site_occupancy
  Nd  Nd0  1  0.035164  0.714480  0.407989  1
  Nd  Nd1  1  0.964853  0.284562  0.586696  1
  Nd  Nd2  1  0.872806  0.951662  0.748650  1
  Ho  Ho3  1  0.124218  0.046825  0.260558  1
  Ho  Ho4  1  0.349844  0.127781  0.673180  1
  Ho  Ho5  1  0.650455  0.873054  0.327364  1
  Co  Co6  1  0.000107  0.999311  0.499732  1
  Br  Br7  1  0.453353  0.823882  0.580870  1
  Br  Br8  1  0.539401  0.173601  0.415055  1
  Br  Br9  1  0.912284  0.627335  0.670911  1
  Br  Br10  1  0.091293  0.361755  0.320591  1
  Br  Br11  1  0.252580  0.084510  0.954080  1
  Br  Br12  1  0.758675  0.920189  0.057695  1
  Br  Br13  1  0.349765  0.441097  0.769213  1
  Br  Br14  1  0.647819  0.559108  0.229892  1
  Br  Br15  1  0.762793  0.250507  0.841590  1
  Br  Br16  1  0.234588  0.760339  0.155934  1
