# generated using pymatgen
data_Sc11GaTc2Os
_symmetry_space_group_name_H-M   'P 1'
_cell_length_a   9.48752932
_cell_length_b   9.66116820
_cell_length_c   9.62982726
_cell_angle_alpha   58.91941574
_cell_angle_beta   60.36132947
_cell_angle_gamma   60.37490639
_symmetry_Int_Tables_number   1
_chemical_formula_structural   Sc11GaTc2Os
_chemical_formula_sum   'Sc22 Ga2 Tc4 Os2'
_cell_volume   622.25695763
_cell_formula_units_Z   2
loop_
 _symmetry_equiv_pos_site_id
 _symmetry_equiv_pos_as_xyz
  1  'x, y, z'
loop_
 _atom_site_type_symbol
 _atom_site_label
 _atom_site_symmetry_multiplicity
 _atom_site_fract_x
 _atom_site_fract_y
 _atom_site_fract_z
 _atom_site_occupancy
  Sc  Sc0  1  0.853376  0.836513  0.839063  1
  Sc  Sc1  1  0.528511  0.162149  0.162191  1
  Sc  Sc2  1  0.162213  0.147150  0.528510  1
  Sc  Sc3  1  0.160950  0.528953  0.146620  1
  Sc  Sc4  1  0.837787  0.852850  0.471490  1
  Sc  Sc5  1  0.839050  0.471047  0.853380  1
  Sc  Sc6  1  0.471489  0.837851  0.837809  1
  Sc  Sc7  1  0.146624  0.163487  0.160937  1
  Sc  Sc8  1  0.195371  0.804628  0.195378  1
  Sc  Sc9  1  0.197356  0.803069  0.802644  1
  Sc  Sc10  1  0.802644  0.196931  0.197356  1
  Sc  Sc11  1  0.804114  0.804422  0.195885  1
  Sc  Sc12  1  0.195886  0.195578  0.804115  1
  Sc  Sc13  1  0.804629  0.195372  0.804622  1
  Sc  Sc14  1  0.390872  0.380671  0.379821  1
  Sc  Sc15  1  0.151009  0.619361  0.620676  1
  Sc  Sc16  1  0.620170  0.151358  0.609131  1
  Sc  Sc17  1  0.620667  0.608951  0.151015  1
  Sc  Sc18  1  0.379830  0.848642  0.390869  1
  Sc  Sc19  1  0.379333  0.391049  0.848985  1
  Sc  Sc20  1  0.848991  0.380639  0.379324  1
  Sc  Sc21  1  0.609128  0.619329  0.620179  1
  Ga  Ga22  1  0.000000  0.500000  0.500000  1
  Ga  Ga23  1  0.500000  0.000000  0.000000  1
  Tc  Tc24  1  0.500000  0.500000  0.000000  1
  Tc  Tc25  1  0.000000  0.000000  0.500000  1
  Tc  Tc26  1  0.500000  0.000000  0.500000  1
  Tc  Tc27  1  0.000000  0.000000  0.000000  1
  Os  Os28  1  0.000000  0.500000  0.000000  1
  Os  Os29  1  0.500000  0.500000  0.500000  1
