# generated using pymatgen
data_Y4Co15P12Ru5
_symmetry_space_group_name_H-M   'P 1'
_cell_length_a   3.71684600
_cell_length_b   10.43728496
_cell_length_c   11.84567534
_cell_angle_alpha   89.74935297
_cell_angle_beta   90.00000000
_cell_angle_gamma   90.00000000
_symmetry_Int_Tables_number   1
_chemical_formula_structural   Y4Co15P12Ru5
_chemical_formula_sum   'Y4 Co15 P12 Ru5'
_cell_volume   459.53413627
_cell_formula_units_Z   1
loop_
 _symmetry_equiv_pos_site_id
 _symmetry_equiv_pos_as_xyz
  1  'x, y, z'
loop_
 _atom_site_type_symbol
 _atom_site_label
 _atom_site_symmetry_multiplicity
 _atom_site_fract_x
 _atom_site_fract_y
 _atom_site_fract_z
 _atom_site_occupancy
  Y  Y0  1  0.250000  0.912949  0.205563  1
  Y  Y1  1  0.750000  0.085647  0.791886  1
  Y  Y2  1  0.750000  0.415097  0.296452  1
  Y  Y3  1  0.250000  0.585229  0.703511  1
  Co  Co4  1  0.750000  0.902279  0.012637  1
  Co  Co5  1  0.750000  0.591519  0.510288  1
  Co  Co6  1  0.250000  0.408708  0.489559  1
  Co  Co7  1  0.250000  0.278906  0.675840  1
  Co  Co8  1  0.750000  0.721579  0.323147  1
  Co  Co9  1  0.750000  0.776986  0.822349  1
  Co  Co10  1  0.250000  0.225494  0.180258  1
  Co  Co11  1  0.250000  0.613540  0.202379  1
  Co  Co12  1  0.750000  0.386314  0.797595  1
  Co  Co13  1  0.750000  0.113942  0.298837  1
  Co  Co14  1  0.250000  0.884139  0.700332  1
  Co  Co15  1  0.250000  0.035412  0.430733  1
  Co  Co16  1  0.750000  0.964086  0.568232  1
  Co  Co17  1  0.750000  0.536655  0.068898  1
  Co  Co18  1  0.250000  0.465361  0.931093  1
  P  P19  1  0.250000  0.079181  0.611207  1
  P  P20  1  0.750000  0.920211  0.388070  1
  P  P21  1  0.750000  0.579049  0.887261  1
  P  P22  1  0.250000  0.422016  0.112543  1
  P  P23  1  0.250000  0.229300  0.368729  1
  P  P24  1  0.750000  0.770857  0.632090  1
  P  P25  1  0.750000  0.728718  0.133188  1
  P  P26  1  0.250000  0.273796  0.865115  1
  P  P27  1  0.250000  0.899238  0.887309  1
  P  P28  1  0.750000  0.098157  0.112840  1
  P  P29  1  0.750000  0.403419  0.609426  1
  P  P30  1  0.250000  0.596705  0.390314  1
  Ru  Ru31  1  0.250000  0.783461  0.490880  1
  Ru  Ru32  1  0.750000  0.216386  0.508665  1
  Ru  Ru33  1  0.750000  0.290448  0.012651  1
  Ru  Ru34  1  0.250000  0.713828  0.990998  1
  Ru  Ru35  1  0.250000  0.091390  0.989124  1
