# generated using pymatgen
data_K3Rb(Sc3Se5)4
_symmetry_space_group_name_H-M   'P 1'
_cell_length_a   3.92133300
_cell_length_b   11.74124561
_cell_length_c   20.93011022
_cell_angle_alpha   90.13846299
_cell_angle_beta   90.00000000
_cell_angle_gamma   90.00000000
_symmetry_Int_Tables_number   1
_chemical_formula_structural   K3Rb(Sc3Se5)4
_chemical_formula_sum   'K3 Rb1 Sc12 Se20'
_cell_volume   963.64737825
_cell_formula_units_Z   1
loop_
 _symmetry_equiv_pos_site_id
 _symmetry_equiv_pos_as_xyz
  1  'x, y, z'
loop_
 _atom_site_type_symbol
 _atom_site_label
 _atom_site_symmetry_multiplicity
 _atom_site_fract_x
 _atom_site_fract_y
 _atom_site_fract_z
 _atom_site_occupancy
  K  K0  1  0.250000  0.850930  0.092831  1
  K  K1  1  0.750000  0.149108  0.907182  1
  K  K2  1  0.750000  0.350707  0.406961  1
  Rb  Rb3  1  0.250000  0.645676  0.590588  1
  Sc  Sc4  1  0.750000  0.799082  0.826571  1
  Sc  Sc5  1  0.250000  0.201327  0.173830  1
  Sc  Sc6  1  0.250000  0.297429  0.674392  1
  Sc  Sc7  1  0.750000  0.701351  0.325700  1
  Sc  Sc8  1  0.250000  0.956753  0.698791  1
  Sc  Sc9  1  0.750000  0.044101  0.301573  1
  Sc  Sc10  1  0.750000  0.455393  0.802137  1
  Sc  Sc11  1  0.250000  0.544046  0.198297  1
  Sc  Sc12  1  0.750000  0.391280  0.054719  1
  Sc  Sc13  1  0.250000  0.608735  0.945355  1
  Sc  Sc14  1  0.250000  0.892231  0.444902  1
  Sc  Sc15  1  0.750000  0.109093  0.554624  1
  Se  Se16  1  0.250000  0.947415  0.569137  1
  Se  Se17  1  0.750000  0.054044  0.430704  1
  Se  Se18  1  0.750000  0.446518  0.931010  1
  Se  Se19  1  0.250000  0.553512  0.069239  1
  Se  Se20  1  0.750000  0.768023  0.954823  1
  Se  Se21  1  0.250000  0.232031  0.045472  1
  Se  Se22  1  0.250000  0.268520  0.545545  1
  Se  Se23  1  0.750000  0.733192  0.453324  1
  Se  Se24  1  0.250000  0.954553  0.827740  1
  Se  Se25  1  0.750000  0.045943  0.172655  1
  Se  Se26  1  0.750000  0.451668  0.673867  1
  Se  Se27  1  0.250000  0.545926  0.327186  1
  Se  Se28  1  0.750000  0.126819  0.685827  1
  Se  Se29  1  0.250000  0.873392  0.313922  1
  Se  Se30  1  0.250000  0.626963  0.814304  1
  Se  Se31  1  0.750000  0.373102  0.185770  1
  Se  Se32  1  0.750000  0.696963  0.197246  1
  Se  Se33  1  0.250000  0.302524  0.803050  1
  Se  Se34  1  0.250000  0.197032  0.302623  1
  Se  Se35  1  0.750000  0.804619  0.698102  1
