# generated using pymatgen
data_PaZnCu5
_symmetry_space_group_name_H-M   'P 1'
_cell_length_a   5.16109516
_cell_length_b   5.16109409
_cell_length_c   5.16109484
_cell_angle_alpha   103.25215567
_cell_angle_beta   103.25215561
_cell_angle_gamma   122.78757172
_symmetry_Int_Tables_number   1
_chemical_formula_structural   PaZnCu5
_chemical_formula_sum   'Pa1 Zn1 Cu5'
_cell_volume   101.46558208
_cell_formula_units_Z   1
loop_
 _symmetry_equiv_pos_site_id
 _symmetry_equiv_pos_as_xyz
  1  'x, y, z'
loop_
 _atom_site_type_symbol
 _atom_site_label
 _atom_site_symmetry_multiplicity
 _atom_site_fract_x
 _atom_site_fract_y
 _atom_site_fract_z
 _atom_site_occupancy
  Pa  Pa0  1  0.000000  0.000000  0.000000  1
  Zn  Zn1  1  0.250000  0.750000  0.500000  1
  Cu  Cu2  1  0.692065  0.307935  0.000000  1
  Cu  Cu3  1  0.307935  0.692065  0.000000  1
  Cu  Cu4  1  0.307935  0.307935  0.615871  1
  Cu  Cu5  1  0.692065  0.692065  0.384129  1
  Cu  Cu6  1  0.750000  0.250000  0.500000  1
