# generated using pymatgen
data_SrTm6NiI12
_symmetry_space_group_name_H-M   'P 1'
_cell_length_a   9.63797050
_cell_length_b   9.63796991
_cell_length_c   9.63797221
_cell_angle_alpha   106.20445579
_cell_angle_beta   106.20445194
_cell_angle_gamma   106.20445662
_symmetry_Int_Tables_number   1
_chemical_formula_structural   SrTm6NiI12
_chemical_formula_sum   'Sr1 Tm6 Ni1 I12'
_cell_volume   761.19549177
_cell_formula_units_Z   1
loop_
 _symmetry_equiv_pos_site_id
 _symmetry_equiv_pos_as_xyz
  1  'x, y, z'
loop_
 _atom_site_type_symbol
 _atom_site_label
 _atom_site_symmetry_multiplicity
 _atom_site_fract_x
 _atom_site_fract_y
 _atom_site_fract_z
 _atom_site_occupancy
  Sr  Sr0  1  0.500000  0.500000  0.500000  1
  Tm  Tm1  1  0.908808  0.979678  0.712315  1
  Tm  Tm2  1  0.712315  0.908808  0.979678  1
  Tm  Tm3  1  0.979678  0.712315  0.908808  1
  Tm  Tm4  1  0.091192  0.020322  0.287685  1
  Tm  Tm5  1  0.287685  0.091192  0.020322  1
  Tm  Tm6  1  0.020322  0.287685  0.091192  1
  Ni  Ni7  1  0.000000  0.000000  0.000000  1
  I  I8  1  0.926074  0.324522  0.777354  1
  I  I9  1  0.777354  0.926074  0.324522  1
  I  I10  1  0.324522  0.777354  0.926074  1
  I  I11  1  0.073926  0.675478  0.222646  1
  I  I12  1  0.222646  0.073926  0.675478  1
  I  I13  1  0.675478  0.222646  0.073926  1
  I  I14  1  0.551308  0.867902  0.631402  1
  I  I15  1  0.631402  0.551308  0.867902  1
  I  I16  1  0.867902  0.631402  0.551308  1
  I  I17  1  0.448692  0.132098  0.368598  1
  I  I18  1  0.368598  0.448692  0.132098  1
  I  I19  1  0.132098  0.368598  0.448692  1
