# generated using pymatgen
data_Li6Cd11SnPt6
_symmetry_space_group_name_H-M   'P 1'
_cell_length_a   4.67827000
_cell_length_b   6.46044100
_cell_length_c   14.07935300
_cell_angle_alpha   90.00000000
_cell_angle_beta   90.00145509
_cell_angle_gamma   90.00000000
_symmetry_Int_Tables_number   1
_chemical_formula_structural   Li6Cd11SnPt6
_chemical_formula_sum   'Li6 Cd11 Sn1 Pt6'
_cell_volume   425.52996263
_cell_formula_units_Z   1
loop_
 _symmetry_equiv_pos_site_id
 _symmetry_equiv_pos_as_xyz
  1  'x, y, z'
loop_
 _atom_site_type_symbol
 _atom_site_label
 _atom_site_symmetry_multiplicity
 _atom_site_fract_x
 _atom_site_fract_y
 _atom_site_fract_z
 _atom_site_occupancy
  Li  Li0  1  0.000000  0.504597  0.000000  1
  Li  Li1  1  0.499676  0.997319  0.168300  1
  Li  Li2  1  0.999682  0.501667  0.334073  1
  Li  Li3  1  0.499997  0.998921  0.500000  1
  Li  Li4  1  0.000319  0.501667  0.665927  1
  Li  Li5  1  0.500323  0.997319  0.831701  1
  Cd  Cd6  1  0.499997  0.757433  0.000000  1
  Cd  Cd7  1  0.999721  0.247906  0.171827  1
  Cd  Cd8  1  0.999723  0.753029  0.164621  1
  Cd  Cd9  1  0.499726  0.251873  0.332993  1
  Cd  Cd10  1  0.499738  0.744874  0.330830  1
  Cd  Cd11  1  0.000000  0.245235  0.500000  1
  Cd  Cd12  1  0.000000  0.752427  0.500000  1
  Cd  Cd13  1  0.500275  0.251873  0.667006  1
  Cd  Cd14  1  0.500263  0.744874  0.669169  1
  Cd  Cd15  1  0.000277  0.247906  0.828172  1
  Cd  Cd16  1  0.000275  0.753029  0.835378  1
  Sn  Sn17  1  0.499997  0.250935  0.000000  1
  Pt  Pt18  1  0.000000  0.021638  0.000000  1
  Pt  Pt19  1  0.499729  0.492108  0.160790  1
  Pt  Pt20  1  0.999754  0.996247  0.333493  1
  Pt  Pt21  1  0.499997  0.498773  0.500000  1
  Pt  Pt22  1  0.000244  0.996247  0.666507  1
  Pt  Pt23  1  0.500270  0.492108  0.839210  1
