# generated using pymatgen
data_DyEr5Al24Ru7Au
_symmetry_space_group_name_H-M   'P 1'
_cell_length_a   8.82566409
_cell_length_b   8.82348052
_cell_length_c   9.54293402
_cell_angle_alpha   89.82281813
_cell_angle_beta   90.17001500
_cell_angle_gamma   119.87617301
_symmetry_Int_Tables_number   1
_chemical_formula_structural   DyEr5Al24Ru7Au
_chemical_formula_sum   'Dy1 Er5 Al24 Ru7 Au1'
_cell_volume   644.37362901
_cell_formula_units_Z   1
loop_
 _symmetry_equiv_pos_site_id
 _symmetry_equiv_pos_as_xyz
  1  'x, y, z'
loop_
 _atom_site_type_symbol
 _atom_site_label
 _atom_site_symmetry_multiplicity
 _atom_site_fract_x
 _atom_site_fract_y
 _atom_site_fract_z
 _atom_site_occupancy
  Dy  Dy0  1  0.192639  0.387351  0.249874  1
  Er  Er1  1  0.807288  0.612368  0.750070  1
  Er  Er2  1  0.612373  0.807330  0.249926  1
  Er  Er3  1  0.387656  0.192712  0.750056  1
  Er  Er4  1  0.194990  0.805066  0.253358  1
  Er  Er5  1  0.805037  0.194970  0.746649  1
  Al  Al6  1  0.328192  0.672052  0.023466  1
  Al  Al7  1  0.671885  0.328128  0.976440  1
  Al  Al8  1  0.666626  0.333382  0.517778  1
  Al  Al9  1  0.333461  0.666786  0.482309  1
  Al  Al10  1  0.162454  0.323920  0.578469  1
  Al  Al11  1  0.837544  0.676049  0.421659  1
  Al  Al12  1  0.676084  0.837564  0.578368  1
  Al  Al13  1  0.848945  0.678475  0.080475  1
  Al  Al14  1  0.323959  0.162349  0.421704  1
  Al  Al15  1  0.151066  0.321495  0.919405  1
  Al  Al16  1  0.162586  0.837414  0.578971  1
  Al  Al17  1  0.321523  0.150996  0.080435  1
  Al  Al18  1  0.837286  0.162505  0.421094  1
  Al  Al19  1  0.678504  0.848943  0.919497  1
  Al  Al20  1  0.837382  0.162405  0.078320  1
  Al  Al21  1  0.162491  0.837511  0.921612  1
  Al  Al22  1  0.560464  0.120870  0.248467  1
  Al  Al23  1  0.439516  0.879095  0.751535  1
  Al  Al24  1  0.878895  0.439577  0.248462  1
  Al  Al25  1  0.120873  0.560471  0.751519  1
  Al  Al26  1  0.563613  0.436645  0.255717  1
  Al  Al27  1  0.436629  0.563380  0.744298  1
  Al  Al28  1  0.999263  0.000452  0.250148  1
  Al  Al29  1  0.000636  0.999361  0.749848  1
  Ru  Ru30  1  0.500041  0.000069  0.999972  1
  Ru  Ru31  1  0.999892  0.500060  0.999880  1
  Ru  Ru32  1  0.500066  0.000112  0.500040  1
  Ru  Ru33  1  0.999914  0.500057  0.500095  1
  Ru  Ru34  1  0.500177  0.500059  0.500126  1
  Ru  Ru35  1  0.000010  0.000006  0.999993  1
  Ru  Ru36  1  0.999991  0.999990  0.500023  1
  Au  Au37  1  0.500047  0.500025  0.999941  1
