# generated using pymatgen
data_Tm16In3HgIr4
_symmetry_space_group_name_H-M   'P 1'
_cell_length_a   9.52277439
_cell_length_b   9.52277477
_cell_length_c   9.52277347
_cell_angle_alpha   59.99562983
_cell_angle_beta   59.99562899
_cell_angle_gamma   59.99563253
_symmetry_Int_Tables_number   1
_chemical_formula_structural   Tm16In3HgIr4
_chemical_formula_sum   'Tm16 In3 Hg1 Ir4'
_cell_volume   610.56574510
_cell_formula_units_Z   1
loop_
 _symmetry_equiv_pos_site_id
 _symmetry_equiv_pos_as_xyz
  1  'x, y, z'
loop_
 _atom_site_type_symbol
 _atom_site_label
 _atom_site_symmetry_multiplicity
 _atom_site_fract_x
 _atom_site_fract_y
 _atom_site_fract_z
 _atom_site_occupancy
  Tm  Tm0  1  0.059882  0.059882  0.440047  1
  Tm  Tm1  1  0.438392  0.063428  0.438392  1
  Tm  Tm2  1  0.059882  0.440047  0.059882  1
  Tm  Tm3  1  0.052012  0.648018  0.648018  1
  Tm  Tm4  1  0.438392  0.438392  0.063428  1
  Tm  Tm5  1  0.648018  0.052012  0.648018  1
  Tm  Tm6  1  0.190416  0.811902  0.190416  1
  Tm  Tm7  1  0.190416  0.190416  0.811902  1
  Tm  Tm8  1  0.809245  0.809245  0.191640  1
  Tm  Tm9  1  0.440047  0.059882  0.059882  1
  Tm  Tm10  1  0.811902  0.190416  0.190416  1
  Tm  Tm11  1  0.063428  0.438392  0.438392  1
  Tm  Tm12  1  0.809245  0.191640  0.809245  1
  Tm  Tm13  1  0.191640  0.809245  0.809245  1
  Tm  Tm14  1  0.648018  0.648018  0.052012  1
  Tm  Tm15  1  0.651915  0.651915  0.651915  1
  In  In16  1  0.748995  0.417077  0.417077  1
  In  In17  1  0.417077  0.748995  0.417077  1
  In  In18  1  0.417077  0.417077  0.748995  1
  Hg  Hg19  1  0.413286  0.413286  0.413286  1
  Ir  Ir20  1  0.859340  0.859340  0.424502  1
  Ir  Ir21  1  0.857532  0.857532  0.857532  1
  Ir  Ir22  1  0.424502  0.859340  0.859340  1
  Ir  Ir23  1  0.859340  0.424502  0.859340  1
