# generated using pymatgen
data_Nd4Dy12Cd4Ni3Ir
_symmetry_space_group_name_H-M   'P 1'
_cell_length_a   9.67281912
_cell_length_b   9.66200539
_cell_length_c   9.66200607
_cell_angle_alpha   60.11404462
_cell_angle_beta   59.80649166
_cell_angle_gamma   59.80648632
_symmetry_Int_Tables_number   1
_chemical_formula_structural   Nd4Dy12Cd4Ni3Ir
_chemical_formula_sum   'Nd4 Dy12 Cd4 Ni3 Ir1'
_cell_volume   637.18694317
_cell_formula_units_Z   1
loop_
 _symmetry_equiv_pos_site_id
 _symmetry_equiv_pos_as_xyz
  1  'x, y, z'
loop_
 _atom_site_type_symbol
 _atom_site_label
 _atom_site_symmetry_multiplicity
 _atom_site_fract_x
 _atom_site_fract_y
 _atom_site_fract_z
 _atom_site_occupancy
  Nd  Nd0  1  0.815537  0.186159  0.815880  1
  Nd  Nd1  1  0.188253  0.809347  0.187139  1
  Nd  Nd2  1  0.815537  0.815880  0.186159  1
  Nd  Nd3  1  0.188253  0.187139  0.809347  1
  Dy  Dy4  1  0.596710  0.597380  0.597380  1
  Dy  Dy5  1  0.599527  0.599808  0.207225  1
  Dy  Dy6  1  0.599527  0.207225  0.599808  1
  Dy  Dy7  1  0.206471  0.599598  0.599598  1
  Dy  Dy8  1  0.060651  0.437287  0.437287  1
  Dy  Dy9  1  0.436983  0.061314  0.061314  1
  Dy  Dy10  1  0.437600  0.060017  0.438475  1
  Dy  Dy11  1  0.061786  0.434733  0.061521  1
  Dy  Dy12  1  0.437600  0.438475  0.060017  1
  Dy  Dy13  1  0.061786  0.061521  0.434733  1
  Dy  Dy14  1  0.191119  0.809892  0.809892  1
  Dy  Dy15  1  0.805131  0.192370  0.192370  1
  Cd  Cd16  1  0.832449  0.828466  0.828466  1
  Cd  Cd17  1  0.827573  0.832440  0.510129  1
  Cd  Cd18  1  0.827573  0.510129  0.832440  1
  Cd  Cd19  1  0.508719  0.828628  0.828628  1
  Ni  Ni20  1  0.390799  0.394537  0.825709  1
  Ni  Ni21  1  0.390799  0.825709  0.394537  1
  Ni  Ni22  1  0.824792  0.390859  0.390859  1
  Ir  Ir23  1  0.394828  0.391090  0.391090  1
