# generated using pymatgen
data_LuCo4P3Ru
_symmetry_space_group_name_H-M   'P 1'
_cell_length_a   3.67135200
_cell_length_b   10.34548000
_cell_length_c   11.73515100
_cell_angle_alpha   90.00000000
_cell_angle_beta   90.00000000
_cell_angle_gamma   90.00000000
_symmetry_Int_Tables_number   1
_chemical_formula_structural   LuCo4P3Ru
_chemical_formula_sum   'Lu4 Co16 P12 Ru4'
_cell_volume   445.72331638
_cell_formula_units_Z   4
loop_
 _symmetry_equiv_pos_site_id
 _symmetry_equiv_pos_as_xyz
  1  'x, y, z'
loop_
 _atom_site_type_symbol
 _atom_site_label
 _atom_site_symmetry_multiplicity
 _atom_site_fract_x
 _atom_site_fract_y
 _atom_site_fract_z
 _atom_site_occupancy
  Lu  Lu0  1  0.250000  0.585276  0.704230  1
  Lu  Lu1  1  0.250000  0.914724  0.204230  1
  Lu  Lu2  1  0.750000  0.414724  0.295770  1
  Lu  Lu3  1  0.750000  0.085276  0.795770  1
  Co  Co4  1  0.250000  0.409224  0.487988  1
  Co  Co5  1  0.250000  0.090776  0.987988  1
  Co  Co6  1  0.750000  0.590776  0.512012  1
  Co  Co7  1  0.750000  0.909224  0.012012  1
  Co  Co8  1  0.250000  0.221796  0.177559  1
  Co  Co9  1  0.250000  0.278204  0.677559  1
  Co  Co10  1  0.750000  0.778204  0.822441  1
  Co  Co11  1  0.750000  0.721796  0.322441  1
  Co  Co12  1  0.250000  0.887020  0.702998  1
  Co  Co13  1  0.250000  0.612980  0.202998  1
  Co  Co14  1  0.750000  0.112980  0.297002  1
  Co  Co15  1  0.750000  0.387020  0.797002  1
  Co  Co16  1  0.250000  0.464519  0.929964  1
  Co  Co17  1  0.250000  0.035481  0.429964  1
  Co  Co18  1  0.750000  0.535481  0.070036  1
  Co  Co19  1  0.750000  0.964519  0.570036  1
  P  P20  1  0.250000  0.420099  0.112857  1
  P  P21  1  0.250000  0.079901  0.612857  1
  P  P22  1  0.750000  0.579901  0.887143  1
  P  P23  1  0.750000  0.920099  0.387143  1
  P  P24  1  0.250000  0.268838  0.867034  1
  P  P25  1  0.250000  0.231162  0.367034  1
  P  P26  1  0.750000  0.731162  0.132966  1
  P  P27  1  0.750000  0.768838  0.632966  1
  P  P28  1  0.250000  0.594623  0.389237  1
  P  P29  1  0.250000  0.905377  0.889237  1
  P  P30  1  0.750000  0.405377  0.610763  1
  P  P31  1  0.750000  0.094623  0.110763  1
  Ru  Ru32  1  0.250000  0.718000  0.992206  1
  Ru  Ru33  1  0.250000  0.782000  0.492206  1
  Ru  Ru34  1  0.750000  0.282000  0.007794  1
  Ru  Ru35  1  0.750000  0.218000  0.507794  1
