# generated using pymatgen
data_Hf10Pa8TaSi16W
_symmetry_space_group_name_H-M   'P 1'
_cell_length_a   7.21696583
_cell_length_b   7.21696624
_cell_length_c   13.26472144
_cell_angle_alpha   89.97388320
_cell_angle_beta   90.02611860
_cell_angle_gamma   90.20097340
_symmetry_Int_Tables_number   1
_chemical_formula_structural   Hf10Pa8TaSi16W
_chemical_formula_sum   'Hf10 Pa8 Ta1 Si16 W1'
_cell_volume   690.88330061
_cell_formula_units_Z   1
loop_
 _symmetry_equiv_pos_site_id
 _symmetry_equiv_pos_as_xyz
  1  'x, y, z'
loop_
 _atom_site_type_symbol
 _atom_site_label
 _atom_site_symmetry_multiplicity
 _atom_site_fract_x
 _atom_site_fract_y
 _atom_site_fract_z
 _atom_site_occupancy
  Hf  Hf0  1  0.327033  0.672601  0.249247  1
  Hf  Hf1  1  0.672601  0.327033  0.750753  1
  Hf  Hf2  1  0.149514  0.001641  0.374823  1
  Hf  Hf3  1  0.850493  0.998207  0.876283  1
  Hf  Hf4  1  0.500991  0.651536  0.623091  1
  Hf  Hf5  1  0.348459  0.498560  0.877913  1
  Hf  Hf6  1  0.498560  0.348459  0.122087  1
  Hf  Hf7  1  0.651536  0.500991  0.376909  1
  Hf  Hf8  1  0.001641  0.149514  0.625177  1
  Hf  Hf9  1  0.998207  0.850493  0.123717  1
  Pa  Pa10  1  0.998580  0.340615  0.215259  1
  Pa  Pa11  1  0.002786  0.659083  0.717242  1
  Pa  Pa12  1  0.157390  0.496236  0.465528  1
  Pa  Pa13  1  0.502737  0.843585  0.034408  1
  Pa  Pa14  1  0.843585  0.502737  0.965592  1
  Pa  Pa15  1  0.496236  0.157390  0.534472  1
  Pa  Pa16  1  0.340615  0.998580  0.784741  1
  Pa  Pa17  1  0.659083  0.002786  0.282758  1
  Ta  Ta18  1  0.827869  0.827869  0.500000  1
  Si  Si19  1  0.364119  0.295259  0.316514  1
  Si  Si20  1  0.635613  0.705134  0.817477  1
  Si  Si21  1  0.202985  0.862176  0.567248  1
  Si  Si22  1  0.137085  0.797144  0.933025  1
  Si  Si23  1  0.797144  0.137085  0.066975  1
  Si  Si24  1  0.862176  0.202985  0.432752  1
  Si  Si25  1  0.295259  0.364119  0.683486  1
  Si  Si26  1  0.705134  0.635613  0.182523  1
  Si  Si27  1  0.293085  0.048628  0.182219  1
  Si  Si28  1  0.705381  0.952645  0.684280  1
  Si  Si29  1  0.456540  0.796591  0.434873  1
  Si  Si30  1  0.204016  0.543346  0.064754  1
  Si  Si31  1  0.543346  0.204016  0.935246  1
  Si  Si32  1  0.796591  0.456540  0.565127  1
  Si  Si33  1  0.048628  0.293085  0.817781  1
  Si  Si34  1  0.952645  0.705381  0.315720  1
  W  W35  1  0.172338  0.172338  0.000000  1
