# generated using pymatgen
data_LiTh4Si6Ni
_symmetry_space_group_name_H-M   'P 1'
_cell_length_a   8.21406030
_cell_length_b   8.14919875
_cell_length_c   5.86314608
_cell_angle_alpha   69.59639925
_cell_angle_beta   68.41284661
_cell_angle_gamma   41.99074180
_symmetry_Int_Tables_number   1
_chemical_formula_structural   LiTh4Si6Ni
_chemical_formula_sum   'Li1 Th4 Si6 Ni1'
_cell_volume   242.35893274
_cell_formula_units_Z   1
loop_
 _symmetry_equiv_pos_site_id
 _symmetry_equiv_pos_as_xyz
  1  'x, y, z'
loop_
 _atom_site_type_symbol
 _atom_site_label
 _atom_site_symmetry_multiplicity
 _atom_site_fract_x
 _atom_site_fract_y
 _atom_site_fract_z
 _atom_site_occupancy
  Li  Li0  1  0.335028  0.335028  0.664972  1
  Th  Th1  1  0.748174  0.748174  0.751826  1
  Th  Th2  1  0.757074  0.246898  0.753102  1
  Th  Th3  1  0.248174  0.248174  0.251826  1
  Th  Th4  1  0.246898  0.757074  0.242926  1
  Si  Si5  1  0.826584  0.344353  0.173416  1
  Si  Si6  1  0.665805  0.166858  0.334195  1
  Si  Si7  1  0.166858  0.665805  0.833142  1
  Si  Si8  1  0.344353  0.826584  0.655647  1
  Si  Si9  1  0.168390  0.168390  0.831610  1
  Si  Si10  1  0.827005  0.827005  0.172995  1
  Ni  Ni11  1  0.665654  0.665654  0.334346  1
