# generated using pymatgen
data_Fe2Co2B4Mo3W
_symmetry_space_group_name_H-M   'P 1'
_cell_length_a   3.19932200
_cell_length_b   5.79244520
_cell_length_c   6.71171911
_cell_angle_alpha   89.56634112
_cell_angle_beta   90.00000000
_cell_angle_gamma   90.00000000
_symmetry_Int_Tables_number   1
_chemical_formula_structural   Fe2Co2B4Mo3W
_chemical_formula_sum   'Fe2 Co2 B4 Mo3 W1'
_cell_volume   124.37732694
_cell_formula_units_Z   1
loop_
 _symmetry_equiv_pos_site_id
 _symmetry_equiv_pos_as_xyz
  1  'x, y, z'
loop_
 _atom_site_type_symbol
 _atom_site_label
 _atom_site_symmetry_multiplicity
 _atom_site_fract_x
 _atom_site_fract_y
 _atom_site_fract_z
 _atom_site_occupancy
  Fe  Fe0  1  0.750000  0.857940  0.559136  1
  Fe  Fe1  1  0.250000  0.142090  0.440814  1
  Co  Co2  1  0.750000  0.356620  0.943598  1
  Co  Co3  1  0.250000  0.643606  0.055823  1
  B  B4  1  0.250000  0.765256  0.366144  1
  B  B5  1  0.750000  0.234826  0.634022  1
  B  B6  1  0.250000  0.272735  0.124690  1
  B  B7  1  0.750000  0.727044  0.875418  1
  Mo  Mo8  1  0.750000  0.470474  0.325634  1
  Mo  Mo9  1  0.250000  0.028662  0.828401  1
  Mo  Mo10  1  0.750000  0.971251  0.171766  1
  W  W11  1  0.250000  0.529495  0.674553  1
