# generated using pymatgen
data_TbDy5Er10(CdPt)4
_symmetry_space_group_name_H-M   'P 1'
_cell_length_a   9.62991300
_cell_length_b   9.62991274
_cell_length_c   9.61137000
_cell_angle_alpha   60.06368264
_cell_angle_beta   60.06368355
_cell_angle_gamma   60.08608926
_symmetry_Int_Tables_number   1
_chemical_formula_structural   TbDy5Er10(CdPt)4
_chemical_formula_sum   'Tb1 Dy5 Er10 Cd4 Pt4'
_cell_volume   631.26933018
_cell_formula_units_Z   1
loop_
 _symmetry_equiv_pos_site_id
 _symmetry_equiv_pos_as_xyz
  1  'x, y, z'
loop_
 _atom_site_type_symbol
 _atom_site_label
 _atom_site_symmetry_multiplicity
 _atom_site_fract_x
 _atom_site_fract_y
 _atom_site_fract_z
 _atom_site_occupancy
  Tb  Tb0  1  0.937796  0.937796  0.562204  1
  Dy  Dy1  1  0.936587  0.563647  0.563692  1
  Dy  Dy2  1  0.563647  0.936587  0.936074  1
  Dy  Dy3  1  0.563647  0.936587  0.563692  1
  Dy  Dy4  1  0.936587  0.563647  0.936074  1
  Dy  Dy5  1  0.565833  0.565833  0.934167  1
  Er  Er6  1  0.352067  0.352067  0.349652  1
  Er  Er7  1  0.352067  0.352067  0.946215  1
  Er  Er8  1  0.355555  0.938993  0.352726  1
  Er  Er9  1  0.938993  0.355555  0.352726  1
  Er  Er10  1  0.811418  0.189378  0.188990  1
  Er  Er11  1  0.189378  0.811418  0.810214  1
  Er  Er12  1  0.189378  0.811418  0.188990  1
  Er  Er13  1  0.811418  0.189378  0.810214  1
  Er  Er14  1  0.190046  0.190046  0.809954  1
  Er  Er15  1  0.811795  0.811795  0.188205  1
  Cd  Cd16  1  0.580206  0.580206  0.582744  1
  Cd  Cd17  1  0.580206  0.580206  0.256842  1
  Cd  Cd18  1  0.579757  0.255184  0.582529  1
  Cd  Cd19  1  0.255184  0.579757  0.582529  1
  Pt  Pt20  1  0.142955  0.142955  0.145605  1
  Pt  Pt21  1  0.142955  0.142955  0.568486  1
  Pt  Pt22  1  0.141213  0.571313  0.143737  1
  Pt  Pt23  1  0.571313  0.141213  0.143737  1
