# generated using pymatgen
data_Tb6Y9Th(CdNi)4
_symmetry_space_group_name_H-M   'P 1'
_cell_length_a   9.61073111
_cell_length_b   9.61346491
_cell_length_c   9.61105309
_cell_angle_alpha   60.13014153
_cell_angle_beta   60.17274539
_cell_angle_gamma   60.17666213
_symmetry_Int_Tables_number   1
_chemical_formula_structural   Tb6Y9Th(CdNi)4
_chemical_formula_sum   'Tb6 Y9 Th1 Cd4 Ni4'
_cell_volume   630.17578144
_cell_formula_units_Z   1
loop_
 _symmetry_equiv_pos_site_id
 _symmetry_equiv_pos_as_xyz
  1  'x, y, z'
loop_
 _atom_site_type_symbol
 _atom_site_label
 _atom_site_symmetry_multiplicity
 _atom_site_fract_x
 _atom_site_fract_y
 _atom_site_fract_z
 _atom_site_occupancy
  Tb  Tb0  1  0.599237  0.598752  0.200420  1
  Tb  Tb1  1  0.599189  0.200518  0.598486  1
  Tb  Tb2  1  0.200845  0.598897  0.598750  1
  Tb  Tb3  1  0.061746  0.439806  0.439653  1
  Tb  Tb4  1  0.439397  0.062553  0.061977  1
  Tb  Tb5  1  0.439542  0.062095  0.439861  1
  Y  Y6  1  0.061857  0.439931  0.061764  1
  Y  Y7  1  0.439694  0.440070  0.061462  1
  Y  Y8  1  0.061677  0.061969  0.440080  1
  Y  Y9  1  0.187763  0.814601  0.814428  1
  Y  Y10  1  0.813305  0.186271  0.186633  1
  Y  Y11  1  0.814241  0.188126  0.814323  1
  Y  Y12  1  0.186386  0.813216  0.186731  1
  Y  Y13  1  0.814192  0.814454  0.188069  1
  Y  Y14  1  0.186641  0.186611  0.813093  1
  Th  Th15  1  0.593913  0.594088  0.594437  1
  Cd  Cd16  1  0.831141  0.830608  0.830580  1
  Cd  Cd17  1  0.831777  0.831705  0.505622  1
  Cd  Cd18  1  0.831547  0.505462  0.831782  1
  Cd  Cd19  1  0.505704  0.831380  0.831605  1
  Ni  Ni20  1  0.392427  0.392545  0.394236  1
  Ni  Ni21  1  0.393848  0.392501  0.819755  1
  Ni  Ni22  1  0.394123  0.820103  0.392582  1
  Ni  Ni23  1  0.819807  0.393737  0.393671  1
