# generated using pymatgen
data_Y2PaTi(Co4P3)2
_symmetry_space_group_name_H-M   'P 1'
_cell_length_a   3.72289100
_cell_length_b   10.62843900
_cell_length_c   12.24184200
_cell_angle_alpha   90.00000000
_cell_angle_beta   90.00000000
_cell_angle_gamma   90.00000000
_symmetry_Int_Tables_number   1
_chemical_formula_structural   Y2PaTi(Co4P3)2
_chemical_formula_sum   'Y4 Pa2 Ti2 Co16 P12'
_cell_volume   484.39156875
_cell_formula_units_Z   2
loop_
 _symmetry_equiv_pos_site_id
 _symmetry_equiv_pos_as_xyz
  1  'x, y, z'
loop_
 _atom_site_type_symbol
 _atom_site_label
 _atom_site_symmetry_multiplicity
 _atom_site_fract_x
 _atom_site_fract_y
 _atom_site_fract_z
 _atom_site_occupancy
  Y  Y0  1  0.500000  0.817979  0.203642  1
  Y  Y1  1  0.500000  0.182021  0.203642  1
  Y  Y2  1  0.000000  0.682021  0.796358  1
  Y  Y3  1  0.000000  0.317979  0.796358  1
  Pa  Pa4  1  0.000000  0.500000  0.532064  1
  Pa  Pa5  1  0.500000  0.000000  0.467936  1
  Ti  Ti6  1  0.500000  0.500000  0.152068  1
  Ti  Ti7  1  0.000000  0.000000  0.847932  1
  Co  Co8  1  0.500000  0.500000  0.694704  1
  Co  Co9  1  0.000000  0.000000  0.305296  1
  Co  Co10  1  0.000000  0.500000  0.986981  1
  Co  Co11  1  0.500000  0.000000  0.013019  1
  Co  Co12  1  0.500000  0.333264  0.993048  1
  Co  Co13  1  0.500000  0.666736  0.993048  1
  Co  Co14  1  0.000000  0.166736  0.006952  1
  Co  Co15  1  0.000000  0.833264  0.006952  1
  Co  Co16  1  0.500000  0.299160  0.433903  1
  Co  Co17  1  0.500000  0.700840  0.433903  1
  Co  Co18  1  0.000000  0.200840  0.566097  1
  Co  Co19  1  0.000000  0.799160  0.566097  1
  Co  Co20  1  0.500000  0.879947  0.706052  1
  Co  Co21  1  0.500000  0.120053  0.706052  1
  Co  Co22  1  0.000000  0.620053  0.293948  1
  Co  Co23  1  0.000000  0.379947  0.293948  1
  P  P24  1  0.500000  0.500000  0.878947  1
  P  P25  1  0.000000  0.000000  0.121053  1
  P  P26  1  0.500000  0.500000  0.353031  1
  P  P27  1  0.000000  0.000000  0.646969  1
  P  P28  1  0.500000  0.307148  0.617206  1
  P  P29  1  0.500000  0.692852  0.617206  1
  P  P30  1  0.000000  0.192852  0.382794  1
  P  P31  1  0.000000  0.807148  0.382794  1
  P  P32  1  0.500000  0.843158  0.893647  1
  P  P33  1  0.500000  0.156842  0.893647  1
  P  P34  1  0.000000  0.656842  0.106353  1
  P  P35  1  0.000000  0.343158  0.106353  1
