# generated using pymatgen
data_YHo7Ti11Si16Pt
_symmetry_space_group_name_H-M   'P 1'
_cell_length_a   7.04108004
_cell_length_b   7.03997478
_cell_length_c   12.84778567
_cell_angle_alpha   90.18157969
_cell_angle_beta   89.81267671
_cell_angle_gamma   89.70042599
_symmetry_Int_Tables_number   1
_chemical_formula_structural   YHo7Ti11Si16Pt
_chemical_formula_sum   'Y1 Ho7 Ti11 Si16 Pt1'
_cell_volume   636.83687920
_cell_formula_units_Z   1
loop_
 _symmetry_equiv_pos_site_id
 _symmetry_equiv_pos_as_xyz
  1  'x, y, z'
loop_
 _atom_site_type_symbol
 _atom_site_label
 _atom_site_symmetry_multiplicity
 _atom_site_fract_x
 _atom_site_fract_y
 _atom_site_fract_z
 _atom_site_occupancy
  Y  Y0  1  0.340419  0.004003  0.466947  1
  Ho  Ho1  1  0.496975  0.841811  0.717932  1
  Ho  Ho2  1  0.501092  0.157538  0.214320  1
  Ho  Ho3  1  0.841882  0.496908  0.282001  1
  Ho  Ho4  1  0.157503  0.501172  0.785680  1
  Ho  Ho5  1  0.656276  0.998993  0.968582  1
  Ho  Ho6  1  0.003396  0.340658  0.533192  1
  Ho  Ho7  1  0.999015  0.656277  0.031368  1
  Ti  Ti8  1  0.175365  0.826163  0.248420  1
  Ti  Ti9  1  0.826284  0.175689  0.751395  1
  Ti  Ti10  1  0.673528  0.673135  0.499902  1
  Ti  Ti11  1  0.148627  0.004632  0.876858  1
  Ti  Ti12  1  0.494344  0.654433  0.123955  1
  Ti  Ti13  1  0.507497  0.350450  0.627725  1
  Ti  Ti14  1  0.654292  0.494419  0.875994  1
  Ti  Ti15  1  0.350491  0.507055  0.372602  1
  Ti  Ti16  1  0.849686  0.993277  0.374487  1
  Ti  Ti17  1  0.004633  0.148840  0.122982  1
  Ti  Ti18  1  0.993474  0.849648  0.625750  1
  Si  Si19  1  0.201393  0.133239  0.685830  1
  Si  Si20  1  0.372697  0.709670  0.931819  1
  Si  Si21  1  0.631980  0.295423  0.433493  1
  Si  Si22  1  0.709595  0.372725  0.068121  1
  Si  Si23  1  0.294703  0.630712  0.566771  1
  Si  Si24  1  0.797410  0.867614  0.183142  1
  Si  Si25  1  0.132571  0.201952  0.314063  1
  Si  Si26  1  0.867520  0.797383  0.816860  1
  Si  Si27  1  0.285778  0.944475  0.064537  1
  Si  Si28  1  0.547927  0.791220  0.314693  1
  Si  Si29  1  0.449968  0.209695  0.815491  1
  Si  Si30  1  0.791734  0.547624  0.685063  1
  Si  Si31  1  0.209731  0.450046  0.184507  1
  Si  Si32  1  0.708998  0.048138  0.565532  1
  Si  Si33  1  0.944293  0.285769  0.935372  1
  Si  Si34  1  0.047625  0.707943  0.434606  1
  Pt  Pt35  1  0.331298  0.331269  0.000008  1
