# generated using pymatgen
data_ErTlP2O7
_symmetry_space_group_name_H-M   'P 1'
_cell_length_a   11.10000800
_cell_length_b   7.87832064
_cell_length_c   8.82235400
_cell_angle_alpha   74.05365208
_cell_angle_beta   90.00000000
_cell_angle_gamma   90.00000000
_symmetry_Int_Tables_number   1
_chemical_formula_structural   ErTlP2O7
_chemical_formula_sum   'Er4 Tl4 P8 O28'
_cell_volume   741.82158750
_cell_formula_units_Z   4
loop_
 _symmetry_equiv_pos_site_id
 _symmetry_equiv_pos_as_xyz
  1  'x, y, z'
loop_
 _atom_site_type_symbol
 _atom_site_label
 _atom_site_symmetry_multiplicity
 _atom_site_fract_x
 _atom_site_fract_y
 _atom_site_fract_z
 _atom_site_occupancy
  Er  Er0  1  0.401081  0.237597  0.248007  1
  Er  Er1  1  0.901081  0.762403  0.251993  1
  Er  Er2  1  0.598919  0.762403  0.751993  1
  Er  Er3  1  0.098919  0.237597  0.748007  1
  Tl  Tl4  1  0.676020  0.182861  0.932315  1
  Tl  Tl5  1  0.176020  0.817139  0.567685  1
  Tl  Tl6  1  0.323980  0.817139  0.067685  1
  Tl  Tl7  1  0.823980  0.182861  0.432315  1
  P  P8  1  0.399339  0.127852  0.682596  1
  P  P9  1  0.899339  0.872148  0.817404  1
  P  P10  1  0.600661  0.872148  0.317404  1
  P  P11  1  0.100661  0.127852  0.182596  1
  P  P12  1  0.134208  0.431782  0.314129  1
  P  P13  1  0.634208  0.568218  0.185871  1
  P  P14  1  0.865792  0.568218  0.685871  1
  P  P15  1  0.365792  0.431782  0.814129  1
  O  O16  1  0.267910  0.445707  0.267952  1
  O  O17  1  0.767910  0.554293  0.232048  1
  O  O18  1  0.732090  0.554293  0.732048  1
  O  O19  1  0.232090  0.445707  0.767952  1
  O  O20  1  0.004304  0.001231  0.277585  1
  O  O21  1  0.504304  0.998769  0.222415  1
  O  O22  1  0.995696  0.998769  0.722415  1
  O  O23  1  0.495696  0.001231  0.777585  1
  O  O24  1  0.110569  0.329445  0.485564  1
  O  O25  1  0.610569  0.670555  0.014436  1
  O  O26  1  0.889431  0.670555  0.514436  1
  O  O27  1  0.389431  0.329445  0.985564  1
  O  O28  1  0.093492  0.146506  0.007027  1
  O  O29  1  0.593492  0.853494  0.492973  1
  O  O30  1  0.906508  0.853494  0.992973  1
  O  O31  1  0.406508  0.146506  0.507027  1
  O  O32  1  0.067346  0.320565  0.205678  1
  O  O33  1  0.567346  0.679435  0.294322  1
  O  O34  1  0.932654  0.679435  0.794322  1
  O  O35  1  0.432654  0.320565  0.705678  1
  O  O36  1  0.272116  0.076797  0.750606  1
  O  O37  1  0.772116  0.923203  0.749394  1
  O  O38  1  0.727884  0.923203  0.249394  1
  O  O39  1  0.227884  0.076797  0.250606  1
  O  O40  1  0.428001  0.611884  0.766076  1
  O  O41  1  0.928001  0.388116  0.733924  1
  O  O42  1  0.571999  0.388116  0.233924  1
  O  O43  1  0.071999  0.611884  0.266076  1
