# generated using pymatgen
data_Ho3In3GaNiRh
_symmetry_space_group_name_H-M   'P 1'
_cell_length_a   7.69036500
_cell_length_b   7.69036436
_cell_length_c   3.71930600
_cell_angle_alpha   90.00000000
_cell_angle_beta   90.00000000
_cell_angle_gamma   119.99999847
_symmetry_Int_Tables_number   1
_chemical_formula_structural   Ho3In3GaNiRh
_chemical_formula_sum   'Ho3 In3 Ga1 Ni1 Rh1'
_cell_volume   190.49624452
_cell_formula_units_Z   1
loop_
 _symmetry_equiv_pos_site_id
 _symmetry_equiv_pos_as_xyz
  1  'x, y, z'
loop_
 _atom_site_type_symbol
 _atom_site_label
 _atom_site_symmetry_multiplicity
 _atom_site_fract_x
 _atom_site_fract_y
 _atom_site_fract_z
 _atom_site_occupancy
  Ho  Ho0  1  0.977864  0.391133  0.500000  1
  Ho  Ho1  1  0.608867  0.586729  0.500000  1
  Ho  Ho2  1  0.413271  0.022136  0.500000  1
  In  In3  1  0.252159  0.255851  0.000000  1
  In  In4  1  0.003691  0.747841  0.000000  1
  In  In5  1  0.744149  0.996309  0.000000  1
  Ga  Ga6  1  0.333333  0.666667  0.000000  1
  Ni  Ni7  1  0.000000  0.000000  0.500000  1
  Rh  Rh8  1  0.666667  0.333333  0.000000  1
