# generated using pymatgen
data_YEr2Si3Ru2
_symmetry_space_group_name_H-M   'P 1'
_cell_length_a   5.71395702
_cell_length_b   5.71395723
_cell_length_c   13.74051100
_cell_angle_alpha   90.00000000
_cell_angle_beta   90.00000000
_cell_angle_gamma   137.18098246
_symmetry_Int_Tables_number   1
_chemical_formula_structural   YEr2Si3Ru2
_chemical_formula_sum   'Y2 Er4 Si6 Ru4'
_cell_volume   304.91893904
_cell_formula_units_Z   2
loop_
 _symmetry_equiv_pos_site_id
 _symmetry_equiv_pos_as_xyz
  1  'x, y, z'
loop_
 _atom_site_type_symbol
 _atom_site_label
 _atom_site_symmetry_multiplicity
 _atom_site_fract_x
 _atom_site_fract_y
 _atom_site_fract_z
 _atom_site_occupancy
  Y  Y0  1  0.640304  0.359696  0.250000  1
  Y  Y1  1  0.359696  0.640304  0.750000  1
  Er  Er2  1  0.922670  0.077330  0.114230  1
  Er  Er3  1  0.077330  0.922670  0.885770  1
  Er  Er4  1  0.077330  0.922670  0.614230  1
  Er  Er5  1  0.922670  0.077330  0.385770  1
  Si  Si6  1  0.329950  0.670050  0.250000  1
  Si  Si7  1  0.670050  0.329950  0.750000  1
  Si  Si8  1  0.616452  0.383548  0.037907  1
  Si  Si9  1  0.383548  0.616452  0.962093  1
  Si  Si10  1  0.383548  0.616452  0.537907  1
  Si  Si11  1  0.616452  0.383548  0.462093  1
  Ru  Ru12  1  0.787154  0.212846  0.580349  1
  Ru  Ru13  1  0.212846  0.787154  0.419651  1
  Ru  Ru14  1  0.212846  0.787154  0.080349  1
  Ru  Ru15  1  0.787154  0.212846  0.919651  1
