# generated using pymatgen
data_CePrHoIn5
_symmetry_space_group_name_H-M   'P 1'
_cell_length_a   6.57647000
_cell_length_b   6.57647067
_cell_length_c   10.43400600
_cell_angle_alpha   90.00000000
_cell_angle_beta   90.00000000
_cell_angle_gamma   102.47498098
_symmetry_Int_Tables_number   1
_chemical_formula_structural   CePrHoIn5
_chemical_formula_sum   'Ce2 Pr2 Ho2 In10'
_cell_volume   440.61606273
_cell_formula_units_Z   2
loop_
 _symmetry_equiv_pos_site_id
 _symmetry_equiv_pos_as_xyz
  1  'x, y, z'
loop_
 _atom_site_type_symbol
 _atom_site_label
 _atom_site_symmetry_multiplicity
 _atom_site_fract_x
 _atom_site_fract_y
 _atom_site_fract_z
 _atom_site_occupancy
  Ce  Ce0  1  0.205194  0.794806  0.500000  1
  Ce  Ce1  1  0.205194  0.794806  0.000000  1
  Pr  Pr2  1  0.794860  0.205140  0.500000  1
  Pr  Pr3  1  0.794860  0.205140  0.000000  1
  Ho  Ho4  1  0.628191  0.628127  0.250000  1
  Ho  Ho5  1  0.371873  0.371809  0.750000  1
  In  In6  1  0.011372  0.006661  0.250000  1
  In  In7  1  0.993339  0.988628  0.750000  1
  In  In8  1  0.308782  0.309705  0.046805  1
  In  In9  1  0.690295  0.691218  0.953195  1
  In  In10  1  0.308782  0.309705  0.453195  1
  In  In11  1  0.690295  0.691218  0.546805  1
  In  In12  1  0.492259  0.063782  0.250000  1
  In  In13  1  0.936218  0.507741  0.750000  1
  In  In14  1  0.497344  0.928857  0.750000  1
  In  In15  1  0.071143  0.502656  0.250000  1
