# generated using pymatgen
data_Tb4HoLu7Os4
_symmetry_space_group_name_H-M   'P 1'
_cell_length_a   6.24743458
_cell_length_b   7.40103650
_cell_length_c   8.87456158
_cell_angle_alpha   89.95819084
_cell_angle_beta   89.74708209
_cell_angle_gamma   89.94154710
_symmetry_Int_Tables_number   1
_chemical_formula_structural   Tb4HoLu7Os4
_chemical_formula_sum   'Tb4 Ho1 Lu7 Os4'
_cell_volume   410.33314505
_cell_formula_units_Z   1
loop_
 _symmetry_equiv_pos_site_id
 _symmetry_equiv_pos_as_xyz
  1  'x, y, z'
loop_
 _atom_site_type_symbol
 _atom_site_label
 _atom_site_symmetry_multiplicity
 _atom_site_fract_x
 _atom_site_fract_y
 _atom_site_fract_z
 _atom_site_occupancy
  Tb  Tb0  1  0.871462  0.539822  0.250661  1
  Tb  Tb1  1  0.629379  0.038884  0.251319  1
  Tb  Tb2  1  0.127033  0.461425  0.748518  1
  Tb  Tb3  1  0.372254  0.960435  0.748732  1
  Ho  Ho4  1  0.164171  0.174633  0.062898  1
  Lu  Lu5  1  0.337513  0.673311  0.063098  1
  Lu  Lu6  1  0.162813  0.172902  0.438426  1
  Lu  Lu7  1  0.662081  0.326496  0.563119  1
  Lu  Lu8  1  0.835582  0.825380  0.935783  1
  Lu  Lu9  1  0.663369  0.326844  0.936210  1
  Lu  Lu10  1  0.836659  0.825863  0.562790  1
  Lu  Lu11  1  0.337173  0.674473  0.436711  1
  Os  Os12  1  0.045026  0.880761  0.251441  1
  Os  Os13  1  0.457175  0.382408  0.251960  1
  Os  Os14  1  0.953578  0.117984  0.747436  1
  Os  Os15  1  0.544733  0.618380  0.750899  1
