# generated using pymatgen
data_Zr4Re5Os3
_symmetry_space_group_name_H-M   'P 1'
_cell_length_a   5.25902461
_cell_length_b   5.19039755
_cell_length_c   8.83148100
_cell_angle_alpha   90.00000000
_cell_angle_beta   90.00000000
_cell_angle_gamma   119.56926384
_symmetry_Int_Tables_number   1
_chemical_formula_structural   Zr4Re5Os3
_chemical_formula_sum   'Zr4 Re5 Os3'
_cell_volume   209.67115382
_cell_formula_units_Z   1
loop_
 _symmetry_equiv_pos_site_id
 _symmetry_equiv_pos_as_xyz
  1  'x, y, z'
loop_
 _atom_site_type_symbol
 _atom_site_label
 _atom_site_symmetry_multiplicity
 _atom_site_fract_x
 _atom_site_fract_y
 _atom_site_fract_z
 _atom_site_occupancy
  Zr  Zr0  1  0.334206  0.667104  0.436851  1
  Zr  Zr1  1  0.668639  0.334319  0.562788  1
  Zr  Zr2  1  0.668639  0.334319  0.937212  1
  Zr  Zr3  1  0.334206  0.667104  0.063149  1
  Re  Re4  1  0.831797  0.170810  0.250000  1
  Re  Re5  1  0.831797  0.660987  0.250000  1
  Re  Re6  1  0.344797  0.172399  0.250000  1
  Re  Re7  1  0.163411  0.828548  0.750000  1
  Re  Re8  1  0.163411  0.334863  0.750000  1
  Os  Os9  1  0.006986  0.003493  0.501486  1
  Os  Os10  1  0.006986  0.003493  0.998514  1
  Os  Os11  1  0.645125  0.822562  0.750000  1
