# generated using pymatgen
data_Tb3Lu(CuP)6
_symmetry_space_group_name_H-M   'P 1'
_cell_length_a   3.85776700
_cell_length_b   10.67322700
_cell_length_c   12.91200400
_cell_angle_alpha   90.00000000
_cell_angle_beta   90.00000000
_cell_angle_gamma   90.00000000
_symmetry_Int_Tables_number   1
_chemical_formula_structural   Tb3Lu(CuP)6
_chemical_formula_sum   'Tb6 Lu2 Cu12 P12'
_cell_volume   531.64947804
_cell_formula_units_Z   2
loop_
 _symmetry_equiv_pos_site_id
 _symmetry_equiv_pos_as_xyz
  1  'x, y, z'
loop_
 _atom_site_type_symbol
 _atom_site_label
 _atom_site_symmetry_multiplicity
 _atom_site_fract_x
 _atom_site_fract_y
 _atom_site_fract_z
 _atom_site_occupancy
  Tb  Tb0  1  0.250000  0.929821  0.794649  1
  Tb  Tb1  1  0.750000  0.429821  0.705351  1
  Tb  Tb2  1  0.250000  0.570299  0.292594  1
  Tb  Tb3  1  0.750000  0.070299  0.207406  1
  Tb  Tb4  1  0.250000  0.842392  0.503306  1
  Tb  Tb5  1  0.750000  0.342392  0.996694  1
  Lu  Lu6  1  0.250000  0.657870  0.002798  1
  Lu  Lu7  1  0.750000  0.157870  0.497202  1
  Cu  Cu8  1  0.250000  0.399303  0.514056  1
  Cu  Cu9  1  0.750000  0.899303  0.985944  1
  Cu  Cu10  1  0.250000  0.099996  0.014338  1
  Cu  Cu11  1  0.750000  0.599996  0.485662  1
  Cu  Cu12  1  0.250000  0.272767  0.333627  1
  Cu  Cu13  1  0.750000  0.772767  0.166373  1
  Cu  Cu14  1  0.250000  0.227032  0.832139  1
  Cu  Cu15  1  0.750000  0.727032  0.667861  1
  Cu  Cu16  1  0.250000  0.861387  0.278966  1
  Cu  Cu17  1  0.750000  0.361387  0.221034  1
  Cu  Cu18  1  0.250000  0.639746  0.780443  1
  Cu  Cu19  1  0.750000  0.139746  0.719557  1
  P  P20  1  0.250000  0.237397  0.641362  1
  P  P21  1  0.750000  0.737397  0.858638  1
  P  P22  1  0.250000  0.260993  0.144542  1
  P  P23  1  0.750000  0.760993  0.355458  1
  P  P24  1  0.250000  0.603489  0.599928  1
  P  P25  1  0.750000  0.103489  0.900072  1
  P  P26  1  0.250000  0.894478  0.098837  1
  P  P27  1  0.750000  0.394478  0.401163  1
  P  P28  1  0.250000  0.058912  0.371519  1
  P  P29  1  0.750000  0.558912  0.128481  1
  P  P30  1  0.250000  0.444118  0.868195  1
  P  P31  1  0.750000  0.944118  0.631805  1
