# generated using pymatgen
data_La7YbGePd24
_symmetry_space_group_name_H-M   'P 1'
_cell_length_a   8.53126104
_cell_length_b   8.53126104
_cell_length_c   8.53126104
_cell_angle_alpha   89.95997921
_cell_angle_beta   90.04002079
_cell_angle_gamma   90.04002079
_symmetry_Int_Tables_number   1
_chemical_formula_structural   La7YbGePd24
_chemical_formula_sum   'La7 Yb1 Ge1 Pd24'
_cell_volume   620.92532675
_cell_formula_units_Z   1
loop_
 _symmetry_equiv_pos_site_id
 _symmetry_equiv_pos_as_xyz
  1  'x, y, z'
loop_
 _atom_site_type_symbol
 _atom_site_label
 _atom_site_symmetry_multiplicity
 _atom_site_fract_x
 _atom_site_fract_y
 _atom_site_fract_z
 _atom_site_occupancy
  La  La0  1  0.252969  0.252724  0.252724  1
  La  La1  1  0.747419  0.747200  0.747200  1
  La  La2  1  0.747276  0.747031  0.252724  1
  La  La3  1  0.747276  0.252724  0.747031  1
  La  La4  1  0.252800  0.252581  0.747200  1
  La  La5  1  0.252800  0.747200  0.252581  1
  La  La6  1  0.252321  0.747679  0.747679  1
  Yb  Yb7  1  0.748166  0.251834  0.251834  1
  Ge  Ge8  1  0.999243  0.000757  0.000757  1
  Pd  Pd9  1  0.261196  0.499970  0.999828  1
  Pd  Pd10  1  0.738586  0.497908  0.002125  1
  Pd  Pd11  1  0.997875  0.261414  0.497908  1
  Pd  Pd12  1  0.502092  0.261414  0.002125  1
  Pd  Pd13  1  0.000172  0.738804  0.499970  1
  Pd  Pd14  1  0.500030  0.738804  0.999828  1
  Pd  Pd15  1  0.502092  0.002125  0.261414  1
  Pd  Pd16  1  0.261196  0.999828  0.499970  1
  Pd  Pd17  1  0.500030  0.999828  0.738804  1
  Pd  Pd18  1  0.738586  0.002125  0.497908  1
  Pd  Pd19  1  0.997875  0.497908  0.261414  1
  Pd  Pd20  1  0.000172  0.499970  0.738804  1
  Pd  Pd21  1  0.254347  0.500071  0.500071  1
  Pd  Pd22  1  0.745777  0.497614  0.497614  1
  Pd  Pd23  1  0.502386  0.254223  0.497614  1
  Pd  Pd24  1  0.499929  0.745653  0.500071  1
  Pd  Pd25  1  0.502386  0.497614  0.254223  1
  Pd  Pd26  1  0.499929  0.500071  0.745653  1
  Pd  Pd27  1  0.293423  0.000173  0.000173  1
  Pd  Pd28  1  0.707215  0.002609  0.002609  1
  Pd  Pd29  1  0.997391  0.292785  0.002609  1
  Pd  Pd30  1  0.999827  0.706577  0.000173  1
  Pd  Pd31  1  0.997391  0.002609  0.292785  1
  Pd  Pd32  1  0.999827  0.000173  0.706577  1
