# generated using pymatgen
data_Li2YLu2Si3Ag
_symmetry_space_group_name_H-M   'P 1'
_cell_length_a   6.96108519
_cell_length_b   6.92107690
_cell_length_c   4.18408300
_cell_angle_alpha   90.00000000
_cell_angle_beta   90.00000000
_cell_angle_gamma   120.57368938
_symmetry_Int_Tables_number   1
_chemical_formula_structural   Li2YLu2Si3Ag
_chemical_formula_sum   'Li2 Y1 Lu2 Si3 Ag1'
_cell_volume   173.55686809
_cell_formula_units_Z   1
loop_
 _symmetry_equiv_pos_site_id
 _symmetry_equiv_pos_as_xyz
  1  'x, y, z'
loop_
 _atom_site_type_symbol
 _atom_site_label
 _atom_site_symmetry_multiplicity
 _atom_site_fract_x
 _atom_site_fract_y
 _atom_site_fract_z
 _atom_site_occupancy
  Li  Li0  1  0.764173  0.767629  0.000000  1
  Li  Li1  1  0.235911  0.002504  0.000000  1
  Y  Y2  1  0.426961  0.426850  0.500000  1
  Lu  Lu3  1  0.576735  0.000056  0.500000  1
  Lu  Lu4  1  0.000644  0.572948  0.500000  1
  Si  Si5  1  0.668517  0.330019  0.000000  1
  Si  Si6  1  0.333197  0.670656  0.000000  1
  Si  Si7  1  0.994642  0.991316  0.500000  1
  Ag  Ag8  1  0.999219  0.238020  0.000000  1
