# generated using pymatgen
data_Tb3Ga3(FeNi5)2
_symmetry_space_group_name_H-M   'P 1'
_cell_length_a   8.61937358
_cell_length_b   8.61937306
_cell_length_c   4.02773200
_cell_angle_alpha   90.00000000
_cell_angle_beta   90.00000000
_cell_angle_gamma   120.92581768
_symmetry_Int_Tables_number   1
_chemical_formula_structural   Tb3Ga3(FeNi5)2
_chemical_formula_sum   'Tb3 Ga3 Fe2 Ni10'
_cell_volume   256.69352091
_cell_formula_units_Z   1
loop_
 _symmetry_equiv_pos_site_id
 _symmetry_equiv_pos_as_xyz
  1  'x, y, z'
loop_
 _atom_site_type_symbol
 _atom_site_label
 _atom_site_symmetry_multiplicity
 _atom_site_fract_x
 _atom_site_fract_y
 _atom_site_fract_z
 _atom_site_occupancy
  Tb  Tb0  1  0.335591  0.664409  0.000000  1
  Tb  Tb1  1  0.664409  0.335591  0.000000  1
  Tb  Tb2  1  0.000000  0.000000  0.000000  1
  Ga  Ga3  1  0.500000  0.000000  0.500000  1
  Ga  Ga4  1  0.000000  0.500000  0.500000  1
  Ga  Ga5  1  0.500000  0.500000  0.500000  1
  Fe  Fe6  1  0.162621  0.837379  0.500000  1
  Fe  Fe7  1  0.837379  0.162621  0.500000  1
  Ni  Ni8  1  0.323847  0.992717  0.000000  1
  Ni  Ni9  1  0.676153  0.007283  0.000000  1
  Ni  Ni10  1  0.992717  0.323847  0.000000  1
  Ni  Ni11  1  0.007283  0.676153  0.000000  1
  Ni  Ni12  1  0.670163  0.670163  0.000000  1
  Ni  Ni13  1  0.329837  0.329837  0.000000  1
  Ni  Ni14  1  0.164599  0.329682  0.500000  1
  Ni  Ni15  1  0.835401  0.670318  0.500000  1
  Ni  Ni16  1  0.670318  0.835401  0.500000  1
  Ni  Ni17  1  0.329682  0.164599  0.500000  1
