# generated using pymatgen
data_Al5Ir4Rh
_symmetry_space_group_name_H-M   'P 1'
_cell_length_a   3.00802000
_cell_length_b   3.00802000
_cell_length_c   15.13523900
_cell_angle_alpha   90.00000000
_cell_angle_beta   90.00000000
_cell_angle_gamma   90.00000000
_symmetry_Int_Tables_number   1
_chemical_formula_structural   Al5Ir4Rh
_chemical_formula_sum   'Al5 Ir4 Rh1'
_cell_volume   136.94643221
_cell_formula_units_Z   1
loop_
 _symmetry_equiv_pos_site_id
 _symmetry_equiv_pos_as_xyz
  1  'x, y, z'
loop_
 _atom_site_type_symbol
 _atom_site_label
 _atom_site_symmetry_multiplicity
 _atom_site_fract_x
 _atom_site_fract_y
 _atom_site_fract_z
 _atom_site_occupancy
  Al  Al0  1  0.500000  0.500000  0.098028  1
  Al  Al1  1  0.500000  0.500000  0.298990  1
  Al  Al2  1  0.500000  0.500000  0.500000  1
  Al  Al3  1  0.500000  0.500000  0.701010  1
  Al  Al4  1  0.500000  0.500000  0.901972  1
  Ir  Ir5  1  0.000000  0.000000  0.199258  1
  Ir  Ir6  1  0.000000  0.000000  0.399747  1
  Ir  Ir7  1  0.000000  0.000000  0.600253  1
  Ir  Ir8  1  0.000000  0.000000  0.800742  1
  Rh  Rh9  1  0.000000  0.000000  0.000000  1
