# generated using pymatgen
data_DyLu2Zr(Ga3Ir)6
_symmetry_space_group_name_H-M   'P 1'
_cell_length_a   7.55308053
_cell_length_b   7.54692098
_cell_length_c   9.42080900
_cell_angle_alpha   90.00000000
_cell_angle_beta   90.00000000
_cell_angle_gamma   119.84919349
_symmetry_Int_Tables_number   1
_chemical_formula_structural   DyLu2Zr(Ga3Ir)6
_chemical_formula_sum   'Dy1 Lu2 Zr1 Ga18 Ir6'
_cell_volume   465.76913984
_cell_formula_units_Z   1
loop_
 _symmetry_equiv_pos_site_id
 _symmetry_equiv_pos_as_xyz
  1  'x, y, z'
loop_
 _atom_site_type_symbol
 _atom_site_label
 _atom_site_symmetry_multiplicity
 _atom_site_fract_x
 _atom_site_fract_y
 _atom_site_fract_z
 _atom_site_occupancy
  Dy  Dy0  1  0.003585  0.328598  0.750000  1
  Lu  Lu1  1  0.671283  0.997986  0.250000  1
  Lu  Lu2  1  0.328746  0.003588  0.750000  1
  Zr  Zr3  1  0.998151  0.671088  0.250000  1
  Ga  Ga4  1  0.126580  0.126393  0.250000  1
  Ga  Ga5  1  0.869912  0.868840  0.750000  1
  Ga  Ga6  1  0.997880  0.337107  0.085362  1
  Ga  Ga7  1  0.001806  0.665896  0.920570  1
  Ga  Ga8  1  0.001806  0.665896  0.579430  1
  Ga  Ga9  1  0.333266  0.996755  0.415195  1
  Ga  Ga10  1  0.997880  0.337107  0.414638  1
  Ga  Ga11  1  0.663497  0.000028  0.581378  1
  Ga  Ga12  1  0.663497  0.000028  0.918622  1
  Ga  Ga13  1  0.333266  0.996755  0.084805  1
  Ga  Ga14  1  0.332519  0.331507  0.565020  1
  Ga  Ga15  1  0.670859  0.669545  0.429333  1
  Ga  Ga16  1  0.670859  0.669545  0.070667  1
  Ga  Ga17  1  0.332519  0.331507  0.934980  1
  Ga  Ga18  1  0.340096  0.549423  0.250000  1
  Ga  Ga19  1  0.659183  0.451794  0.750000  1
  Ga  Ga20  1  0.552234  0.341407  0.250000  1
  Ga  Ga21  1  0.451249  0.659290  0.750000  1
  Ir  Ir22  1  0.672247  0.328609  0.001002  1
  Ir  Ir23  1  0.327774  0.672113  0.001868  1
  Ir  Ir24  1  0.327774  0.672113  0.498132  1
  Ir  Ir25  1  0.672247  0.328609  0.498998  1
  Ir  Ir26  1  0.999642  0.999236  0.001094  1
  Ir  Ir27  1  0.999642  0.999236  0.498906  1
