# generated using pymatgen
data_DyTm2Bi5O14
_symmetry_space_group_name_H-M   'P 1'
_cell_length_a   6.59224751
_cell_length_b   6.71342326
_cell_length_c   7.74487900
_cell_angle_alpha   106.70680050
_cell_angle_beta   89.49652750
_cell_angle_gamma   99.10724487
_symmetry_Int_Tables_number   1
_chemical_formula_structural   DyTm2Bi5O14
_chemical_formula_sum   'Dy1 Tm2 Bi5 O14'
_cell_volume   323.91018244
_cell_formula_units_Z   1
loop_
 _symmetry_equiv_pos_site_id
 _symmetry_equiv_pos_as_xyz
  1  'x, y, z'
loop_
 _atom_site_type_symbol
 _atom_site_label
 _atom_site_symmetry_multiplicity
 _atom_site_fract_x
 _atom_site_fract_y
 _atom_site_fract_z
 _atom_site_occupancy
  Dy  Dy0  1  0.264138  0.539041  0.885084  1
  Tm  Tm1  1  0.462860  0.003290  0.253011  1
  Tm  Tm2  1  0.537863  0.994171  0.750948  1
  Bi  Bi3  1  0.002836  0.006735  0.502260  1
  Bi  Bi4  1  0.003133  0.001568  0.999522  1
  Bi  Bi5  1  0.738181  0.474008  0.114776  1
  Bi  Bi6  1  0.722912  0.462124  0.614105  1
  Bi  Bi7  1  0.268381  0.531198  0.389790  1
  O  O8  1  0.449916  0.656656  0.166730  1
  O  O9  1  0.536516  0.338912  0.823078  1
  O  O10  1  0.304982  0.923190  0.948950  1
  O  O11  1  0.695404  0.052224  0.050758  1
  O  O12  1  0.302717  0.924931  0.516299  1
  O  O13  1  0.698655  0.078058  0.486196  1
  O  O14  1  0.530947  0.352107  0.348295  1
  O  O15  1  0.458415  0.645845  0.660285  1
  O  O16  1  0.936491  0.667138  0.954466  1
  O  O17  1  0.082304  0.328292  0.036484  1
  O  O18  1  0.092681  0.335574  0.624918  1
  O  O19  1  0.908378  0.678686  0.373472  1
  O  O20  1  0.871456  0.931787  0.732811  1
  O  O21  1  0.130835  0.074462  0.267764  1
