# generated using pymatgen
data_La3InAg2Pd3
_symmetry_space_group_name_H-M   'P 1'
_cell_length_a   7.76601700
_cell_length_b   7.76601708
_cell_length_c   4.13208600
_cell_angle_alpha   90.00000000
_cell_angle_beta   90.00000000
_cell_angle_gamma   121.06662975
_symmetry_Int_Tables_number   1
_chemical_formula_structural   La3InAg2Pd3
_chemical_formula_sum   'La3 In1 Ag2 Pd3'
_cell_volume   213.46553379
_cell_formula_units_Z   1
loop_
 _symmetry_equiv_pos_site_id
 _symmetry_equiv_pos_as_xyz
  1  'x, y, z'
loop_
 _atom_site_type_symbol
 _atom_site_label
 _atom_site_symmetry_multiplicity
 _atom_site_fract_x
 _atom_site_fract_y
 _atom_site_fract_z
 _atom_site_occupancy
  La  La0  1  0.403621  0.991947  0.500000  1
  La  La1  1  0.991947  0.403621  0.500000  1
  La  La2  1  0.607528  0.607528  0.500000  1
  In  In3  1  0.249792  0.249792  0.000000  1
  Ag  Ag4  1  0.748735  0.999698  0.000000  1
  Ag  Ag5  1  0.999698  0.748735  0.000000  1
  Pd  Pd6  1  0.328333  0.654921  0.000000  1
  Pd  Pd7  1  0.654921  0.328333  0.000000  1
  Pd  Pd8  1  0.015426  0.015426  0.500000  1
