# generated using pymatgen
data_Tb3In3SnPdPt
_symmetry_space_group_name_H-M   'P 1'
_cell_length_a   7.68758600
_cell_length_b   7.68758670
_cell_length_c   4.12263800
_cell_angle_alpha   90.00000000
_cell_angle_beta   90.00000000
_cell_angle_gamma   120.00000560
_symmetry_Int_Tables_number   1
_chemical_formula_structural   Tb3In3SnPdPt
_chemical_formula_sum   'Tb3 In3 Sn1 Pd1 Pt1'
_cell_volume   211.00163625
_cell_formula_units_Z   1
loop_
 _symmetry_equiv_pos_site_id
 _symmetry_equiv_pos_as_xyz
  1  'x, y, z'
loop_
 _atom_site_type_symbol
 _atom_site_label
 _atom_site_symmetry_multiplicity
 _atom_site_fract_x
 _atom_site_fract_y
 _atom_site_fract_z
 _atom_site_occupancy
  Tb  Tb0  1  0.396692  0.979317  0.000000  1
  Tb  Tb1  1  0.020683  0.417375  0.000000  1
  Tb  Tb2  1  0.582625  0.603308  0.000000  1
  In  In3  1  0.243830  0.255238  0.500000  1
  In  In4  1  0.011406  0.756170  0.500000  1
  In  In5  1  0.744762  0.988594  0.500000  1
  Sn  Sn6  1  0.666667  0.333333  0.500000  1
  Pd  Pd7  1  0.000000  0.000000  0.000000  1
  Pt  Pt8  1  0.333333  0.666667  0.500000  1
