# generated using pymatgen
data_AcTmFe3Re14C3
_symmetry_space_group_name_H-M   'P 1'
_cell_length_a   6.95991002
_cell_length_b   6.95991299
_cell_length_c   6.95991184
_cell_angle_alpha   82.77016272
_cell_angle_beta   82.77016013
_cell_angle_gamma   82.77016662
_symmetry_Int_Tables_number   1
_chemical_formula_structural   AcTmFe3Re14C3
_chemical_formula_sum   'Ac1 Tm1 Fe3 Re14 C3'
_cell_volume   329.72151133
_cell_formula_units_Z   1
loop_
 _symmetry_equiv_pos_site_id
 _symmetry_equiv_pos_as_xyz
  1  'x, y, z'
loop_
 _atom_site_type_symbol
 _atom_site_label
 _atom_site_symmetry_multiplicity
 _atom_site_fract_x
 _atom_site_fract_y
 _atom_site_fract_z
 _atom_site_occupancy
  Ac  Ac0  1  0.647314  0.647314  0.647314  1
  Tm  Tm1  1  0.348576  0.348576  0.348576  1
  Fe  Fe2  1  0.996827  0.996827  0.501960  1
  Fe  Fe3  1  0.501960  0.996827  0.996827  1
  Fe  Fe4  1  0.996827  0.501960  0.996827  1
  Re  Re5  1  0.721743  0.276805  0.001553  1
  Re  Re6  1  0.001553  0.721743  0.276805  1
  Re  Re7  1  0.276805  0.001553  0.721743  1
  Re  Re8  1  0.001553  0.276805  0.721743  1
  Re  Re9  1  0.721743  0.001553  0.276805  1
  Re  Re10  1  0.276805  0.721743  0.001553  1
  Re  Re11  1  0.343084  0.343084  0.869930  1
  Re  Re12  1  0.869930  0.343084  0.343084  1
  Re  Re13  1  0.343084  0.869930  0.343084  1
  Re  Re14  1  0.653159  0.653159  0.141145  1
  Re  Re15  1  0.141145  0.653159  0.653159  1
  Re  Re16  1  0.653159  0.141145  0.653159  1
  Re  Re17  1  0.899956  0.899956  0.899956  1
  Re  Re18  1  0.101738  0.101738  0.101738  1
  C  C19  1  0.491542  0.491542  0.019953  1
  C  C20  1  0.019953  0.491542  0.491542  1
  C  C21  1  0.491542  0.019953  0.491542  1
