# generated using pymatgen
data_Y11Th5(AgRh)4
_symmetry_space_group_name_H-M   'P 1'
_cell_length_a   9.62717550
_cell_length_b   9.70014948
_cell_length_c   9.70029936
_cell_angle_alpha   60.07932699
_cell_angle_beta   60.24837270
_cell_angle_gamma   60.24850230
_symmetry_Int_Tables_number   1
_chemical_formula_structural   Y11Th5(AgRh)4
_chemical_formula_sum   'Y11 Th5 Ag4 Rh4'
_cell_volume   643.32399527
_cell_formula_units_Z   1
loop_
 _symmetry_equiv_pos_site_id
 _symmetry_equiv_pos_as_xyz
  1  'x, y, z'
loop_
 _atom_site_type_symbol
 _atom_site_label
 _atom_site_symmetry_multiplicity
 _atom_site_fract_x
 _atom_site_fract_y
 _atom_site_fract_z
 _atom_site_occupancy
  Y  Y0  1  0.437761  0.062234  0.062230  1
  Y  Y1  1  0.440771  0.059906  0.437072  1
  Y  Y2  1  0.062230  0.437086  0.059925  1
  Y  Y3  1  0.440810  0.437129  0.059874  1
  Y  Y4  1  0.062184  0.059877  0.437121  1
  Y  Y5  1  0.183108  0.816890  0.816890  1
  Y  Y6  1  0.816600  0.183397  0.183389  1
  Y  Y7  1  0.815131  0.183233  0.816050  1
  Y  Y8  1  0.185584  0.816051  0.183233  1
  Y  Y9  1  0.815115  0.816028  0.183249  1
  Y  Y10  1  0.185605  0.183248  0.816032  1
  Th  Th11  1  0.597914  0.603676  0.603666  1
  Th  Th12  1  0.602550  0.602931  0.191974  1
  Th  Th13  1  0.602550  0.191967  0.602940  1
  Th  Th14  1  0.194745  0.603644  0.603661  1
  Th  Th15  1  0.062705  0.437317  0.437320  1
  Ag  Ag16  1  0.833341  0.834242  0.834258  1
  Ag  Ag17  1  0.833248  0.835520  0.497965  1
  Ag  Ag18  1  0.833241  0.497990  0.835518  1
  Ag  Ag19  1  0.498147  0.834253  0.834253  1
  Rh  Rh20  1  0.386225  0.397562  0.397590  1
  Rh  Rh21  1  0.395908  0.394048  0.814135  1
  Rh  Rh22  1  0.395891  0.814138  0.394022  1
  Rh  Rh23  1  0.818638  0.397631  0.397636  1
