# generated using pymatgen
data_La5(GeN3)3
_symmetry_space_group_name_H-M   'P 1'
_cell_length_a   7.98309700
_cell_length_b   7.98309687
_cell_length_c   16.41199100
_cell_angle_alpha   90.00000000
_cell_angle_beta   90.00000000
_cell_angle_gamma   93.78337030
_symmetry_Int_Tables_number   1
_chemical_formula_structural   La5(GeN3)3
_chemical_formula_sum   'La20 Ge12 N36'
_cell_volume   1043.65406281
_cell_formula_units_Z   4
loop_
 _symmetry_equiv_pos_site_id
 _symmetry_equiv_pos_as_xyz
  1  'x, y, z'
loop_
 _atom_site_type_symbol
 _atom_site_label
 _atom_site_symmetry_multiplicity
 _atom_site_fract_x
 _atom_site_fract_y
 _atom_site_fract_z
 _atom_site_occupancy
  La  La0  1  0.007016  0.992984  0.335744  1
  La  La1  1  0.992984  0.007016  0.664256  1
  La  La2  1  0.492984  0.507016  0.835744  1
  La  La3  1  0.507016  0.492984  0.164256  1
  La  La4  1  0.954996  0.470211  0.369567  1
  La  La5  1  0.470211  0.954996  0.630433  1
  La  La6  1  0.970211  0.454996  0.869567  1
  La  La7  1  0.454996  0.970211  0.130433  1
  La  La8  1  0.045004  0.529789  0.630433  1
  La  La9  1  0.529789  0.045004  0.369567  1
  La  La10  1  0.029789  0.545004  0.130433  1
  La  La11  1  0.545004  0.029789  0.869567  1
  La  La12  1  0.993027  0.006973  0.112548  1
  La  La13  1  0.006973  0.993027  0.887452  1
  La  La14  1  0.506973  0.493027  0.612548  1
  La  La15  1  0.493027  0.506973  0.387452  1
  La  La16  1  0.792883  0.792883  0.500000  1
  La  La17  1  0.292883  0.292883  0.000000  1
  La  La18  1  0.207117  0.207117  0.500000  1
  La  La19  1  0.707117  0.707117  0.000000  1
  Ge  Ge20  1  0.740887  0.259113  0.513600  1
  Ge  Ge21  1  0.259113  0.740887  0.486400  1
  Ge  Ge22  1  0.759113  0.240887  0.013600  1
  Ge  Ge23  1  0.240887  0.759113  0.986400  1
  Ge  Ge24  1  0.265857  0.734143  0.274238  1
  Ge  Ge25  1  0.734143  0.265857  0.725762  1
  Ge  Ge26  1  0.234143  0.765857  0.774238  1
  Ge  Ge27  1  0.765857  0.234143  0.225762  1
  Ge  Ge28  1  0.222446  0.277554  0.250000  1
  Ge  Ge29  1  0.277554  0.222446  0.750000  1
  Ge  Ge30  1  0.777554  0.722446  0.750000  1
  Ge  Ge31  1  0.722446  0.777554  0.250000  1
  N  N32  1  0.148705  0.851295  0.199339  1
  N  N33  1  0.851295  0.148705  0.800661  1
  N  N34  1  0.351295  0.648705  0.699339  1
  N  N35  1  0.648705  0.351295  0.300661  1
  N  N36  1  0.208204  0.791796  0.378681  1
  N  N37  1  0.791796  0.208204  0.621319  1
  N  N38  1  0.291796  0.708204  0.878681  1
  N  N39  1  0.708204  0.291796  0.121319  1
  N  N40  1  0.736163  0.008768  0.241916  1
  N  N41  1  0.008768  0.736163  0.758084  1
  N  N42  1  0.508768  0.236163  0.741916  1
  N  N43  1  0.236163  0.508768  0.258084  1
  N  N44  1  0.263837  0.991232  0.758084  1
  N  N45  1  0.991232  0.263837  0.241916  1
  N  N46  1  0.491232  0.763837  0.258084  1
  N  N47  1  0.763837  0.491232  0.741916  1
  N  N48  1  0.805604  0.723981  0.351094  1
  N  N49  1  0.723981  0.805604  0.648906  1
  N  N50  1  0.223981  0.305604  0.851094  1
  N  N51  1  0.305604  0.223981  0.148906  1
  N  N52  1  0.194396  0.276019  0.648906  1
  N  N53  1  0.276019  0.194396  0.351094  1
  N  N54  1  0.776019  0.694396  0.148906  1
  N  N55  1  0.694396  0.776019  0.851094  1
  N  N56  1  0.781299  0.494373  0.500880  1
  N  N57  1  0.494373  0.781299  0.499120  1
  N  N58  1  0.994373  0.281299  0.000880  1
  N  N59  1  0.281299  0.994373  0.999120  1
  N  N60  1  0.218701  0.505627  0.499120  1
  N  N61  1  0.505627  0.218701  0.500880  1
  N  N62  1  0.005627  0.718701  0.999120  1
  N  N63  1  0.718701  0.005627  0.000880  1
  N  N64  1  0.867872  0.132128  0.444068  1
  N  N65  1  0.132128  0.867872  0.555932  1
  N  N66  1  0.632128  0.367872  0.944068  1
  N  N67  1  0.367872  0.632128  0.055932  1
