# generated using pymatgen
data_Hf4Co3CuAu2
_symmetry_space_group_name_H-M   'P 1'
_cell_length_a   7.08558340
_cell_length_b   7.08558369
_cell_length_c   6.44902900
_cell_angle_alpha   90.00000000
_cell_angle_beta   90.00000000
_cell_angle_gamma   90.34979751
_symmetry_Int_Tables_number   1
_chemical_formula_structural   Hf4Co3CuAu2
_chemical_formula_sum   'Hf8 Co6 Cu2 Au4'
_cell_volume   323.77065392
_cell_formula_units_Z   2
loop_
 _symmetry_equiv_pos_site_id
 _symmetry_equiv_pos_as_xyz
  1  'x, y, z'
loop_
 _atom_site_type_symbol
 _atom_site_label
 _atom_site_symmetry_multiplicity
 _atom_site_fract_x
 _atom_site_fract_y
 _atom_site_fract_z
 _atom_site_occupancy
  Hf  Hf0  1  0.160007  0.187843  0.000000  1
  Hf  Hf1  1  0.812157  0.839993  0.000000  1
  Hf  Hf2  1  0.672716  0.327284  0.500000  1
  Hf  Hf3  1  0.350837  0.649163  0.500000  1
  Hf  Hf4  1  0.674317  0.325683  0.000000  1
  Hf  Hf5  1  0.344787  0.655213  0.000000  1
  Hf  Hf6  1  0.805275  0.837217  0.500000  1
  Hf  Hf7  1  0.162783  0.194725  0.500000  1
  Co  Co8  1  0.375671  0.365440  0.245512  1
  Co  Co9  1  0.634560  0.624329  0.754488  1
  Co  Co10  1  0.634560  0.624329  0.245512  1
  Co  Co11  1  0.877297  0.122703  0.747439  1
  Co  Co12  1  0.877297  0.122703  0.252561  1
  Co  Co13  1  0.375671  0.365440  0.754488  1
  Cu  Cu14  1  0.126941  0.873059  0.262398  1
  Cu  Cu15  1  0.126941  0.873059  0.737602  1
  Au  Au16  1  0.492566  0.998474  0.249081  1
  Au  Au17  1  0.492566  0.998474  0.750919  1
  Au  Au18  1  0.001526  0.507434  0.249081  1
  Au  Au19  1  0.001526  0.507434  0.750919  1
