# generated using pymatgen
data_Tc2WBr9
_symmetry_space_group_name_H-M   'P 1'
_cell_length_a   10.88400900
_cell_length_b   8.80495221
_cell_length_c   9.45363438
_cell_angle_alpha   70.05340668
_cell_angle_beta   90.00000000
_cell_angle_gamma   90.00000000
_symmetry_Int_Tables_number   1
_chemical_formula_structural   Tc2WBr9
_chemical_formula_sum   'Tc4 W2 Br18'
_cell_volume   851.62350771
_cell_formula_units_Z   2
loop_
 _symmetry_equiv_pos_site_id
 _symmetry_equiv_pos_as_xyz
  1  'x, y, z'
loop_
 _atom_site_type_symbol
 _atom_site_label
 _atom_site_symmetry_multiplicity
 _atom_site_fract_x
 _atom_site_fract_y
 _atom_site_fract_z
 _atom_site_occupancy
  Tc  Tc0  1  0.751474  0.164362  0.645371  1
  Tc  Tc1  1  0.868708  0.164010  0.866630  1
  Tc  Tc2  1  0.368708  0.835990  0.133370  1
  Tc  Tc3  1  0.251474  0.835638  0.354629  1
  W  W4  1  0.131626  0.835660  0.132691  1
  W  W5  1  0.631626  0.164340  0.867309  1
  Br  Br6  1  0.410491  0.549850  0.193075  1
  Br  Br7  1  0.408825  0.143215  0.019290  1
  Br  Br8  1  0.248523  0.099378  0.381420  1
  Br  Br9  1  0.987492  0.163659  0.635224  1
  Br  Br10  1  0.249451  0.566512  0.532197  1
  Br  Br11  1  0.591496  0.858979  0.977486  1
  Br  Br12  1  0.750164  0.148085  0.104774  1
  Br  Br13  1  0.014114  0.836780  0.366442  1
  Br  Br14  1  0.250164  0.851915  0.895226  1
  Br  Br15  1  0.749451  0.433488  0.467803  1
  Br  Br16  1  0.487492  0.836341  0.364776  1
  Br  Br17  1  0.587634  0.450241  0.807505  1
  Br  Br18  1  0.087634  0.549759  0.192495  1
  Br  Br19  1  0.091496  0.141021  0.022514  1
  Br  Br20  1  0.908825  0.856785  0.980710  1
  Br  Br21  1  0.514114  0.163220  0.633558  1
  Br  Br22  1  0.910491  0.450150  0.806925  1
  Br  Br23  1  0.748523  0.900622  0.618580  1
