# generated using pymatgen
data_Ba6Ce3DyO14
_symmetry_space_group_name_H-M   'P 1'
_cell_length_a   11.59971495
_cell_length_b   11.59729055
_cell_length_c   6.25072900
_cell_angle_alpha   90.00000000
_cell_angle_beta   90.00000000
_cell_angle_gamma   147.98959088
_symmetry_Int_Tables_number   1
_chemical_formula_structural   Ba6Ce3DyO14
_chemical_formula_sum   'Ba6 Ce3 Dy1 O14'
_cell_volume   445.72857160
_cell_formula_units_Z   1
loop_
 _symmetry_equiv_pos_site_id
 _symmetry_equiv_pos_as_xyz
  1  'x, y, z'
loop_
 _atom_site_type_symbol
 _atom_site_label
 _atom_site_symmetry_multiplicity
 _atom_site_fract_x
 _atom_site_fract_y
 _atom_site_fract_z
 _atom_site_occupancy
  Ba  Ba0  1  0.050183  0.423350  0.750000  1
  Ba  Ba1  1  0.580284  0.952950  0.250000  1
  Ba  Ba2  1  0.951635  0.574398  0.250000  1
  Ba  Ba3  1  0.424606  0.048764  0.750000  1
  Ba  Ba4  1  0.758943  0.762976  0.250000  1
  Ba  Ba5  1  0.236821  0.241601  0.750000  1
  Ce  Ce6  1  0.646925  0.845989  0.750000  1
  Ce  Ce7  1  0.846408  0.647452  0.750000  1
  Ce  Ce8  1  0.352213  0.155223  0.250000  1
  Dy  Dy9  1  0.153542  0.352334  0.250000  1
  O  O10  1  0.913610  0.081589  0.998787  1
  O  O11  1  0.913610  0.081589  0.501213  1
  O  O12  1  0.386194  0.614776  0.501936  1
  O  O13  1  0.386194  0.614776  0.998064  1
  O  O14  1  0.981201  0.378252  0.250000  1
  O  O15  1  0.621405  0.016990  0.750000  1
  O  O16  1  0.379263  0.985692  0.250000  1
  O  O17  1  0.017661  0.622928  0.750000  1
  O  O18  1  0.615706  0.384030  0.999844  1
  O  O19  1  0.615706  0.384030  0.500156  1
  O  O20  1  0.083464  0.916669  0.500196  1
  O  O21  1  0.083464  0.916669  0.999804  1
  O  O22  1  0.672347  0.671090  0.750000  1
  O  O23  1  0.328614  0.325883  0.250000  1
