# generated using pymatgen
data_Y9TmPt18
_symmetry_space_group_name_H-M   'P 1'
_cell_length_a   9.78774907
_cell_length_b   9.78774907
_cell_length_c   5.78057700
_cell_angle_alpha   90.00000000
_cell_angle_beta   90.00000000
_cell_angle_gamma   89.92542225
_symmetry_Int_Tables_number   1
_chemical_formula_structural   Y9TmPt18
_chemical_formula_sum   'Y9 Tm1 Pt18'
_cell_volume   553.77899196
_cell_formula_units_Z   1
loop_
 _symmetry_equiv_pos_site_id
 _symmetry_equiv_pos_as_xyz
  1  'x, y, z'
loop_
 _atom_site_type_symbol
 _atom_site_label
 _atom_site_symmetry_multiplicity
 _atom_site_fract_x
 _atom_site_fract_y
 _atom_site_fract_z
 _atom_site_occupancy
  Y  Y0  1  0.452456  0.808932  0.000000  1
  Y  Y1  1  0.547544  0.191068  0.000000  1
  Y  Y2  1  0.191068  0.547544  0.000000  1
  Y  Y3  1  0.808932  0.452456  0.000000  1
  Y  Y4  1  0.500000  0.500000  0.500000  1
  Y  Y5  1  0.308769  0.047540  0.500000  1
  Y  Y6  1  0.691231  0.952460  0.500000  1
  Y  Y7  1  0.952460  0.691231  0.500000  1
  Y  Y8  1  0.047540  0.308769  0.500000  1
  Tm  Tm9  1  0.000000  0.000000  0.000000  1
  Pt  Pt10  1  0.191264  0.808736  0.250971  1
  Pt  Pt11  1  0.808736  0.191264  0.749029  1
  Pt  Pt12  1  0.808736  0.191264  0.250971  1
  Pt  Pt13  1  0.191264  0.808736  0.749029  1
  Pt  Pt14  1  0.440588  0.782026  0.500000  1
  Pt  Pt15  1  0.559412  0.217974  0.500000  1
  Pt  Pt16  1  0.217974  0.559412  0.500000  1
  Pt  Pt17  1  0.782026  0.440588  0.500000  1
  Pt  Pt18  1  0.308155  0.308155  0.248431  1
  Pt  Pt19  1  0.691845  0.691845  0.751569  1
  Pt  Pt20  1  0.691845  0.691845  0.248431  1
  Pt  Pt21  1  0.308155  0.308155  0.751569  1
  Pt  Pt22  1  0.280573  0.059019  0.000000  1
  Pt  Pt23  1  0.719427  0.940981  0.000000  1
  Pt  Pt24  1  0.940981  0.719427  0.000000  1
  Pt  Pt25  1  0.059019  0.280573  0.000000  1
  Pt  Pt26  1  0.000000  0.000000  0.500000  1
  Pt  Pt27  1  0.500000  0.500000  0.000000  1
