# generated using pymatgen
data_Dy2B(PtRh)3
_symmetry_space_group_name_H-M   'P 1'
_cell_length_a   5.89293439
_cell_length_b   5.89293376
_cell_length_c   5.87398031
_cell_angle_alpha   59.89320514
_cell_angle_beta   59.89321305
_cell_angle_gamma   59.99999469
_symmetry_Int_Tables_number   1
_chemical_formula_structural   Dy2B(PtRh)3
_chemical_formula_sum   'Dy2 B1 Pt3 Rh3'
_cell_volume   144.00505388
_cell_formula_units_Z   1
loop_
 _symmetry_equiv_pos_site_id
 _symmetry_equiv_pos_as_xyz
  1  'x, y, z'
loop_
 _atom_site_type_symbol
 _atom_site_label
 _atom_site_symmetry_multiplicity
 _atom_site_fract_x
 _atom_site_fract_y
 _atom_site_fract_z
 _atom_site_occupancy
  Dy  Dy0  1  0.249492  0.249492  0.251523  1
  Dy  Dy1  1  0.749661  0.749661  0.751017  1
  B  B2  1  0.003991  0.003991  0.988027  1
  Pt  Pt3  1  0.743186  0.256148  0.257482  1
  Pt  Pt4  1  0.256148  0.743186  0.257482  1
  Pt  Pt5  1  0.743185  0.743185  0.257483  1
  Rh  Rh6  1  0.255812  0.255812  0.745663  1
  Rh  Rh7  1  0.742713  0.255813  0.745662  1
  Rh  Rh8  1  0.255813  0.742713  0.745662  1
