# generated using pymatgen
data_K4NdNpI10
_symmetry_space_group_name_H-M   'P 1'
_cell_length_a   9.31749233
_cell_length_b   9.87002600
_cell_length_c   14.76301831
_cell_angle_alpha   90.00000000
_cell_angle_beta   90.18586976
_cell_angle_gamma   90.00000000
_symmetry_Int_Tables_number   1
_chemical_formula_structural   K4NdNpI10
_chemical_formula_sum   'K8 Nd2 Np2 I20'
_cell_volume   1357.65747049
_cell_formula_units_Z   2
loop_
 _symmetry_equiv_pos_site_id
 _symmetry_equiv_pos_as_xyz
  1  'x, y, z'
loop_
 _atom_site_type_symbol
 _atom_site_label
 _atom_site_symmetry_multiplicity
 _atom_site_fract_x
 _atom_site_fract_y
 _atom_site_fract_z
 _atom_site_occupancy
  K  K0  1  0.947215  0.003895  0.827614  1
  K  K1  1  0.052785  0.996105  0.172386  1
  K  K2  1  0.447765  0.996300  0.672165  1
  K  K3  1  0.052785  0.503895  0.172386  1
  K  K4  1  0.552235  0.003700  0.327835  1
  K  K5  1  0.947215  0.496105  0.827614  1
  K  K6  1  0.552235  0.496300  0.327835  1
  K  K7  1  0.447765  0.503700  0.672165  1
  Nd  Nd8  1  0.420734  0.250000  0.994783  1
  Nd  Nd9  1  0.579266  0.750000  0.005217  1
  Np  Np10  1  0.924824  0.750000  0.503972  1
  Np  Np11  1  0.075176  0.250000  0.496028  1
  I  I12  1  0.127058  0.750000  0.679304  1
  I  I13  1  0.872942  0.250000  0.320696  1
  I  I14  1  0.627302  0.250000  0.820919  1
  I  I15  1  0.372698  0.750000  0.179081  1
  I  I16  1  0.835708  0.044164  0.576891  1
  I  I17  1  0.164292  0.955836  0.423109  1
  I  I18  1  0.334259  0.954662  0.922460  1
  I  I19  1  0.164292  0.544164  0.423109  1
  I  I20  1  0.665741  0.045338  0.077540  1
  I  I21  1  0.835708  0.455836  0.576891  1
  I  I22  1  0.665741  0.454662  0.077540  1
  I  I23  1  0.334259  0.545338  0.922460  1
  I  I24  1  0.574363  0.750000  0.507647  1
  I  I25  1  0.425637  0.250000  0.492353  1
  I  I26  1  0.072550  0.250000  0.992067  1
  I  I27  1  0.927450  0.750000  0.007933  1
  I  I28  1  0.663030  0.750000  0.795768  1
  I  I29  1  0.336970  0.250000  0.204232  1
  I  I30  1  0.163300  0.250000  0.704089  1
  I  I31  1  0.836700  0.750000  0.295911  1
