# generated using pymatgen
data_Sr2NdDy(Ir2O7)2
_symmetry_space_group_name_H-M   'P 1'
_cell_length_a   7.39207383
_cell_length_b   7.39413108
_cell_length_c   7.39207544
_cell_angle_alpha   59.90367899
_cell_angle_beta   59.65590654
_cell_angle_gamma   59.90367861
_symmetry_Int_Tables_number   1
_chemical_formula_structural   Sr2NdDy(Ir2O7)2
_chemical_formula_sum   'Sr2 Nd1 Dy1 Ir4 O14'
_cell_volume   284.53269156
_cell_formula_units_Z   1
loop_
 _symmetry_equiv_pos_site_id
 _symmetry_equiv_pos_as_xyz
  1  'x, y, z'
loop_
 _atom_site_type_symbol
 _atom_site_label
 _atom_site_symmetry_multiplicity
 _atom_site_fract_x
 _atom_site_fract_y
 _atom_site_fract_z
 _atom_site_occupancy
  Sr  Sr0  1  0.625000  0.125000  0.125000  1
  Sr  Sr1  1  0.125000  0.125000  0.625000  1
  Nd  Nd2  1  0.125000  0.125000  0.125000  1
  Dy  Dy3  1  0.125000  0.625000  0.125000  1
  Ir  Ir4  1  0.125000  0.625000  0.625000  1
  Ir  Ir5  1  0.625000  0.125000  0.625000  1
  Ir  Ir6  1  0.625000  0.625000  0.125000  1
  Ir  Ir7  1  0.625000  0.625000  0.625000  1
  O  O8  1  0.714397  0.688084  0.297914  1
  O  O9  1  0.297651  0.300595  0.707357  1
  O  O10  1  0.696972  0.303683  0.696972  1
  O  O11  1  0.296999  0.697220  0.296999  1
  O  O12  1  0.297914  0.688084  0.714397  1
  O  O13  1  0.707357  0.300595  0.297651  1
  O  O14  1  0.535603  0.561916  0.952086  1
  O  O15  1  0.952349  0.949405  0.542643  1
  O  O16  1  0.553028  0.946317  0.553028  1
  O  O17  1  0.953001  0.552780  0.953001  1
  O  O18  1  0.952086  0.561916  0.535603  1
  O  O19  1  0.542643  0.949405  0.952349  1
  O  O20  1  0.237471  0.270245  0.237471  1
  O  O21  1  0.012529  0.979755  0.012529  1
