# generated using pymatgen
data_TbHo2Tm(Al3Rh)6
_symmetry_space_group_name_H-M   'P 1'
_cell_length_a   7.54462801
_cell_length_b   7.54823125
_cell_length_c   9.45848600
_cell_angle_alpha   90.00000000
_cell_angle_beta   90.00000000
_cell_angle_gamma   119.31057077
_symmetry_Int_Tables_number   1
_chemical_formula_structural   TbHo2Tm(Al3Rh)6
_chemical_formula_sum   'Tb1 Ho2 Tm1 Al18 Rh6'
_cell_volume   469.68929729
_cell_formula_units_Z   1
loop_
 _symmetry_equiv_pos_site_id
 _symmetry_equiv_pos_as_xyz
  1  'x, y, z'
loop_
 _atom_site_type_symbol
 _atom_site_label
 _atom_site_symmetry_multiplicity
 _atom_site_fract_x
 _atom_site_fract_y
 _atom_site_fract_z
 _atom_site_occupancy
  Tb  Tb0  1  0.994362  0.671667  0.250000  1
  Ho  Ho1  1  0.005515  0.327991  0.750000  1
  Ho  Ho2  1  0.671853  0.994433  0.250000  1
  Tm  Tm3  1  0.328057  0.005531  0.750000  1
  Al  Al4  1  0.128229  0.128696  0.250000  1
  Al  Al5  1  0.872031  0.872243  0.750000  1
  Al  Al6  1  0.000924  0.335156  0.074400  1
  Al  Al7  1  0.999445  0.664428  0.923648  1
  Al  Al8  1  0.999445  0.664428  0.576352  1
  Al  Al9  1  0.336106  0.001299  0.425767  1
  Al  Al10  1  0.000924  0.335156  0.425600  1
  Al  Al11  1  0.663890  0.999354  0.575412  1
  Al  Al12  1  0.663890  0.999354  0.924588  1
  Al  Al13  1  0.336106  0.001299  0.074233  1
  Al  Al14  1  0.332830  0.332564  0.551380  1
  Al  Al15  1  0.666742  0.667152  0.451151  1
  Al  Al16  1  0.666742  0.667152  0.048849  1
  Al  Al17  1  0.332830  0.332564  0.948620  1
  Al  Al18  1  0.340222  0.550359  0.250000  1
  Al  Al19  1  0.659973  0.449365  0.750000  1
  Al  Al20  1  0.549667  0.338600  0.250000  1
  Al  Al21  1  0.449897  0.660942  0.750000  1
  Rh  Rh22  1  0.671889  0.327684  0.999452  1
  Rh  Rh23  1  0.327731  0.672014  0.999494  1
  Rh  Rh24  1  0.327731  0.672014  0.500506  1
  Rh  Rh25  1  0.671889  0.327684  0.500548  1
  Rh  Rh26  1  0.000538  0.000435  0.999203  1
  Rh  Rh27  1  0.000538  0.000435  0.500797  1
