# generated using pymatgen
data_NaNdSc3Ni9As7
_symmetry_space_group_name_H-M   'P 1'
_cell_length_a   9.71906900
_cell_length_b   9.71906905
_cell_length_c   3.91294200
_cell_angle_alpha   90.00000000
_cell_angle_beta   90.00000000
_cell_angle_gamma   119.99999643
_symmetry_Int_Tables_number   1
_chemical_formula_structural   NaNdSc3Ni9As7
_chemical_formula_sum   'Na1 Nd1 Sc3 Ni9 As7'
_cell_volume   320.09831707
_cell_formula_units_Z   1
loop_
 _symmetry_equiv_pos_site_id
 _symmetry_equiv_pos_as_xyz
  1  'x, y, z'
loop_
 _atom_site_type_symbol
 _atom_site_label
 _atom_site_symmetry_multiplicity
 _atom_site_fract_x
 _atom_site_fract_y
 _atom_site_fract_z
 _atom_site_occupancy
  Na  Na0  1  0.666667  0.333333  0.500000  1
  Nd  Nd1  1  0.333333  0.666667  0.000000  1
  Sc  Sc2  1  0.232022  0.115517  0.500000  1
  Sc  Sc3  1  0.884483  0.116504  0.500000  1
  Sc  Sc4  1  0.883496  0.767978  0.500000  1
  Ni  Ni5  1  0.125501  0.284359  0.000000  1
  Ni  Ni6  1  0.715641  0.841143  0.000000  1
  Ni  Ni7  1  0.158857  0.874499  0.000000  1
  Ni  Ni8  1  0.417296  0.358210  0.000000  1
  Ni  Ni9  1  0.641790  0.059088  0.000000  1
  Ni  Ni10  1  0.940912  0.582704  0.000000  1
  Ni  Ni11  1  0.048739  0.441016  0.500000  1
  Ni  Ni12  1  0.558984  0.607723  0.500000  1
  Ni  Ni13  1  0.392277  0.951261  0.500000  1
  As  As14  1  0.285087  0.411375  0.500000  1
  As  As15  1  0.588625  0.873713  0.500000  1
  As  As16  1  0.126287  0.714913  0.500000  1
  As  As17  1  0.427319  0.108428  0.000000  1
  As  As18  1  0.891572  0.318891  0.000000  1
  As  As19  1  0.681109  0.572681  0.000000  1
  As  As20  1  0.000000  0.000000  0.000000  1
