# generated using pymatgen
data_TbDy11Ni5Sn
_symmetry_space_group_name_H-M   'P 1'
_cell_length_a   8.34225660
_cell_length_b   8.34551048
_cell_length_c   8.34551082
_cell_angle_alpha   107.24817719
_cell_angle_beta   109.61825936
_cell_angle_gamma   111.59301523
_symmetry_Int_Tables_number   1
_chemical_formula_structural   TbDy11Ni5Sn
_chemical_formula_sum   'Tb1 Dy11 Ni5 Sn1'
_cell_volume   446.53225345
_cell_formula_units_Z   1
loop_
 _symmetry_equiv_pos_site_id
 _symmetry_equiv_pos_as_xyz
  1  'x, y, z'
loop_
 _atom_site_type_symbol
 _atom_site_label
 _atom_site_symmetry_multiplicity
 _atom_site_fract_x
 _atom_site_fract_y
 _atom_site_fract_z
 _atom_site_occupancy
  Tb  Tb0  1  0.477779  0.296497  0.181283  1
  Dy  Dy1  1  0.114948  0.297200  0.817747  1
  Dy  Dy2  1  0.885597  0.703678  0.181920  1
  Dy  Dy3  1  0.522120  0.703698  0.818422  1
  Dy  Dy4  1  0.306671  0.628720  0.322219  1
  Dy  Dy5  1  0.306671  0.984453  0.677951  1
  Dy  Dy6  1  0.692945  0.370284  0.677656  1
  Dy  Dy7  1  0.692945  0.015288  0.322660  1
  Dy  Dy8  1  0.190734  0.209833  0.401132  1
  Dy  Dy9  1  0.810022  0.791267  0.600743  1
  Dy  Dy10  1  0.190734  0.789602  0.980901  1
  Dy  Dy11  1  0.810022  0.209278  0.018756  1
  Ni  Ni12  1  0.499479  0.625295  0.123294  1
  Ni  Ni13  1  0.499479  0.376186  0.874185  1
  Ni  Ni14  1  0.363780  0.998083  0.365698  1
  Ni  Ni15  1  0.633559  0.999043  0.634516  1
  Ni  Ni16  1  0.002764  0.001726  0.001038  1
  Sn  Sn17  1  0.999750  0.499871  0.499880  1
