# generated using pymatgen
data_CaTbTaIr3
_symmetry_space_group_name_H-M   'P 1'
_cell_length_a   5.25736158
_cell_length_b   5.67864463
_cell_length_c   5.67864500
_cell_angle_alpha   59.99999202
_cell_angle_beta   57.31185828
_cell_angle_gamma   57.31185736
_symmetry_Int_Tables_number   1
_chemical_formula_structural   CaTbTaIr3
_chemical_formula_sum   'Ca1 Tb1 Ta1 Ir3'
_cell_volume   114.77457433
_cell_formula_units_Z   1
loop_
 _symmetry_equiv_pos_site_id
 _symmetry_equiv_pos_as_xyz
  1  'x, y, z'
loop_
 _atom_site_type_symbol
 _atom_site_label
 _atom_site_symmetry_multiplicity
 _atom_site_fract_x
 _atom_site_fract_y
 _atom_site_fract_z
 _atom_site_occupancy
  Ca  Ca0  1  0.749461  0.750180  0.750180  1
  Tb  Tb1  1  0.500855  0.499715  0.499715  1
  Ta  Ta2  1  0.622811  0.125730  0.125730  1
  Ir  Ir3  1  0.125624  0.625979  0.124198  1
  Ir  Ir4  1  0.125624  0.124198  0.625979  1
  Ir  Ir5  1  0.125624  0.124198  0.124198  1
