# generated using pymatgen
data_Na2Mg3Cu9As7
_symmetry_space_group_name_H-M   'P 1'
_cell_length_a   9.99538500
_cell_length_b   9.99538633
_cell_length_c   3.99481400
_cell_angle_alpha   90.00000000
_cell_angle_beta   90.00000000
_cell_angle_gamma   119.99999980
_symmetry_Int_Tables_number   1
_chemical_formula_structural   Na2Mg3Cu9As7
_chemical_formula_sum   'Na2 Mg3 Cu9 As7'
_cell_volume   345.64183908
_cell_formula_units_Z   1
loop_
 _symmetry_equiv_pos_site_id
 _symmetry_equiv_pos_as_xyz
  1  'x, y, z'
loop_
 _atom_site_type_symbol
 _atom_site_label
 _atom_site_symmetry_multiplicity
 _atom_site_fract_x
 _atom_site_fract_y
 _atom_site_fract_z
 _atom_site_occupancy
  Na  Na0  1  0.333333  0.666667  0.000000  1
  Na  Na1  1  0.666667  0.333333  0.500000  1
  Mg  Mg2  1  0.228045  0.120428  0.500000  1
  Mg  Mg3  1  0.879572  0.107617  0.500000  1
  Mg  Mg4  1  0.892383  0.771955  0.500000  1
  Cu  Cu5  1  0.127808  0.288279  0.000000  1
  Cu  Cu6  1  0.711721  0.839529  0.000000  1
  Cu  Cu7  1  0.160471  0.872192  0.000000  1
  Cu  Cu8  1  0.422380  0.366024  0.000000  1
  Cu  Cu9  1  0.633976  0.056357  0.000000  1
  Cu  Cu10  1  0.943643  0.577620  0.000000  1
  Cu  Cu11  1  0.051777  0.430337  0.500000  1
  Cu  Cu12  1  0.569663  0.621439  0.500000  1
  Cu  Cu13  1  0.378561  0.948223  0.500000  1
  As  As14  1  0.295473  0.420917  0.500000  1
  As  As15  1  0.579083  0.874556  0.500000  1
  As  As16  1  0.125444  0.704527  0.500000  1
  As  As17  1  0.423930  0.115026  0.000000  1
  As  As18  1  0.884974  0.308905  0.000000  1
  As  As19  1  0.691095  0.576070  0.000000  1
  As  As20  1  0.000000  0.000000  0.000000  1
