# generated using pymatgen
data_NdY4(MnB3)2
_symmetry_space_group_name_H-M   'P 1'
_cell_length_a   5.44897921
_cell_length_b   5.44897936
_cell_length_c   8.32964783
_cell_angle_alpha   70.90814927
_cell_angle_beta   70.90814898
_cell_angle_gamma   60.00001829
_symmetry_Int_Tables_number   1
_chemical_formula_structural   NdY4(MnB3)2
_chemical_formula_sum   'Nd1 Y4 Mn2 B6'
_cell_volume   198.32070025
_cell_formula_units_Z   1
loop_
 _symmetry_equiv_pos_site_id
 _symmetry_equiv_pos_as_xyz
  1  'x, y, z'
loop_
 _atom_site_type_symbol
 _atom_site_label
 _atom_site_symmetry_multiplicity
 _atom_site_fract_x
 _atom_site_fract_y
 _atom_site_fract_z
 _atom_site_occupancy
  Nd  Nd0  1  0.000000  0.000000  0.000000  1
  Y  Y1  1  0.250181  0.250181  0.249456  1
  Y  Y2  1  0.749819  0.749819  0.750544  1
  Y  Y3  1  0.417393  0.417393  0.747821  1
  Y  Y4  1  0.582607  0.582607  0.252179  1
  Mn  Mn5  1  0.115132  0.115132  0.654604  1
  Mn  Mn6  1  0.884868  0.884868  0.345396  1
  B  B7  1  0.166004  0.833996  0.500000  1
  B  B8  1  0.833996  0.500000  0.500000  1
  B  B9  1  0.500000  0.166004  0.500000  1
  B  B10  1  0.166004  0.500000  0.500000  1
  B  B11  1  0.500000  0.833996  0.500000  1
  B  B12  1  0.833996  0.166004  0.500000  1
