# generated using pymatgen
data_Yb6PuReO12
_symmetry_space_group_name_H-M   'P 1'
_cell_length_a   6.49814001
_cell_length_b   6.49813922
_cell_length_c   6.49813900
_cell_angle_alpha   91.93958557
_cell_angle_beta   91.93959416
_cell_angle_gamma   91.93960146
_symmetry_Int_Tables_number   1
_chemical_formula_structural   Yb6PuReO12
_chemical_formula_sum   'Yb6 Pu1 Re1 O12'
_cell_volume   273.90668899
_cell_formula_units_Z   1
loop_
 _symmetry_equiv_pos_site_id
 _symmetry_equiv_pos_as_xyz
  1  'x, y, z'
loop_
 _atom_site_type_symbol
 _atom_site_label
 _atom_site_symmetry_multiplicity
 _atom_site_fract_x
 _atom_site_fract_y
 _atom_site_fract_z
 _atom_site_occupancy
  Yb  Yb0  1  0.931481  0.435977  0.744301  1
  Yb  Yb1  1  0.744301  0.931481  0.435977  1
  Yb  Yb2  1  0.564023  0.255699  0.068519  1
  Yb  Yb3  1  0.435977  0.744301  0.931481  1
  Yb  Yb4  1  0.255699  0.068519  0.564023  1
  Yb  Yb5  1  0.068519  0.564023  0.255699  1
  Pu  Pu6  1  0.000000  0.000000  0.000000  1
  Re  Re7  1  0.500000  0.500000  0.500000  1
  O  O8  1  0.917517  0.304087  0.069590  1
  O  O9  1  0.930410  0.082483  0.695913  1
  O  O10  1  0.781000  0.577139  0.453882  1
  O  O11  1  0.695913  0.930410  0.082483  1
  O  O12  1  0.577139  0.453882  0.781000  1
  O  O13  1  0.546118  0.219000  0.422861  1
  O  O14  1  0.453882  0.781000  0.577139  1
  O  O15  1  0.422861  0.546118  0.219000  1
  O  O16  1  0.304087  0.069590  0.917517  1
  O  O17  1  0.219000  0.422861  0.546118  1
  O  O18  1  0.069590  0.917517  0.304087  1
  O  O19  1  0.082483  0.695913  0.930410  1
