# generated using pymatgen
data_Sr3Pb5
_symmetry_space_group_name_H-M   'P 1'
_cell_length_a   7.00936115
_cell_length_b   7.00936070
_cell_length_c   11.44031300
_cell_angle_alpha   90.00000000
_cell_angle_beta   90.00000000
_cell_angle_gamma   101.48842058
_symmetry_Int_Tables_number   1
_chemical_formula_structural   Sr3Pb5
_chemical_formula_sum   'Sr6 Pb10'
_cell_volume   550.81442779
_cell_formula_units_Z   2
loop_
 _symmetry_equiv_pos_site_id
 _symmetry_equiv_pos_as_xyz
  1  'x, y, z'
loop_
 _atom_site_type_symbol
 _atom_site_label
 _atom_site_symmetry_multiplicity
 _atom_site_fract_x
 _atom_site_fract_y
 _atom_site_fract_z
 _atom_site_occupancy
  Sr  Sr0  1  0.296655  0.703345  0.000000  1
  Sr  Sr1  1  0.296655  0.703345  0.500000  1
  Sr  Sr2  1  0.703345  0.296655  0.000000  1
  Sr  Sr3  1  0.703345  0.296655  0.500000  1
  Sr  Sr4  1  0.873318  0.873318  0.250000  1
  Sr  Sr5  1  0.126682  0.126682  0.750000  1
  Pb  Pb6  1  0.191683  0.191683  0.048421  1
  Pb  Pb7  1  0.808317  0.808317  0.951579  1
  Pb  Pb8  1  0.191683  0.191683  0.451579  1
  Pb  Pb9  1  0.808317  0.808317  0.548421  1
  Pb  Pb10  1  0.420025  0.997593  0.250000  1
  Pb  Pb11  1  0.002407  0.579975  0.750000  1
  Pb  Pb12  1  0.579975  0.002407  0.750000  1
  Pb  Pb13  1  0.997593  0.420025  0.250000  1
  Pb  Pb14  1  0.470204  0.470204  0.250000  1
  Pb  Pb15  1  0.529796  0.529796  0.750000  1
