# generated using pymatgen
data_Nd4DyIr2Rh
_symmetry_space_group_name_H-M   'P 1'
_cell_length_a   11.17892700
_cell_length_b   11.17892700
_cell_length_c   6.58373700
_cell_angle_alpha   90.00000000
_cell_angle_beta   90.00000000
_cell_angle_gamma   90.00000000
_symmetry_Int_Tables_number   1
_chemical_formula_structural   Nd4DyIr2Rh
_chemical_formula_sum   'Nd16 Dy4 Ir8 Rh4'
_cell_volume   822.75913732
_cell_formula_units_Z   4
loop_
 _symmetry_equiv_pos_site_id
 _symmetry_equiv_pos_as_xyz
  1  'x, y, z'
loop_
 _atom_site_type_symbol
 _atom_site_label
 _atom_site_symmetry_multiplicity
 _atom_site_fract_x
 _atom_site_fract_y
 _atom_site_fract_z
 _atom_site_occupancy
  Nd  Nd0  1  0.288869  0.088502  0.383615  1
  Nd  Nd1  1  0.288869  0.911498  0.883615  1
  Nd  Nd2  1  0.711131  0.088502  0.883615  1
  Nd  Nd3  1  0.711131  0.911498  0.383615  1
  Nd  Nd4  1  0.588502  0.788869  0.883615  1
  Nd  Nd5  1  0.588502  0.211131  0.383615  1
  Nd  Nd6  1  0.411498  0.788869  0.383615  1
  Nd  Nd7  1  0.411498  0.211131  0.883615  1
  Nd  Nd8  1  0.211131  0.411498  0.616385  1
  Nd  Nd9  1  0.211131  0.588502  0.116385  1
  Nd  Nd10  1  0.788869  0.411498  0.116385  1
  Nd  Nd11  1  0.788869  0.588502  0.616385  1
  Nd  Nd12  1  0.911498  0.711131  0.116385  1
  Nd  Nd13  1  0.911498  0.288869  0.616385  1
  Nd  Nd14  1  0.088502  0.711131  0.616385  1
  Nd  Nd15  1  0.088502  0.288869  0.116385  1
  Dy  Dy16  1  0.000000  0.000000  0.500000  1
  Dy  Dy17  1  0.000000  0.000000  0.000000  1
  Dy  Dy18  1  0.500000  0.500000  0.000000  1
  Dy  Dy19  1  0.500000  0.500000  0.500000  1
  Ir  Ir20  1  0.850843  0.149157  0.250000  1
  Ir  Ir21  1  0.850843  0.850843  0.750000  1
  Ir  Ir22  1  0.149157  0.149157  0.750000  1
  Ir  Ir23  1  0.149157  0.850843  0.250000  1
  Ir  Ir24  1  0.649157  0.350843  0.750000  1
  Ir  Ir25  1  0.649157  0.649157  0.250000  1
  Ir  Ir26  1  0.350843  0.350843  0.250000  1
  Ir  Ir27  1  0.350843  0.649157  0.750000  1
  Rh  Rh28  1  0.500000  0.000000  0.121076  1
  Rh  Rh29  1  0.500000  0.000000  0.621076  1
  Rh  Rh30  1  0.000000  0.500000  0.878924  1
  Rh  Rh31  1  0.000000  0.500000  0.378924  1
