# generated using pymatgen
data_Nd4Al4Ir3Pt
_symmetry_space_group_name_H-M   'P 1'
_cell_length_a   4.37949600
_cell_length_b   7.07066008
_cell_length_c   8.03655504
_cell_angle_alpha   89.98580129
_cell_angle_beta   90.00000000
_cell_angle_gamma   90.00000000
_symmetry_Int_Tables_number   1
_chemical_formula_structural   Nd4Al4Ir3Pt
_chemical_formula_sum   'Nd4 Al4 Ir3 Pt1'
_cell_volume   248.85937330
_cell_formula_units_Z   1
loop_
 _symmetry_equiv_pos_site_id
 _symmetry_equiv_pos_as_xyz
  1  'x, y, z'
loop_
 _atom_site_type_symbol
 _atom_site_label
 _atom_site_symmetry_multiplicity
 _atom_site_fract_x
 _atom_site_fract_y
 _atom_site_fract_z
 _atom_site_occupancy
  Nd  Nd0  1  0.750000  0.466698  0.182263  1
  Nd  Nd1  1  0.250000  0.029303  0.682203  1
  Nd  Nd2  1  0.750000  0.972546  0.320771  1
  Nd  Nd3  1  0.250000  0.526520  0.814992  1
  Al  Al4  1  0.750000  0.861724  0.934000  1
  Al  Al5  1  0.250000  0.637937  0.438910  1
  Al  Al6  1  0.750000  0.360226  0.563818  1
  Al  Al7  1  0.250000  0.144127  0.063926  1
  Ir  Ir8  1  0.750000  0.724896  0.615530  1
  Ir  Ir9  1  0.750000  0.224199  0.885306  1
  Ir  Ir10  1  0.250000  0.274629  0.383819  1
  Pt  Pt11  1  0.250000  0.777195  0.114462  1
