# generated using pymatgen
data_ErCu2AgPt2
_symmetry_space_group_name_H-M   'P 1'
_cell_length_a   5.02529104
_cell_length_b   5.17232684
_cell_length_c   5.17232788
_cell_angle_alpha   63.97044329
_cell_angle_beta   60.93600606
_cell_angle_gamma   60.93600156
_symmetry_Int_Tables_number   1
_chemical_formula_structural   ErCu2AgPt2
_chemical_formula_sum   'Er1 Cu2 Ag1 Pt2'
_cell_volume   99.02845794
_cell_formula_units_Z   1
loop_
 _symmetry_equiv_pos_site_id
 _symmetry_equiv_pos_as_xyz
  1  'x, y, z'
loop_
 _atom_site_type_symbol
 _atom_site_label
 _atom_site_symmetry_multiplicity
 _atom_site_fract_x
 _atom_site_fract_y
 _atom_site_fract_z
 _atom_site_occupancy
  Er  Er0  1  0.994880  0.005120  0.005120  1
  Cu  Cu1  1  0.128581  0.620749  0.620749  1
  Cu  Cu2  1  0.629921  0.620749  0.620749  1
  Ag  Ag3  1  0.242854  0.257146  0.257146  1
  Pt  Pt4  1  0.626881  0.623286  0.122950  1
  Pt  Pt5  1  0.626881  0.122950  0.623286  1
