# generated using pymatgen
data_Cs5Rb4GaBi4
_symmetry_space_group_name_H-M   'P 1'
_cell_length_a   11.47138458
_cell_length_b   11.48454414
_cell_length_c   12.13292132
_cell_angle_alpha   89.99999911
_cell_angle_beta   90.06969141
_cell_angle_gamma   120.03794967
_symmetry_Int_Tables_number   1
_chemical_formula_structural   Cs5Rb4GaBi4
_chemical_formula_sum   'Cs10 Rb8 Ga2 Bi8'
_cell_volume   1383.75429372
_cell_formula_units_Z   2
loop_
 _symmetry_equiv_pos_site_id
 _symmetry_equiv_pos_as_xyz
  1  'x, y, z'
loop_
 _atom_site_type_symbol
 _atom_site_label
 _atom_site_symmetry_multiplicity
 _atom_site_fract_x
 _atom_site_fract_y
 _atom_site_fract_z
 _atom_site_occupancy
  Cs  Cs0  1  0.208775  0.417735  0.540746  1
  Cs  Cs1  1  0.791424  0.209097  0.040649  1
  Cs  Cs2  1  0.417567  0.208784  0.040446  1
  Cs  Cs3  1  0.582029  0.791013  0.540494  1
  Cs  Cs4  1  0.208775  0.791038  0.540746  1
  Cs  Cs5  1  0.791155  0.582306  0.459428  1
  Cs  Cs6  1  0.791155  0.208851  0.459428  1
  Cs  Cs7  1  0.791424  0.582329  0.040649  1
  Cs  Cs8  1  0.417768  0.208885  0.459475  1
  Cs  Cs9  1  0.581786  0.790892  0.959510  1
  Rb  Rb10  1  0.208645  0.417530  0.959121  1
  Rb  Rb11  1  0.208645  0.791113  0.959121  1
  Rb  Rb12  1  0.119375  0.238125  0.249395  1
  Rb  Rb13  1  0.881088  0.118769  0.750112  1
  Rb  Rb14  1  0.237310  0.118655  0.750299  1
  Rb  Rb15  1  0.762366  0.881183  0.250256  1
  Rb  Rb16  1  0.119375  0.881249  0.249395  1
  Rb  Rb17  1  0.881088  0.762319  0.750112  1
  Ga  Ga18  1  0.333298  0.666649  0.250031  1
  Ga  Ga19  1  0.666028  0.333014  0.750755  1
  Bi  Bi20  1  0.474452  0.525121  0.249920  1
  Bi  Bi21  1  0.951176  0.475589  0.749891  1
  Bi  Bi22  1  0.524770  0.049616  0.750033  1
  Bi  Bi23  1  0.474452  0.949330  0.249920  1
  Bi  Bi24  1  0.050512  0.525255  0.250015  1
  Bi  Bi25  1  0.524770  0.475155  0.750033  1
  Bi  Bi26  1  0.000975  0.000488  0.999855  1
  Bi  Bi27  1  0.999820  0.999909  0.500166  1
