# generated using pymatgen
data_NdEr3(WN3)4
_symmetry_space_group_name_H-M   'P 1'
_cell_length_a   7.31740152
_cell_length_b   7.31740120
_cell_length_c   6.26337640
_cell_angle_alpha   74.31350482
_cell_angle_beta   74.31351551
_cell_angle_gamma   82.14215402
_symmetry_Int_Tables_number   1
_chemical_formula_structural   NdEr3(WN3)4
_chemical_formula_sum   'Nd1 Er3 W4 N12'
_cell_volume   310.11950222
_cell_formula_units_Z   1
loop_
 _symmetry_equiv_pos_site_id
 _symmetry_equiv_pos_as_xyz
  1  'x, y, z'
loop_
 _atom_site_type_symbol
 _atom_site_label
 _atom_site_symmetry_multiplicity
 _atom_site_fract_x
 _atom_site_fract_y
 _atom_site_fract_z
 _atom_site_occupancy
  Nd  Nd0  1  0.704046  0.295954  0.750000  1
  Er  Er1  1  0.091076  0.908924  0.750000  1
  Er  Er2  1  0.290182  0.709818  0.250000  1
  Er  Er3  1  0.913936  0.086064  0.250000  1
  W  W4  1  0.379268  0.199578  0.239320  1
  W  W5  1  0.618013  0.800097  0.765034  1
  W  W6  1  0.800422  0.620732  0.260680  1
  W  W7  1  0.199903  0.381987  0.734966  1
  N  N8  1  0.623948  0.109809  0.168381  1
  N  N9  1  0.354202  0.363578  0.444187  1
  N  N10  1  0.007059  0.212667  0.851470  1
  N  N11  1  0.374170  0.892654  0.842238  1
  N  N12  1  0.787333  0.992941  0.648530  1
  N  N13  1  0.107346  0.625830  0.657762  1
  N  N14  1  0.890191  0.376052  0.331619  1
  N  N15  1  0.645989  0.644892  0.549546  1
  N  N16  1  0.636422  0.645798  0.055813  1
  N  N17  1  0.355108  0.354011  0.950454  1
  N  N18  1  0.002379  0.780996  0.149704  1
  N  N19  1  0.219004  0.997621  0.350296  1
