# generated using pymatgen
data_TbHo15(AlRu)4
_symmetry_space_group_name_H-M   'P 1'
_cell_length_a   9.48360042
_cell_length_b   9.48360016
_cell_length_c   9.50503500
_cell_angle_alpha   59.92520845
_cell_angle_beta   59.92520935
_cell_angle_gamma   59.78684698
_symmetry_Int_Tables_number   1
_chemical_formula_structural   TbHo15(AlRu)4
_chemical_formula_sum   'Tb1 Ho15 Al4 Ru4'
_cell_volume   602.82382678
_cell_formula_units_Z   1
loop_
 _symmetry_equiv_pos_site_id
 _symmetry_equiv_pos_as_xyz
  1  'x, y, z'
loop_
 _atom_site_type_symbol
 _atom_site_label
 _atom_site_symmetry_multiplicity
 _atom_site_fract_x
 _atom_site_fract_y
 _atom_site_fract_z
 _atom_site_occupancy
  Tb  Tb0  1  0.438229  0.438229  0.061771  1
  Ho  Ho1  1  0.648994  0.648994  0.052476  1
  Ho  Ho2  1  0.194460  0.807140  0.193887  1
  Ho  Ho3  1  0.060190  0.439513  0.059540  1
  Ho  Ho4  1  0.194460  0.807140  0.804512  1
  Ho  Ho5  1  0.060190  0.439513  0.440757  1
  Ho  Ho6  1  0.807140  0.194460  0.193887  1
  Ho  Ho7  1  0.648994  0.648994  0.649536  1
  Ho  Ho8  1  0.807140  0.194460  0.804512  1
  Ho  Ho9  1  0.194406  0.194406  0.805594  1
  Ho  Ho10  1  0.052845  0.648466  0.649345  1
  Ho  Ho11  1  0.439513  0.060190  0.059540  1
  Ho  Ho12  1  0.059393  0.059393  0.440607  1
  Ho  Ho13  1  0.648466  0.052845  0.649345  1
  Ho  Ho14  1  0.805597  0.805597  0.194403  1
  Ho  Ho15  1  0.439513  0.060190  0.440757  1
  Al  Al16  1  0.423504  0.423504  0.423280  1
  Al  Al17  1  0.423504  0.423504  0.729715  1
  Al  Al18  1  0.423536  0.730789  0.422838  1
  Al  Al19  1  0.730789  0.423536  0.422838  1
  Ru  Ru20  1  0.420078  0.859693  0.860114  1
  Ru  Ru21  1  0.859683  0.859683  0.861284  1
  Ru  Ru22  1  0.859693  0.420078  0.860114  1
  Ru  Ru23  1  0.859683  0.859683  0.419350  1
