# generated using pymatgen
data_Zr12TaSn3(Rh2N)4
_symmetry_space_group_name_H-M   'P 1'
_cell_length_a   8.71634904
_cell_length_b   8.77237866
_cell_length_c   8.71634900
_cell_angle_alpha   60.21106186
_cell_angle_beta   60.00000396
_cell_angle_gamma   60.21105621
_symmetry_Int_Tables_number   1
_chemical_formula_structural   Zr12TaSn3(Rh2N)4
_chemical_formula_sum   'Zr12 Ta1 Sn3 Rh8 N4'
_cell_volume   472.76980892
_cell_formula_units_Z   1
loop_
 _symmetry_equiv_pos_site_id
 _symmetry_equiv_pos_as_xyz
  1  'x, y, z'
loop_
 _atom_site_type_symbol
 _atom_site_label
 _atom_site_symmetry_multiplicity
 _atom_site_fract_x
 _atom_site_fract_y
 _atom_site_fract_z
 _atom_site_occupancy
  Zr  Zr0  1  0.813415  0.816723  0.184931  1
  Zr  Zr1  1  0.184712  0.189239  0.813025  1
  Zr  Zr2  1  0.813025  0.189239  0.813025  1
  Zr  Zr3  1  0.184931  0.816723  0.184931  1
  Zr  Zr4  1  0.184931  0.816723  0.813415  1
  Zr  Zr5  1  0.813025  0.189239  0.184712  1
  Zr  Zr6  1  0.436585  0.433277  0.065069  1
  Zr  Zr7  1  0.065288  0.060761  0.436975  1
  Zr  Zr8  1  0.436975  0.060761  0.436975  1
  Zr  Zr9  1  0.065069  0.433277  0.065069  1
  Zr  Zr10  1  0.065069  0.433277  0.436585  1
  Zr  Zr11  1  0.436975  0.060761  0.065288  1
  Ta  Ta12  1  0.625000  0.125000  0.625000  1
  Sn  Sn13  1  0.125000  0.625000  0.625000  1
  Sn  Sn14  1  0.625000  0.625000  0.125000  1
  Sn  Sn15  1  0.625000  0.625000  0.625000  1
  Rh  Rh16  1  0.767327  0.394733  0.418969  1
  Rh  Rh17  1  0.408616  0.774150  0.408616  1
  Rh  Rh18  1  0.418969  0.394733  0.767327  1
  Rh  Rh19  1  0.418969  0.394733  0.418969  1
  Rh  Rh20  1  0.482673  0.855267  0.831031  1
  Rh  Rh21  1  0.841384  0.475850  0.841384  1
  Rh  Rh22  1  0.831031  0.855267  0.482673  1
  Rh  Rh23  1  0.831031  0.855267  0.831031  1
  N  N24  1  0.625000  0.125000  0.125000  1
  N  N25  1  0.125000  0.625000  0.125000  1
  N  N26  1  0.125000  0.125000  0.625000  1
  N  N27  1  0.125000  0.125000  0.125000  1
