# generated using pymatgen
data_YHo19(Ir2Os)4
_symmetry_space_group_name_H-M   'P 1'
_cell_length_a   10.80944053
_cell_length_b   10.80799507
_cell_length_c   6.38617727
_cell_angle_alpha   89.99994844
_cell_angle_beta   90.03358207
_cell_angle_gamma   89.98727258
_symmetry_Int_Tables_number   1
_chemical_formula_structural   YHo19(Ir2Os)4
_chemical_formula_sum   'Y1 Ho19 Ir8 Os4'
_cell_volume   746.08659834
_cell_formula_units_Z   1
loop_
 _symmetry_equiv_pos_site_id
 _symmetry_equiv_pos_as_xyz
  1  'x, y, z'
loop_
 _atom_site_type_symbol
 _atom_site_label
 _atom_site_symmetry_multiplicity
 _atom_site_fract_x
 _atom_site_fract_y
 _atom_site_fract_z
 _atom_site_occupancy
  Y  Y0  1  0.293086  0.086327  0.376143  1
  Ho  Ho1  1  0.293871  0.913715  0.876741  1
  Ho  Ho2  1  0.706336  0.086297  0.876551  1
  Ho  Ho3  1  0.706270  0.913971  0.376755  1
  Ho  Ho4  1  0.586055  0.793586  0.876689  1
  Ho  Ho5  1  0.586263  0.206322  0.376743  1
  Ho  Ho6  1  0.414074  0.793541  0.376702  1
  Ho  Ho7  1  0.414100  0.206271  0.876822  1
  Ho  Ho8  1  0.206278  0.413992  0.623320  1
  Ho  Ho9  1  0.206318  0.586081  0.123302  1
  Ho  Ho10  1  0.793696  0.413932  0.123323  1
  Ho  Ho11  1  0.793763  0.586096  0.623219  1
  Ho  Ho12  1  0.913884  0.706187  0.123242  1
  Ho  Ho13  1  0.913852  0.293692  0.623251  1
  Ho  Ho14  1  0.086161  0.706260  0.623284  1
  Ho  Ho15  1  0.085772  0.294018  0.123055  1
  Ho  Ho16  1  0.999740  0.999942  0.499983  1
  Ho  Ho17  1  0.999937  0.999935  0.000124  1
  Ho  Ho18  1  0.500037  0.500022  0.999932  1
  Ho  Ho19  1  0.500085  0.499997  0.500150  1
  Ir  Ir20  1  0.847811  0.152105  0.249998  1
  Ir  Ir21  1  0.847762  0.847818  0.750018  1
  Ir  Ir22  1  0.151746  0.152382  0.751290  1
  Ir  Ir23  1  0.151815  0.847335  0.249724  1
  Ir  Ir24  1  0.652221  0.347839  0.750018  1
  Ir  Ir25  1  0.652072  0.652085  0.250060  1
  Ir  Ir26  1  0.347931  0.348673  0.249489  1
  Ir  Ir27  1  0.347799  0.652113  0.749983  1
  Os  Os28  1  0.500565  0.999692  0.122135  1
  Os  Os29  1  0.500697  0.999694  0.623871  1
  Os  Os30  1  0.999995  0.500009  0.876894  1
  Os  Os31  1  0.000006  0.500070  0.377189  1
