# generated using pymatgen
data_Nd3Pu(SbAu)4
_symmetry_space_group_name_H-M   'P 1'
_cell_length_a   4.66372400
_cell_length_b   4.66372497
_cell_length_c   16.53450500
_cell_angle_alpha   90.00000000
_cell_angle_beta   90.00000000
_cell_angle_gamma   120.00000732
_symmetry_Int_Tables_number   1
_chemical_formula_structural   Nd3Pu(SbAu)4
_chemical_formula_sum   'Nd3 Pu1 Sb4 Au4'
_cell_volume   311.44945074
_cell_formula_units_Z   1
loop_
 _symmetry_equiv_pos_site_id
 _symmetry_equiv_pos_as_xyz
  1  'x, y, z'
loop_
 _atom_site_type_symbol
 _atom_site_label
 _atom_site_symmetry_multiplicity
 _atom_site_fract_x
 _atom_site_fract_y
 _atom_site_fract_z
 _atom_site_occupancy
  Nd  Nd0  1  0.000000  0.000000  0.000000  1
  Nd  Nd1  1  0.000000  0.000000  0.251841  1
  Nd  Nd2  1  0.000000  0.000000  0.748159  1
  Pu  Pu3  1  0.000000  0.000000  0.500000  1
  Sb  Sb4  1  0.333333  0.666667  0.395667  1
  Sb  Sb5  1  0.666667  0.333333  0.604333  1
  Sb  Sb6  1  0.666667  0.333333  0.889856  1
  Sb  Sb7  1  0.333333  0.666667  0.110144  1
  Au  Au8  1  0.666667  0.333333  0.341870  1
  Au  Au9  1  0.333333  0.666667  0.658130  1
  Au  Au10  1  0.333333  0.666667  0.839167  1
  Au  Au11  1  0.666667  0.333333  0.160833  1
