# generated using pymatgen
data_Nb6Fe2(SiNi2)7
_symmetry_space_group_name_H-M   'P 1'
_cell_length_a   7.96537888
_cell_length_b   7.96524495
_cell_length_c   7.96537900
_cell_angle_alpha   60.00055145
_cell_angle_beta   59.99759805
_cell_angle_gamma   60.00055495
_symmetry_Int_Tables_number   1
_chemical_formula_structural   Nb6Fe2(SiNi2)7
_chemical_formula_sum   'Nb6 Fe2 Si7 Ni14'
_cell_volume   357.34916223
_cell_formula_units_Z   1
loop_
 _symmetry_equiv_pos_site_id
 _symmetry_equiv_pos_as_xyz
  1  'x, y, z'
loop_
 _atom_site_type_symbol
 _atom_site_label
 _atom_site_symmetry_multiplicity
 _atom_site_fract_x
 _atom_site_fract_y
 _atom_site_fract_z
 _atom_site_occupancy
  Nb  Nb0  1  0.791780  0.806184  0.198357  1
  Nb  Nb1  1  0.798223  0.201777  0.798223  1
  Nb  Nb2  1  0.200980  0.799020  0.200980  1
  Nb  Nb3  1  0.791780  0.203679  0.198357  1
  Nb  Nb4  1  0.198357  0.806184  0.791780  1
  Nb  Nb5  1  0.198357  0.203679  0.791780  1
  Fe  Fe6  1  0.164748  0.159918  0.515417  1
  Fe  Fe7  1  0.515417  0.159918  0.164748  1
  Si  Si8  1  0.501744  0.498256  0.501744  1
  Si  Si9  1  0.502806  0.997194  0.502806  1
  Si  Si10  1  0.001520  0.498480  0.001520  1
  Si  Si11  1  0.997483  0.002378  0.498523  1
  Si  Si12  1  0.498523  0.002378  0.997483  1
  Si  Si13  1  0.997483  0.501616  0.498523  1
  Si  Si14  1  0.498523  0.501616  0.997483  1
  Ni  Ni15  1  0.168953  0.168050  0.168953  1
  Ni  Ni16  1  0.502159  0.830653  0.836534  1
  Ni  Ni17  1  0.832377  0.827735  0.832377  1
  Ni  Ni18  1  0.836534  0.830653  0.502159  1
  Ni  Ni19  1  0.168953  0.494044  0.168953  1
  Ni  Ni20  1  0.617279  0.147072  0.617279  1
  Ni  Ni21  1  0.383129  0.382304  0.852263  1
  Ni  Ni22  1  0.852263  0.382304  0.383129  1
  Ni  Ni23  1  0.381415  0.383972  0.381415  1
  Ni  Ni24  1  0.151462  0.615930  0.616677  1
  Ni  Ni25  1  0.617279  0.618370  0.617279  1
  Ni  Ni26  1  0.616677  0.615930  0.151462  1
  Ni  Ni27  1  0.381415  0.853197  0.381415  1
  Ni  Ni28  1  0.832377  0.507510  0.832377  1
