# generated using pymatgen
data_La3TbGa2Rh3
_symmetry_space_group_name_H-M   'P 1'
_cell_length_a   7.47468300
_cell_length_b   7.58781270
_cell_length_c   4.17888500
_cell_angle_alpha   90.00000000
_cell_angle_beta   90.00000000
_cell_angle_gamma   119.50801897
_symmetry_Int_Tables_number   1
_chemical_formula_structural   La3TbGa2Rh3
_chemical_formula_sum   'La3 Tb1 Ga2 Rh3'
_cell_volume   206.26815407
_cell_formula_units_Z   1
loop_
 _symmetry_equiv_pos_site_id
 _symmetry_equiv_pos_as_xyz
  1  'x, y, z'
loop_
 _atom_site_type_symbol
 _atom_site_label
 _atom_site_symmetry_multiplicity
 _atom_site_fract_x
 _atom_site_fract_y
 _atom_site_fract_z
 _atom_site_occupancy
  La  La0  1  0.616696  0.000000  0.500000  1
  La  La1  1  0.424466  0.449236  0.500000  1
  La  La2  1  0.975231  0.550764  0.500000  1
  Tb  Tb3  1  0.231879  0.000000  0.000000  1
  Ga  Ga4  1  0.758990  0.753246  0.000000  1
  Ga  Ga5  1  0.005744  0.246754  0.000000  1
  Rh  Rh6  1  0.979125  0.000000  0.500000  1
  Rh  Rh7  1  0.335254  0.662642  0.000000  1
  Rh  Rh8  1  0.672614  0.337358  0.000000  1
