# generated using pymatgen
data_Tb3Pr2P12Ru15Rh4
_symmetry_space_group_name_H-M   'P 1'
_cell_length_a   3.99856700
_cell_length_b   12.59885865
_cell_length_c   12.61452912
_cell_angle_alpha   119.75043630
_cell_angle_beta   90.00000000
_cell_angle_gamma   90.00000000
_symmetry_Int_Tables_number   1
_chemical_formula_structural   Tb3Pr2P12Ru15Rh4
_chemical_formula_sum   'Tb3 Pr2 P12 Ru15 Rh4'
_cell_volume   551.72660000
_cell_formula_units_Z   1
loop_
 _symmetry_equiv_pos_site_id
 _symmetry_equiv_pos_as_xyz
  1  'x, y, z'
loop_
 _atom_site_type_symbol
 _atom_site_label
 _atom_site_symmetry_multiplicity
 _atom_site_fract_x
 _atom_site_fract_y
 _atom_site_fract_z
 _atom_site_occupancy
  Tb  Tb0  1  0.500000  0.816547  0.816241  1
  Tb  Tb1  1  0.000000  0.334367  0.667766  1
  Tb  Tb2  1  0.000000  0.666675  0.333454  1
  Pr  Pr3  1  0.500000  0.998704  0.182102  1
  Pr  Pr4  1  0.500000  0.182990  0.998120  1
  P  P5  1  0.000000  0.997080  0.810127  1
  P  P6  1  0.000000  0.810927  0.997683  1
  P  P7  1  0.000000  0.187534  0.185108  1
  P  P8  1  0.500000  0.308204  0.482558  1
  P  P9  1  0.500000  0.177040  0.697464  1
  P  P10  1  0.500000  0.521374  0.824460  1
  P  P11  1  0.500000  0.822606  0.520463  1
  P  P12  1  0.500000  0.479459  0.303051  1
  P  P13  1  0.500000  0.697752  0.177165  1
  P  P14  1  0.000000  0.996092  0.371343  1
  P  P15  1  0.000000  0.372169  0.000150  1
  P  P16  1  0.000000  0.629517  0.629679  1
  Ru  Ru17  1  0.500000  0.998318  0.710860  1
  Ru  Ru18  1  0.500000  0.711823  0.999110  1
  Ru  Ru19  1  0.500000  0.287430  0.289304  1
  Ru  Ru20  1  0.000000  0.185053  0.804182  1
  Ru  Ru21  1  0.000000  0.621638  0.814308  1
  Ru  Ru22  1  0.000000  0.813328  0.619603  1
  Ru  Ru23  1  0.000000  0.380772  0.196514  1
  Ru  Ru24  1  0.000000  0.803631  0.184525  1
  Ru  Ru25  1  0.500000  0.127767  0.493784  1
  Ru  Ru26  1  0.500000  0.368747  0.875701  1
  Ru  Ru27  1  0.500000  0.509649  0.634464  1
  Ru  Ru28  1  0.500000  0.630961  0.506717  1
  Ru  Ru29  1  0.500000  0.493703  0.125057  1
  Ru  Ru30  1  0.500000  0.876789  0.369393  1
  Ru  Ru31  1  0.000000  0.997358  0.997084  1
  Rh  Rh32  1  0.000000  0.002147  0.554031  1
  Rh  Rh33  1  0.000000  0.552787  0.999463  1
  Rh  Rh34  1  0.000000  0.446277  0.449755  1
  Rh  Rh35  1  0.000000  0.192683  0.379217  1
