# generated using pymatgen
data_La5Pr11Mg3HgIr4
_symmetry_space_group_name_H-M   'P 1'
_cell_length_a   10.05308688
_cell_length_b   10.08273183
_cell_length_c   10.08273192
_cell_angle_alpha   60.18775805
_cell_angle_beta   60.44017828
_cell_angle_gamma   60.44017890
_symmetry_Int_Tables_number   1
_chemical_formula_structural   La5Pr11Mg3HgIr4
_chemical_formula_sum   'La5 Pr11 Mg3 Hg1 Ir4'
_cell_volume   728.48246825
_cell_formula_units_Z   1
loop_
 _symmetry_equiv_pos_site_id
 _symmetry_equiv_pos_as_xyz
  1  'x, y, z'
loop_
 _atom_site_type_symbol
 _atom_site_label
 _atom_site_symmetry_multiplicity
 _atom_site_fract_x
 _atom_site_fract_y
 _atom_site_fract_z
 _atom_site_occupancy
  La  La0  1  0.344852  0.346490  0.346490  1
  La  La1  1  0.347121  0.346655  0.959974  1
  La  La2  1  0.347121  0.959974  0.346655  1
  La  La3  1  0.958550  0.347775  0.347775  1
  La  La4  1  0.813585  0.186022  0.186022  1
  Pr  Pr5  1  0.188681  0.809755  0.809755  1
  Pr  Pr6  1  0.189399  0.810113  0.187778  1
  Pr  Pr7  1  0.809473  0.189095  0.807865  1
  Pr  Pr8  1  0.189399  0.187778  0.810113  1
  Pr  Pr9  1  0.809473  0.807865  0.189095  1
  Pr  Pr10  1  0.936620  0.561912  0.561912  1
  Pr  Pr11  1  0.561032  0.937017  0.937017  1
  Pr  Pr12  1  0.561336  0.936497  0.562147  1
  Pr  Pr13  1  0.937854  0.561397  0.937223  1
  Pr  Pr14  1  0.561336  0.562147  0.936497  1
  Pr  Pr15  1  0.937854  0.937223  0.561397  1
  Mg  Mg16  1  0.578378  0.580593  0.266489  1
  Mg  Mg17  1  0.578378  0.266489  0.580593  1
  Mg  Mg18  1  0.266589  0.579266  0.579266  1
  Hg  Hg19  1  0.582215  0.582174  0.582174  1
  Ir  Ir20  1  0.137308  0.143708  0.143708  1
  Ir  Ir21  1  0.143807  0.142658  0.573052  1
  Ir  Ir22  1  0.143807  0.573052  0.142658  1
  Ir  Ir23  1  0.575833  0.144346  0.144346  1
