# generated using pymatgen
data_ThNi5H7
_symmetry_space_group_name_H-M   'P 1'
_cell_length_a   5.29164400
_cell_length_b   5.29164389
_cell_length_c   8.66104600
_cell_angle_alpha   90.00000000
_cell_angle_beta   90.00000000
_cell_angle_gamma   120.00000071
_symmetry_Int_Tables_number   1
_chemical_formula_structural   ThNi5H7
_chemical_formula_sum   'Th2 Ni10 H14'
_cell_volume   210.03042072
_cell_formula_units_Z   2
loop_
 _symmetry_equiv_pos_site_id
 _symmetry_equiv_pos_as_xyz
  1  'x, y, z'
loop_
 _atom_site_type_symbol
 _atom_site_label
 _atom_site_symmetry_multiplicity
 _atom_site_fract_x
 _atom_site_fract_y
 _atom_site_fract_z
 _atom_site_occupancy
  Th  Th0  1  0.000000  0.000000  0.477645  1
  Th  Th1  1  0.000000  0.000000  0.977645  1
  Ni  Ni2  1  0.497644  0.502356  0.247971  1
  Ni  Ni3  1  0.004711  0.502356  0.247971  1
  Ni  Ni4  1  0.497644  0.995289  0.247971  1
  Ni  Ni5  1  0.502356  0.497644  0.747971  1
  Ni  Ni6  1  0.995289  0.497644  0.747971  1
  Ni  Ni7  1  0.502356  0.004711  0.747971  1
  Ni  Ni8  1  0.333333  0.666667  0.499762  1
  Ni  Ni9  1  0.666667  0.333333  0.999762  1
  Ni  Ni10  1  0.333333  0.666667  0.013708  1
  Ni  Ni11  1  0.666667  0.333333  0.513708  1
  H  H12  1  0.503991  0.496009  0.438756  1
  H  H13  1  0.992019  0.496009  0.438756  1
  H  H14  1  0.503991  0.007981  0.438756  1
  H  H15  1  0.496009  0.503991  0.938756  1
  H  H16  1  0.007981  0.503991  0.938756  1
  H  H17  1  0.496009  0.992019  0.938756  1
  H  H18  1  0.333333  0.666667  0.685834  1
  H  H19  1  0.666667  0.333333  0.185834  1
  H  H20  1  0.143470  0.856530  0.225923  1
  H  H21  1  0.713060  0.856530  0.225923  1
  H  H22  1  0.143470  0.286940  0.225923  1
  H  H23  1  0.856530  0.143470  0.725923  1
  H  H24  1  0.286940  0.143470  0.725923  1
  H  H25  1  0.856530  0.713060  0.725923  1
