# generated using pymatgen
data_Zr2MnBe2Rh5
_symmetry_space_group_name_H-M   'P 1'
_cell_length_a   9.36922900
_cell_length_b   9.36922900
_cell_length_c   3.25844600
_cell_angle_alpha   90.00000000
_cell_angle_beta   90.00000000
_cell_angle_gamma   90.00000000
_symmetry_Int_Tables_number   1
_chemical_formula_structural   Zr2MnBe2Rh5
_chemical_formula_sum   'Zr4 Mn2 Be4 Rh10'
_cell_volume   286.03437977
_cell_formula_units_Z   2
loop_
 _symmetry_equiv_pos_site_id
 _symmetry_equiv_pos_as_xyz
  1  'x, y, z'
loop_
 _atom_site_type_symbol
 _atom_site_label
 _atom_site_symmetry_multiplicity
 _atom_site_fract_x
 _atom_site_fract_y
 _atom_site_fract_z
 _atom_site_occupancy
  Zr  Zr0  1  0.823834  0.323834  0.000000  1
  Zr  Zr1  1  0.323834  0.176166  0.000000  1
  Zr  Zr2  1  0.676166  0.823834  0.000000  1
  Zr  Zr3  1  0.176166  0.676166  0.000000  1
  Mn  Mn4  1  0.000000  0.000000  0.000000  1
  Mn  Mn5  1  0.500000  0.500000  0.000000  1
  Be  Be6  1  0.622277  0.122277  0.000000  1
  Be  Be7  1  0.122277  0.377723  0.000000  1
  Be  Be8  1  0.877723  0.622277  0.000000  1
  Be  Be9  1  0.377723  0.877723  0.000000  1
  Rh  Rh10  1  0.070654  0.211949  0.500000  1
  Rh  Rh11  1  0.211949  0.929346  0.500000  1
  Rh  Rh12  1  0.788051  0.070654  0.500000  1
  Rh  Rh13  1  0.929346  0.788051  0.500000  1
  Rh  Rh14  1  0.429346  0.711949  0.500000  1
  Rh  Rh15  1  0.570654  0.288051  0.500000  1
  Rh  Rh16  1  0.711949  0.570654  0.500000  1
  Rh  Rh17  1  0.288051  0.429346  0.500000  1
  Rh  Rh18  1  0.500000  0.000000  0.500000  1
  Rh  Rh19  1  0.000000  0.500000  0.500000  1
