# generated using pymatgen
data_Sr2Cd2CuAgSn4
_symmetry_space_group_name_H-M   'P 1'
_cell_length_a   4.60673200
_cell_length_b   4.60673200
_cell_length_c   12.32035500
_cell_angle_alpha   90.00000000
_cell_angle_beta   90.00000000
_cell_angle_gamma   90.00000000
_symmetry_Int_Tables_number   1
_chemical_formula_structural   Sr2Cd2CuAgSn4
_chemical_formula_sum   'Sr2 Cd2 Cu1 Ag1 Sn4'
_cell_volume   261.46232395
_cell_formula_units_Z   1
loop_
 _symmetry_equiv_pos_site_id
 _symmetry_equiv_pos_as_xyz
  1  'x, y, z'
loop_
 _atom_site_type_symbol
 _atom_site_label
 _atom_site_symmetry_multiplicity
 _atom_site_fract_x
 _atom_site_fract_y
 _atom_site_fract_z
 _atom_site_occupancy
  Sr  Sr0  1  0.000000  0.500000  0.243588  1
  Sr  Sr1  1  0.500000  0.000000  0.754960  1
  Cd  Cd2  1  0.000000  0.000000  0.496003  1
  Cd  Cd3  1  0.500000  0.500000  0.496003  1
  Cu  Cu4  1  0.500000  0.000000  0.133969  1
  Ag  Ag5  1  0.000000  0.500000  0.865337  1
  Sn  Sn6  1  0.000000  0.000000  0.010568  1
  Sn  Sn7  1  0.500000  0.500000  0.010568  1
  Sn  Sn8  1  0.000000  0.500000  0.644836  1
  Sn  Sn9  1  0.500000  0.000000  0.344168  1
