# generated using pymatgen
data_Tb4SmEr11(In3Co)2
_symmetry_space_group_name_H-M   'P 1'
_cell_length_a   10.34404802
_cell_length_b   10.33083738
_cell_length_c   7.01977505
_cell_angle_alpha   89.99203067
_cell_angle_beta   90.00217330
_cell_angle_gamma   119.99128343
_symmetry_Int_Tables_number   1
_chemical_formula_structural   Tb4SmEr11(In3Co)2
_chemical_formula_sum   'Tb4 Sm1 Er11 In6 Co2'
_cell_volume   649.70770253
_cell_formula_units_Z   1
loop_
 _symmetry_equiv_pos_site_id
 _symmetry_equiv_pos_as_xyz
  1  'x, y, z'
loop_
 _atom_site_type_symbol
 _atom_site_label
 _atom_site_symmetry_multiplicity
 _atom_site_fract_x
 _atom_site_fract_y
 _atom_site_fract_z
 _atom_site_occupancy
  Tb  Tb0  1  0.535121  0.070347  0.790700  1
  Tb  Tb1  1  0.928796  0.464446  0.789653  1
  Tb  Tb2  1  0.534763  0.465152  0.791504  1
  Tb  Tb3  1  0.465030  0.929854  0.290810  1
  Sm  Sm4  1  0.069617  0.534727  0.289566  1
  Er  Er5  1  0.464601  0.535595  0.291871  1
  Er  Er6  1  0.821119  0.645158  0.497885  1
  Er  Er7  1  0.355524  0.178363  0.497570  1
  Er  Er8  1  0.822260  0.176395  0.498525  1
  Er  Er9  1  0.178179  0.354763  0.998050  1
  Er  Er10  1  0.644959  0.822001  0.999046  1
  Er  Er11  1  0.177863  0.823014  0.997246  1
  Er  Er12  1  0.665724  0.333369  0.185802  1
  Er  Er13  1  0.334370  0.666625  0.685818  1
  Er  Er14  1  0.000331  0.999686  0.778338  1
  Er  Er15  1  0.999971  0.000097  0.278204  1
  In  In16  1  0.837484  0.674830  0.039921  1
  In  In17  1  0.325238  0.162927  0.041608  1
  In  In18  1  0.837632  0.162851  0.040405  1
  In  In19  1  0.163263  0.325059  0.540819  1
  In  In20  1  0.673896  0.836603  0.541335  1
  In  In21  1  0.162039  0.837978  0.542434  1
  Co  Co22  1  0.666373  0.333284  0.564370  1
  Co  Co23  1  0.335846  0.666876  0.064425  1
