# generated using pymatgen
data_Ho3Tm2(GaSb)2
_symmetry_space_group_name_H-M   'P 1'
_cell_length_a   8.55007701
_cell_length_b   8.54997344
_cell_length_c   7.84508700
_cell_angle_alpha   90.00270062
_cell_angle_beta   89.99757417
_cell_angle_gamma   125.40660494
_symmetry_Int_Tables_number   1
_chemical_formula_structural   Ho3Tm2(GaSb)2
_chemical_formula_sum   'Ho6 Tm4 Ga4 Sb4'
_cell_volume   467.43655739
_cell_formula_units_Z   2
loop_
 _symmetry_equiv_pos_site_id
 _symmetry_equiv_pos_as_xyz
  1  'x, y, z'
loop_
 _atom_site_type_symbol
 _atom_site_label
 _atom_site_symmetry_multiplicity
 _atom_site_fract_x
 _atom_site_fract_y
 _atom_site_fract_z
 _atom_site_occupancy
  Ho  Ho0  1  0.539166  0.799005  0.167588  1
  Ho  Ho1  1  0.299003  0.039163  0.332415  1
  Ho  Ho2  1  0.201154  0.460828  0.832331  1
  Ho  Ho3  1  0.960821  0.701146  0.667664  1
  Ho  Ho4  1  0.701175  0.961032  0.667408  1
  Ho  Ho5  1  0.461032  0.201173  0.832598  1
  Tm  Tm6  1  0.797998  0.539225  0.167069  1
  Tm  Tm7  1  0.039231  0.298010  0.332930  1
  Tm  Tm8  1  0.499922  0.499842  0.499404  1
  Tm  Tm9  1  0.999846  0.999924  0.000590  1
  Ga  Ga10  1  0.626574  0.626401  0.874201  1
  Ga  Ga11  1  0.126409  0.126580  0.625806  1
  Ga  Ga12  1  0.873758  0.873684  0.373469  1
  Ga  Ga13  1  0.373686  0.373761  0.126530  1
  Sb  Sb14  1  0.293923  0.704627  0.499583  1
  Sb  Sb15  1  0.204623  0.793920  0.000421  1
  Sb  Sb16  1  0.706532  0.295143  0.498940  1
  Sb  Sb17  1  0.795148  0.206535  0.001058  1
