# generated using pymatgen
data_Zr4Fe2NiOs5
_symmetry_space_group_name_H-M   'P 1'
_cell_length_a   5.12074671
_cell_length_b   5.12074648
_cell_length_c   8.51433700
_cell_angle_alpha   90.00000000
_cell_angle_beta   90.00000000
_cell_angle_gamma   120.20744244
_symmetry_Int_Tables_number   1
_chemical_formula_structural   Zr4Fe2NiOs5
_chemical_formula_sum   'Zr4 Fe2 Ni1 Os5'
_cell_volume   192.94628408
_cell_formula_units_Z   1
loop_
 _symmetry_equiv_pos_site_id
 _symmetry_equiv_pos_as_xyz
  1  'x, y, z'
loop_
 _atom_site_type_symbol
 _atom_site_label
 _atom_site_symmetry_multiplicity
 _atom_site_fract_x
 _atom_site_fract_y
 _atom_site_fract_z
 _atom_site_occupancy
  Zr  Zr0  1  0.670698  0.329302  0.684313  1
  Zr  Zr1  1  0.335741  0.664259  0.813647  1
  Zr  Zr2  1  0.335741  0.664259  0.186353  1
  Zr  Zr3  1  0.670698  0.329302  0.315687  1
  Fe  Fe4  1  0.655857  0.825359  0.500000  1
  Fe  Fe5  1  0.174641  0.344143  0.500000  1
  Ni  Ni6  1  0.827886  0.172114  0.000000  1
  Os  Os7  1  0.171969  0.828031  0.500000  1
  Os  Os8  1  0.338570  0.174422  0.000000  1
  Os  Os9  1  0.825578  0.661430  0.000000  1
  Os  Os10  1  0.996285  0.003715  0.252951  1
  Os  Os11  1  0.996285  0.003715  0.747049  1
