# generated using pymatgen
data_VGaRh3S8
_symmetry_space_group_name_H-M   'P 1'
_cell_length_a   6.83679178
_cell_length_b   6.83679296
_cell_length_c   6.83679178
_cell_angle_alpha   62.83428482
_cell_angle_beta   62.83428321
_cell_angle_gamma   62.83427748
_symmetry_Int_Tables_number   1
_chemical_formula_structural   VGaRh3S8
_chemical_formula_sum   'V1 Ga1 Rh3 S8'
_cell_volume   240.20198540
_cell_formula_units_Z   1
loop_
 _symmetry_equiv_pos_site_id
 _symmetry_equiv_pos_as_xyz
  1  'x, y, z'
loop_
 _atom_site_type_symbol
 _atom_site_label
 _atom_site_symmetry_multiplicity
 _atom_site_fract_x
 _atom_site_fract_y
 _atom_site_fract_z
 _atom_site_occupancy
  V  V0  1  0.408642  0.408642  0.408642  1
  Ga  Ga1  1  0.988904  0.988904  0.988904  1
  Rh  Rh2  1  0.857744  0.374628  0.374628  1
  Rh  Rh3  1  0.374628  0.857744  0.374628  1
  Rh  Rh4  1  0.374628  0.374628  0.857744  1
  S  S5  1  0.130757  0.130757  0.130757  1
  S  S6  1  0.581134  0.144011  0.144011  1
  S  S7  1  0.144011  0.581134  0.144011  1
  S  S8  1  0.144011  0.144011  0.581134  1
  S  S9  1  0.612205  0.612205  0.612205  1
  S  S10  1  0.128470  0.627434  0.627434  1
  S  S11  1  0.627434  0.128470  0.627434  1
  S  S12  1  0.627434  0.627434  0.128470  1
