# generated using pymatgen
data_Tm2Sc4MnSb2
_symmetry_space_group_name_H-M   'P 1'
_cell_length_a   7.70794368
_cell_length_b   7.70794390
_cell_length_c   4.11200200
_cell_angle_alpha   90.00000000
_cell_angle_beta   90.00000000
_cell_angle_gamma   119.68199415
_symmetry_Int_Tables_number   1
_chemical_formula_structural   Tm2Sc4MnSb2
_chemical_formula_sum   'Tm2 Sc4 Mn1 Sb2'
_cell_volume   212.24809271
_cell_formula_units_Z   1
loop_
 _symmetry_equiv_pos_site_id
 _symmetry_equiv_pos_as_xyz
  1  'x, y, z'
loop_
 _atom_site_type_symbol
 _atom_site_label
 _atom_site_symmetry_multiplicity
 _atom_site_fract_x
 _atom_site_fract_y
 _atom_site_fract_z
 _atom_site_occupancy
  Tm  Tm0  1  0.393712  0.000794  0.000000  1
  Tm  Tm1  1  0.000794  0.393713  0.000000  1
  Sc  Sc2  1  0.610589  0.610589  0.000000  1
  Sc  Sc3  1  0.768352  0.997211  0.500000  1
  Sc  Sc4  1  0.229072  0.229073  0.500000  1
  Sc  Sc5  1  0.997211  0.768352  0.500000  1
  Mn  Mn6  1  0.996470  0.996470  0.000000  1
  Sb  Sb7  1  0.664819  0.338977  0.500000  1
  Sb  Sb8  1  0.338977  0.664819  0.500000  1
