# generated using pymatgen
data_Hf18Ti2Fe2Mo5Pd
_symmetry_space_group_name_H-M   'P 1'
_cell_length_a   8.42246900
_cell_length_b   8.68885279
_cell_length_c   8.68805000
_cell_angle_alpha   119.99706875
_cell_angle_beta   90.00000000
_cell_angle_gamma   90.00000000
_symmetry_Int_Tables_number   1
_chemical_formula_structural   Hf18Ti2Fe2Mo5Pd
_chemical_formula_sum   'Hf18 Ti2 Fe2 Mo5 Pd1'
_cell_volume   550.63984096
_cell_formula_units_Z   1
loop_
 _symmetry_equiv_pos_site_id
 _symmetry_equiv_pos_as_xyz
  1  'x, y, z'
loop_
 _atom_site_type_symbol
 _atom_site_label
 _atom_site_symmetry_multiplicity
 _atom_site_fract_x
 _atom_site_fract_y
 _atom_site_fract_z
 _atom_site_occupancy
  Hf  Hf0  1  0.558598  0.797766  0.596603  1
  Hf  Hf1  1  0.558592  0.797763  0.201162  1
  Hf  Hf2  1  0.562744  0.408585  0.204293  1
  Hf  Hf3  1  0.441650  0.201892  0.406510  1
  Hf  Hf4  1  0.441657  0.201895  0.795377  1
  Hf  Hf5  1  0.441215  0.594855  0.797426  1
  Hf  Hf6  1  0.058350  0.201892  0.406510  1
  Hf  Hf7  1  0.058343  0.201895  0.795377  1
  Hf  Hf8  1  0.058785  0.594855  0.797426  1
  Hf  Hf9  1  0.941402  0.797766  0.596603  1
  Hf  Hf10  1  0.941408  0.797763  0.201162  1
  Hf  Hf11  1  0.937256  0.408585  0.204293  1
  Hf  Hf12  1  0.750000  0.457288  0.916246  1
  Hf  Hf13  1  0.750000  0.457282  0.541046  1
  Hf  Hf14  1  0.750000  0.079960  0.539979  1
  Hf  Hf15  1  0.250000  0.546463  0.085071  1
  Hf  Hf16  1  0.250000  0.546478  0.461386  1
  Hf  Hf17  1  0.250000  0.917318  0.458659  1
  Ti  Ti18  1  0.500068  0.001346  0.000671  1
  Ti  Ti19  1  0.999932  0.001346  0.000671  1
  Fe  Fe20  1  0.750000  0.665225  0.332610  1
  Fe  Fe21  1  0.250000  0.331206  0.665614  1
  Mo  Mo22  1  0.750000  0.116527  0.228928  1
  Mo  Mo23  1  0.750000  0.116539  0.887613  1
  Mo  Mo24  1  0.750000  0.770727  0.885367  1
  Mo  Mo25  1  0.250000  0.881076  0.768670  1
  Mo  Mo26  1  0.250000  0.881081  0.112415  1
  Pd  Pd27  1  0.250000  0.224618  0.112314  1
