# generated using pymatgen
data_Sc8Co4IrRu3
_symmetry_space_group_name_H-M   'P 1'
_cell_length_a   6.32826300
_cell_length_b   4.47695200
_cell_length_c   8.97987600
_cell_angle_alpha   90.00000000
_cell_angle_beta   90.00211580
_cell_angle_gamma   90.00000000
_symmetry_Int_Tables_number   1
_chemical_formula_structural   Sc8Co4IrRu3
_chemical_formula_sum   'Sc8 Co4 Ir1 Ru3'
_cell_volume   254.41182748
_cell_formula_units_Z   1
loop_
 _symmetry_equiv_pos_site_id
 _symmetry_equiv_pos_as_xyz
  1  'x, y, z'
loop_
 _atom_site_type_symbol
 _atom_site_label
 _atom_site_symmetry_multiplicity
 _atom_site_fract_x
 _atom_site_fract_y
 _atom_site_fract_z
 _atom_site_occupancy
  Sc  Sc0  1  0.998758  0.749999  0.124976  1
  Sc  Sc1  1  0.501595  0.749999  0.125003  1
  Sc  Sc2  1  0.999901  0.249999  0.377016  1
  Sc  Sc3  1  0.500470  0.249999  0.377036  1
  Sc  Sc4  1  0.499516  0.749999  0.624987  1
  Sc  Sc5  1  0.000114  0.749999  0.625028  1
  Sc  Sc6  1  0.500111  0.249999  0.872969  1
  Sc  Sc7  1  0.999535  0.249999  0.873017  1
  Co  Co8  1  0.750120  0.249999  0.125016  1
  Co  Co9  1  0.250116  0.749999  0.374410  1
  Co  Co10  1  0.749886  0.249999  0.625014  1
  Co  Co11  1  0.249885  0.749999  0.875567  1
  Ir  Ir12  1  0.250118  0.249999  0.125011  1
  Ru  Ru13  1  0.750137  0.749999  0.374334  1
  Ru  Ru14  1  0.249881  0.249999  0.625047  1
  Ru  Ru15  1  0.749859  0.749999  0.875567  1
