# generated using pymatgen
data_Ho2Tm9ThCo4
_symmetry_space_group_name_H-M   'P 1'
_cell_length_a   6.16878738
_cell_length_b   6.87398133
_cell_length_c   9.34990600
_cell_angle_alpha   90.00000000
_cell_angle_beta   90.00000000
_cell_angle_gamma   91.05071557
_symmetry_Int_Tables_number   1
_chemical_formula_structural   Ho2Tm9ThCo4
_chemical_formula_sum   'Ho2 Tm9 Th1 Co4'
_cell_volume   396.40795807
_cell_formula_units_Z   1
loop_
 _symmetry_equiv_pos_site_id
 _symmetry_equiv_pos_as_xyz
  1  'x, y, z'
loop_
 _atom_site_type_symbol
 _atom_site_label
 _atom_site_symmetry_multiplicity
 _atom_site_fract_x
 _atom_site_fract_y
 _atom_site_fract_z
 _atom_site_occupancy
  Ho  Ho0  1  0.859519  0.957969  0.750000  1
  Ho  Ho1  1  0.642290  0.457123  0.750000  1
  Tm  Tm2  1  0.674243  0.175282  0.068050  1
  Tm  Tm3  1  0.139287  0.041632  0.250000  1
  Tm  Tm4  1  0.827524  0.675810  0.433764  1
  Tm  Tm5  1  0.323714  0.827580  0.931056  1
  Tm  Tm6  1  0.176222  0.323572  0.568551  1
  Tm  Tm7  1  0.674243  0.175282  0.431950  1
  Tm  Tm8  1  0.176222  0.323572  0.931449  1
  Tm  Tm9  1  0.323714  0.827580  0.568944  1
  Tm  Tm10  1  0.827524  0.675810  0.066236  1
  Th  Th11  1  0.348915  0.551488  0.250000  1
  Co  Co12  1  0.963038  0.388194  0.250000  1
  Co  Co13  1  0.452163  0.114027  0.750000  1
  Co  Co14  1  0.543731  0.872291  0.250000  1
  Co  Co15  1  0.047649  0.612791  0.750000  1
