# generated using pymatgen
data_LaPr3In4(Sn3Rh2)4
_symmetry_space_group_name_H-M   'P 1'
_cell_length_a   4.59307800
_cell_length_b   7.15733600
_cell_length_c   18.79055000
_cell_angle_alpha   89.99958147
_cell_angle_beta   90.00040084
_cell_angle_gamma   89.99972669
_symmetry_Int_Tables_number   1
_chemical_formula_structural   LaPr3In4(Sn3Rh2)4
_chemical_formula_sum   'La1 Pr3 In4 Sn12 Rh8'
_cell_volume   617.72434615
_cell_formula_units_Z   1
loop_
 _symmetry_equiv_pos_site_id
 _symmetry_equiv_pos_as_xyz
  1  'x, y, z'
loop_
 _atom_site_type_symbol
 _atom_site_label
 _atom_site_symmetry_multiplicity
 _atom_site_fract_x
 _atom_site_fract_y
 _atom_site_fract_z
 _atom_site_occupancy
  La  La0  1  0.749999  0.501373  0.640487  1
  Pr  Pr1  1  0.250000  0.001329  0.859425  1
  Pr  Pr2  1  0.249998  0.498703  0.359487  1
  Pr  Pr3  1  0.750002  0.998703  0.140556  1
  In  In4  1  0.250000  0.308521  0.179953  1
  In  In5  1  0.250001  0.190736  0.680030  1
  In  In6  1  0.749999  0.691530  0.820135  1
  In  In7  1  0.750000  0.808504  0.320067  1
  Sn  Sn8  1  0.249999  0.724823  0.198861  1
  Sn  Sn9  1  0.250001  0.775931  0.698910  1
  Sn  Sn10  1  0.750003  0.274843  0.801333  1
  Sn  Sn11  1  0.750002  0.224950  0.301173  1
  Sn  Sn12  1  0.250000  0.862807  0.032543  1
  Sn  Sn13  1  0.250000  0.637720  0.532352  1
  Sn  Sn14  1  0.749997  0.137185  0.967399  1
  Sn  Sn15  1  0.750001  0.362723  0.467281  1
  Sn  Sn16  1  0.249999  0.522550  0.928058  1
  Sn  Sn17  1  0.249999  0.977374  0.428096  1
  Sn  Sn18  1  0.750002  0.477520  0.071953  1
  Sn  Sn19  1  0.749998  0.022091  0.571916  1
  Rh  Rh20  1  0.250003  0.254438  0.031729  1
  Rh  Rh21  1  0.250002  0.245517  0.531677  1
  Rh  Rh22  1  0.749999  0.745575  0.968284  1
  Rh  Rh23  1  0.750000  0.754619  0.468164  1
  Rh  Rh24  1  0.250004  0.028511  0.284396  1
  Rh  Rh25  1  0.249999  0.471377  0.784514  1
  Rh  Rh26  1  0.749996  0.971511  0.715697  1
  Rh  Rh27  1  0.749999  0.528535  0.215525  1
