# generated using pymatgen
data_SrTmGaI6
_symmetry_space_group_name_H-M   'P 1'
_cell_length_a   8.78266212
_cell_length_b   8.78270195
_cell_length_c   8.78260800
_cell_angle_alpha   54.21138792
_cell_angle_beta   54.21179571
_cell_angle_gamma   54.21115795
_symmetry_Int_Tables_number   1
_chemical_formula_structural   SrTmGaI6
_chemical_formula_sum   'Sr1 Tm1 Ga1 I6'
_cell_volume   414.31313730
_cell_formula_units_Z   1
loop_
 _symmetry_equiv_pos_site_id
 _symmetry_equiv_pos_as_xyz
  1  'x, y, z'
loop_
 _atom_site_type_symbol
 _atom_site_label
 _atom_site_symmetry_multiplicity
 _atom_site_fract_x
 _atom_site_fract_y
 _atom_site_fract_z
 _atom_site_occupancy
  Sr  Sr0  1  0.330713  0.330712  0.330706  1
  Tm  Tm1  1  0.999935  0.999926  0.999948  1
  Ga  Ga2  1  0.669627  0.669627  0.669627  1
  I  I3  1  0.231074  0.618829  0.913715  1
  I  I4  1  0.618833  0.913716  0.231072  1
  I  I5  1  0.913716  0.231083  0.618823  1
  I  I6  1  0.770501  0.382356  0.083250  1
  I  I7  1  0.382353  0.083248  0.770506  1
  I  I8  1  0.083251  0.770505  0.382352  1
