# generated using pymatgen
data_Ta13Co8Re3N4
_symmetry_space_group_name_H-M   'P 1'
_cell_length_a   8.17293079
_cell_length_b   8.11352518
_cell_length_c   8.17256801
_cell_angle_alpha   59.75527206
_cell_angle_beta   59.99605041
_cell_angle_gamma   59.75591610
_symmetry_Int_Tables_number   1
_chemical_formula_structural   Ta13Co8Re3N4
_chemical_formula_sum   'Ta13 Co8 Re3 N4'
_cell_volume   381.77176101
_cell_formula_units_Z   1
loop_
 _symmetry_equiv_pos_site_id
 _symmetry_equiv_pos_as_xyz
  1  'x, y, z'
loop_
 _atom_site_type_symbol
 _atom_site_label
 _atom_site_symmetry_multiplicity
 _atom_site_fract_x
 _atom_site_fract_y
 _atom_site_fract_z
 _atom_site_occupancy
  Ta  Ta0  1  0.625000  0.125000  0.625000  1
  Ta  Ta1  1  0.807420  0.807311  0.192615  1
  Ta  Ta2  1  0.186404  0.192143  0.810714  1
  Ta  Ta3  1  0.810722  0.192128  0.810719  1
  Ta  Ta4  1  0.192635  0.807308  0.192623  1
  Ta  Ta5  1  0.192613  0.807317  0.807431  1
  Ta  Ta6  1  0.810707  0.192155  0.186417  1
  Ta  Ta7  1  0.442580  0.442689  0.057385  1
  Ta  Ta8  1  0.063596  0.057857  0.439286  1
  Ta  Ta9  1  0.439278  0.057872  0.439281  1
  Ta  Ta10  1  0.057365  0.442692  0.057377  1
  Ta  Ta11  1  0.057387  0.442683  0.442569  1
  Ta  Ta12  1  0.439293  0.057845  0.063583  1
  Co  Co13  1  0.737931  0.424140  0.418956  1
  Co  Co14  1  0.422935  0.731204  0.422918  1
  Co  Co15  1  0.418962  0.424148  0.737918  1
  Co  Co16  1  0.418977  0.424119  0.418969  1
  Co  Co17  1  0.512069  0.825860  0.831044  1
  Co  Co18  1  0.827065  0.518796  0.827082  1
  Co  Co19  1  0.831038  0.825852  0.512082  1
  Co  Co20  1  0.831023  0.825881  0.831031  1
  Re  Re21  1  0.125000  0.625000  0.625000  1
  Re  Re22  1  0.625000  0.625000  0.125000  1
  Re  Re23  1  0.625000  0.625000  0.625000  1
  N  N24  1  0.625000  0.125000  0.125000  1
  N  N25  1  0.125000  0.625000  0.125000  1
  N  N26  1  0.125000  0.125000  0.625000  1
  N  N27  1  0.125000  0.125000  0.125000  1
