# generated using pymatgen
data_Pm(SiAg)2
_symmetry_space_group_name_H-M   'P 1'
_cell_length_a   6.14553743
_cell_length_b   6.14553732
_cell_length_c   6.14553880
_cell_angle_alpha   139.84213393
_cell_angle_beta   139.84213117
_cell_angle_gamma   58.09307460
_symmetry_Int_Tables_number   1
_chemical_formula_structural   Pm(SiAg)2
_chemical_formula_sum   'Pm1 Si2 Ag2'
_cell_volume   95.66371407
_cell_formula_units_Z   1
loop_
 _symmetry_equiv_pos_site_id
 _symmetry_equiv_pos_as_xyz
  1  'x, y, z'
loop_
 _atom_site_type_symbol
 _atom_site_label
 _atom_site_symmetry_multiplicity
 _atom_site_fract_x
 _atom_site_fract_y
 _atom_site_fract_z
 _atom_site_occupancy
  Pm  Pm0  1  0.000000  0.000000  0.000000  1
  Si  Si1  1  0.392084  0.392084  0.000000  1
  Si  Si2  1  0.607915  0.607915  0.000000  1
  Ag  Ag3  1  0.750000  0.250000  0.500000  1
  Ag  Ag4  1  0.250000  0.750000  0.500000  1
