# generated using pymatgen
data_Cs3Rb2AgAs2
_symmetry_space_group_name_H-M   'P 1'
_cell_length_a   6.20864800
_cell_length_b   6.20864673
_cell_length_c   20.95947600
_cell_angle_alpha   90.00000000
_cell_angle_beta   90.00000000
_cell_angle_gamma   119.99999612
_symmetry_Int_Tables_number   1
_chemical_formula_structural   Cs3Rb2AgAs2
_chemical_formula_sum   'Cs6 Rb4 Ag2 As4'
_cell_volume   699.68901702
_cell_formula_units_Z   2
loop_
 _symmetry_equiv_pos_site_id
 _symmetry_equiv_pos_as_xyz
  1  'x, y, z'
loop_
 _atom_site_type_symbol
 _atom_site_label
 _atom_site_symmetry_multiplicity
 _atom_site_fract_x
 _atom_site_fract_y
 _atom_site_fract_z
 _atom_site_occupancy
  Cs  Cs0  1  0.333333  0.666667  0.549698  1
  Cs  Cs1  1  0.666667  0.333333  0.049698  1
  Cs  Cs2  1  0.666667  0.333333  0.450302  1
  Cs  Cs3  1  0.333333  0.666667  0.950302  1
  Cs  Cs4  1  0.333333  0.666667  0.750000  1
  Cs  Cs5  1  0.666667  0.333333  0.250000  1
  Rb  Rb6  1  0.000000  0.000000  0.147997  1
  Rb  Rb7  1  0.000000  0.000000  0.647997  1
  Rb  Rb8  1  0.000000  0.000000  0.852003  1
  Rb  Rb9  1  0.000000  0.000000  0.352003  1
  Ag  Ag10  1  0.333333  0.666667  0.250000  1
  Ag  Ag11  1  0.666667  0.333333  0.750000  1
  As  As12  1  0.333333  0.666667  0.372282  1
  As  As13  1  0.666667  0.333333  0.872282  1
  As  As14  1  0.666667  0.333333  0.627718  1
  As  As15  1  0.333333  0.666667  0.127718  1
