# generated using pymatgen
data_Gd4NiB20Ir
_symmetry_space_group_name_H-M   'P 1'
_cell_length_a   4.16537500
_cell_length_b   5.64668123
_cell_length_c   11.26282538
_cell_angle_alpha   88.91191555
_cell_angle_beta   90.00000000
_cell_angle_gamma   90.00000000
_symmetry_Int_Tables_number   1
_chemical_formula_structural   Gd4NiB20Ir
_chemical_formula_sum   'Gd4 Ni1 B20 Ir1'
_cell_volume   264.86002180
_cell_formula_units_Z   1
loop_
 _symmetry_equiv_pos_site_id
 _symmetry_equiv_pos_as_xyz
  1  'x, y, z'
loop_
 _atom_site_type_symbol
 _atom_site_label
 _atom_site_symmetry_multiplicity
 _atom_site_fract_x
 _atom_site_fract_y
 _atom_site_fract_z
 _atom_site_occupancy
  Gd  Gd0  1  0.500000  0.193576  0.366661  1
  Gd  Gd1  1  0.500000  0.806424  0.633339  1
  Gd  Gd2  1  0.500000  0.298275  0.859717  1
  Gd  Gd3  1  0.500000  0.701725  0.140283  1
  Ni  Ni4  1  0.000000  0.500000  0.500000  1
  B  B5  1  0.000000  0.381513  0.044762  1
  B  B6  1  0.000000  0.618487  0.955238  1
  B  B7  1  0.000000  0.125064  0.539337  1
  B  B8  1  0.000000  0.874936  0.460663  1
  B  B9  1  0.000000  0.355401  0.201717  1
  B  B10  1  0.000000  0.644599  0.798283  1
  B  B11  1  0.000000  0.149165  0.693662  1
  B  B12  1  0.000000  0.850835  0.306338  1
  B  B13  1  0.000000  0.045961  0.195010  1
  B  B14  1  0.000000  0.954039  0.804990  1
  B  B15  1  0.000000  0.458033  0.685364  1
  B  B16  1  0.000000  0.541967  0.314636  1
  B  B17  1  0.301176  0.214992  0.121098  1
  B  B18  1  0.698824  0.785008  0.878902  1
  B  B19  1  0.301176  0.785008  0.878902  1
  B  B20  1  0.699123  0.293218  0.612031  1
  B  B21  1  0.698824  0.214992  0.121098  1
  B  B22  1  0.300877  0.706782  0.387969  1
  B  B23  1  0.699123  0.706782  0.387969  1
  B  B24  1  0.300877  0.293218  0.612031  1
  Ir  Ir25  1  0.000000  0.000000  0.000000  1
