# generated using pymatgen
data_NpCoH6
_symmetry_space_group_name_H-M   'P 1'
_cell_length_a   4.74449620
_cell_length_b   4.74211868
_cell_length_c   4.74944185
_cell_angle_alpha   120.00564143
_cell_angle_beta   90.06024663
_cell_angle_gamma   119.91770291
_symmetry_Int_Tables_number   1
_chemical_formula_structural   NpCoH6
_chemical_formula_sum   'Np1 Co1 H6'
_cell_volume   75.60741473
_cell_formula_units_Z   1
loop_
 _symmetry_equiv_pos_site_id
 _symmetry_equiv_pos_as_xyz
  1  'x, y, z'
loop_
 _atom_site_type_symbol
 _atom_site_label
 _atom_site_symmetry_multiplicity
 _atom_site_fract_x
 _atom_site_fract_y
 _atom_site_fract_z
 _atom_site_occupancy
  Np  Np0  1  0.377543  0.033445  0.893540  1
  Co  Co1  1  0.127625  0.534577  0.144052  1
  H  H2  1  0.354628  0.527711  0.374859  1
  H  H3  1  0.896220  0.541271  0.376735  1
  H  H4  1  0.352695  0.526287  0.905243  1
  H  H5  1  0.894424  0.069605  0.911611  1
  H  H6  1  0.895761  0.542758  0.919620  1
  H  H7  1  0.370827  0.998387  0.376067  1
