# generated using pymatgen
data_Pr8HoTm7(ScSi4)4
_symmetry_space_group_name_H-M   'P 1'
_cell_length_a   7.36768944
_cell_length_b   7.72782840
_cell_length_c   14.63320531
_cell_angle_alpha   90.01270869
_cell_angle_beta   89.98010243
_cell_angle_gamma   90.03441881
_symmetry_Int_Tables_number   1
_chemical_formula_structural   Pr8HoTm7(ScSi4)4
_chemical_formula_sum   'Pr8 Ho1 Tm7 Sc4 Si16'
_cell_volume   833.15946402
_cell_formula_units_Z   1
loop_
 _symmetry_equiv_pos_site_id
 _symmetry_equiv_pos_as_xyz
  1  'x, y, z'
loop_
 _atom_site_type_symbol
 _atom_site_label
 _atom_site_symmetry_multiplicity
 _atom_site_fract_x
 _atom_site_fract_y
 _atom_site_fract_z
 _atom_site_occupancy
  Pr  Pr0  1  0.016856  0.178070  0.401509  1
  Pr  Pr1  1  0.516781  0.322109  0.401544  1
  Pr  Pr2  1  0.483079  0.677993  0.901340  1
  Pr  Pr3  1  0.483236  0.677989  0.598548  1
  Pr  Pr4  1  0.983175  0.822088  0.598531  1
  Pr  Pr5  1  0.983262  0.822058  0.901377  1
  Pr  Pr6  1  0.516762  0.321968  0.098495  1
  Pr  Pr7  1  0.016976  0.178033  0.098514  1
  Ho  Ho8  1  0.675773  0.822056  0.124888  1
  Tm  Tm9  1  0.324340  0.177573  0.625053  1
  Tm  Tm10  1  0.675698  0.822384  0.375125  1
  Tm  Tm11  1  0.175680  0.677552  0.375021  1
  Tm  Tm12  1  0.824225  0.322357  0.874907  1
  Tm  Tm13  1  0.824297  0.322379  0.625053  1
  Tm  Tm14  1  0.324289  0.177639  0.874875  1
  Tm  Tm15  1  0.175732  0.677403  0.125034  1
  Sc  Sc16  1  0.656206  0.991485  0.749987  1
  Sc  Sc17  1  0.843833  0.491110  0.250150  1
  Sc  Sc18  1  0.343472  0.008674  0.250134  1
  Sc  Sc19  1  0.156294  0.508518  0.749985  1
  Si  Si20  1  0.282414  0.876135  0.750001  1
  Si  Si21  1  0.473635  0.609477  0.250332  1
  Si  Si22  1  0.025673  0.110185  0.749987  1
  Si  Si23  1  0.525777  0.389717  0.749966  1
  Si  Si24  1  0.148910  0.466998  0.539480  1
  Si  Si25  1  0.974981  0.890004  0.250362  1
  Si  Si26  1  0.717927  0.124579  0.250267  1
  Si  Si27  1  0.851802  0.532373  0.039224  1
  Si  Si28  1  0.350257  0.967431  0.039173  1
  Si  Si29  1  0.148906  0.466900  0.960496  1
  Si  Si30  1  0.648937  0.033021  0.539481  1
  Si  Si31  1  0.351116  0.966984  0.460566  1
  Si  Si32  1  0.851054  0.533003  0.460513  1
  Si  Si33  1  0.782206  0.624012  0.749989  1
  Si  Si34  1  0.217783  0.376202  0.250040  1
  Si  Si35  1  0.648656  0.033538  0.960054  1
