# generated using pymatgen
data_Y3Er5(LuRu2)2
_symmetry_space_group_name_H-M   'P 1'
_cell_length_a   6.27117514
_cell_length_b   7.24434211
_cell_length_c   8.39736584
_cell_angle_alpha   96.94653116
_cell_angle_beta   111.92659227
_cell_angle_gamma   89.80888018
_symmetry_Int_Tables_number   1
_chemical_formula_structural   Y3Er5(LuRu2)2
_chemical_formula_sum   'Y3 Er5 Lu2 Ru4'
_cell_volume   350.94012427
_cell_formula_units_Z   1
loop_
 _symmetry_equiv_pos_site_id
 _symmetry_equiv_pos_as_xyz
  1  'x, y, z'
loop_
 _atom_site_type_symbol
 _atom_site_label
 _atom_site_symmetry_multiplicity
 _atom_site_fract_x
 _atom_site_fract_y
 _atom_site_fract_z
 _atom_site_occupancy
  Y  Y0  1  0.522674  0.082774  0.812662  1
  Y  Y1  1  0.476411  0.916906  0.186946  1
  Y  Y2  1  0.709719  0.417315  0.186873  1
  Er  Er3  1  0.291984  0.584331  0.812778  1
  Er  Er4  1  0.296330  0.315428  0.434049  1
  Er  Er5  1  0.704114  0.685254  0.566712  1
  Er  Er6  1  0.863846  0.185935  0.566515  1
  Er  Er7  1  0.136870  0.813533  0.434156  1
  Lu  Lu8  1  0.077476  0.251196  0.999587  1
  Lu  Lu9  1  0.922846  0.748726  0.999624  1
  Ru  Ru10  1  0.315918  0.574642  0.219163  1
  Ru  Ru11  1  0.679548  0.426220  0.780420  1
  Ru  Ru12  1  0.098086  0.923473  0.780189  1
  Ru  Ru13  1  0.904179  0.074267  0.220325  1
