# generated using pymatgen
data_Th14(TcPt)3
_symmetry_space_group_name_H-M   'P 1'
_cell_length_a   10.05069900
_cell_length_b   10.05069868
_cell_length_c   6.34961000
_cell_angle_alpha   90.00000000
_cell_angle_beta   90.00000000
_cell_angle_gamma   120.00000435
_symmetry_Int_Tables_number   1
_chemical_formula_structural   Th14(TcPt)3
_chemical_formula_sum   'Th14 Tc3 Pt3'
_cell_volume   555.48224719
_cell_formula_units_Z   1
loop_
 _symmetry_equiv_pos_site_id
 _symmetry_equiv_pos_as_xyz
  1  'x, y, z'
loop_
 _atom_site_type_symbol
 _atom_site_label
 _atom_site_symmetry_multiplicity
 _atom_site_fract_x
 _atom_site_fract_y
 _atom_site_fract_z
 _atom_site_occupancy
  Th  Th0  1  0.666667  0.333333  0.596839  1
  Th  Th1  1  0.333333  0.666667  0.031748  1
  Th  Th2  1  0.876168  0.752335  0.754547  1
  Th  Th3  1  0.247665  0.123832  0.754547  1
  Th  Th4  1  0.876168  0.123832  0.754547  1
  Th  Th5  1  0.127932  0.255865  0.247063  1
  Th  Th6  1  0.744135  0.872068  0.247063  1
  Th  Th7  1  0.127932  0.872068  0.247063  1
  Th  Th8  1  0.456627  0.913255  0.543995  1
  Th  Th9  1  0.086745  0.543373  0.543995  1
  Th  Th10  1  0.456627  0.543373  0.543995  1
  Th  Th11  1  0.537187  0.074372  0.033718  1
  Th  Th12  1  0.925628  0.462813  0.033718  1
  Th  Th13  1  0.537187  0.462813  0.033718  1
  Tc  Tc14  1  0.182662  0.365323  0.798776  1
  Tc  Tc15  1  0.634677  0.817338  0.798776  1
  Tc  Tc16  1  0.182662  0.817338  0.798776  1
  Pt  Pt17  1  0.809637  0.619275  0.308404  1
  Pt  Pt18  1  0.380725  0.190363  0.308404  1
  Pt  Pt19  1  0.809637  0.190363  0.308404  1
