# generated using pymatgen
data_LaNdTh2(Al3Ir)6
_symmetry_space_group_name_H-M   'P 1'
_cell_length_a   7.64861005
_cell_length_b   7.65580549
_cell_length_c   9.58105600
_cell_angle_alpha   90.00000000
_cell_angle_beta   90.00000000
_cell_angle_gamma   119.48796946
_symmetry_Int_Tables_number   1
_chemical_formula_structural   LaNdTh2(Al3Ir)6
_chemical_formula_sum   'La1 Nd1 Th2 Al18 Ir6'
_cell_volume   488.35444533
_cell_formula_units_Z   1
loop_
 _symmetry_equiv_pos_site_id
 _symmetry_equiv_pos_as_xyz
  1  'x, y, z'
loop_
 _atom_site_type_symbol
 _atom_site_label
 _atom_site_symmetry_multiplicity
 _atom_site_fract_x
 _atom_site_fract_y
 _atom_site_fract_z
 _atom_site_occupancy
  La  La0  1  0.004422  0.329681  0.750000  1
  Nd  Nd1  1  0.329402  0.005278  0.750000  1
  Th  Th2  1  0.995028  0.670751  0.250000  1
  Th  Th3  1  0.671040  0.995272  0.250000  1
  Al  Al4  1  0.134075  0.132956  0.250000  1
  Al  Al5  1  0.869969  0.869647  0.750000  1
  Al  Al6  1  0.005796  0.335471  0.073756  1
  Al  Al7  1  0.998112  0.666817  0.923685  1
  Al  Al8  1  0.998112  0.666817  0.576315  1
  Al  Al9  1  0.335152  0.004732  0.428387  1
  Al  Al10  1  0.005796  0.335471  0.426244  1
  Al  Al11  1  0.662883  0.996235  0.576361  1
  Al  Al12  1  0.662883  0.996235  0.923639  1
  Al  Al13  1  0.335152  0.004732  0.071613  1
  Al  Al14  1  0.335047  0.333933  0.550285  1
  Al  Al15  1  0.663376  0.663353  0.453651  1
  Al  Al16  1  0.663376  0.663353  0.046349  1
  Al  Al17  1  0.335047  0.333933  0.949715  1
  Al  Al18  1  0.340743  0.544095  0.250000  1
  Al  Al19  1  0.658577  0.452004  0.750000  1
  Al  Al20  1  0.544245  0.339489  0.250000  1
  Al  Al21  1  0.453126  0.660480  0.750000  1
  Ir  Ir22  1  0.672689  0.329310  0.003426  1
  Ir  Ir23  1  0.329236  0.672744  0.003245  1
  Ir  Ir24  1  0.329236  0.672744  0.496755  1
  Ir  Ir25  1  0.672689  0.329310  0.496574  1
  Ir  Ir26  1  0.997396  0.997580  0.003811  1
  Ir  Ir27  1  0.997396  0.997580  0.496189  1
