# generated using pymatgen
data_Rb4MnHgI8
_symmetry_space_group_name_H-M   'P 1'
_cell_length_a   8.50825300
_cell_length_b   8.26991296
_cell_length_c   10.30632591
_cell_angle_alpha   71.91529861
_cell_angle_beta   90.00000000
_cell_angle_gamma   90.00000000
_symmetry_Int_Tables_number   1
_chemical_formula_structural   Rb4MnHgI8
_chemical_formula_sum   'Rb4 Mn1 Hg1 I8'
_cell_volume   689.35415927
_cell_formula_units_Z   1
loop_
 _symmetry_equiv_pos_site_id
 _symmetry_equiv_pos_as_xyz
  1  'x, y, z'
loop_
 _atom_site_type_symbol
 _atom_site_label
 _atom_site_symmetry_multiplicity
 _atom_site_fract_x
 _atom_site_fract_y
 _atom_site_fract_z
 _atom_site_occupancy
  Rb  Rb0  1  0.750000  0.783871  0.550043  1
  Rb  Rb1  1  0.250000  0.216265  0.447823  1
  Rb  Rb2  1  0.750000  0.743990  0.067248  1
  Rb  Rb3  1  0.250000  0.264929  0.932547  1
  Mn  Mn4  1  0.250000  0.775845  0.301037  1
  Hg  Hg5  1  0.750000  0.224951  0.699197  1
  I  I6  1  0.750000  0.407006  0.416868  1
  I  I7  1  0.250000  0.600161  0.569421  1
  I  I8  1  0.002219  0.993417  0.240219  1
  I  I9  1  0.008973  0.992341  0.763509  1
  I  I10  1  0.491027  0.992341  0.763509  1
  I  I11  1  0.497781  0.993417  0.240219  1
  I  I12  1  0.750000  0.428471  0.875586  1
  I  I13  1  0.250000  0.582995  0.132775  1
