# generated using pymatgen
data_Dy4Tm(SiB4)2
_symmetry_space_group_name_H-M   'P 1'
_cell_length_a   7.21814200
_cell_length_b   7.21814200
_cell_length_c   8.05329500
_cell_angle_alpha   90.00000000
_cell_angle_beta   90.00000000
_cell_angle_gamma   90.00000000
_symmetry_Int_Tables_number   1
_chemical_formula_structural   Dy4Tm(SiB4)2
_chemical_formula_sum   'Dy8 Tm2 Si4 B16'
_cell_volume   419.58934484
_cell_formula_units_Z   2
loop_
 _symmetry_equiv_pos_site_id
 _symmetry_equiv_pos_as_xyz
  1  'x, y, z'
loop_
 _atom_site_type_symbol
 _atom_site_label
 _atom_site_symmetry_multiplicity
 _atom_site_fract_x
 _atom_site_fract_y
 _atom_site_fract_z
 _atom_site_occupancy
  Dy  Dy0  1  0.680234  0.180234  0.224948  1
  Dy  Dy1  1  0.319766  0.819766  0.775052  1
  Dy  Dy2  1  0.319766  0.819766  0.224948  1
  Dy  Dy3  1  0.819766  0.680234  0.224948  1
  Dy  Dy4  1  0.819766  0.680234  0.775052  1
  Dy  Dy5  1  0.680234  0.180234  0.775052  1
  Dy  Dy6  1  0.180234  0.319766  0.775052  1
  Dy  Dy7  1  0.180234  0.319766  0.224948  1
  Tm  Tm8  1  0.000000  0.000000  0.500000  1
  Tm  Tm9  1  0.500000  0.500000  0.500000  1
  Si  Si10  1  0.115589  0.615589  0.500000  1
  Si  Si11  1  0.884411  0.384411  0.500000  1
  Si  Si12  1  0.384411  0.115589  0.500000  1
  Si  Si13  1  0.615589  0.884411  0.500000  1
  B  B14  1  0.172554  0.039108  0.000000  1
  B  B15  1  0.827446  0.960892  0.000000  1
  B  B16  1  0.960892  0.172554  0.000000  1
  B  B17  1  0.327446  0.539108  0.000000  1
  B  B18  1  0.039108  0.827446  0.000000  1
  B  B19  1  0.672554  0.460892  0.000000  1
  B  B20  1  0.539108  0.672554  0.000000  1
  B  B21  1  0.460892  0.327446  0.000000  1
  B  B22  1  0.089717  0.589717  0.000000  1
  B  B23  1  0.910283  0.410283  0.000000  1
  B  B24  1  0.410283  0.089717  0.000000  1
  B  B25  1  0.589717  0.910283  0.000000  1
  B  B26  1  0.000000  0.000000  0.163401  1
  B  B27  1  0.000000  0.000000  0.836599  1
  B  B28  1  0.500000  0.500000  0.836599  1
  B  B29  1  0.500000  0.500000  0.163401  1
