# generated using pymatgen
data_Dy4Al4Ir2RhAu
_symmetry_space_group_name_H-M   'P 1'
_cell_length_a   4.35073500
_cell_length_b   6.87358980
_cell_length_c   7.91150503
_cell_angle_alpha   89.96313901
_cell_angle_beta   90.00000000
_cell_angle_gamma   90.00000000
_symmetry_Int_Tables_number   1
_chemical_formula_structural   Dy4Al4Ir2RhAu
_chemical_formula_sum   'Dy4 Al4 Ir2 Rh1 Au1'
_cell_volume   236.59483586
_cell_formula_units_Z   1
loop_
 _symmetry_equiv_pos_site_id
 _symmetry_equiv_pos_as_xyz
  1  'x, y, z'
loop_
 _atom_site_type_symbol
 _atom_site_label
 _atom_site_symmetry_multiplicity
 _atom_site_fract_x
 _atom_site_fract_y
 _atom_site_fract_z
 _atom_site_occupancy
  Dy  Dy0  1  0.250000  0.024562  0.325844  1
  Dy  Dy1  1  0.250000  0.541779  0.182546  1
  Dy  Dy2  1  0.750000  0.967464  0.679300  1
  Dy  Dy3  1  0.750000  0.477075  0.813834  1
  Al  Al4  1  0.250000  0.135646  0.932127  1
  Al  Al5  1  0.250000  0.641659  0.562936  1
  Al  Al6  1  0.750000  0.847231  0.060715  1
  Al  Al7  1  0.750000  0.364985  0.443961  1
  Ir  Ir8  1  0.250000  0.766923  0.880471  1
  Ir  Ir9  1  0.750000  0.734409  0.379492  1
  Rh  Rh10  1  0.250000  0.268189  0.617729  1
  Au  Au11  1  0.750000  0.230078  0.121047  1
