# generated using pymatgen
data_Tb2Mn4Ni2P7Ir6
_symmetry_space_group_name_H-M   'P 1'
_cell_length_a   9.36457520
_cell_length_b   9.42400845
_cell_length_c   3.84194900
_cell_angle_alpha   90.00000000
_cell_angle_beta   90.00000000
_cell_angle_gamma   119.66004497
_symmetry_Int_Tables_number   1
_chemical_formula_structural   Tb2Mn4Ni2P7Ir6
_chemical_formula_sum   'Tb2 Mn4 Ni2 P7 Ir6'
_cell_volume   294.63445369
_cell_formula_units_Z   1
loop_
 _symmetry_equiv_pos_site_id
 _symmetry_equiv_pos_as_xyz
  1  'x, y, z'
loop_
 _atom_site_type_symbol
 _atom_site_label
 _atom_site_symmetry_multiplicity
 _atom_site_fract_x
 _atom_site_fract_y
 _atom_site_fract_z
 _atom_site_occupancy
  Tb  Tb0  1  0.669061  0.333029  0.000000  1
  Tb  Tb1  1  0.333186  0.667383  0.500000  1
  Mn  Mn2  1  0.887803  0.158909  0.000000  1
  Mn  Mn3  1  0.086565  0.876134  0.500000  1
  Mn  Mn4  1  0.786317  0.910561  0.500000  1
  Mn  Mn5  1  0.123870  0.216774  0.500000  1
  Ni  Ni6  1  0.266362  0.105439  0.000000  1
  Ni  Ni7  1  0.838634  0.732274  0.000000  1
  P  P8  1  0.298014  0.887424  0.000000  1
  P  P9  1  0.587630  0.699635  0.000000  1
  P  P10  1  0.110488  0.407569  0.000000  1
  P  P11  1  0.400823  0.283370  0.500000  1
  P  P12  1  0.885966  0.601958  0.500000  1
  P  P13  1  0.722872  0.119323  0.500000  1
  P  P14  1  0.996650  0.999811  0.000000  1
  Ir  Ir15  1  0.063588  0.637490  0.000000  1
  Ir  Ir16  1  0.571628  0.932460  0.000000  1
  Ir  Ir17  1  0.363943  0.425055  0.000000  1
  Ir  Ir18  1  0.440105  0.055554  0.500000  1
  Ir  Ir19  1  0.617684  0.564070  0.500000  1
  Ir  Ir20  1  0.948812  0.385778  0.500000  1
