# generated using pymatgen
data_Ho2Ge(BRh2)3
_symmetry_space_group_name_H-M   'P 1'
_cell_length_a   5.46952202
_cell_length_b   5.46953205
_cell_length_c   13.16278500
_cell_angle_alpha   90.00097966
_cell_angle_beta   89.99881400
_cell_angle_gamma   120.00230882
_symmetry_Int_Tables_number   1
_chemical_formula_structural   Ho2Ge(BRh2)3
_chemical_formula_sum   'Ho4 Ge2 B6 Rh12'
_cell_volume   341.01058667
_cell_formula_units_Z   2
loop_
 _symmetry_equiv_pos_site_id
 _symmetry_equiv_pos_as_xyz
  1  'x, y, z'
loop_
 _atom_site_type_symbol
 _atom_site_label
 _atom_site_symmetry_multiplicity
 _atom_site_fract_x
 _atom_site_fract_y
 _atom_site_fract_z
 _atom_site_occupancy
  Ho  Ho0  1  0.999991  0.000020  0.499997  1
  Ho  Ho1  1  0.000008  0.999984  0.258597  1
  Ho  Ho2  1  0.999984  0.000000  0.741381  1
  Ho  Ho3  1  0.999991  0.999989  0.000008  1
  Ge  Ge4  1  0.333311  0.666703  0.000015  1
  Ge  Ge5  1  0.666676  0.333277  0.000013  1
  B  B6  1  0.333331  0.666690  0.266146  1
  B  B7  1  0.666672  0.333293  0.266147  1
  B  B8  1  0.666606  0.333356  0.733854  1
  B  B9  1  0.333370  0.666647  0.733854  1
  B  B10  1  0.333340  0.666677  0.499992  1
  B  B11  1  0.666649  0.333341  0.499990  1
  Rh  Rh12  1  0.500008  0.000003  0.384578  1
  Rh  Rh13  1  0.999997  0.500004  0.384573  1
  Rh  Rh14  1  0.500006  0.500003  0.384565  1
  Rh  Rh15  1  0.499989  0.000002  0.615406  1
  Rh  Rh16  1  0.499984  0.500021  0.615399  1
  Rh  Rh17  1  0.000002  0.500019  0.615412  1
  Rh  Rh18  1  0.499998  0.999984  0.155159  1
  Rh  Rh19  1  0.000012  0.499995  0.155165  1
  Rh  Rh20  1  0.499999  0.499982  0.155182  1
  Rh  Rh21  1  0.499976  0.999991  0.844850  1
  Rh  Rh22  1  0.499989  0.500009  0.844875  1
  Rh  Rh23  1  0.000009  0.500015  0.844843  1
