# generated using pymatgen
data_La6Nd4Sn20Ir3Rh5
_symmetry_space_group_name_H-M   'P 1'
_cell_length_a   14.26310951
_cell_length_b   14.26008251
_cell_length_c   4.67484900
_cell_angle_alpha   90.00000000
_cell_angle_beta   90.00000000
_cell_angle_gamma   89.96939880
_symmetry_Int_Tables_number   1
_chemical_formula_structural   La6Nd4Sn20Ir3Rh5
_chemical_formula_sum   'La6 Nd4 Sn20 Ir3 Rh5'
_cell_volume   950.83198064
_cell_formula_units_Z   1
loop_
 _symmetry_equiv_pos_site_id
 _symmetry_equiv_pos_as_xyz
  1  'x, y, z'
loop_
 _atom_site_type_symbol
 _atom_site_label
 _atom_site_symmetry_multiplicity
 _atom_site_fract_x
 _atom_site_fract_y
 _atom_site_fract_z
 _atom_site_occupancy
  La  La0  1  0.500100  0.499677  0.000000  1
  La  La1  1  0.000099  0.000048  0.000000  1
  La  La2  1  0.887907  0.387245  0.500000  1
  La  La3  1  0.112053  0.612675  0.500000  1
  La  La4  1  0.388022  0.112709  0.500000  1
  La  La5  1  0.612297  0.887755  0.500000  1
  Nd  Nd6  1  0.676410  0.177624  0.500000  1
  Nd  Nd7  1  0.322866  0.823040  0.500000  1
  Nd  Nd8  1  0.176513  0.322319  0.500000  1
  Nd  Nd9  1  0.823402  0.677549  0.500000  1
  Sn  Sn10  1  0.570086  0.069392  0.000000  1
  Sn  Sn11  1  0.430183  0.930282  0.000000  1
  Sn  Sn12  1  0.070185  0.430590  0.000000  1
  Sn  Sn13  1  0.929856  0.569400  0.000000  1
  Sn  Sn14  1  0.654133  0.697684  0.000000  1
  Sn  Sn15  1  0.345156  0.302039  0.000000  1
  Sn  Sn16  1  0.154838  0.801890  0.000000  1
  Sn  Sn17  1  0.845164  0.197989  0.000000  1
  Sn  Sn18  1  0.302533  0.654185  0.000000  1
  Sn  Sn19  1  0.697980  0.345827  0.000000  1
  Sn  Sn20  1  0.197773  0.154111  0.000000  1
  Sn  Sn21  1  0.801983  0.845682  0.000000  1
  Sn  Sn22  1  0.664319  0.505232  0.500000  1
  Sn  Sn23  1  0.335539  0.494741  0.500000  1
  Sn  Sn24  1  0.164315  0.994906  0.500000  1
  Sn  Sn25  1  0.835529  0.005219  0.500000  1
  Sn  Sn26  1  0.494813  0.664354  0.500000  1
  Sn  Sn27  1  0.505286  0.336773  0.500000  1
  Sn  Sn28  1  0.005405  0.163181  0.500000  1
  Sn  Sn29  1  0.994643  0.836730  0.500000  1
  Ir  Ir30  1  0.528594  0.253165  0.000000  1
  Ir  Ir31  1  0.028439  0.246982  0.000000  1
  Ir  Ir32  1  0.971512  0.753123  0.000000  1
  Rh  Rh33  1  0.746018  0.527881  0.000000  1
  Rh  Rh34  1  0.254145  0.472105  0.000000  1
  Rh  Rh35  1  0.245745  0.972017  0.000000  1
  Rh  Rh36  1  0.754311  0.028005  0.000000  1
  Rh  Rh37  1  0.471851  0.745874  0.000000  1
