# generated using pymatgen
data_Nd11In9NiRh3
_symmetry_space_group_name_H-M   'P 1'
_cell_length_a   13.42238775
_cell_length_b   13.41181949
_cell_length_c   3.83313100
_cell_angle_alpha   90.00000000
_cell_angle_beta   90.00000000
_cell_angle_gamma   111.80258411
_symmetry_Int_Tables_number   1
_chemical_formula_structural   Nd11In9NiRh3
_chemical_formula_sum   'Nd11 In9 Ni1 Rh3'
_cell_volume   640.67619307
_cell_formula_units_Z   1
loop_
 _symmetry_equiv_pos_site_id
 _symmetry_equiv_pos_as_xyz
  1  'x, y, z'
loop_
 _atom_site_type_symbol
 _atom_site_label
 _atom_site_symmetry_multiplicity
 _atom_site_fract_x
 _atom_site_fract_y
 _atom_site_fract_z
 _atom_site_occupancy
  Nd  Nd0  1  0.078679  0.419704  0.000000  1
  Nd  Nd1  1  0.921103  0.580846  0.000000  1
  Nd  Nd2  1  0.420579  0.078133  0.000000  1
  Nd  Nd3  1  0.580249  0.920197  0.000000  1
  Nd  Nd4  1  0.625160  0.373833  0.000000  1
  Nd  Nd5  1  0.372430  0.626026  0.000000  1
  Nd  Nd6  1  0.840462  0.157290  0.000000  1
  Nd  Nd7  1  0.159605  0.840924  0.000000  1
  Nd  Nd8  1  0.998881  0.000022  0.000000  1
  Nd  Nd9  1  0.312174  0.311822  0.000000  1
  Nd  Nd10  1  0.687880  0.687223  0.000000  1
  In  In11  1  0.838363  0.365077  0.500000  1
  In  In12  1  0.163258  0.634479  0.500000  1
  In  In13  1  0.367040  0.838021  0.500000  1
  In  In14  1  0.635046  0.161883  0.500000  1
  In  In15  1  0.078406  0.220028  0.500000  1
  In  In16  1  0.921400  0.780306  0.500000  1
  In  In17  1  0.219675  0.077730  0.500000  1
  In  In18  1  0.778863  0.921277  0.500000  1
  In  In19  1  0.498831  0.502474  0.500000  1
  Ni  Ni20  1  0.549027  0.754269  0.500000  1
  Rh  Rh21  1  0.246886  0.452741  0.500000  1
  Rh  Rh22  1  0.753069  0.549522  0.500000  1
  Rh  Rh23  1  0.452937  0.246171  0.500000  1
