# generated using pymatgen
data_ScZn2Ni2Ag
_symmetry_space_group_name_H-M   'P 1'
_cell_length_a   4.94528688
_cell_length_b   4.94528688
_cell_length_c   5.03358500
_cell_angle_alpha   59.40758913
_cell_angle_beta   59.40758915
_cell_angle_gamma   61.29823622
_symmetry_Int_Tables_number   1
_chemical_formula_structural   ScZn2Ni2Ag
_chemical_formula_sum   'Sc1 Zn2 Ni2 Ag1'
_cell_volume   87.05591732
_cell_formula_units_Z   1
loop_
 _symmetry_equiv_pos_site_id
 _symmetry_equiv_pos_as_xyz
  1  'x, y, z'
loop_
 _atom_site_type_symbol
 _atom_site_label
 _atom_site_symmetry_multiplicity
 _atom_site_fract_x
 _atom_site_fract_y
 _atom_site_fract_z
 _atom_site_occupancy
  Sc  Sc0  1  0.239096  0.239096  0.260904  1
  Zn  Zn1  1  0.627501  0.627501  0.624446  1
  Zn  Zn2  1  0.627501  0.627501  0.120550  1
  Ni  Ni3  1  0.628265  0.127788  0.621973  1
  Ni  Ni4  1  0.127788  0.628265  0.621973  1
  Ag  Ag5  1  0.999847  0.999847  0.000153  1
