# generated using pymatgen
data_Sr4Al18Ir5Pd
_symmetry_space_group_name_H-M   'P 1'
_cell_length_a   7.64198599
_cell_length_b   7.64198606
_cell_length_c   9.86148610
_cell_angle_alpha   89.99168071
_cell_angle_beta   89.99168264
_cell_angle_gamma   119.09502408
_symmetry_Int_Tables_number   1
_chemical_formula_structural   Sr4Al18Ir5Pd
_chemical_formula_sum   'Sr4 Al18 Ir5 Pd1'
_cell_volume   503.23872362
_cell_formula_units_Z   1
loop_
 _symmetry_equiv_pos_site_id
 _symmetry_equiv_pos_as_xyz
  1  'x, y, z'
loop_
 _atom_site_type_symbol
 _atom_site_label
 _atom_site_symmetry_multiplicity
 _atom_site_fract_x
 _atom_site_fract_y
 _atom_site_fract_z
 _atom_site_occupancy
  Sr  Sr0  1  0.993426  0.671094  0.250880  1
  Sr  Sr1  1  0.006574  0.328906  0.749120  1
  Sr  Sr2  1  0.671094  0.993426  0.250880  1
  Sr  Sr3  1  0.328906  0.006574  0.749120  1
  Al  Al4  1  0.134830  0.134830  0.253175  1
  Al  Al5  1  0.865170  0.865170  0.746825  1
  Al  Al6  1  0.003938  0.339343  0.069094  1
  Al  Al7  1  0.996062  0.660657  0.930906  1
  Al  Al8  1  0.996909  0.664564  0.567044  1
  Al  Al9  1  0.335436  0.003091  0.432956  1
  Al  Al10  1  0.003091  0.335436  0.432956  1
  Al  Al11  1  0.664564  0.996909  0.567044  1
  Al  Al12  1  0.660657  0.996062  0.930906  1
  Al  Al13  1  0.339343  0.003938  0.069094  1
  Al  Al14  1  0.335173  0.335173  0.539613  1
  Al  Al15  1  0.664827  0.664827  0.460387  1
  Al  Al16  1  0.661307  0.661307  0.040771  1
  Al  Al17  1  0.338693  0.338693  0.959229  1
  Al  Al18  1  0.333646  0.541524  0.250019  1
  Al  Al19  1  0.666354  0.458476  0.749981  1
  Al  Al20  1  0.541524  0.333646  0.250019  1
  Al  Al21  1  0.458476  0.666354  0.749981  1
  Ir  Ir22  1  0.670448  0.329552  0.000000  1
  Ir  Ir23  1  0.329552  0.670448  0.000000  1
  Ir  Ir24  1  0.330137  0.669863  0.500000  1
  Ir  Ir25  1  0.669863  0.330137  0.500000  1
  Ir  Ir26  1  0.000000  0.000000  0.500000  1
  Pd  Pd27  1  0.000000  0.000000  0.000000  1
