# generated using pymatgen
data_NdHo9(Sn3O)2
_symmetry_space_group_name_H-M   'P 1'
_cell_length_a   9.01557115
_cell_length_b   9.01553383
_cell_length_c   9.01556046
_cell_angle_alpha   125.90034544
_cell_angle_beta   125.90068654
_cell_angle_gamma   80.05159355
_symmetry_Int_Tables_number   1
_chemical_formula_structural   NdHo9(Sn3O)2
_chemical_formula_sum   'Nd1 Ho9 Sn6 O2'
_cell_volume   464.19358210
_cell_formula_units_Z   1
loop_
 _symmetry_equiv_pos_site_id
 _symmetry_equiv_pos_as_xyz
  1  'x, y, z'
loop_
 _atom_site_type_symbol
 _atom_site_label
 _atom_site_symmetry_multiplicity
 _atom_site_fract_x
 _atom_site_fract_y
 _atom_site_fract_z
 _atom_site_occupancy
  Nd  Nd0  1  0.002902  0.002903  0.999997  1
  Ho  Ho1  1  0.501352  0.303328  0.501496  1
  Ho  Ho2  1  0.801833  0.999857  0.498504  1
  Ho  Ho3  1  0.999857  0.501353  0.198027  1
  Ho  Ho4  1  0.303327  0.801832  0.801975  1
  Ho  Ho5  1  0.500706  0.698833  0.498600  1
  Ho  Ho6  1  0.200231  0.002106  0.501399  1
  Ho  Ho7  1  0.002108  0.500706  0.801873  1
  Ho  Ho8  1  0.698838  0.200236  0.198131  1
  Ho  Ho9  1  0.502724  0.502725  0.999999  1
  Sn  Sn10  1  0.145538  0.360561  0.504338  1
  Sn  Sn11  1  0.856224  0.641200  0.495664  1
  Sn  Sn12  1  0.641205  0.145532  0.784976  1
  Sn  Sn13  1  0.360553  0.856231  0.215022  1
  Sn  Sn14  1  0.750144  0.750142  0.000001  1
  Sn  Sn15  1  0.253516  0.253516  0.999999  1
  O  O16  1  0.750891  0.250891  0.499999  1
  O  O17  1  0.250892  0.750892  0.500002  1
