# generated using pymatgen
data_Ho3Lu3Th2(CdIr)2
_symmetry_space_group_name_H-M   'P 1'
_cell_length_a   9.65134752
_cell_length_b   9.65134742
_cell_length_c   9.65134700
_cell_angle_alpha   59.99999802
_cell_angle_beta   59.99999837
_cell_angle_gamma   59.99999856
_symmetry_Int_Tables_number   1
_chemical_formula_structural   Ho3Lu3Th2(CdIr)2
_chemical_formula_sum   'Ho6 Lu6 Th4 Cd4 Ir4'
_cell_volume   635.69503458
_cell_formula_units_Z   2
loop_
 _symmetry_equiv_pos_site_id
 _symmetry_equiv_pos_as_xyz
  1  'x, y, z'
loop_
 _atom_site_type_symbol
 _atom_site_label
 _atom_site_symmetry_multiplicity
 _atom_site_fract_x
 _atom_site_fract_y
 _atom_site_fract_z
 _atom_site_occupancy
  Ho  Ho0  1  0.185751  0.814249  0.814249  1
  Ho  Ho1  1  0.814249  0.185751  0.185751  1
  Ho  Ho2  1  0.814249  0.185751  0.814249  1
  Ho  Ho3  1  0.185751  0.814249  0.185751  1
  Ho  Ho4  1  0.814249  0.814249  0.185751  1
  Ho  Ho5  1  0.185751  0.185751  0.814249  1
  Lu  Lu6  1  0.063646  0.436354  0.436354  1
  Lu  Lu7  1  0.436354  0.063646  0.063646  1
  Lu  Lu8  1  0.436354  0.063646  0.436354  1
  Lu  Lu9  1  0.063646  0.436354  0.063646  1
  Lu  Lu10  1  0.436354  0.436354  0.063646  1
  Lu  Lu11  1  0.063646  0.063646  0.436354  1
  Th  Th12  1  0.600317  0.600317  0.600317  1
  Th  Th13  1  0.600317  0.600317  0.199050  1
  Th  Th14  1  0.600317  0.199050  0.600317  1
  Th  Th15  1  0.199050  0.600317  0.600317  1
  Cd  Cd16  1  0.832807  0.832807  0.832807  1
  Cd  Cd17  1  0.832807  0.832807  0.501579  1
  Cd  Cd18  1  0.832807  0.501579  0.832807  1
  Cd  Cd19  1  0.501579  0.832807  0.832807  1
  Ir  Ir20  1  0.391785  0.391785  0.391785  1
  Ir  Ir21  1  0.391785  0.391785  0.824646  1
  Ir  Ir22  1  0.391785  0.824646  0.391785  1
  Ir  Ir23  1  0.824646  0.391785  0.391785  1
