# generated using pymatgen
data_Er5Lu3(InIr)2
_symmetry_space_group_name_H-M   'P 1'
_cell_length_a   9.54737628
_cell_length_b   9.53687811
_cell_length_c   9.54707752
_cell_angle_alpha   120.00181530
_cell_angle_beta   90.24639953
_cell_angle_gamma   119.78707475
_symmetry_Int_Tables_number   1
_chemical_formula_structural   Er5Lu3(InIr)2
_chemical_formula_sum   'Er10 Lu6 In4 Ir4'
_cell_volume   615.30741955
_cell_formula_units_Z   2
loop_
 _symmetry_equiv_pos_site_id
 _symmetry_equiv_pos_as_xyz
  1  'x, y, z'
loop_
 _atom_site_type_symbol
 _atom_site_label
 _atom_site_symmetry_multiplicity
 _atom_site_fract_x
 _atom_site_fract_y
 _atom_site_fract_z
 _atom_site_occupancy
  Er  Er0  1  0.650368  0.698090  0.349129  1
  Er  Er1  1  0.056751  0.499664  0.555762  1
  Er  Er2  1  0.438855  0.498591  0.558423  1
  Er  Er3  1  0.059809  0.118726  0.558528  1
  Er  Er4  1  0.809705  0.000534  0.809764  1
  Er  Er5  1  0.809946  0.618634  0.809520  1
  Er  Er6  1  0.060538  0.501015  0.940984  1
  Er  Er7  1  0.440872  0.499799  0.941731  1
  Er  Er8  1  0.439383  0.880525  0.940696  1
  Er  Er9  1  0.651117  0.301743  0.953407  1
  Lu  Lu10  1  0.191863  0.000577  0.191925  1
  Lu  Lu11  1  0.809891  0.000921  0.192049  1
  Lu  Lu12  1  0.190925  0.381486  0.191350  1
  Lu  Lu13  1  0.648964  0.300626  0.347778  1
  Lu  Lu14  1  0.048182  0.699141  0.348422  1
  Lu  Lu15  1  0.191428  0.000013  0.809210  1
  In  In16  1  0.416302  0.833711  0.250086  1
  In  In17  1  0.416021  0.165845  0.582370  1
  In  In18  1  0.749400  0.166136  0.582699  1
  In  In19  1  0.416282  0.833374  0.582682  1
  Ir  Ir20  1  0.421243  0.279985  0.141114  1
  Ir  Ir21  1  0.860157  0.283620  0.144060  1
  Ir  Ir22  1  0.861447  0.720512  0.143013  1
  Ir  Ir23  1  0.860553  0.716737  0.575304  1
