# generated using pymatgen
data_Tb2PrNi9
_symmetry_space_group_name_H-M   'P 1'
_cell_length_a   8.63728983
_cell_length_b   8.63729062
_cell_length_c   8.63729020
_cell_angle_alpha   33.66388075
_cell_angle_beta   33.66390467
_cell_angle_gamma   33.66387819
_symmetry_Int_Tables_number   1
_chemical_formula_structural   Tb2PrNi9
_chemical_formula_sum   'Tb2 Pr1 Ni9'
_cell_volume   176.38949840
_cell_formula_units_Z   1
loop_
 _symmetry_equiv_pos_site_id
 _symmetry_equiv_pos_as_xyz
  1  'x, y, z'
loop_
 _atom_site_type_symbol
 _atom_site_label
 _atom_site_symmetry_multiplicity
 _atom_site_fract_x
 _atom_site_fract_y
 _atom_site_fract_z
 _atom_site_occupancy
  Tb  Tb0  1  0.139714  0.139714  0.139714  1
  Tb  Tb1  1  0.860286  0.860286  0.860286  1
  Pr  Pr2  1  0.000000  0.000000  0.000000  1
  Ni  Ni3  1  0.583128  0.583128  0.082321  1
  Ni  Ni4  1  0.332807  0.332809  0.332807  1
  Ni  Ni5  1  0.917679  0.416871  0.416873  1
  Ni  Ni6  1  0.416870  0.917679  0.416872  1
  Ni  Ni7  1  0.500000  0.500000  0.500000  1
  Ni  Ni8  1  0.583130  0.082321  0.583128  1
  Ni  Ni9  1  0.082321  0.583129  0.583127  1
  Ni  Ni10  1  0.667193  0.667191  0.667193  1
  Ni  Ni11  1  0.416872  0.416872  0.917679  1
