# generated using pymatgen
data_Mn4As5S4
_symmetry_space_group_name_H-M   'P 1'
_cell_length_a   6.84475053
_cell_length_b   6.84475080
_cell_length_c   6.84475100
_cell_angle_alpha   60.00000388
_cell_angle_beta   60.00000258
_cell_angle_gamma   60.00000581
_symmetry_Int_Tables_number   1
_chemical_formula_structural   Mn4As5S4
_chemical_formula_sum   'Mn4 As5 S4'
_cell_volume   226.75556906
_cell_formula_units_Z   1
loop_
 _symmetry_equiv_pos_site_id
 _symmetry_equiv_pos_as_xyz
  1  'x, y, z'
loop_
 _atom_site_type_symbol
 _atom_site_label
 _atom_site_symmetry_multiplicity
 _atom_site_fract_x
 _atom_site_fract_y
 _atom_site_fract_z
 _atom_site_occupancy
  Mn  Mn0  1  0.403098  0.403098  0.403098  1
  Mn  Mn1  1  0.403098  0.403098  0.790707  1
  Mn  Mn2  1  0.403098  0.790707  0.403098  1
  Mn  Mn3  1  0.790707  0.403098  0.403098  1
  As  As4  1  0.000000  0.000000  0.000000  1
  As  As5  1  0.146337  0.146337  0.146337  1
  As  As6  1  0.146337  0.146337  0.560990  1
  As  As7  1  0.146337  0.560990  0.146337  1
  As  As8  1  0.560990  0.146337  0.146337  1
  S  S9  1  0.625680  0.625680  0.625680  1
  S  S10  1  0.625680  0.625680  0.122959  1
  S  S11  1  0.625680  0.122959  0.625680  1
  S  S12  1  0.122959  0.625680  0.625680  1
