# generated using pymatgen
data_Sc3Ti(Co2Sn)4
_symmetry_space_group_name_H-M   'P 1'
_cell_length_a   4.36216500
_cell_length_b   6.21075200
_cell_length_c   8.71388400
_cell_angle_alpha   90.00000000
_cell_angle_beta   90.00000000
_cell_angle_gamma   90.00000000
_symmetry_Int_Tables_number   1
_chemical_formula_structural   Sc3Ti(Co2Sn)4
_chemical_formula_sum   'Sc3 Ti1 Co8 Sn4'
_cell_volume   236.07937732
_cell_formula_units_Z   1
loop_
 _symmetry_equiv_pos_site_id
 _symmetry_equiv_pos_as_xyz
  1  'x, y, z'
loop_
 _atom_site_type_symbol
 _atom_site_label
 _atom_site_symmetry_multiplicity
 _atom_site_fract_x
 _atom_site_fract_y
 _atom_site_fract_z
 _atom_site_occupancy
  Sc  Sc0  1  0.999921  0.000000  0.001657  1
  Sc  Sc1  1  0.999921  0.000000  0.498343  1
  Sc  Sc2  1  0.502329  0.500000  0.750000  1
  Ti  Ti3  1  0.497880  0.500000  0.250000  1
  Co  Co4  1  0.500197  0.743041  0.008025  1
  Co  Co5  1  0.500197  0.743041  0.491975  1
  Co  Co6  1  0.500197  0.256959  0.008025  1
  Co  Co7  1  0.500197  0.256959  0.491975  1
  Co  Co8  1  0.003302  0.248398  0.750000  1
  Co  Co9  1  0.995953  0.265569  0.250000  1
  Co  Co10  1  0.995953  0.734431  0.250000  1
  Co  Co11  1  0.003302  0.751602  0.750000  1
  Sn  Sn12  1  0.502759  0.000000  0.750000  1
  Sn  Sn13  1  0.496869  0.000000  0.250000  1
  Sn  Sn14  1  0.000511  0.500000  0.998675  1
  Sn  Sn15  1  0.000511  0.500000  0.501325  1
