# generated using pymatgen
data_Na12Li8Ti3SnAs12
_symmetry_space_group_name_H-M   'P 1'
_cell_length_a   9.71873363
_cell_length_b   9.71873363
_cell_length_c   13.95440139
_cell_angle_alpha   90.01714592
_cell_angle_beta   90.01714821
_cell_angle_gamma   143.30740224
_symmetry_Int_Tables_number   1
_chemical_formula_structural   Na12Li8Ti3SnAs12
_chemical_formula_sum   'Na12 Li8 Ti3 Sn1 As12'
_cell_volume   787.56054670
_cell_formula_units_Z   1
loop_
 _symmetry_equiv_pos_site_id
 _symmetry_equiv_pos_as_xyz
  1  'x, y, z'
loop_
 _atom_site_type_symbol
 _atom_site_label
 _atom_site_symmetry_multiplicity
 _atom_site_fract_x
 _atom_site_fract_y
 _atom_site_fract_z
 _atom_site_occupancy
  Na  Na0  1  0.597071  0.939184  0.822883  1
  Na  Na1  1  0.268313  0.267616  0.323892  1
  Na  Na2  1  0.234307  0.233185  0.818440  1
  Na  Na3  1  0.732384  0.731687  0.676108  1
  Na  Na4  1  0.440787  0.100322  0.673822  1
  Na  Na5  1  0.899678  0.559213  0.326178  1
  Na  Na6  1  0.060816  0.402929  0.177117  1
  Na  Na7  1  0.411135  0.069688  0.179935  1
  Na  Na8  1  0.561021  0.902925  0.322713  1
  Na  Na9  1  0.097075  0.438979  0.677287  1
  Na  Na10  1  0.930312  0.588865  0.820065  1
  Na  Na11  1  0.766815  0.765693  0.181560  1
  Li  Li12  1  0.083794  0.916206  0.000000  1
  Li  Li13  1  0.582709  0.417291  0.500000  1
  Li  Li14  1  0.915944  0.084056  0.000000  1
  Li  Li15  1  0.755138  0.244862  0.000000  1
  Li  Li16  1  0.746609  0.253391  0.500000  1
  Li  Li17  1  0.246625  0.753375  0.000000  1
  Li  Li18  1  0.253712  0.746288  0.500000  1
  Li  Li19  1  0.417057  0.582943  0.500000  1
  Ti  Ti20  1  0.087769  0.912231  0.500000  1
  Ti  Ti21  1  0.414425  0.585575  0.000000  1
  Ti  Ti22  1  0.911773  0.088227  0.500000  1
  Sn  Sn23  1  0.588121  0.411879  0.000000  1
  As  As24  1  0.066779  0.391203  0.394282  1
  As  As25  1  0.913765  0.582566  0.113954  1
  As  As26  1  0.417434  0.086235  0.886046  1
  As  As27  1  0.608797  0.933221  0.605718  1
  As  As28  1  0.933742  0.609291  0.605032  1
  As  As29  1  0.110857  0.433840  0.894540  1
  As  As30  1  0.566160  0.889143  0.105460  1
  As  As31  1  0.390709  0.066258  0.394968  1
  As  As32  1  0.225762  0.225967  0.598378  1
  As  As33  1  0.731354  0.742782  0.894054  1
  As  As34  1  0.257218  0.268646  0.105946  1
  As  As35  1  0.774033  0.774238  0.401622  1
