# generated using pymatgen
data_Dy2HoTm2Pb3
_symmetry_space_group_name_H-M   'P 1'
_cell_length_a   6.56253900
_cell_length_b   9.02239813
_cell_length_c   9.02537401
_cell_angle_alpha   119.98909626
_cell_angle_beta   89.99993334
_cell_angle_gamma   90.00014024
_symmetry_Int_Tables_number   1
_chemical_formula_structural   Dy2HoTm2Pb3
_chemical_formula_sum   'Dy4 Ho2 Tm4 Pb6'
_cell_volume   462.84697692
_cell_formula_units_Z   2
loop_
 _symmetry_equiv_pos_site_id
 _symmetry_equiv_pos_as_xyz
  1  'x, y, z'
loop_
 _atom_site_type_symbol
 _atom_site_label
 _atom_site_symmetry_multiplicity
 _atom_site_fract_x
 _atom_site_fract_y
 _atom_site_fract_z
 _atom_site_occupancy
  Dy  Dy0  1  0.750002  0.238568  0.000000  1
  Dy  Dy1  1  0.749999  0.761343  0.761365  1
  Dy  Dy2  1  0.749999  0.999978  0.238635  1
  Dy  Dy3  1  0.250002  0.761453  0.000000  1
  Ho  Ho4  1  0.250001  0.238640  0.238557  1
  Ho  Ho5  1  0.250001  0.000083  0.761443  1
  Tm  Tm6  1  0.499976  0.333324  0.666715  1
  Tm  Tm7  1  0.499976  0.666608  0.333285  1
  Tm  Tm8  1  0.000020  0.666654  0.333285  1
  Tm  Tm9  1  0.000020  0.333369  0.666715  1
  Pb  Pb10  1  0.749995  0.605239  0.000000  1
  Pb  Pb11  1  0.750004  0.394724  0.394676  1
  Pb  Pb12  1  0.750004  0.000048  0.605324  1
  Pb  Pb13  1  0.249992  0.394608  0.000000  1
  Pb  Pb14  1  0.250005  0.605334  0.605309  1
  Pb  Pb15  1  0.250005  0.000026  0.394691  1
