# generated using pymatgen
data_Tb6Al24Cu3Ru5
_symmetry_space_group_name_H-M   'P 1'
_cell_length_a   8.83474048
_cell_length_b   8.80009319
_cell_length_c   9.49077408
_cell_angle_alpha   89.92351455
_cell_angle_beta   90.08195740
_cell_angle_gamma   119.34595365
_symmetry_Int_Tables_number   1
_chemical_formula_structural   Tb6Al24Cu3Ru5
_chemical_formula_sum   'Tb6 Al24 Cu3 Ru5'
_cell_volume   643.18732142
_cell_formula_units_Z   1
loop_
 _symmetry_equiv_pos_site_id
 _symmetry_equiv_pos_as_xyz
  1  'x, y, z'
loop_
 _atom_site_type_symbol
 _atom_site_label
 _atom_site_symmetry_multiplicity
 _atom_site_fract_x
 _atom_site_fract_y
 _atom_site_fract_z
 _atom_site_occupancy
  Tb  Tb0  1  0.382773  0.191391  0.252463  1
  Tb  Tb1  1  0.807718  0.195252  0.251673  1
  Tb  Tb2  1  0.809336  0.615370  0.247300  1
  Tb  Tb3  1  0.617227  0.808609  0.747537  1
  Tb  Tb4  1  0.192282  0.804748  0.748327  1
  Tb  Tb5  1  0.190664  0.384630  0.752700  1
  Al  Al6  1  0.437936  0.875911  0.248182  1
  Al  Al7  1  0.123350  0.562246  0.250121  1
  Al  Al8  1  0.439359  0.561913  0.249782  1
  Al  Al9  1  0.562064  0.124089  0.751818  1
  Al  Al10  1  0.876650  0.437754  0.749879  1
  Al  Al11  1  0.560641  0.438087  0.750218  1
  Al  Al12  1  0.157276  0.831659  0.418927  1
  Al  Al13  1  0.157078  0.324549  0.421633  1
  Al  Al14  1  0.678407  0.838416  0.419089  1
  Al  Al15  1  0.842724  0.168341  0.581073  1
  Al  Al16  1  0.842922  0.675451  0.578367  1
  Al  Al17  1  0.321593  0.161584  0.580911  1
  Al  Al18  1  0.834952  0.163286  0.923132  1
  Al  Al19  1  0.842672  0.675547  0.922657  1
  Al  Al20  1  0.323451  0.155684  0.923686  1
  Al  Al21  1  0.165048  0.836714  0.076868  1
  Al  Al22  1  0.157328  0.324453  0.077343  1
  Al  Al23  1  0.676549  0.844316  0.076314  1
  Al  Al24  1  0.329948  0.664618  0.523088  1
  Al  Al25  1  0.670052  0.335382  0.476912  1
  Al  Al26  1  0.667846  0.330938  0.022975  1
  Al  Al27  1  0.332154  0.669062  0.977025  1
  Al  Al28  1  0.002616  0.999976  0.249490  1
  Al  Al29  1  0.997384  0.000024  0.750510  1
  Cu  Cu30  1  0.500000  0.000000  0.500000  1
  Cu  Cu31  1  0.500000  0.500000  0.500000  1
  Cu  Cu32  1  0.500000  0.500000  0.000000  1
  Ru  Ru33  1  0.000000  0.000000  0.500000  1
  Ru  Ru34  1  0.000000  0.000000  0.000000  1
  Ru  Ru35  1  0.000000  0.500000  0.500000  1
  Ru  Ru36  1  0.500000  0.000000  0.000000  1
  Ru  Ru37  1  0.000000  0.500000  0.000000  1
