# generated using pymatgen
data_TbHo4P12Ru17Pt2
_symmetry_space_group_name_H-M   'P 1'
_cell_length_a   12.63275902
_cell_length_b   12.54565511
_cell_length_c   3.98283900
_cell_angle_alpha   90.00000000
_cell_angle_beta   90.00000000
_cell_angle_gamma   120.23561312
_symmetry_Int_Tables_number   1
_chemical_formula_structural   TbHo4P12Ru17Pt2
_chemical_formula_sum   'Tb1 Ho4 P12 Ru17 Pt2'
_cell_volume   545.35454289
_cell_formula_units_Z   1
loop_
 _symmetry_equiv_pos_site_id
 _symmetry_equiv_pos_as_xyz
  1  'x, y, z'
loop_
 _atom_site_type_symbol
 _atom_site_label
 _atom_site_symmetry_multiplicity
 _atom_site_fract_x
 _atom_site_fract_y
 _atom_site_fract_z
 _atom_site_occupancy
  Tb  Tb0  1  0.001667  0.182898  0.500000  1
  Ho  Ho1  1  0.818832  0.817194  0.500000  1
  Ho  Ho2  1  0.183509  0.999968  0.500000  1
  Ho  Ho3  1  0.664018  0.326975  0.000000  1
  Ho  Ho4  1  0.337063  0.673066  0.000000  1
  P  P5  1  0.997458  0.812183  0.000000  1
  P  P6  1  0.185461  0.187672  0.000000  1
  P  P7  1  0.818524  0.999708  0.000000  1
  P  P8  1  0.692700  0.169528  0.500000  1
  P  P9  1  0.816433  0.515776  0.500000  1
  P  P10  1  0.477734  0.299234  0.500000  1
  P  P11  1  0.178423  0.700829  0.500000  1
  P  P12  1  0.523069  0.830390  0.500000  1
  P  P13  1  0.300679  0.484282  0.500000  1
  P  P14  1  0.000223  0.365027  0.000000  1
  P  P15  1  0.635496  0.635263  0.000000  1
  P  P16  1  0.372950  0.000007  0.000000  1
  Ru  Ru17  1  0.555168  0.999984  0.000000  1
  Ru  Ru18  1  0.997246  0.709388  0.500000  1
  Ru  Ru19  1  0.288165  0.290691  0.500000  1
  Ru  Ru20  1  0.718963  0.999743  0.500000  1
  Ru  Ru21  1  0.808585  0.184434  0.000000  1
  Ru  Ru22  1  0.812667  0.617888  0.000000  1
  Ru  Ru23  1  0.375883  0.192645  0.000000  1
  Ru  Ru24  1  0.183156  0.807335  0.000000  1
  Ru  Ru25  1  0.624589  0.815439  0.000000  1
  Ru  Ru26  1  0.195319  0.382586  0.000000  1
  Ru  Ru27  1  0.870044  0.364781  0.500000  1
  Ru  Ru28  1  0.628921  0.505688  0.500000  1
  Ru  Ru29  1  0.491616  0.123956  0.500000  1
  Ru  Ru30  1  0.367640  0.876056  0.500000  1
  Ru  Ru31  1  0.505328  0.635287  0.500000  1
  Ru  Ru32  1  0.123275  0.494455  0.500000  1
  Ru  Ru33  1  0.003106  0.999490  0.000000  1
  Pt  Pt34  1  0.997683  0.549435  0.000000  1
  Pt  Pt35  1  0.448405  0.450719  0.000000  1
