# generated using pymatgen
data_TbU(Al3Ir)3
_symmetry_space_group_name_H-M   'P 1'
_cell_length_a   7.59944814
_cell_length_b   7.58719016
_cell_length_c   9.43680000
_cell_angle_alpha   90.00000000
_cell_angle_beta   90.00000000
_cell_angle_gamma   119.58095502
_symmetry_Int_Tables_number   1
_chemical_formula_structural   TbU(Al3Ir)3
_chemical_formula_sum   'Tb2 U2 Al18 Ir6'
_cell_volume   473.19135845
_cell_formula_units_Z   2
loop_
 _symmetry_equiv_pos_site_id
 _symmetry_equiv_pos_as_xyz
  1  'x, y, z'
loop_
 _atom_site_type_symbol
 _atom_site_label
 _atom_site_symmetry_multiplicity
 _atom_site_fract_x
 _atom_site_fract_y
 _atom_site_fract_z
 _atom_site_occupancy
  Tb  Tb0  1  0.670440  0.995477  0.250000  1
  Tb  Tb1  1  0.329560  0.004523  0.750000  1
  U  U2  1  0.995435  0.669521  0.250000  1
  U  U3  1  0.004565  0.330479  0.750000  1
  Al  Al4  1  0.128339  0.127983  0.250000  1
  Al  Al5  1  0.871661  0.872017  0.750000  1
  Al  Al6  1  0.000926  0.334184  0.074272  1
  Al  Al7  1  0.999074  0.665816  0.925728  1
  Al  Al8  1  0.999074  0.665816  0.574272  1
  Al  Al9  1  0.336237  0.002131  0.425015  1
  Al  Al10  1  0.000926  0.334184  0.425728  1
  Al  Al11  1  0.663763  0.997869  0.574985  1
  Al  Al12  1  0.663763  0.997869  0.925015  1
  Al  Al13  1  0.336237  0.002131  0.074985  1
  Al  Al14  1  0.334622  0.333797  0.553961  1
  Al  Al15  1  0.665378  0.666203  0.446039  1
  Al  Al16  1  0.665378  0.666203  0.053961  1
  Al  Al17  1  0.334622  0.333797  0.946039  1
  Al  Al18  1  0.338998  0.547473  0.250000  1
  Al  Al19  1  0.661002  0.452527  0.750000  1
  Al  Al20  1  0.546809  0.339481  0.250000  1
  Al  Al21  1  0.453191  0.660519  0.750000  1
  Ir  Ir22  1  0.672362  0.328285  0.999789  1
  Ir  Ir23  1  0.327638  0.671715  0.000211  1
  Ir  Ir24  1  0.327638  0.671715  0.499789  1
  Ir  Ir25  1  0.672362  0.328285  0.500211  1
  Ir  Ir26  1  0.000000  0.000000  0.000000  1
  Ir  Ir27  1  0.000000  0.000000  0.500000  1
