# generated using pymatgen
data_TbPa3(NbN2)4
_symmetry_space_group_name_H-M   'P 1'
_cell_length_a   3.31612900
_cell_length_b   5.73548808
_cell_length_c   10.99631540
_cell_angle_alpha   90.10544012
_cell_angle_beta   90.00000000
_cell_angle_gamma   90.00000000
_symmetry_Int_Tables_number   1
_chemical_formula_structural   TbPa3(NbN2)4
_chemical_formula_sum   'Tb1 Pa3 Nb4 N8'
_cell_volume   209.14536795
_cell_formula_units_Z   1
loop_
 _symmetry_equiv_pos_site_id
 _symmetry_equiv_pos_as_xyz
  1  'x, y, z'
loop_
 _atom_site_type_symbol
 _atom_site_label
 _atom_site_symmetry_multiplicity
 _atom_site_fract_x
 _atom_site_fract_y
 _atom_site_fract_z
 _atom_site_occupancy
  Tb  Tb0  1  0.250000  0.578364  0.853942  1
  Pa  Pa1  1  0.750000  0.426125  0.139846  1
  Pa  Pa2  1  0.750000  0.923445  0.355844  1
  Pa  Pa3  1  0.250000  0.078952  0.647544  1
  Nb  Nb4  1  0.250000  0.922892  0.097071  1
  Nb  Nb5  1  0.750000  0.072017  0.905654  1
  Nb  Nb6  1  0.750000  0.576774  0.598121  1
  Nb  Nb7  1  0.250000  0.424528  0.402799  1
  N  N8  1  0.250000  0.659184  0.245679  1
  N  N9  1  0.750000  0.332443  0.750500  1
  N  N10  1  0.750000  0.846178  0.743318  1
  N  N11  1  0.250000  0.157774  0.255899  1
  N  N12  1  0.250000  0.766994  0.504696  1
  N  N13  1  0.750000  0.234464  0.496085  1
  N  N14  1  0.750000  0.733897  0.004371  1
  N  N15  1  0.250000  0.265968  0.998633  1
