# generated using pymatgen
data_Er8B24MoOs3
_symmetry_space_group_name_H-M   'P 1'
_cell_length_a   3.63290400
_cell_length_b   9.13484404
_cell_length_c   11.51768781
_cell_angle_alpha   89.90666759
_cell_angle_beta   90.00000000
_cell_angle_gamma   90.00000000
_symmetry_Int_Tables_number   1
_chemical_formula_structural   Er8B24MoOs3
_chemical_formula_sum   'Er8 B24 Mo1 Os3'
_cell_volume   382.22561237
_cell_formula_units_Z   1
loop_
 _symmetry_equiv_pos_site_id
 _symmetry_equiv_pos_as_xyz
  1  'x, y, z'
loop_
 _atom_site_type_symbol
 _atom_site_label
 _atom_site_symmetry_multiplicity
 _atom_site_fract_x
 _atom_site_fract_y
 _atom_site_fract_z
 _atom_site_occupancy
  Er  Er0  1  0.000000  0.322327  0.413091  1
  Er  Er1  1  0.000000  0.676824  0.584802  1
  Er  Er2  1  0.000000  0.820847  0.087595  1
  Er  Er3  1  0.000000  0.177263  0.914372  1
  Er  Er4  1  0.000000  0.945113  0.372925  1
  Er  Er5  1  0.000000  0.057226  0.628185  1
  Er  Er6  1  0.000000  0.443667  0.126752  1
  Er  Er7  1  0.000000  0.556581  0.871445  1
  B  B8  1  0.500000  0.550950  0.435804  1
  B  B9  1  0.500000  0.446344  0.567959  1
  B  B10  1  0.500000  0.053309  0.066699  1
  B  B11  1  0.500000  0.946630  0.933293  1
  B  B12  1  0.500000  0.750701  0.421993  1
  B  B13  1  0.500000  0.251955  0.580828  1
  B  B14  1  0.500000  0.248344  0.079999  1
  B  B15  1  0.500000  0.751441  0.919162  1
  B  B16  1  0.500000  0.794826  0.264719  1
  B  B17  1  0.500000  0.208032  0.734291  1
  B  B18  1  0.500000  0.291200  0.232758  1
  B  B19  1  0.500000  0.708783  0.766062  1
  B  B20  1  0.500000  0.632183  0.183069  1
  B  B21  1  0.500000  0.367733  0.815006  1
  B  B22  1  0.500000  0.131665  0.313876  1
  B  B23  1  0.500000  0.869099  0.685820  1
  B  B24  1  0.500000  0.983199  0.212767  1
  B  B25  1  0.500000  0.017445  0.787962  1
  B  B26  1  0.500000  0.478540  0.286505  1
  B  B27  1  0.500000  0.516439  0.713185  1
  B  B28  1  0.500000  0.606026  0.027892  1
  B  B29  1  0.500000  0.393492  0.969700  1
  B  B30  1  0.500000  0.107154  0.470876  1
  B  B31  1  0.500000  0.895952  0.530495  1
  Mo  Mo32  1  0.000000  0.637681  0.321365  1
  Os  Os33  1  0.000000  0.360861  0.680287  1
  Os  Os34  1  0.000000  0.137812  0.177294  1
  Os  Os35  1  0.000000  0.862355  0.821168  1
