# generated using pymatgen
data_Y2Lu2Pa(FeB3)2
_symmetry_space_group_name_H-M   'P 1'
_cell_length_a   5.41227721
_cell_length_b   5.41227672
_cell_length_c   7.86574907
_cell_angle_alpha   69.87675542
_cell_angle_beta   69.87674283
_cell_angle_gamma   59.99999751
_symmetry_Int_Tables_number   1
_chemical_formula_structural   Y2Lu2Pa(FeB3)2
_chemical_formula_sum   'Y2 Lu2 Pa1 Fe2 B6'
_cell_volume   183.11905000
_cell_formula_units_Z   1
loop_
 _symmetry_equiv_pos_site_id
 _symmetry_equiv_pos_as_xyz
  1  'x, y, z'
loop_
 _atom_site_type_symbol
 _atom_site_label
 _atom_site_symmetry_multiplicity
 _atom_site_fract_x
 _atom_site_fract_y
 _atom_site_fract_z
 _atom_site_occupancy
  Y  Y0  1  0.588597  0.588597  0.234210  1
  Y  Y1  1  0.411403  0.411403  0.765790  1
  Lu  Lu2  1  0.747420  0.747420  0.757740  1
  Lu  Lu3  1  0.252580  0.252580  0.242260  1
  Pa  Pa4  1  0.000000  0.000000  0.000000  1
  Fe  Fe5  1  0.891780  0.891780  0.324658  1
  Fe  Fe6  1  0.108220  0.108220  0.675342  1
  B  B7  1  0.500000  0.167203  0.500000  1
  B  B8  1  0.832797  0.500000  0.500000  1
  B  B9  1  0.167203  0.832797  0.500000  1
  B  B10  1  0.167203  0.500000  0.500000  1
  B  B11  1  0.832797  0.167203  0.500000  1
  B  B12  1  0.500000  0.832797  0.500000  1
