# generated using pymatgen
data_Pr16MgHg3(IrRu)2
_symmetry_space_group_name_H-M   'P 1'
_cell_length_a   10.04167908
_cell_length_b   10.03703110
_cell_length_c   9.99386953
_cell_angle_alpha   59.89953729
_cell_angle_beta   59.84162112
_cell_angle_gamma   59.98467441
_symmetry_Int_Tables_number   1
_chemical_formula_structural   Pr16MgHg3(IrRu)2
_chemical_formula_sum   'Pr16 Mg1 Hg3 Ir2 Ru2'
_cell_volume   710.76755363
_cell_formula_units_Z   1
loop_
 _symmetry_equiv_pos_site_id
 _symmetry_equiv_pos_as_xyz
  1  'x, y, z'
loop_
 _atom_site_type_symbol
 _atom_site_label
 _atom_site_symmetry_multiplicity
 _atom_site_fract_x
 _atom_site_fract_y
 _atom_site_fract_z
 _atom_site_occupancy
  Pr  Pr0  1  0.060711  0.438513  0.440066  1
  Pr  Pr1  1  0.190229  0.807515  0.195680  1
  Pr  Pr2  1  0.654113  0.653432  0.653302  1
  Pr  Pr3  1  0.439606  0.437824  0.060377  1
  Pr  Pr4  1  0.062193  0.437824  0.060377  1
  Pr  Pr5  1  0.439038  0.061044  0.060880  1
  Pr  Pr6  1  0.060977  0.059342  0.439732  1
  Pr  Pr7  1  0.650267  0.649711  0.049756  1
  Pr  Pr8  1  0.653219  0.041808  0.651754  1
  Pr  Pr9  1  0.190278  0.809230  0.810215  1
  Pr  Pr10  1  0.439949  0.059342  0.439732  1
  Pr  Pr11  1  0.187557  0.191749  0.811543  1
  Pr  Pr12  1  0.039152  0.653432  0.653302  1
  Pr  Pr13  1  0.806576  0.807515  0.195680  1
  Pr  Pr14  1  0.807877  0.191563  0.192683  1
  Pr  Pr15  1  0.809151  0.191749  0.811543  1
  Mg  Mg16  1  0.429557  0.430187  0.710700  1
  Hg  Hg17  1  0.414123  0.414444  0.419968  1
  Hg  Hg18  1  0.414063  0.752423  0.419450  1
  Hg  Hg19  1  0.751465  0.414444  0.419968  1
  Ir  Ir20  1  0.858079  0.859410  0.860982  1
  Ir  Ir21  1  0.421530  0.859410  0.860982  1
  Ru  Ru22  1  0.860218  0.417172  0.862394  1
  Ru  Ru23  1  0.860074  0.860915  0.418936  1
