# generated using pymatgen
data_Tb4Ga3SiRu4
_symmetry_space_group_name_H-M   'P 1'
_cell_length_a   4.46859200
_cell_length_b   7.16439701
_cell_length_c   7.15025714
_cell_angle_alpha   90.31518937
_cell_angle_beta   90.00000000
_cell_angle_gamma   90.00000000
_symmetry_Int_Tables_number   1
_chemical_formula_structural   Tb4Ga3SiRu4
_chemical_formula_sum   'Tb4 Ga3 Si1 Ru4'
_cell_volume   228.91035377
_cell_formula_units_Z   1
loop_
 _symmetry_equiv_pos_site_id
 _symmetry_equiv_pos_as_xyz
  1  'x, y, z'
loop_
 _atom_site_type_symbol
 _atom_site_label
 _atom_site_symmetry_multiplicity
 _atom_site_fract_x
 _atom_site_fract_y
 _atom_site_fract_z
 _atom_site_occupancy
  Tb  Tb0  1  0.250000  0.984524  0.807802  1
  Tb  Tb1  1  0.750000  0.017716  0.196182  1
  Tb  Tb2  1  0.250000  0.476955  0.693304  1
  Tb  Tb3  1  0.750000  0.516331  0.306747  1
  Ga  Ga4  1  0.250000  0.304194  0.107026  1
  Ga  Ga5  1  0.750000  0.693048  0.892538  1
  Ga  Ga6  1  0.250000  0.802077  0.396982  1
  Si  Si7  1  0.750000  0.195537  0.601714  1
  Ru  Ru8  1  0.750000  0.858028  0.565802  1
  Ru  Ru9  1  0.250000  0.161186  0.445705  1
  Ru  Ru10  1  0.750000  0.331272  0.920712  1
  Ru  Ru11  1  0.250000  0.659132  0.065486  1
