# generated using pymatgen
data_LaPa3(AlOs)4
_symmetry_space_group_name_H-M   'P 1'
_cell_length_a   4.13422200
_cell_length_b   7.09545917
_cell_length_c   16.08905854
_cell_angle_alpha   90.32199010
_cell_angle_beta   90.00000000
_cell_angle_gamma   90.00000000
_symmetry_Int_Tables_number   1
_chemical_formula_structural   LaPa3(AlOs)4
_chemical_formula_sum   'La2 Pa6 Al8 Os8'
_cell_volume   471.95226283
_cell_formula_units_Z   2
loop_
 _symmetry_equiv_pos_site_id
 _symmetry_equiv_pos_as_xyz
  1  'x, y, z'
loop_
 _atom_site_type_symbol
 _atom_site_label
 _atom_site_symmetry_multiplicity
 _atom_site_fract_x
 _atom_site_fract_y
 _atom_site_fract_z
 _atom_site_occupancy
  La  La0  1  0.750000  0.844620  0.060051  1
  La  La1  1  0.250000  0.155380  0.939949  1
  Pa  Pa2  1  0.250000  0.526441  0.777595  1
  Pa  Pa3  1  0.750000  0.473559  0.222405  1
  Pa  Pa4  1  0.750000  0.963685  0.282761  1
  Pa  Pa5  1  0.250000  0.036315  0.717239  1
  Pa  Pa6  1  0.250000  0.664014  0.561285  1
  Pa  Pa7  1  0.750000  0.335986  0.438715  1
  Al  Al8  1  0.250000  0.634136  0.353881  1
  Al  Al9  1  0.750000  0.365864  0.646119  1
  Al  Al10  1  0.750000  0.852834  0.843829  1
  Al  Al11  1  0.250000  0.147166  0.156171  1
  Al  Al12  1  0.250000  0.509121  0.065487  1
  Al  Al13  1  0.750000  0.490879  0.934513  1
  Al  Al14  1  0.750000  0.004371  0.562230  1
  Al  Al15  1  0.250000  0.995629  0.437770  1
  Os  Os16  1  0.250000  0.760510  0.199008  1
  Os  Os17  1  0.750000  0.239490  0.800992  1
  Os  Os18  1  0.750000  0.750278  0.681310  1
  Os  Os19  1  0.250000  0.249722  0.318690  1
  Os  Os20  1  0.250000  0.710866  0.919789  1
  Os  Os21  1  0.750000  0.289134  0.080211  1
  Os  Os22  1  0.750000  0.751682  0.438579  1
  Os  Os23  1  0.250000  0.248318  0.561421  1
