# generated using pymatgen
data_CsYMnS3
_symmetry_space_group_name_H-M   'P 1'
_cell_length_a   4.08174500
_cell_length_b   8.07729690
_cell_length_c   10.70775100
_cell_angle_alpha   90.00000000
_cell_angle_beta   90.00000000
_cell_angle_gamma   104.63446865
_symmetry_Int_Tables_number   1
_chemical_formula_structural   CsYMnS3
_chemical_formula_sum   'Cs2 Y2 Mn2 S6'
_cell_volume   341.57564482
_cell_formula_units_Z   2
loop_
 _symmetry_equiv_pos_site_id
 _symmetry_equiv_pos_as_xyz
  1  'x, y, z'
loop_
 _atom_site_type_symbol
 _atom_site_label
 _atom_site_symmetry_multiplicity
 _atom_site_fract_x
 _atom_site_fract_y
 _atom_site_fract_z
 _atom_site_occupancy
  Cs  Cs0  1  0.260603  0.520997  0.250000  1
  Cs  Cs1  1  0.739397  0.479003  0.750000  1
  Y  Y2  1  0.000000  0.000000  0.500000  1
  Y  Y3  1  0.000000  0.000000  0.000000  1
  Mn  Mn4  1  0.537066  0.074402  0.250000  1
  Mn  Mn5  1  0.462934  0.925598  0.750000  1
  S  S6  1  0.949260  0.898859  0.250000  1
  S  S7  1  0.050740  0.101141  0.750000  1
  S  S8  1  0.387408  0.774758  0.560347  1
  S  S9  1  0.387408  0.774758  0.939653  1
  S  S10  1  0.612592  0.225242  0.060347  1
  S  S11  1  0.612592  0.225242  0.439653  1
