# generated using pymatgen
data_Nd3Sn6Ir
_symmetry_space_group_name_H-M   'P 1'
_cell_length_a   8.73169938
_cell_length_b   8.73169977
_cell_length_c   13.41490900
_cell_angle_alpha   90.00000000
_cell_angle_beta   90.00000000
_cell_angle_gamma   148.62799153
_symmetry_Int_Tables_number   1
_chemical_formula_structural   Nd3Sn6Ir
_chemical_formula_sum   'Nd6 Sn12 Ir2'
_cell_volume   532.45543987
_cell_formula_units_Z   2
loop_
 _symmetry_equiv_pos_site_id
 _symmetry_equiv_pos_as_xyz
  1  'x, y, z'
loop_
 _atom_site_type_symbol
 _atom_site_label
 _atom_site_symmetry_multiplicity
 _atom_site_fract_x
 _atom_site_fract_y
 _atom_site_fract_z
 _atom_site_occupancy
  Nd  Nd0  1  0.601982  0.398018  0.250000  1
  Nd  Nd1  1  0.398018  0.601982  0.750000  1
  Nd  Nd2  1  0.399673  0.600327  0.404201  1
  Nd  Nd3  1  0.600327  0.399673  0.595799  1
  Nd  Nd4  1  0.399673  0.600327  0.095799  1
  Nd  Nd5  1  0.600327  0.399673  0.904201  1
  Sn  Sn6  1  0.926958  0.073042  0.924551  1
  Sn  Sn7  1  0.073042  0.926958  0.075449  1
  Sn  Sn8  1  0.926958  0.073042  0.575449  1
  Sn  Sn9  1  0.073042  0.926958  0.424551  1
  Sn  Sn10  1  0.960672  0.039328  0.250000  1
  Sn  Sn11  1  0.039328  0.960672  0.750000  1
  Sn  Sn12  1  0.745028  0.254973  0.433763  1
  Sn  Sn13  1  0.254973  0.745027  0.566237  1
  Sn  Sn14  1  0.745028  0.254973  0.066237  1
  Sn  Sn15  1  0.254973  0.745027  0.933763  1
  Sn  Sn16  1  0.231548  0.768452  0.250000  1
  Sn  Sn17  1  0.768452  0.231548  0.750000  1
  Ir  Ir18  1  0.802738  0.197262  0.250000  1
  Ir  Ir19  1  0.197262  0.802738  0.750000  1
