# generated using pymatgen
data_Ho2Tm14CdIn3Ni4
_symmetry_space_group_name_H-M   'P 1'
_cell_length_a   9.46271509
_cell_length_b   9.45548441
_cell_length_c   9.46182800
_cell_angle_alpha   59.97780464
_cell_angle_beta   60.00310103
_cell_angle_gamma   60.07610928
_symmetry_Int_Tables_number   1
_chemical_formula_structural   Ho2Tm14CdIn3Ni4
_chemical_formula_sum   'Ho2 Tm14 Cd1 In3 Ni4'
_cell_volume   598.88850773
_cell_formula_units_Z   1
loop_
 _symmetry_equiv_pos_site_id
 _symmetry_equiv_pos_as_xyz
  1  'x, y, z'
loop_
 _atom_site_type_symbol
 _atom_site_label
 _atom_site_symmetry_multiplicity
 _atom_site_fract_x
 _atom_site_fract_y
 _atom_site_fract_z
 _atom_site_occupancy
  Ho  Ho0  1  0.346302  0.346675  0.348744  1
  Ho  Ho1  1  0.346302  0.346675  0.958279  1
  Tm  Tm2  1  0.349697  0.953354  0.348474  1
  Tm  Tm3  1  0.951465  0.349828  0.349353  1
  Tm  Tm4  1  0.811726  0.190317  0.187247  1
  Tm  Tm5  1  0.189344  0.812717  0.811591  1
  Tm  Tm6  1  0.189344  0.812717  0.186349  1
  Tm  Tm7  1  0.811726  0.190317  0.810709  1
  Tm  Tm8  1  0.188354  0.186945  0.812351  1
  Tm  Tm9  1  0.811634  0.811232  0.188567  1
  Tm  Tm10  1  0.938911  0.564108  0.562966  1
  Tm  Tm11  1  0.565133  0.936372  0.935959  1
  Tm  Tm12  1  0.565133  0.936372  0.562535  1
  Tm  Tm13  1  0.938911  0.564108  0.934015  1
  Tm  Tm14  1  0.565084  0.563945  0.935485  1
  Tm  Tm15  1  0.940748  0.937892  0.560680  1
  Cd  Cd16  1  0.253042  0.581735  0.582612  1
  In  In17  1  0.581865  0.583279  0.583560  1
  In  In18  1  0.581865  0.583279  0.251295  1
  In  In19  1  0.581087  0.252877  0.583018  1
  Ni  Ni20  1  0.139724  0.140711  0.146678  1
  Ni  Ni21  1  0.139724  0.140711  0.572887  1
  Ni  Ni22  1  0.137941  0.574895  0.143582  1
  Ni  Ni23  1  0.574938  0.138938  0.143062  1
