# generated using pymatgen
data_NdDyHo3(FeB3)2
_symmetry_space_group_name_H-M   'P 1'
_cell_length_a   8.29554190
_cell_length_b   8.29554147
_cell_length_c   8.29554027
_cell_angle_alpha   38.17545692
_cell_angle_beta   38.17546110
_cell_angle_gamma   38.17545144
_symmetry_Int_Tables_number   1
_chemical_formula_structural   NdDyHo3(FeB3)2
_chemical_formula_sum   'Nd1 Dy1 Ho3 Fe2 B6'
_cell_volume   195.81992605
_cell_formula_units_Z   1
loop_
 _symmetry_equiv_pos_site_id
 _symmetry_equiv_pos_as_xyz
  1  'x, y, z'
loop_
 _atom_site_type_symbol
 _atom_site_label
 _atom_site_symmetry_multiplicity
 _atom_site_fract_x
 _atom_site_fract_y
 _atom_site_fract_z
 _atom_site_occupancy
  Nd  Nd0  1  0.000137  0.000137  0.000137  1
  Dy  Dy1  1  0.582960  0.582960  0.582960  1
  Ho  Ho2  1  0.417554  0.417554  0.417554  1
  Ho  Ho3  1  0.750210  0.750210  0.750210  1
  Ho  Ho4  1  0.249726  0.249726  0.249726  1
  Fe  Fe5  1  0.883224  0.883224  0.883224  1
  Fe  Fe6  1  0.116584  0.116584  0.116584  1
  B  B7  1  0.500039  0.832219  0.167545  1
  B  B8  1  0.167545  0.500039  0.832219  1
  B  B9  1  0.832219  0.167545  0.500039  1
  B  B10  1  0.500039  0.167545  0.832219  1
  B  B11  1  0.832219  0.500039  0.167545  1
  B  B12  1  0.167545  0.832219  0.500039  1
