# generated using pymatgen
data_CsRb3(ZnI4)2
_symmetry_space_group_name_H-M   'P 1'
_cell_length_a   8.41540900
_cell_length_b   8.00848011
_cell_length_c   10.68811601
_cell_angle_alpha   70.66829426
_cell_angle_beta   90.00000000
_cell_angle_gamma   90.00000000
_symmetry_Int_Tables_number   1
_chemical_formula_structural   CsRb3(ZnI4)2
_chemical_formula_sum   'Cs1 Rb3 Zn2 I8'
_cell_volume   679.70844215
_cell_formula_units_Z   1
loop_
 _symmetry_equiv_pos_site_id
 _symmetry_equiv_pos_as_xyz
  1  'x, y, z'
loop_
 _atom_site_type_symbol
 _atom_site_label
 _atom_site_symmetry_multiplicity
 _atom_site_fract_x
 _atom_site_fract_y
 _atom_site_fract_z
 _atom_site_occupancy
  Cs  Cs0  1  0.250000  0.793757  0.416103  1
  Rb  Rb1  1  0.750000  0.214562  0.581842  1
  Rb  Rb2  1  0.750000  0.297965  0.039966  1
  Rb  Rb3  1  0.250000  0.701708  0.959920  1
  Zn  Zn4  1  0.750000  0.701934  0.212776  1
  Zn  Zn5  1  0.250000  0.299128  0.787179  1
  I  I6  1  0.250000  0.132993  0.045950  1
  I  I7  1  0.750000  0.868516  0.952679  1
  I  I8  1  0.250000  0.084911  0.646834  1
  I  I9  1  0.750000  0.917056  0.354165  1
  I  I10  1  0.997841  0.508311  0.729482  1
  I  I11  1  0.502339  0.485424  0.271811  1
  I  I12  1  0.997661  0.485424  0.271811  1
  I  I13  1  0.502159  0.508311  0.729482  1
