# generated using pymatgen
data_Co4Si4Tc3Ru
_symmetry_space_group_name_H-M   'P 1'
_cell_length_a   3.75617900
_cell_length_b   5.73192263
_cell_length_c   6.81387223
_cell_angle_alpha   90.07245091
_cell_angle_beta   90.00000000
_cell_angle_gamma   90.00000000
_symmetry_Int_Tables_number   1
_chemical_formula_structural   Co4Si4Tc3Ru
_chemical_formula_sum   'Co4 Si4 Tc3 Ru1'
_cell_volume   146.70341999
_cell_formula_units_Z   1
loop_
 _symmetry_equiv_pos_site_id
 _symmetry_equiv_pos_as_xyz
  1  'x, y, z'
loop_
 _atom_site_type_symbol
 _atom_site_label
 _atom_site_symmetry_multiplicity
 _atom_site_fract_x
 _atom_site_fract_y
 _atom_site_fract_z
 _atom_site_occupancy
  Co  Co0  1  0.250000  0.143966  0.939471  1
  Co  Co1  1  0.250000  0.643814  0.559705  1
  Co  Co2  1  0.750000  0.856299  0.059343  1
  Co  Co3  1  0.750000  0.356022  0.438922  1
  Si  Si4  1  0.250000  0.257957  0.619168  1
  Si  Si5  1  0.250000  0.753740  0.880327  1
  Si  Si6  1  0.750000  0.743658  0.381083  1
  Si  Si7  1  0.750000  0.243004  0.119299  1
  Tc  Tc8  1  0.250000  0.026937  0.318556  1
  Tc  Tc9  1  0.250000  0.525255  0.182073  1
  Tc  Tc10  1  0.750000  0.975474  0.681675  1
  Ru  Ru11  1  0.750000  0.473875  0.820377  1
