# generated using pymatgen
data_HoTa2Bi5O14
_symmetry_space_group_name_H-M   'P 1'
_cell_length_a   6.75512460
_cell_length_b   6.72006573
_cell_length_c   7.65598700
_cell_angle_alpha   90.00000000
_cell_angle_beta   90.00000000
_cell_angle_gamma   107.61111213
_symmetry_Int_Tables_number   1
_chemical_formula_structural   HoTa2Bi5O14
_chemical_formula_sum   'Ho1 Ta2 Bi5 O14'
_cell_volume   331.25399599
_cell_formula_units_Z   1
loop_
 _symmetry_equiv_pos_site_id
 _symmetry_equiv_pos_as_xyz
  1  'x, y, z'
loop_
 _atom_site_type_symbol
 _atom_site_label
 _atom_site_symmetry_multiplicity
 _atom_site_fract_x
 _atom_site_fract_y
 _atom_site_fract_z
 _atom_site_occupancy
  Ho  Ho0  1  0.004854  0.536831  0.250000  1
  Ta  Ta1  1  0.005170  0.006587  0.497084  1
  Ta  Ta2  1  0.005170  0.006587  0.002916  1
  Bi  Bi3  1  0.552009  0.548715  0.497730  1
  Bi  Bi4  1  0.552009  0.548715  0.002270  1
  Bi  Bi5  1  0.999106  0.480175  0.750000  1
  Bi  Bi6  1  0.513346  0.007065  0.750000  1
  Bi  Bi7  1  0.475567  0.994405  0.250000  1
  O  O8  1  0.953986  0.035433  0.750000  1
  O  O9  1  0.055672  0.922409  0.250000  1
  O  O10  1  0.350286  0.654880  0.250000  1
  O  O11  1  0.643003  0.379303  0.750000  1
  O  O12  1  0.364235  0.654933  0.750000  1
  O  O13  1  0.656865  0.409072  0.250000  1
  O  O14  1  0.299080  0.040822  0.961250  1
  O  O15  1  0.685953  0.909413  0.458076  1
  O  O16  1  0.299080  0.040822  0.538750  1
  O  O17  1  0.685953  0.909413  0.041924  1
  O  O18  1  0.026339  0.286841  0.445738  1
  O  O19  1  0.922989  0.670369  0.971942  1
  O  O20  1  0.922989  0.670369  0.528058  1
  O  O21  1  0.026339  0.286841  0.054262  1
