# generated using pymatgen
data_CaPr15(DyIr3)4
_symmetry_space_group_name_H-M   'P 1'
_cell_length_a   11.27726177
_cell_length_b   11.28755307
_cell_length_c   6.57118301
_cell_angle_alpha   89.93701524
_cell_angle_beta   90.25276153
_cell_angle_gamma   89.87833187
_symmetry_Int_Tables_number   1
_chemical_formula_structural   CaPr15(DyIr3)4
_chemical_formula_sum   'Ca1 Pr15 Dy4 Ir12'
_cell_volume   836.45302767
_cell_formula_units_Z   1
loop_
 _symmetry_equiv_pos_site_id
 _symmetry_equiv_pos_as_xyz
  1  'x, y, z'
loop_
 _atom_site_type_symbol
 _atom_site_label
 _atom_site_symmetry_multiplicity
 _atom_site_fract_x
 _atom_site_fract_y
 _atom_site_fract_z
 _atom_site_occupancy
  Ca  Ca0  1  0.289774  0.087417  0.382116  1
  Pr  Pr1  1  0.288618  0.913244  0.885471  1
  Pr  Pr2  1  0.710858  0.087320  0.884171  1
  Pr  Pr3  1  0.711605  0.913033  0.384327  1
  Pr  Pr4  1  0.587866  0.789163  0.882930  1
  Pr  Pr5  1  0.583408  0.210061  0.384124  1
  Pr  Pr6  1  0.410948  0.792641  0.383667  1
  Pr  Pr7  1  0.410641  0.209661  0.884891  1
  Pr  Pr8  1  0.210889  0.411725  0.618009  1
  Pr  Pr9  1  0.211781  0.587956  0.116049  1
  Pr  Pr10  1  0.788858  0.411152  0.116827  1
  Pr  Pr11  1  0.789326  0.587817  0.616655  1
  Pr  Pr12  1  0.911929  0.710591  0.116546  1
  Pr  Pr13  1  0.911728  0.288358  0.619108  1
  Pr  Pr14  1  0.087552  0.711008  0.616664  1
  Pr  Pr15  1  0.090047  0.288167  0.119454  1
  Dy  Dy16  1  0.003993  0.001193  0.498182  1
  Dy  Dy17  1  0.999210  0.000102  0.998884  1
  Dy  Dy18  1  0.500246  0.499962  0.997834  1
  Dy  Dy19  1  0.499318  0.501154  0.497500  1
  Ir  Ir20  1  0.853259  0.148807  0.250522  1
  Ir  Ir21  1  0.852944  0.852067  0.748478  1
  Ir  Ir22  1  0.146934  0.148400  0.756196  1
  Ir  Ir23  1  0.144880  0.847125  0.246105  1
  Ir  Ir24  1  0.647098  0.351335  0.748553  1
  Ir  Ir25  1  0.648301  0.648102  0.249853  1
  Ir  Ir26  1  0.351634  0.356571  0.246333  1
  Ir  Ir27  1  0.351659  0.648797  0.748331  1
  Ir  Ir28  1  0.501685  0.999550  0.117542  1
  Ir  Ir29  1  0.502619  0.998825  0.624181  1
  Ir  Ir30  1  0.000312  0.499446  0.880314  1
  Ir  Ir31  1  0.000080  0.499246  0.380182  1
