# generated using pymatgen
data_Ca10CuHg2Pd3
_symmetry_space_group_name_H-M   'P 1'
_cell_length_a   9.21458892
_cell_length_b   9.21458729
_cell_length_c   9.18270545
_cell_angle_alpha   128.92603719
_cell_angle_beta   128.92603348
_cell_angle_gamma   75.38721617
_symmetry_Int_Tables_number   1
_chemical_formula_structural   Ca10CuHg2Pd3
_chemical_formula_sum   'Ca10 Cu1 Hg2 Pd3'
_cell_volume   458.61727373
_cell_formula_units_Z   1
loop_
 _symmetry_equiv_pos_site_id
 _symmetry_equiv_pos_as_xyz
  1  'x, y, z'
loop_
 _atom_site_type_symbol
 _atom_site_label
 _atom_site_symmetry_multiplicity
 _atom_site_fract_x
 _atom_site_fract_y
 _atom_site_fract_z
 _atom_site_occupancy
  Ca  Ca0  1  0.530112  0.030112  0.831567  1
  Ca  Ca1  1  0.196417  0.696417  0.163035  1
  Ca  Ca2  1  0.034416  0.195835  0.502676  1
  Ca  Ca3  1  0.695835  0.534416  0.502676  1
  Ca  Ca4  1  0.466618  0.966618  0.163035  1
  Ca  Ca5  1  0.801455  0.301455  0.831567  1
  Ca  Ca6  1  0.968260  0.806843  0.502676  1
  Ca  Ca7  1  0.306843  0.468260  0.502676  1
  Ca  Ca8  1  0.497367  0.500730  0.998098  1
  Ca  Ca9  1  0.000730  0.997367  0.998098  1
  Cu  Cu10  1  0.882002  0.382002  0.264003  1
  Hg  Hg11  1  0.250664  0.250664  0.001326  1
  Hg  Hg12  1  0.750664  0.750664  0.001326  1
  Pd  Pd13  1  0.626906  0.873030  0.499936  1
  Pd  Pd14  1  0.373030  0.126906  0.499936  1
  Pd  Pd15  1  0.118683  0.618683  0.737366  1
