# generated using pymatgen
data_Nd3Th3Al21Si3Os8
_symmetry_space_group_name_H-M   'P 1'
_cell_length_a   8.86771683
_cell_length_b   8.86651631
_cell_length_c   9.64639102
_cell_angle_alpha   90.00170569
_cell_angle_beta   89.99337278
_cell_angle_gamma   119.92607270
_symmetry_Int_Tables_number   1
_chemical_formula_structural   Nd3Th3Al21Si3Os8
_chemical_formula_sum   'Nd3 Th3 Al21 Si3 Os8'
_cell_volume   657.32986808
_cell_formula_units_Z   1
loop_
 _symmetry_equiv_pos_site_id
 _symmetry_equiv_pos_as_xyz
  1  'x, y, z'
loop_
 _atom_site_type_symbol
 _atom_site_label
 _atom_site_symmetry_multiplicity
 _atom_site_fract_x
 _atom_site_fract_y
 _atom_site_fract_z
 _atom_site_occupancy
  Nd  Nd0  1  0.386408  0.194198  0.751102  1
  Nd  Nd1  1  0.194178  0.806168  0.249356  1
  Nd  Nd2  1  0.807526  0.194931  0.751610  1
  Th  Th3  1  0.196008  0.389416  0.249524  1
  Th  Th4  1  0.805844  0.610046  0.750993  1
  Th  Th5  1  0.609462  0.804184  0.249831  1
  Al  Al6  1  0.331312  0.667579  0.488421  1
  Al  Al7  1  0.163414  0.326381  0.574527  1
  Al  Al8  1  0.837085  0.672138  0.423811  1
  Al  Al9  1  0.673297  0.837136  0.575333  1
  Al  Al10  1  0.837004  0.672286  0.076324  1
  Al  Al11  1  0.328442  0.163640  0.424830  1
  Al  Al12  1  0.164137  0.327469  0.923739  1
  Al  Al13  1  0.164111  0.837660  0.573373  1
  Al  Al14  1  0.327382  0.162817  0.075342  1
  Al  Al15  1  0.836184  0.165142  0.423981  1
  Al  Al16  1  0.672482  0.837018  0.922882  1
  Al  Al17  1  0.836098  0.164372  0.076106  1
  Al  Al18  1  0.165572  0.837486  0.924585  1
  Al  Al19  1  0.565027  0.130885  0.248980  1
  Al  Al20  1  0.437003  0.873996  0.747970  1
  Al  Al21  1  0.870318  0.435517  0.249112  1
  Al  Al22  1  0.129335  0.563347  0.748226  1
  Al  Al23  1  0.566702  0.433344  0.248482  1
  Al  Al24  1  0.434661  0.563371  0.748293  1
  Al  Al25  1  0.001098  0.998772  0.249034  1
  Al  Al26  1  0.000910  0.002184  0.749172  1
  Si  Si27  1  0.331095  0.667838  0.027650  1
  Si  Si28  1  0.664222  0.329621  0.971249  1
  Si  Si29  1  0.664328  0.329767  0.529578  1
  Os  Os30  1  0.500128  0.998311  0.001166  1
  Os  Os31  1  0.999707  0.500389  0.997693  1
  Os  Os32  1  0.504571  0.006941  0.498677  1
  Os  Os33  1  0.499987  0.501663  0.001126  1
  Os  Os34  1  0.990739  0.495773  0.501929  1
  Os  Os35  1  0.503987  0.497912  0.497805  1
  Os  Os36  1  0.000063  0.000078  0.998825  1
  Os  Os37  1  0.000177  0.000222  0.499353  1
