# generated using pymatgen
data_Dy7Ho3(Bi3C)2
_symmetry_space_group_name_H-M   'P 1'
_cell_length_a   6.48713700
_cell_length_b   9.14174186
_cell_length_c   9.14109200
_cell_angle_alpha   120.00234619
_cell_angle_beta   90.00005157
_cell_angle_gamma   89.99989837
_symmetry_Int_Tables_number   1
_chemical_formula_structural   Dy7Ho3(Bi3C)2
_chemical_formula_sum   'Dy7 Ho3 Bi6 C2'
_cell_volume   469.46202427
_cell_formula_units_Z   1
loop_
 _symmetry_equiv_pos_site_id
 _symmetry_equiv_pos_as_xyz
  1  'x, y, z'
loop_
 _atom_site_type_symbol
 _atom_site_label
 _atom_site_symmetry_multiplicity
 _atom_site_fract_x
 _atom_site_fract_y
 _atom_site_fract_z
 _atom_site_occupancy
  Dy  Dy0  1  0.500116  0.333328  0.666658  1
  Dy  Dy1  1  0.500116  0.666670  0.333342  1
  Dy  Dy2  1  0.999881  0.666672  0.333344  1
  Dy  Dy3  1  0.999881  0.333328  0.666656  1
  Dy  Dy4  1  0.750004  0.208073  0.000000  1
  Dy  Dy5  1  0.750001  0.791855  0.791865  1
  Dy  Dy6  1  0.750001  0.999990  0.208135  1
  Ho  Ho7  1  0.250000  0.793243  0.000000  1
  Ho  Ho8  1  0.250001  0.206827  0.206815  1
  Ho  Ho9  1  0.250001  0.000012  0.793185  1
  Bi  Bi10  1  0.750004  0.598556  0.000000  1
  Bi  Bi11  1  0.750000  0.401481  0.401498  1
  Bi  Bi12  1  0.750000  0.999983  0.598502  1
  Bi  Bi13  1  0.249999  0.401291  0.000000  1
  Bi  Bi14  1  0.249999  0.598677  0.598661  1
  Bi  Bi15  1  0.249999  0.000016  0.401339  1
  C  C16  1  0.498838  0.999997  0.000000  1
  C  C17  1  0.001164  0.000000  0.000000  1
