# generated using pymatgen
data_Rb3Gd3(PS4)4
_symmetry_space_group_name_H-M   'P 1'
_cell_length_a   9.94350591
_cell_length_b   9.94350593
_cell_length_c   14.68240600
_cell_angle_alpha   90.87553219
_cell_angle_beta   90.87553219
_cell_angle_gamma   71.99305827
_symmetry_Int_Tables_number   1
_chemical_formula_structural   Rb3Gd3(PS4)4
_chemical_formula_sum   'Rb6 Gd6 P8 S32'
_cell_volume   1380.34630253
_cell_formula_units_Z   2
loop_
 _symmetry_equiv_pos_site_id
 _symmetry_equiv_pos_as_xyz
  1  'x, y, z'
loop_
 _atom_site_type_symbol
 _atom_site_label
 _atom_site_symmetry_multiplicity
 _atom_site_fract_x
 _atom_site_fract_y
 _atom_site_fract_z
 _atom_site_occupancy
  Rb  Rb0  1  0.000000  0.000000  0.000000  1
  Rb  Rb1  1  0.972429  0.617566  0.164836  1
  Rb  Rb2  1  0.382434  0.027571  0.335164  1
  Rb  Rb3  1  0.000000  0.000000  0.500000  1
  Rb  Rb4  1  0.617566  0.972429  0.664836  1
  Rb  Rb5  1  0.027571  0.382434  0.835164  1
  Gd  Gd6  1  0.512538  0.748270  0.012250  1
  Gd  Gd7  1  0.744530  0.255469  0.250000  1
  Gd  Gd8  1  0.251730  0.487462  0.487750  1
  Gd  Gd9  1  0.748270  0.512538  0.512250  1
  Gd  Gd10  1  0.255470  0.744531  0.750000  1
  Gd  Gd11  1  0.487462  0.251730  0.987750  1
  P  P12  1  0.760509  0.400922  0.024256  1
  P  P13  1  0.666203  0.964330  0.138995  1
  P  P14  1  0.035670  0.333797  0.361004  1
  P  P15  1  0.599078  0.239491  0.475744  1
  P  P16  1  0.400923  0.760510  0.524256  1
  P  P17  1  0.964330  0.666203  0.638996  1
  P  P18  1  0.333797  0.035670  0.861004  1
  P  P19  1  0.239491  0.599078  0.975745  1
  S  S20  1  0.320535  0.053835  0.000315  1
  S  S21  1  0.214739  0.417829  0.025753  1
  S  S22  1  0.260774  0.728017  0.081993  1
  S  S23  1  0.579719  0.457581  0.104000  1
  S  S24  1  0.921902  0.299692  0.109423  1
  S  S25  1  0.523624  0.161139  0.169802  1
  S  S26  1  0.598227  0.805221  0.186455  1
  S  S27  1  0.853276  0.964789  0.197764  1
  S  S28  1  0.035211  0.146724  0.302235  1
  S  S29  1  0.194778  0.401772  0.313545  1
  S  S30  1  0.838861  0.476376  0.330198  1
  S  S31  1  0.700308  0.078098  0.390577  1
  S  S32  1  0.542419  0.420281  0.396001  1
  S  S33  1  0.271982  0.739225  0.418006  1
  S  S34  1  0.582171  0.785261  0.474247  1
  S  S35  1  0.946165  0.679465  0.499684  1
  S  S36  1  0.053835  0.320536  0.500315  1
  S  S37  1  0.417829  0.214739  0.525753  1
  S  S38  1  0.728017  0.260775  0.581993  1
  S  S39  1  0.457582  0.579720  0.603999  1
  S  S40  1  0.299692  0.921902  0.609422  1
  S  S41  1  0.161139  0.523623  0.669802  1
  S  S42  1  0.805222  0.598228  0.686455  1
  S  S43  1  0.964788  0.853275  0.697765  1
  S  S44  1  0.146724  0.035211  0.802235  1
  S  S45  1  0.401772  0.194778  0.813545  1
  S  S46  1  0.476377  0.838861  0.830197  1
  S  S47  1  0.078097  0.700308  0.890577  1
  S  S48  1  0.420281  0.542419  0.896001  1
  S  S49  1  0.739226  0.271983  0.918007  1
  S  S50  1  0.785261  0.582171  0.974247  1
  S  S51  1  0.679465  0.946165  0.999684  1
