# generated using pymatgen
data_Tb2Ce5Ho(AlRu)8
_symmetry_space_group_name_H-M   'P 1'
_cell_length_a   4.06011900
_cell_length_b   7.15974569
_cell_length_c   15.96189191
_cell_angle_alpha   90.23017241
_cell_angle_beta   90.00000000
_cell_angle_gamma   90.00000000
_symmetry_Int_Tables_number   1
_chemical_formula_structural   Tb2Ce5Ho(AlRu)8
_chemical_formula_sum   'Tb2 Ce5 Ho1 Al8 Ru8'
_cell_volume   463.99918803
_cell_formula_units_Z   1
loop_
 _symmetry_equiv_pos_site_id
 _symmetry_equiv_pos_as_xyz
  1  'x, y, z'
loop_
 _atom_site_type_symbol
 _atom_site_label
 _atom_site_symmetry_multiplicity
 _atom_site_fract_x
 _atom_site_fract_y
 _atom_site_fract_z
 _atom_site_occupancy
  Tb  Tb0  1  0.750000  0.957785  0.219020  1
  Tb  Tb1  1  0.250000  0.161074  0.558681  1
  Ce  Ce2  1  0.750000  0.464178  0.282717  1
  Ce  Ce3  1  0.750000  0.330477  0.063102  1
  Ce  Ce4  1  0.250000  0.672599  0.938305  1
  Ce  Ce5  1  0.250000  0.045317  0.779997  1
  Ce  Ce6  1  0.250000  0.538714  0.717537  1
  Ho  Ho7  1  0.750000  0.836769  0.439232  1
  Al  Al8  1  0.750000  0.494385  0.561640  1
  Al  Al9  1  0.750000  0.369328  0.851149  1
  Al  Al10  1  0.750000  0.005880  0.936371  1
  Al  Al11  1  0.750000  0.869829  0.648724  1
  Al  Al12  1  0.250000  0.497907  0.437839  1
  Al  Al13  1  0.250000  0.998083  0.066266  1
  Al  Al14  1  0.250000  0.637942  0.150022  1
  Al  Al15  1  0.250000  0.123960  0.347034  1
  Ru  Ru16  1  0.750000  0.748174  0.815484  1
  Ru  Ru17  1  0.250000  0.238282  0.936704  1
  Ru  Ru18  1  0.750000  0.261008  0.428921  1
  Ru  Ru19  1  0.250000  0.741894  0.316452  1
  Ru  Ru20  1  0.750000  0.761319  0.060975  1
  Ru  Ru21  1  0.750000  0.248395  0.689704  1
  Ru  Ru22  1  0.250000  0.269304  0.183945  1
  Ru  Ru23  1  0.250000  0.727394  0.570177  1
