# generated using pymatgen
data_Lu4Hf4IrPt3
_symmetry_space_group_name_H-M   'P 1'
_cell_length_a   4.62429900
_cell_length_b   6.93131279
_cell_length_c   8.17873667
_cell_angle_alpha   89.84245548
_cell_angle_beta   90.00000000
_cell_angle_gamma   90.00000000
_symmetry_Int_Tables_number   1
_chemical_formula_structural   Lu4Hf4IrPt3
_chemical_formula_sum   'Lu4 Hf4 Ir1 Pt3'
_cell_volume   262.14766200
_cell_formula_units_Z   1
loop_
 _symmetry_equiv_pos_site_id
 _symmetry_equiv_pos_as_xyz
  1  'x, y, z'
loop_
 _atom_site_type_symbol
 _atom_site_label
 _atom_site_symmetry_multiplicity
 _atom_site_fract_x
 _atom_site_fract_y
 _atom_site_fract_z
 _atom_site_occupancy
  Lu  Lu0  1  0.250000  0.980393  0.320036  1
  Lu  Lu1  1  0.250000  0.479139  0.175846  1
  Lu  Lu2  1  0.750000  0.022151  0.680071  1
  Lu  Lu3  1  0.750000  0.516118  0.824378  1
  Hf  Hf4  1  0.250000  0.352140  0.575647  1
  Hf  Hf5  1  0.250000  0.856837  0.923623  1
  Hf  Hf6  1  0.750000  0.647191  0.425970  1
  Hf  Hf7  1  0.750000  0.148365  0.071464  1
  Ir  Ir8  1  0.250000  0.232715  0.902110  1
  Pt  Pt9  1  0.250000  0.732891  0.599398  1
  Pt  Pt10  1  0.750000  0.765873  0.101259  1
  Pt  Pt11  1  0.750000  0.266186  0.400199  1
