# generated using pymatgen
data_RbPr(TmSe2)2
_symmetry_space_group_name_H-M   'P 1'
_cell_length_a   4.12731800
_cell_length_b   4.12731816
_cell_length_c   29.71660100
_cell_angle_alpha   90.00000000
_cell_angle_beta   90.00000000
_cell_angle_gamma   119.99998269
_symmetry_Int_Tables_number   1
_chemical_formula_structural   RbPr(TmSe2)2
_chemical_formula_sum   'Rb2 Pr2 Tm4 Se8'
_cell_volume   438.39512942
_cell_formula_units_Z   2
loop_
 _symmetry_equiv_pos_site_id
 _symmetry_equiv_pos_as_xyz
  1  'x, y, z'
loop_
 _atom_site_type_symbol
 _atom_site_label
 _atom_site_symmetry_multiplicity
 _atom_site_fract_x
 _atom_site_fract_y
 _atom_site_fract_z
 _atom_site_occupancy
  Rb  Rb0  1  0.666667  0.333333  0.250000  1
  Rb  Rb1  1  0.333333  0.666667  0.750000  1
  Pr  Pr2  1  0.000000  0.000000  0.500000  1
  Pr  Pr3  1  0.000000  0.000000  0.000000  1
  Tm  Tm4  1  0.666667  0.333333  0.614919  1
  Tm  Tm5  1  0.666667  0.333333  0.885081  1
  Tm  Tm6  1  0.333333  0.666667  0.385081  1
  Tm  Tm7  1  0.333333  0.666667  0.114919  1
  Se  Se8  1  0.000000  0.000000  0.167304  1
  Se  Se9  1  0.666667  0.333333  0.437353  1
  Se  Se10  1  0.000000  0.000000  0.667304  1
  Se  Se11  1  0.333333  0.666667  0.937353  1
  Se  Se12  1  0.333333  0.666667  0.562647  1
  Se  Se13  1  0.000000  0.000000  0.332696  1
  Se  Se14  1  0.666667  0.333333  0.062647  1
  Se  Se15  1  0.000000  0.000000  0.832696  1
