# generated using pymatgen
data_YbErB6Os
_symmetry_space_group_name_H-M   'P 1'
_cell_length_a   3.62635900
_cell_length_b   9.13270400
_cell_length_c   11.52003700
_cell_angle_alpha   90.00000000
_cell_angle_beta   90.00000000
_cell_angle_gamma   90.00000000
_symmetry_Int_Tables_number   1
_chemical_formula_structural   YbErB6Os
_chemical_formula_sum   'Yb4 Er4 B24 Os4'
_cell_volume   381.52592311
_cell_formula_units_Z   4
loop_
 _symmetry_equiv_pos_site_id
 _symmetry_equiv_pos_as_xyz
  1  'x, y, z'
loop_
 _atom_site_type_symbol
 _atom_site_label
 _atom_site_symmetry_multiplicity
 _atom_site_fract_x
 _atom_site_fract_y
 _atom_site_fract_z
 _atom_site_occupancy
  Yb  Yb0  1  0.000000  0.324087  0.414821  1
  Yb  Yb1  1  0.000000  0.675913  0.585179  1
  Yb  Yb2  1  0.000000  0.824087  0.085179  1
  Yb  Yb3  1  0.000000  0.175913  0.914821  1
  Er  Er4  1  0.000000  0.942451  0.368309  1
  Er  Er5  1  0.000000  0.057549  0.631691  1
  Er  Er6  1  0.000000  0.442451  0.131691  1
  Er  Er7  1  0.000000  0.557549  0.868309  1
  B  B8  1  0.500000  0.553849  0.433187  1
  B  B9  1  0.500000  0.446151  0.566813  1
  B  B10  1  0.500000  0.053849  0.066813  1
  B  B11  1  0.500000  0.946151  0.933187  1
  B  B12  1  0.500000  0.748580  0.417481  1
  B  B13  1  0.500000  0.251420  0.582519  1
  B  B14  1  0.500000  0.248580  0.082519  1
  B  B15  1  0.500000  0.751420  0.917481  1
  B  B16  1  0.500000  0.791205  0.264355  1
  B  B17  1  0.500000  0.208795  0.735645  1
  B  B18  1  0.500000  0.291205  0.235645  1
  B  B19  1  0.500000  0.708795  0.764355  1
  B  B20  1  0.500000  0.631081  0.185597  1
  B  B21  1  0.500000  0.368919  0.814403  1
  B  B22  1  0.500000  0.131081  0.314403  1
  B  B23  1  0.500000  0.868919  0.685597  1
  B  B24  1  0.500000  0.982922  0.211112  1
  B  B25  1  0.500000  0.017078  0.788888  1
  B  B26  1  0.500000  0.482922  0.288888  1
  B  B27  1  0.500000  0.517078  0.711112  1
  B  B28  1  0.500000  0.597192  0.026812  1
  B  B29  1  0.500000  0.402808  0.973188  1
  B  B30  1  0.500000  0.097192  0.473188  1
  B  B31  1  0.500000  0.902808  0.526812  1
  Os  Os32  1  0.000000  0.638715  0.320363  1
  Os  Os33  1  0.000000  0.361285  0.679637  1
  Os  Os34  1  0.000000  0.138715  0.179637  1
  Os  Os35  1  0.000000  0.861285  0.820363  1
