# generated using pymatgen
data_TbHfMn3Ni9P7
_symmetry_space_group_name_H-M   'P 1'
_cell_length_a   9.08549700
_cell_length_b   9.08549520
_cell_length_c   3.63747500
_cell_angle_alpha   90.00000000
_cell_angle_beta   90.00000000
_cell_angle_gamma   120.00000192
_symmetry_Int_Tables_number   1
_chemical_formula_structural   TbHfMn3Ni9P7
_chemical_formula_sum   'Tb1 Hf1 Mn3 Ni9 P7'
_cell_volume   260.03268071
_cell_formula_units_Z   1
loop_
 _symmetry_equiv_pos_site_id
 _symmetry_equiv_pos_as_xyz
  1  'x, y, z'
loop_
 _atom_site_type_symbol
 _atom_site_label
 _atom_site_symmetry_multiplicity
 _atom_site_fract_x
 _atom_site_fract_y
 _atom_site_fract_z
 _atom_site_occupancy
  Tb  Tb0  1  0.333333  0.666667  0.500000  1
  Hf  Hf1  1  0.666667  0.333333  0.000000  1
  Mn  Mn2  1  0.097645  0.875031  0.500000  1
  Mn  Mn3  1  0.777385  0.902355  0.500000  1
  Mn  Mn4  1  0.124969  0.222615  0.500000  1
  Ni  Ni5  1  0.057365  0.621407  0.000000  1
  Ni  Ni6  1  0.564042  0.942635  0.000000  1
  Ni  Ni7  1  0.378593  0.435958  0.000000  1
  Ni  Ni8  1  0.280214  0.125627  0.000000  1
  Ni  Ni9  1  0.845413  0.719786  0.000000  1
  Ni  Ni10  1  0.874373  0.154587  0.000000  1
  Ni  Ni11  1  0.439178  0.059506  0.500000  1
  Ni  Ni12  1  0.620328  0.560822  0.500000  1
  Ni  Ni13  1  0.940494  0.379672  0.500000  1
  P  P14  1  0.289746  0.884802  0.000000  1
  P  P15  1  0.595055  0.710254  0.000000  1
  P  P16  1  0.115198  0.404945  0.000000  1
  P  P17  1  0.412373  0.294095  0.500000  1
  P  P18  1  0.881721  0.587627  0.500000  1
  P  P19  1  0.705905  0.118279  0.500000  1
  P  P20  1  0.000000  0.000000  0.000000  1
