# generated using pymatgen
data_Tb2Y(In2Rh)2
_symmetry_space_group_name_H-M   'P 1'
_cell_length_a   7.84472300
_cell_length_b   7.85260072
_cell_length_c   3.87840800
_cell_angle_alpha   90.00000000
_cell_angle_beta   90.00000000
_cell_angle_gamma   119.96870128
_symmetry_Int_Tables_number   1
_chemical_formula_structural   Tb2Y(In2Rh)2
_chemical_formula_sum   'Tb2 Y1 In4 Rh2'
_cell_volume   206.97225843
_cell_formula_units_Z   1
loop_
 _symmetry_equiv_pos_site_id
 _symmetry_equiv_pos_as_xyz
  1  'x, y, z'
loop_
 _atom_site_type_symbol
 _atom_site_label
 _atom_site_symmetry_multiplicity
 _atom_site_fract_x
 _atom_site_fract_y
 _atom_site_fract_z
 _atom_site_occupancy
  Tb  Tb0  1  0.031549  0.615183  0.500000  1
  Tb  Tb1  1  0.583718  0.968465  0.500000  1
  Y  Y2  1  0.384943  0.415811  0.500000  1
  In  In3  1  0.002058  0.255117  0.000000  1
  In  In4  1  0.666561  0.333420  0.000000  1
  In  In5  1  0.744979  0.746506  0.000000  1
  In  In6  1  0.253351  0.998514  0.000000  1
  Rh  Rh7  1  0.333270  0.667262  0.000000  1
  Rh  Rh8  1  0.999572  0.999723  0.500000  1
