# generated using pymatgen
data_Tb3ZnRe3WN12
_symmetry_space_group_name_H-M   'P 1'
_cell_length_a   11.07960122
_cell_length_b   11.07960177
_cell_length_c   11.07960100
_cell_angle_alpha   109.47122289
_cell_angle_beta   109.47122388
_cell_angle_gamma   109.47121639
_symmetry_Int_Tables_number   1
_chemical_formula_structural   Tb3ZnRe3WN12
_chemical_formula_sum   'Tb12 Zn4 Re12 W4 N48'
_cell_volume   1047.00921399
_cell_formula_units_Z   4
loop_
 _symmetry_equiv_pos_site_id
 _symmetry_equiv_pos_as_xyz
  1  'x, y, z'
loop_
 _atom_site_type_symbol
 _atom_site_label
 _atom_site_symmetry_multiplicity
 _atom_site_fract_x
 _atom_site_fract_y
 _atom_site_fract_z
 _atom_site_occupancy
  Tb  Tb0  1  0.375203  0.750000  0.125203  1
  Tb  Tb1  1  0.250000  0.374797  0.124797  1
  Tb  Tb2  1  0.374797  0.124797  0.250000  1
  Tb  Tb3  1  0.874797  0.624797  0.250000  1
  Tb  Tb4  1  0.750000  0.125203  0.375203  1
  Tb  Tb5  1  0.124797  0.250000  0.374797  1
  Tb  Tb6  1  0.875203  0.750000  0.625203  1
  Tb  Tb7  1  0.250000  0.874797  0.624797  1
  Tb  Tb8  1  0.125203  0.375203  0.750000  1
  Tb  Tb9  1  0.625203  0.875203  0.750000  1
  Tb  Tb10  1  0.624797  0.250000  0.874797  1
  Tb  Tb11  1  0.750000  0.625203  0.875203  1
  Zn  Zn12  1  0.000000  0.000000  0.000000  1
  Zn  Zn13  1  0.500000  0.500000  0.000000  1
  Zn  Zn14  1  0.500000  0.000000  0.500000  1
  Zn  Zn15  1  0.000000  0.500000  0.500000  1
  Re  Re16  1  0.877764  0.250000  0.127764  1
  Re  Re17  1  0.750000  0.872236  0.122236  1
  Re  Re18  1  0.627764  0.377764  0.250000  1
  Re  Re19  1  0.127764  0.877764  0.250000  1
  Re  Re20  1  0.250000  0.627764  0.377764  1
  Re  Re21  1  0.622236  0.750000  0.372236  1
  Re  Re22  1  0.377764  0.250000  0.627764  1
  Re  Re23  1  0.750000  0.372236  0.622236  1
  Re  Re24  1  0.872236  0.122236  0.750000  1
  Re  Re25  1  0.372236  0.622236  0.750000  1
  Re  Re26  1  0.250000  0.127764  0.877764  1
  Re  Re27  1  0.122236  0.750000  0.872236  1
  W  W28  1  0.500000  0.000000  0.000000  1
  W  W29  1  0.000000  0.500000  0.000000  1
  W  W30  1  0.000000  0.000000  0.500000  1
  W  W31  1  0.500000  0.500000  0.500000  1
  N  N32  1  0.212399  0.123729  0.023664  1
  N  N33  1  0.316691  0.902245  0.016238  1
  N  N34  1  0.886007  0.402245  0.085555  1
  N  N35  1  0.712399  0.688735  0.088670  1
  N  N36  1  0.623729  0.411331  0.100065  1
  N  N37  1  0.983762  0.683309  0.097755  1
  N  N38  1  0.023664  0.212399  0.123729  1
  N  N39  1  0.597755  0.914446  0.113993  1
  N  N40  1  0.199547  0.585555  0.183309  1
  N  N41  1  0.476336  0.600065  0.188735  1
  N  N42  1  0.585555  0.183309  0.199547  1
  N  N43  1  0.123729  0.023664  0.212399  1
  N  N44  1  0.483762  0.386007  0.300453  1
  N  N45  1  0.311265  0.911331  0.287601  1
  N  N46  1  0.902245  0.016238  0.316691  1
  N  N47  1  0.911331  0.287601  0.311265  1
  N  N48  1  0.300453  0.483762  0.386007  1
  N  N49  1  0.588670  0.899935  0.376271  1
  N  N50  1  0.811265  0.523664  0.399935  1
  N  N51  1  0.085555  0.886007  0.402245  1
  N  N52  1  0.100065  0.623729  0.411331  1
  N  N53  1  0.816691  0.800453  0.414446  1
  N  N54  1  0.600065  0.188735  0.476336  1
  N  N55  1  0.386007  0.300453  0.483762  1
  N  N56  1  0.613993  0.699547  0.516238  1
  N  N57  1  0.399935  0.811265  0.523664  1
  N  N58  1  0.183309  0.199547  0.585555  1
  N  N59  1  0.899935  0.376271  0.588670  1
  N  N60  1  0.914446  0.113993  0.597755  1
  N  N61  1  0.188735  0.476336  0.600065  1
  N  N62  1  0.411331  0.100065  0.623729  1
  N  N63  1  0.699547  0.516238  0.613993  1
  N  N64  1  0.088670  0.712399  0.688735  1
  N  N65  1  0.097755  0.983762  0.683309  1
  N  N66  1  0.688735  0.088670  0.712399  1
  N  N67  1  0.516238  0.613993  0.699547  1
  N  N68  1  0.414446  0.816691  0.800453  1
  N  N69  1  0.876271  0.976336  0.787601  1
  N  N70  1  0.523664  0.399935  0.811265  1
  N  N71  1  0.800453  0.414446  0.816691  1
  N  N72  1  0.402245  0.085555  0.886007  1
  N  N73  1  0.976336  0.787601  0.876271  1
  N  N74  1  0.016238  0.316691  0.902245  1
  N  N75  1  0.376271  0.588670  0.899935  1
  N  N76  1  0.287601  0.311265  0.911331  1
  N  N77  1  0.113993  0.597755  0.914446  1
  N  N78  1  0.683309  0.097755  0.983762  1
  N  N79  1  0.787601  0.876271  0.976336  1
