# generated using pymatgen
data_Nd5ScMoO12
_symmetry_space_group_name_H-M   'P 1'
_cell_length_a   7.12302099
_cell_length_b   7.12301979
_cell_length_c   7.60706598
_cell_angle_alpha   74.49416864
_cell_angle_beta   74.49416854
_cell_angle_gamma   51.00500425
_symmetry_Int_Tables_number   1
_chemical_formula_structural   Nd5ScMoO12
_chemical_formula_sum   'Nd5 Sc1 Mo1 O12'
_cell_volume   286.51020211
_cell_formula_units_Z   1
loop_
 _symmetry_equiv_pos_site_id
 _symmetry_equiv_pos_as_xyz
  1  'x, y, z'
loop_
 _atom_site_type_symbol
 _atom_site_label
 _atom_site_symmetry_multiplicity
 _atom_site_fract_x
 _atom_site_fract_y
 _atom_site_fract_z
 _atom_site_occupancy
  Nd  Nd0  1  0.310894  0.293352  0.359571  1
  Nd  Nd1  1  0.706648  0.689106  0.640429  1
  Nd  Nd2  1  0.303988  0.307550  0.833557  1
  Nd  Nd3  1  0.692450  0.696012  0.166443  1
  Nd  Nd4  1  0.010599  0.989401  0.500000  1
  Sc  Sc5  1  0.744937  0.255063  0.000000  1
  Mo  Mo6  1  0.234556  0.765444  0.000000  1
  O  O7  1  0.899556  0.435549  0.917338  1
  O  O8  1  0.415939  0.896985  0.918980  1
  O  O9  1  0.103015  0.584061  0.081020  1
  O  O10  1  0.564451  0.100444  0.082662  1
  O  O11  1  0.101590  0.594841  0.571522  1
  O  O12  1  0.601479  0.089542  0.577680  1
  O  O13  1  0.910458  0.398521  0.422320  1
  O  O14  1  0.405159  0.898410  0.428478  1
  O  O15  1  0.017238  0.982261  0.821799  1
  O  O16  1  0.017739  0.982762  0.178201  1
  O  O17  1  0.478536  0.519230  0.821832  1
  O  O18  1  0.480770  0.521464  0.178168  1
