# generated using pymatgen
data_Tb10Th6MgHg3Ru4
_symmetry_space_group_name_H-M   'P 1'
_cell_length_a   9.68234636
_cell_length_b   9.81892364
_cell_length_c   9.81892508
_cell_angle_alpha   59.19416792
_cell_angle_beta   60.12656645
_cell_angle_gamma   60.12656428
_symmetry_Int_Tables_number   1
_chemical_formula_structural   Tb10Th6MgHg3Ru4
_chemical_formula_sum   'Tb10 Th6 Mg1 Hg3 Ru4'
_cell_volume   657.19893477
_cell_formula_units_Z   1
loop_
 _symmetry_equiv_pos_site_id
 _symmetry_equiv_pos_as_xyz
  1  'x, y, z'
loop_
 _atom_site_type_symbol
 _atom_site_label
 _atom_site_symmetry_multiplicity
 _atom_site_fract_x
 _atom_site_fract_y
 _atom_site_fract_z
 _atom_site_occupancy
  Tb  Tb0  1  0.437530  0.059978  0.441588  1
  Tb  Tb1  1  0.056307  0.442381  0.058239  1
  Tb  Tb2  1  0.437530  0.441588  0.059978  1
  Tb  Tb3  1  0.056307  0.058239  0.442381  1
  Tb  Tb4  1  0.183453  0.819265  0.819265  1
  Tb  Tb5  1  0.813771  0.184818  0.184818  1
  Tb  Tb6  1  0.809061  0.191976  0.813704  1
  Tb  Tb7  1  0.189817  0.812550  0.187892  1
  Tb  Tb8  1  0.809061  0.813704  0.191976  1
  Tb  Tb9  1  0.189817  0.187892  0.812550  1
  Th  Th10  1  0.588903  0.599741  0.599741  1
  Th  Th11  1  0.602942  0.593273  0.204640  1
  Th  Th12  1  0.602942  0.204640  0.593273  1
  Th  Th13  1  0.197934  0.603220  0.603220  1
  Th  Th14  1  0.063568  0.437154  0.437154  1
  Th  Th15  1  0.431502  0.067401  0.067401  1
  Mg  Mg16  1  0.535128  0.818571  0.818571  1
  Hg  Hg17  1  0.838189  0.836287  0.836287  1
  Hg  Hg18  1  0.830675  0.837964  0.490361  1
  Hg  Hg19  1  0.830675  0.490361  0.837964  1
  Ru  Ru20  1  0.378418  0.398452  0.398452  1
  Ru  Ru21  1  0.396315  0.376526  0.823784  1
  Ru  Ru22  1  0.396315  0.823784  0.376526  1
  Ru  Ru23  1  0.823842  0.400238  0.400238  1
