# generated using pymatgen
data_Tm2Lu2Ni3Ru5
_symmetry_space_group_name_H-M   'P 1'
_cell_length_a   5.10847400
_cell_length_b   5.12407125
_cell_length_c   8.72592500
_cell_angle_alpha   90.00000000
_cell_angle_beta   90.00200763
_cell_angle_gamma   120.10103719
_symmetry_Int_Tables_number   1
_chemical_formula_structural   Tm2Lu2Ni3Ru5
_chemical_formula_sum   'Tm2 Lu2 Ni3 Ru5'
_cell_volume   197.60839505
_cell_formula_units_Z   1
loop_
 _symmetry_equiv_pos_site_id
 _symmetry_equiv_pos_as_xyz
  1  'x, y, z'
loop_
 _atom_site_type_symbol
 _atom_site_label
 _atom_site_symmetry_multiplicity
 _atom_site_fract_x
 _atom_site_fract_y
 _atom_site_fract_z
 _atom_site_occupancy
  Tm  Tm0  1  0.331840  0.665921  0.434080  1
  Tm  Tm1  1  0.663285  0.331643  0.568531  1
  Lu  Lu2  1  0.663313  0.331657  0.932628  1
  Lu  Lu3  1  0.332071  0.666036  0.065083  1
  Ni  Ni4  1  0.173967  0.340594  0.750717  1
  Ni  Ni5  1  0.173967  0.833374  0.750717  1
  Ni  Ni6  1  0.339250  0.169624  0.249391  1
  Ru  Ru7  1  0.834385  0.660861  0.248874  1
  Ru  Ru8  1  0.665263  0.832631  0.751234  1
  Ru  Ru9  1  0.994850  0.997425  0.996834  1
  Ru  Ru10  1  0.834385  0.173524  0.248874  1
  Ru  Ru11  1  0.993425  0.996712  0.503037  1
