# generated using pymatgen
data_La5(Hg2Ir)2
_symmetry_space_group_name_H-M   'P 1'
_cell_length_a   3.86472900
_cell_length_b   8.33200900
_cell_length_c   18.61448100
_cell_angle_alpha   90.00000000
_cell_angle_beta   90.00000000
_cell_angle_gamma   90.00000000
_symmetry_Int_Tables_number   1
_chemical_formula_structural   La5(Hg2Ir)2
_chemical_formula_sum   'La10 Hg8 Ir4'
_cell_volume   599.40409873
_cell_formula_units_Z   2
loop_
 _symmetry_equiv_pos_site_id
 _symmetry_equiv_pos_as_xyz
  1  'x, y, z'
loop_
 _atom_site_type_symbol
 _atom_site_label
 _atom_site_symmetry_multiplicity
 _atom_site_fract_x
 _atom_site_fract_y
 _atom_site_fract_z
 _atom_site_occupancy
  La  La0  1  0.000000  0.108815  0.408906  1
  La  La1  1  0.000000  0.891185  0.591094  1
  La  La2  1  0.000000  0.391185  0.908906  1
  La  La3  1  0.000000  0.608815  0.091094  1
  La  La4  1  0.000000  0.241091  0.218932  1
  La  La5  1  0.000000  0.758909  0.781068  1
  La  La6  1  0.000000  0.258909  0.718932  1
  La  La7  1  0.000000  0.741091  0.281068  1
  La  La8  1  0.000000  0.000000  0.000000  1
  La  La9  1  0.000000  0.500000  0.500000  1
  Hg  Hg10  1  0.500000  0.424304  0.353831  1
  Hg  Hg11  1  0.500000  0.575696  0.646169  1
  Hg  Hg12  1  0.500000  0.075696  0.853831  1
  Hg  Hg13  1  0.500000  0.924304  0.146169  1
  Hg  Hg14  1  0.500000  0.289478  0.062580  1
  Hg  Hg15  1  0.500000  0.710522  0.937420  1
  Hg  Hg16  1  0.500000  0.210522  0.562580  1
  Hg  Hg17  1  0.500000  0.789478  0.437420  1
  Ir  Ir18  1  0.500000  0.021262  0.302008  1
  Ir  Ir19  1  0.500000  0.978738  0.697992  1
  Ir  Ir20  1  0.500000  0.478738  0.802008  1
  Ir  Ir21  1  0.500000  0.521262  0.197992  1
