# generated using pymatgen
data_Tb4Al18Co5Ni
_symmetry_space_group_name_H-M   'P 1'
_cell_length_a   7.40568886
_cell_length_b   7.40568873
_cell_length_c   9.32715700
_cell_angle_alpha   89.97325888
_cell_angle_beta   89.97326042
_cell_angle_gamma   119.26347376
_symmetry_Int_Tables_number   1
_chemical_formula_structural   Tb4Al18Co5Ni
_chemical_formula_sum   'Tb4 Al18 Co5 Ni1'
_cell_volume   446.25824743
_cell_formula_units_Z   1
loop_
 _symmetry_equiv_pos_site_id
 _symmetry_equiv_pos_as_xyz
  1  'x, y, z'
loop_
 _atom_site_type_symbol
 _atom_site_label
 _atom_site_symmetry_multiplicity
 _atom_site_fract_x
 _atom_site_fract_y
 _atom_site_fract_z
 _atom_site_occupancy
  Tb  Tb0  1  0.993373  0.671996  0.250471  1
  Tb  Tb1  1  0.006723  0.327861  0.749657  1
  Tb  Tb2  1  0.672139  0.993277  0.250343  1
  Tb  Tb3  1  0.328004  0.006627  0.749529  1
  Al  Al4  1  0.125321  0.124840  0.250228  1
  Al  Al5  1  0.875160  0.874679  0.749772  1
  Al  Al6  1  0.332197  0.332091  0.541687  1
  Al  Al7  1  0.667521  0.670091  0.043170  1
  Al  Al8  1  0.329909  0.332479  0.956830  1
  Al  Al9  1  0.667909  0.667803  0.458313  1
  Al  Al10  1  0.339719  0.554090  0.250076  1
  Al  Al11  1  0.660352  0.447638  0.747390  1
  Al  Al12  1  0.552362  0.339648  0.252610  1
  Al  Al13  1  0.445910  0.660281  0.749924  1
  Al  Al14  1  0.000736  0.335543  0.072019  1
  Al  Al15  1  0.002298  0.664645  0.570785  1
  Al  Al16  1  0.335355  0.997702  0.429215  1
  Al  Al17  1  0.664457  0.999264  0.927981  1
  Al  Al18  1  0.004443  0.667502  0.928222  1
  Al  Al19  1  0.997933  0.334863  0.428811  1
  Al  Al20  1  0.665137  0.002067  0.571189  1
  Al  Al21  1  0.332498  0.995557  0.071778  1
  Co  Co22  1  0.999901  0.000099  0.000000  1
  Co  Co23  1  0.000258  0.999742  0.500000  1
  Co  Co24  1  0.329161  0.670839  0.500000  1
  Co  Co25  1  0.329088  0.670912  0.000000  1
  Co  Co26  1  0.671088  0.328912  0.500000  1
  Ni  Ni27  1  0.671047  0.328953  0.000000  1
