# generated using pymatgen
data_Th6TcPtAu6
_symmetry_space_group_name_H-M   'P 1'
_cell_length_a   8.27715580
_cell_length_b   8.27715592
_cell_length_c   8.27715859
_cell_angle_alpha   114.09867444
_cell_angle_beta   114.09868559
_cell_angle_gamma   114.09865411
_symmetry_Int_Tables_number   1
_chemical_formula_structural   Th6TcPtAu6
_chemical_formula_sum   'Th6 Tc1 Pt1 Au6'
_cell_volume   341.99459823
_cell_formula_units_Z   1
loop_
 _symmetry_equiv_pos_site_id
 _symmetry_equiv_pos_as_xyz
  1  'x, y, z'
loop_
 _atom_site_type_symbol
 _atom_site_label
 _atom_site_symmetry_multiplicity
 _atom_site_fract_x
 _atom_site_fract_y
 _atom_site_fract_z
 _atom_site_occupancy
  Th  Th0  1  0.030485  0.384984  0.274251  1
  Th  Th1  1  0.384984  0.274251  0.030485  1
  Th  Th2  1  0.725749  0.969515  0.615016  1
  Th  Th3  1  0.274251  0.030485  0.384984  1
  Th  Th4  1  0.615016  0.725749  0.969515  1
  Th  Th5  1  0.969515  0.615016  0.725749  1
  Tc  Tc6  1  0.000000  0.000000  0.000000  1
  Pt  Pt7  1  0.500000  0.500000  0.500000  1
  Au  Au8  1  0.421956  0.926377  0.764501  1
  Au  Au9  1  0.926377  0.764501  0.421956  1
  Au  Au10  1  0.235499  0.578044  0.073623  1
  Au  Au11  1  0.764501  0.421956  0.926377  1
  Au  Au12  1  0.073623  0.235499  0.578044  1
  Au  Au13  1  0.578044  0.073623  0.235499  1
