# generated using pymatgen
data_Sr8LiMg6Si16Ag
_symmetry_space_group_name_H-M   'P 1'
_cell_length_a   4.38453200
_cell_length_b   11.38943859
_cell_length_c   14.44035675
_cell_angle_alpha   90.03697877
_cell_angle_beta   90.00000000
_cell_angle_gamma   90.00000000
_symmetry_Int_Tables_number   1
_chemical_formula_structural   Sr8LiMg6Si16Ag
_chemical_formula_sum   'Sr8 Li1 Mg6 Si16 Ag1'
_cell_volume   721.11311419
_cell_formula_units_Z   1
loop_
 _symmetry_equiv_pos_site_id
 _symmetry_equiv_pos_as_xyz
  1  'x, y, z'
loop_
 _atom_site_type_symbol
 _atom_site_label
 _atom_site_symmetry_multiplicity
 _atom_site_fract_x
 _atom_site_fract_y
 _atom_site_fract_z
 _atom_site_occupancy
  Sr  Sr0  1  0.250000  0.522286  0.199186  1
  Sr  Sr1  1  0.250000  0.744684  0.938695  1
  Sr  Sr2  1  0.750000  0.256306  0.060935  1
  Sr  Sr3  1  0.750000  0.244773  0.561149  1
  Sr  Sr4  1  0.250000  0.755822  0.438450  1
  Sr  Sr5  1  0.250000  0.976964  0.698538  1
  Sr  Sr6  1  0.750000  0.025123  0.302828  1
  Sr  Sr7  1  0.750000  0.474884  0.802190  1
  Li  Li8  1  0.250000  0.057088  0.940813  1
  Mg  Mg9  1  0.750000  0.553176  0.554940  1
  Mg  Mg10  1  0.750000  0.945430  0.056158  1
  Mg  Mg11  1  0.250000  0.676506  0.689514  1
  Mg  Mg12  1  0.750000  0.324416  0.313639  1
  Mg  Mg13  1  0.750000  0.176164  0.812719  1
  Mg  Mg14  1  0.250000  0.822801  0.189914  1
  Si  Si15  1  0.750000  0.949857  0.867291  1
  Si  Si16  1  0.250000  0.450744  0.631580  1
  Si  Si17  1  0.750000  0.548682  0.366686  1
  Si  Si18  1  0.250000  0.033292  0.468967  1
  Si  Si19  1  0.250000  0.049295  0.130635  1
  Si  Si20  1  0.250000  0.274582  0.723126  1
  Si  Si21  1  0.750000  0.725295  0.277684  1
  Si  Si22  1  0.750000  0.774484  0.777299  1
  Si  Si23  1  0.250000  0.216318  0.392827  1
  Si  Si24  1  0.750000  0.968774  0.530924  1
  Si  Si25  1  0.750000  0.531773  0.030759  1
  Si  Si26  1  0.250000  0.467812  0.969047  1
  Si  Si27  1  0.250000  0.283867  0.893187  1
  Si  Si28  1  0.750000  0.785508  0.607241  1
  Si  Si29  1  0.750000  0.714379  0.107383  1
  Si  Si30  1  0.250000  0.224107  0.223306  1
  Ag  Ag31  1  0.250000  0.444810  0.442396  1
