# generated using pymatgen
data_Tb3Co6IrC2
_symmetry_space_group_name_H-M   'P 1'
_cell_length_a   5.09079008
_cell_length_b   5.09078950
_cell_length_c   14.14845500
_cell_angle_alpha   90.00000000
_cell_angle_beta   90.00000000
_cell_angle_gamma   119.99818646
_symmetry_Int_Tables_number   1
_chemical_formula_structural   Tb3Co6IrC2
_chemical_formula_sum   'Tb6 Co12 Ir2 C4'
_cell_volume   317.55423918
_cell_formula_units_Z   2
loop_
 _symmetry_equiv_pos_site_id
 _symmetry_equiv_pos_as_xyz
  1  'x, y, z'
loop_
 _atom_site_type_symbol
 _atom_site_label
 _atom_site_symmetry_multiplicity
 _atom_site_fract_x
 _atom_site_fract_y
 _atom_site_fract_z
 _atom_site_occupancy
  Tb  Tb0  1  0.666669  0.333331  0.032298  1
  Tb  Tb1  1  0.333331  0.666669  0.967702  1
  Tb  Tb2  1  0.333331  0.666669  0.532298  1
  Tb  Tb3  1  0.666669  0.333331  0.467702  1
  Tb  Tb4  1  0.666659  0.333341  0.250000  1
  Tb  Tb5  1  0.333341  0.666659  0.750000  1
  Co  Co6  1  0.836009  0.672005  0.658017  1
  Co  Co7  1  0.836011  0.163989  0.658018  1
  Co  Co8  1  0.327995  0.163991  0.658017  1
  Co  Co9  1  0.163991  0.327995  0.341983  1
  Co  Co10  1  0.163989  0.836011  0.341982  1
  Co  Co11  1  0.672005  0.836009  0.341983  1
  Co  Co12  1  0.163991  0.327995  0.158017  1
  Co  Co13  1  0.163989  0.836011  0.158018  1
  Co  Co14  1  0.672005  0.836009  0.158017  1
  Co  Co15  1  0.836009  0.672005  0.841983  1
  Co  Co16  1  0.836011  0.163989  0.841982  1
  Co  Co17  1  0.327995  0.163991  0.841983  1
  Ir  Ir18  1  0.000000  0.000000  0.500000  1
  Ir  Ir19  1  0.000000  0.000000  0.000000  1
  C  C20  1  0.666672  0.333328  0.750000  1
  C  C21  1  0.333328  0.666672  0.250000  1
  C  C22  1  0.000017  0.999983  0.750000  1
  C  C23  1  0.999983  0.000017  0.250000  1
