# generated using pymatgen
data_Dy7Ho3Si5P
_symmetry_space_group_name_H-M   'P 1'
_cell_length_a   8.41114200
_cell_length_b   8.41618852
_cell_length_c   6.30192001
_cell_angle_alpha   90.00565834
_cell_angle_beta   89.99753967
_cell_angle_gamma   119.97970723
_symmetry_Int_Tables_number   1
_chemical_formula_structural   Dy7Ho3Si5P
_chemical_formula_sum   'Dy7 Ho3 Si5 P1'
_cell_volume   386.42276653
_cell_formula_units_Z   1
loop_
 _symmetry_equiv_pos_site_id
 _symmetry_equiv_pos_as_xyz
  1  'x, y, z'
loop_
 _atom_site_type_symbol
 _atom_site_label
 _atom_site_symmetry_multiplicity
 _atom_site_fract_x
 _atom_site_fract_y
 _atom_site_fract_z
 _atom_site_occupancy
  Dy  Dy0  1  0.000817  0.756741  0.750081  1
  Dy  Dy1  1  0.000933  0.244302  0.249933  1
  Dy  Dy2  1  0.756701  0.755637  0.249925  1
  Dy  Dy3  1  0.754999  0.000047  0.750062  1
  Dy  Dy4  1  0.244109  0.243197  0.750058  1
  Dy  Dy5  1  0.243828  0.000050  0.249945  1
  Dy  Dy6  1  0.333793  0.667539  0.500442  1
  Ho  Ho7  1  0.666296  0.332497  0.999737  1
  Ho  Ho8  1  0.666322  0.332533  0.500242  1
  Ho  Ho9  1  0.333823  0.667535  0.999622  1
  Si  Si10  1  0.394603  0.393752  0.249789  1
  Si  Si11  1  0.000409  0.606009  0.249769  1
  Si  Si12  1  0.999890  0.393611  0.750214  1
  Si  Si13  1  0.606484  0.606119  0.750205  1
  Si  Si14  1  0.607151  0.000231  0.249787  1
  P  P15  1  0.389841  0.000202  0.750188  1
