# generated using pymatgen
data_Ac9Nd7(LuSn4)4
_symmetry_space_group_name_H-M   'P 1'
_cell_length_a   8.42071064
_cell_length_b   8.59054245
_cell_length_c   16.35422600
_cell_angle_alpha   90.00270787
_cell_angle_beta   90.09928621
_cell_angle_gamma   89.98160048
_symmetry_Int_Tables_number   1
_chemical_formula_structural   Ac9Nd7(LuSn4)4
_chemical_formula_sum   'Ac9 Nd7 Lu4 Sn16'
_cell_volume   1183.03788527
_cell_formula_units_Z   1
loop_
 _symmetry_equiv_pos_site_id
 _symmetry_equiv_pos_as_xyz
  1  'x, y, z'
loop_
 _atom_site_type_symbol
 _atom_site_label
 _atom_site_symmetry_multiplicity
 _atom_site_fract_x
 _atom_site_fract_y
 _atom_site_fract_z
 _atom_site_occupancy
  Ac  Ac0  1  0.858546  0.658846  0.881248  1
  Ac  Ac1  1  0.516096  0.319442  0.901598  1
  Ac  Ac2  1  0.014253  0.179684  0.594536  1
  Ac  Ac3  1  0.486731  0.679500  0.403371  1
  Ac  Ac4  1  0.985545  0.819982  0.098901  1
  Ac  Ac5  1  0.484845  0.679148  0.098836  1
  Ac  Ac6  1  0.986037  0.820693  0.403015  1
  Ac  Ac7  1  0.512884  0.319685  0.595524  1
  Ac  Ac8  1  0.014619  0.180523  0.903261  1
  Nd  Nd9  1  0.356335  0.840367  0.876417  1
  Nd  Nd10  1  0.856529  0.659702  0.622123  1
  Nd  Nd11  1  0.643746  0.159171  0.377473  1
  Nd  Nd12  1  0.143028  0.341849  0.122432  1
  Nd  Nd13  1  0.639804  0.158765  0.125489  1
  Nd  Nd14  1  0.143705  0.339924  0.377329  1
  Nd  Nd15  1  0.356269  0.841138  0.620534  1
  Lu  Lu16  1  0.195233  0.503453  0.748805  1
  Lu  Lu17  1  0.691202  0.996825  0.747804  1
  Lu  Lu18  1  0.807283  0.495744  0.250958  1
  Lu  Lu19  1  0.306477  0.003914  0.250924  1
  Sn  Sn20  1  0.304938  0.040662  0.045959  1
  Sn  Sn21  1  0.806509  0.458698  0.454110  1
  Sn  Sn22  1  0.694700  0.958836  0.545657  1
  Sn  Sn23  1  0.208563  0.538792  0.955387  1
  Sn  Sn24  1  0.686814  0.966937  0.956265  1
  Sn  Sn25  1  0.192681  0.542065  0.544892  1
  Sn  Sn26  1  0.305777  0.041057  0.452821  1
  Sn  Sn27  1  0.802780  0.454465  0.052352  1
  Sn  Sn28  1  0.549920  0.627875  0.746151  1
  Sn  Sn29  1  0.055548  0.878360  0.747289  1
  Sn  Sn30  1  0.446220  0.372712  0.250896  1
  Sn  Sn31  1  0.947277  0.128034  0.250033  1
  Sn  Sn32  1  0.319044  0.143755  0.748593  1
  Sn  Sn33  1  0.818128  0.350169  0.747181  1
  Sn  Sn34  1  0.681420  0.855422  0.251111  1
  Sn  Sn35  1  0.180515  0.643809  0.250724  1
