# generated using pymatgen
data_Hf3Al3NiPtRh
_symmetry_space_group_name_H-M   'P 1'
_cell_length_a   7.14882500
_cell_length_b   7.14882420
_cell_length_c   3.43485400
_cell_angle_alpha   90.00000000
_cell_angle_beta   90.00000000
_cell_angle_gamma   119.99998982
_symmetry_Int_Tables_number   1
_chemical_formula_structural   Hf3Al3NiPtRh
_chemical_formula_sum   'Hf3 Al3 Ni1 Pt1 Rh1'
_cell_volume   152.02262991
_cell_formula_units_Z   1
loop_
 _symmetry_equiv_pos_site_id
 _symmetry_equiv_pos_as_xyz
  1  'x, y, z'
loop_
 _atom_site_type_symbol
 _atom_site_label
 _atom_site_symmetry_multiplicity
 _atom_site_fract_x
 _atom_site_fract_y
 _atom_site_fract_z
 _atom_site_occupancy
  Hf  Hf0  1  0.396085  0.403342  0.500000  1
  Hf  Hf1  1  0.596658  0.992744  0.500000  1
  Hf  Hf2  1  0.007256  0.603915  0.500000  1
  Al  Al3  1  0.750618  0.750640  0.000000  1
  Al  Al4  1  0.249360  0.999978  0.000000  1
  Al  Al5  1  0.000022  0.249382  0.000000  1
  Ni  Ni6  1  0.000000  0.000000  0.500000  1
  Pt  Pt7  1  0.666667  0.333333  0.000000  1
  Rh  Rh8  1  0.333333  0.666667  0.000000  1
