# generated using pymatgen
data_Na5P12Rh19
_symmetry_space_group_name_H-M   'P 1'
_cell_length_a   12.62745100
_cell_length_b   12.62745131
_cell_length_c   3.90754700
_cell_angle_alpha   90.00000000
_cell_angle_beta   90.00000000
_cell_angle_gamma   119.99999656
_symmetry_Int_Tables_number   1
_chemical_formula_structural   Na5P12Rh19
_chemical_formula_sum   'Na5 P12 Rh19'
_cell_volume   539.59293131
_cell_formula_units_Z   1
loop_
 _symmetry_equiv_pos_site_id
 _symmetry_equiv_pos_as_xyz
  1  'x, y, z'
loop_
 _atom_site_type_symbol
 _atom_site_label
 _atom_site_symmetry_multiplicity
 _atom_site_fract_x
 _atom_site_fract_y
 _atom_site_fract_z
 _atom_site_occupancy
  Na  Na0  1  0.000000  0.182796  0.500000  1
  Na  Na1  1  0.817204  0.817204  0.500000  1
  Na  Na2  1  0.182796  0.000000  0.500000  1
  Na  Na3  1  0.666667  0.333333  0.000000  1
  Na  Na4  1  0.333333  0.666667  0.000000  1
  P  P5  1  0.481537  0.313698  0.500000  1
  P  P6  1  0.820310  0.000000  0.000000  1
  P  P7  1  0.179690  0.179690  0.000000  1
  P  P8  1  0.000000  0.820310  0.000000  1
  P  P9  1  0.366852  0.000000  0.000000  1
  P  P10  1  0.686302  0.167839  0.500000  1
  P  P11  1  0.832161  0.518463  0.500000  1
  P  P12  1  0.518463  0.832161  0.500000  1
  P  P13  1  0.167839  0.686302  0.500000  1
  P  P14  1  0.313698  0.481537  0.500000  1
  P  P15  1  0.000000  0.366852  0.000000  1
  P  P16  1  0.633148  0.633148  0.000000  1
  Rh  Rh17  1  0.805140  0.181562  0.000000  1
  Rh  Rh18  1  0.376423  0.194860  0.000000  1
  Rh  Rh19  1  0.641317  0.512672  0.500000  1
  Rh  Rh20  1  0.871355  0.358683  0.500000  1
  Rh  Rh21  1  0.358683  0.871355  0.500000  1
  Rh  Rh22  1  0.512672  0.641317  0.500000  1
  Rh  Rh23  1  0.128645  0.487328  0.500000  1
  Rh  Rh24  1  0.818438  0.623577  0.000000  1
  Rh  Rh25  1  0.623577  0.818438  0.000000  1
  Rh  Rh26  1  0.181562  0.805140  0.000000  1
  Rh  Rh27  1  0.194860  0.376423  0.000000  1
  Rh  Rh28  1  0.000000  0.716633  0.500000  1
  Rh  Rh29  1  0.283367  0.283367  0.500000  1
  Rh  Rh30  1  0.716633  0.000000  0.500000  1
  Rh  Rh31  1  0.000000  0.547164  0.000000  1
  Rh  Rh32  1  0.452836  0.452836  0.000000  1
  Rh  Rh33  1  0.547164  0.000000  0.000000  1
  Rh  Rh34  1  0.000000  0.000000  0.000000  1
  Rh  Rh35  1  0.487328  0.128645  0.500000  1
