# generated using pymatgen
data_La5Pr3SiPd24
_symmetry_space_group_name_H-M   'P 1'
_cell_length_a   8.52978076
_cell_length_b   8.52978076
_cell_length_c   8.52930716
_cell_angle_alpha   90.01575572
_cell_angle_beta   89.98424428
_cell_angle_gamma   89.95437823
_symmetry_Int_Tables_number   1
_chemical_formula_structural   La5Pr3SiPd24
_chemical_formula_sum   'La5 Pr3 Si1 Pd24'
_cell_volume   620.56792007
_cell_formula_units_Z   1
loop_
 _symmetry_equiv_pos_site_id
 _symmetry_equiv_pos_as_xyz
  1  'x, y, z'
loop_
 _atom_site_type_symbol
 _atom_site_label
 _atom_site_symmetry_multiplicity
 _atom_site_fract_x
 _atom_site_fract_y
 _atom_site_fract_z
 _atom_site_occupancy
  La  La0  1  0.253939  0.253931  0.253828  1
  La  La1  1  0.746098  0.746174  0.746216  1
  La  La2  1  0.746069  0.746061  0.253828  1
  La  La3  1  0.746192  0.253808  0.746147  1
  La  La4  1  0.253826  0.253902  0.746216  1
  Pr  Pr5  1  0.253351  0.746649  0.253438  1
  Pr  Pr6  1  0.253375  0.746625  0.746552  1
  Pr  Pr7  1  0.746678  0.253322  0.253273  1
  Si  Si8  1  0.000068  0.999932  0.000078  1
  Pd  Pd9  1  0.257000  0.499924  0.000029  1
  Pd  Pd10  1  0.743002  0.500057  0.999954  1
  Pd  Pd11  1  0.000108  0.256983  0.500032  1
  Pd  Pd12  1  0.499943  0.256998  0.999954  1
  Pd  Pd13  1  0.999862  0.743011  0.499998  1
  Pd  Pd14  1  0.500076  0.743000  0.000029  1
  Pd  Pd15  1  0.499990  0.999977  0.256978  1
  Pd  Pd16  1  0.256989  0.000138  0.499998  1
  Pd  Pd17  1  0.500026  0.000051  0.743022  1
  Pd  Pd18  1  0.743017  0.999892  0.500032  1
  Pd  Pd19  1  0.000023  0.500010  0.256978  1
  Pd  Pd20  1  0.999949  0.499974  0.743022  1
  Pd  Pd21  1  0.252148  0.499835  0.499984  1
  Pd  Pd22  1  0.747850  0.500113  0.500066  1
  Pd  Pd23  1  0.499887  0.252150  0.500066  1
  Pd  Pd24  1  0.500165  0.747852  0.499984  1
  Pd  Pd25  1  0.499984  0.500016  0.252134  1
  Pd  Pd26  1  0.500071  0.499929  0.747872  1
  Pd  Pd27  1  0.280611  0.999710  0.000017  1
  Pd  Pd28  1  0.719297  0.000090  0.000166  1
  Pd  Pd29  1  0.999910  0.280703  0.000166  1
  Pd  Pd30  1  0.000290  0.719389  0.000017  1
  Pd  Pd31  1  0.000028  0.999972  0.280613  1
  Pd  Pd32  1  0.000176  0.999824  0.719315  1
