# generated using pymatgen
data_Y4Al18(Ga2Pt3)3
_symmetry_space_group_name_H-M   'P 1'
_cell_length_a   7.47299760
_cell_length_b   7.52333324
_cell_length_c   13.35278163
_cell_angle_alpha   84.73979329
_cell_angle_beta   79.36090072
_cell_angle_gamma   60.24300988
_symmetry_Int_Tables_number   1
_chemical_formula_structural   Y4Al18(Ga2Pt3)3
_chemical_formula_sum   'Y4 Al18 Ga6 Pt9'
_cell_volume   640.52365657
_cell_formula_units_Z   1
loop_
 _symmetry_equiv_pos_site_id
 _symmetry_equiv_pos_as_xyz
  1  'x, y, z'
loop_
 _atom_site_type_symbol
 _atom_site_label
 _atom_site_symmetry_multiplicity
 _atom_site_fract_x
 _atom_site_fract_y
 _atom_site_fract_z
 _atom_site_occupancy
  Y  Y0  1  0.395436  0.168634  0.807852  1
  Y  Y1  1  0.604564  0.831366  0.192148  1
  Y  Y2  1  0.732583  0.498550  0.807921  1
  Y  Y3  1  0.267417  0.501450  0.192079  1
  Al  Al4  1  0.687146  0.833591  0.945289  1
  Al  Al5  1  0.312854  0.166409  0.054711  1
  Al  Al6  1  0.146437  0.832263  0.558885  1
  Al  Al7  1  0.853563  0.167737  0.441115  1
  Al  Al8  1  0.478534  0.167051  0.557815  1
  Al  Al9  1  0.521466  0.832949  0.442185  1
  Al  Al10  1  0.216131  0.165714  0.330588  1
  Al  Al11  1  0.783869  0.834286  0.669412  1
  Al  Al12  1  0.437785  0.505801  0.668934  1
  Al  Al13  1  0.562215  0.494199  0.331066  1
  Al  Al14  1  0.109355  0.160639  0.667960  1
  Al  Al15  1  0.890645  0.839361  0.332040  1
  Al  Al16  1  0.350983  0.501541  0.945842  1
  Al  Al17  1  0.649017  0.498459  0.054158  1
  Al  Al18  1  0.016912  0.165613  0.950478  1
  Al  Al19  1  0.983088  0.834387  0.049522  1
  Al  Al20  1  0.187217  0.498952  0.441885  1
  Al  Al21  1  0.812783  0.501048  0.558115  1
  Ga  Ga22  1  0.733706  0.164671  0.184372  1
  Ga  Ga23  1  0.266294  0.835329  0.815628  1
  Ga  Ga24  1  0.062487  0.630960  0.814955  1
  Ga  Ga25  1  0.937513  0.369040  0.185045  1
  Ga  Ga26  1  0.857367  0.039567  0.815022  1
  Ga  Ga27  1  0.142633  0.960433  0.184979  1
  Pt  Pt28  1  0.119771  0.493059  0.635919  1
  Pt  Pt29  1  0.880229  0.506941  0.364081  1
  Pt  Pt30  1  0.657734  0.170792  0.999741  1
  Pt  Pt31  1  0.342266  0.829208  0.000259  1
  Pt  Pt32  1  0.539057  0.165935  0.364090  1
  Pt  Pt33  1  0.460943  0.834065  0.635910  1
  Pt  Pt34  1  0.780255  0.173527  0.634538  1
  Pt  Pt35  1  0.219745  0.826473  0.365462  1
  Pt  Pt36  1  0.000000  0.500000  0.000000  1
