# generated using pymatgen
data_Y3In4IrPd
_symmetry_space_group_name_H-M   'P 1'
_cell_length_a   7.98116500
_cell_length_b   7.98116419
_cell_length_c   3.76831600
_cell_angle_alpha   90.00000000
_cell_angle_beta   90.00000000
_cell_angle_gamma   119.99999920
_symmetry_Int_Tables_number   1
_chemical_formula_structural   Y3In4IrPd
_chemical_formula_sum   'Y3 In4 Ir1 Pd1'
_cell_volume   207.87893559
_cell_formula_units_Z   1
loop_
 _symmetry_equiv_pos_site_id
 _symmetry_equiv_pos_as_xyz
  1  'x, y, z'
loop_
 _atom_site_type_symbol
 _atom_site_label
 _atom_site_symmetry_multiplicity
 _atom_site_fract_x
 _atom_site_fract_y
 _atom_site_fract_z
 _atom_site_occupancy
  Y  Y0  1  0.419474  0.384885  0.500000  1
  Y  Y1  1  0.615115  0.034588  0.500000  1
  Y  Y2  1  0.965412  0.580526  0.500000  1
  In  In3  1  0.741928  0.740814  0.000000  1
  In  In4  1  0.259186  0.001115  0.000000  1
  In  In5  1  0.998885  0.258072  0.000000  1
  In  In6  1  0.333333  0.666667  0.000000  1
  Ir  Ir7  1  0.666667  0.333333  0.000000  1
  Pd  Pd8  1  0.000000  0.000000  0.500000  1
