# generated using pymatgen
data_Tb3YU2O12
_symmetry_space_group_name_H-M   'P 1'
_cell_length_a   6.53039650
_cell_length_b   6.53039466
_cell_length_c   6.68101303
_cell_angle_alpha   80.63117589
_cell_angle_beta   80.63117617
_cell_angle_gamma   120.59822880
_symmetry_Int_Tables_number   1
_chemical_formula_structural   Tb3YU2O12
_chemical_formula_sum   'Tb3 Y1 U2 O12'
_cell_volume   231.63141880
_cell_formula_units_Z   1
loop_
 _symmetry_equiv_pos_site_id
 _symmetry_equiv_pos_as_xyz
  1  'x, y, z'
loop_
 _atom_site_type_symbol
 _atom_site_label
 _atom_site_symmetry_multiplicity
 _atom_site_fract_x
 _atom_site_fract_y
 _atom_site_fract_z
 _atom_site_occupancy
  Tb  Tb0  1  0.915062  0.084938  0.750000  1
  Tb  Tb1  1  0.249921  0.750079  0.750000  1
  Tb  Tb2  1  0.084926  0.915074  0.250000  1
  Y  Y3  1  0.750055  0.249945  0.250000  1
  U  U4  1  0.585700  0.414300  0.750000  1
  U  U5  1  0.414326  0.585674  0.250000  1
  O  O6  1  0.932544  0.769654  0.628706  1
  O  O7  1  0.627257  0.142528  0.625650  1
  O  O8  1  0.688946  0.534777  0.380005  1
  O  O9  1  0.465223  0.311054  0.119995  1
  O  O10  1  0.311078  0.465193  0.619932  1
  O  O11  1  0.142372  0.627089  0.125782  1
  O  O12  1  0.372911  0.857628  0.374218  1
  O  O13  1  0.230346  0.067456  0.871294  1
  O  O14  1  0.067390  0.230335  0.371268  1
  O  O15  1  0.769665  0.932610  0.128732  1
  O  O16  1  0.857472  0.372743  0.874350  1
  O  O17  1  0.534807  0.688922  0.880068  1
