# generated using pymatgen
data_Er12AlIn(FeCo)2
_symmetry_space_group_name_H-M   'P 1'
_cell_length_a   8.25775467
_cell_length_b   8.25775336
_cell_length_c   8.25775454
_cell_angle_alpha   111.37998372
_cell_angle_beta   110.18493598
_cell_angle_gamma   106.88172848
_symmetry_Int_Tables_number   1
_chemical_formula_structural   Er12AlIn(FeCo)2
_chemical_formula_sum   'Er12 Al1 In1 Fe2 Co2'
_cell_volume   432.76520089
_cell_formula_units_Z   1
loop_
 _symmetry_equiv_pos_site_id
 _symmetry_equiv_pos_as_xyz
  1  'x, y, z'
loop_
 _atom_site_type_symbol
 _atom_site_label
 _atom_site_symmetry_multiplicity
 _atom_site_fract_x
 _atom_site_fract_y
 _atom_site_fract_z
 _atom_site_occupancy
  Er  Er0  1  0.185736  0.285569  0.471305  1
  Er  Er1  1  0.814264  0.714431  0.528695  1
  Er  Er2  1  0.185736  0.714431  0.900167  1
  Er  Er3  1  0.814264  0.285569  0.099833  1
  Er  Er4  1  0.314974  0.616833  0.301858  1
  Er  Er5  1  0.685026  0.383167  0.698142  1
  Er  Er6  1  0.314974  0.013116  0.698142  1
  Er  Er7  1  0.685026  0.986884  0.301858  1
  Er  Er8  1  0.436959  0.229299  0.207661  1
  Er  Er9  1  0.563041  0.770701  0.792339  1
  Er  Er10  1  0.021638  0.229299  0.792339  1
  Er  Er11  1  0.978362  0.770701  0.207661  1
  Al  Al12  1  0.000000  0.000000  0.000000  1
  In  In13  1  0.500000  0.500000  0.000000  1
  Fe  Fe14  1  0.109626  0.609626  0.500000  1
  Fe  Fe15  1  0.890374  0.390374  0.500000  1
  Co  Co16  1  0.375708  0.000000  0.375708  1
  Co  Co17  1  0.624292  0.000000  0.624292  1
