# generated using pymatgen
data_Mn9Se11
_symmetry_space_group_name_H-M   'P 1'
_cell_length_a   8.34723400
_cell_length_b   8.34723464
_cell_length_c   10.34052800
_cell_angle_alpha   90.00000000
_cell_angle_beta   90.00000000
_cell_angle_gamma   95.79066783
_symmetry_Int_Tables_number   1
_chemical_formula_structural   Mn9Se11
_chemical_formula_sum   'Mn18 Se22'
_cell_volume   716.81339797
_cell_formula_units_Z   2
loop_
 _symmetry_equiv_pos_site_id
 _symmetry_equiv_pos_as_xyz
  1  'x, y, z'
loop_
 _atom_site_type_symbol
 _atom_site_label
 _atom_site_symmetry_multiplicity
 _atom_site_fract_x
 _atom_site_fract_y
 _atom_site_fract_z
 _atom_site_occupancy
  Mn  Mn0  1  0.482888  0.895298  0.370025  1
  Mn  Mn1  1  0.517112  0.104702  0.870025  1
  Mn  Mn2  1  0.895298  0.482888  0.629975  1
  Mn  Mn3  1  0.104702  0.517112  0.129975  1
  Mn  Mn4  1  0.517112  0.104702  0.629975  1
  Mn  Mn5  1  0.482888  0.895298  0.129975  1
  Mn  Mn6  1  0.104702  0.517112  0.370025  1
  Mn  Mn7  1  0.895298  0.482888  0.870025  1
  Mn  Mn8  1  0.693620  0.922622  0.750000  1
  Mn  Mn9  1  0.306380  0.077378  0.250000  1
  Mn  Mn10  1  0.922622  0.693620  0.250000  1
  Mn  Mn11  1  0.077378  0.306380  0.750000  1
  Mn  Mn12  1  0.358625  0.641375  0.250000  1
  Mn  Mn13  1  0.641375  0.358625  0.750000  1
  Mn  Mn14  1  0.818488  0.181512  0.630640  1
  Mn  Mn15  1  0.181512  0.818488  0.130640  1
  Mn  Mn16  1  0.181512  0.818488  0.369360  1
  Mn  Mn17  1  0.818488  0.181512  0.869360  1
  Se  Se18  1  0.412556  0.878670  0.750000  1
  Se  Se19  1  0.587444  0.121330  0.250000  1
  Se  Se20  1  0.878670  0.412556  0.250000  1
  Se  Se21  1  0.121330  0.587444  0.750000  1
  Se  Se22  1  0.947418  0.707699  0.479381  1
  Se  Se23  1  0.052582  0.292301  0.979381  1
  Se  Se24  1  0.707699  0.947418  0.520619  1
  Se  Se25  1  0.292301  0.052582  0.020619  1
  Se  Se26  1  0.052582  0.292301  0.520619  1
  Se  Se27  1  0.947418  0.707699  0.020619  1
  Se  Se28  1  0.292301  0.052582  0.479381  1
  Se  Se29  1  0.707699  0.947418  0.979381  1
  Se  Se30  1  0.360892  0.276443  0.750000  1
  Se  Se31  1  0.639108  0.723557  0.250000  1
  Se  Se32  1  0.276443  0.360892  0.250000  1
  Se  Se33  1  0.723557  0.639108  0.750000  1
  Se  Se34  1  0.648829  0.351171  0.519909  1
  Se  Se35  1  0.351171  0.648829  0.019909  1
  Se  Se36  1  0.985230  0.014770  0.750000  1
  Se  Se37  1  0.014770  0.985230  0.250000  1
  Se  Se38  1  0.648829  0.351171  0.980091  1
  Se  Se39  1  0.351171  0.648829  0.480091  1
