# generated using pymatgen
data_Y7Lu5ZnCo4Sn
_symmetry_space_group_name_H-M   'P 1'
_cell_length_a   8.27135775
_cell_length_b   8.28536823
_cell_length_c   8.28536762
_cell_angle_alpha   111.36488707
_cell_angle_beta   110.11930915
_cell_angle_gamma   107.02532216
_symmetry_Int_Tables_number   1
_chemical_formula_structural   Y7Lu5ZnCo4Sn
_chemical_formula_sum   'Y7 Lu5 Zn1 Co4 Sn1'
_cell_volume   436.08552106
_cell_formula_units_Z   1
loop_
 _symmetry_equiv_pos_site_id
 _symmetry_equiv_pos_as_xyz
  1  'x, y, z'
loop_
 _atom_site_type_symbol
 _atom_site_label
 _atom_site_symmetry_multiplicity
 _atom_site_fract_x
 _atom_site_fract_y
 _atom_site_fract_z
 _atom_site_occupancy
  Y  Y0  1  0.574554  0.776682  0.797872  1
  Y  Y1  1  0.020726  0.223570  0.797156  1
  Y  Y2  1  0.978465  0.774495  0.203971  1
  Y  Y3  1  0.186472  0.285187  0.470020  1
  Y  Y4  1  0.813197  0.712457  0.527493  1
  Y  Y5  1  0.186472  0.716451  0.901285  1
  Y  Y6  1  0.813197  0.285705  0.100740  1
  Lu  Lu7  1  0.316335  0.622366  0.308490  1
  Lu  Lu8  1  0.682804  0.375148  0.690294  1
  Lu  Lu9  1  0.316335  0.007844  0.693969  1
  Lu  Lu10  1  0.682804  0.992511  0.307655  1
  Lu  Lu11  1  0.431842  0.225364  0.206479  1
  Zn  Zn12  1  0.008120  0.003429  0.004690  1
  Co  Co13  1  0.114080  0.612966  0.501114  1
  Co  Co14  1  0.881748  0.385752  0.495996  1
  Co  Co15  1  0.375315  0.001702  0.373613  1
  Co  Co16  1  0.617490  0.998947  0.618543  1
  Sn  Sn17  1  0.500046  0.499430  0.000618  1
