# generated using pymatgen
data_MnNi2Ag4RhO8
_symmetry_space_group_name_H-M   'P 1'
_cell_length_a   5.30620116
_cell_length_b   6.07790432
_cell_length_c   7.17669504
_cell_angle_alpha   64.83609193
_cell_angle_beta   104.45159108
_cell_angle_gamma   90.01685960
_symmetry_Int_Tables_number   1
_chemical_formula_structural   MnNi2Ag4RhO8
_chemical_formula_sum   'Mn1 Ni2 Ag4 Rh1 O8'
_cell_volume   201.37417727
_cell_formula_units_Z   1
loop_
 _symmetry_equiv_pos_site_id
 _symmetry_equiv_pos_as_xyz
  1  'x, y, z'
loop_
 _atom_site_type_symbol
 _atom_site_label
 _atom_site_symmetry_multiplicity
 _atom_site_fract_x
 _atom_site_fract_y
 _atom_site_fract_z
 _atom_site_occupancy
  Mn  Mn0  1  0.499984  0.250001  0.500006  1
  Ni  Ni1  1  0.000014  0.003013  0.500035  1
  Ni  Ni2  1  0.999986  0.497032  0.499963  1
  Ag  Ag3  1  0.996988  0.000347  0.998941  1
  Ag  Ag4  1  0.499966  0.249946  0.000006  1
  Ag  Ag5  1  0.003000  0.499671  0.001057  1
  Ag  Ag6  1  0.500005  0.749958  0.000000  1
  Rh  Rh7  1  0.500011  0.750004  0.499991  1
  O  O8  1  0.881232  0.668266  0.662761  1
  O  O9  1  0.400612  0.927303  0.663174  1
  O  O10  1  0.869707  0.169225  0.660939  1
  O  O11  1  0.400652  0.408718  0.663247  1
  O  O12  1  0.118803  0.831757  0.337240  1
  O  O13  1  0.599352  0.091278  0.336760  1
  O  O14  1  0.130283  0.330806  0.339054  1
  O  O15  1  0.599407  0.572679  0.336828  1
