# generated using pymatgen
data_Hf4ScRe23Mo
_symmetry_space_group_name_H-M   'P 1'
_cell_length_a   8.47917432
_cell_length_b   8.45690998
_cell_length_c   8.48680801
_cell_angle_alpha   109.38705512
_cell_angle_beta   109.49346662
_cell_angle_gamma   109.44358273
_symmetry_Int_Tables_number   1
_chemical_formula_structural   Hf4ScRe23Mo
_chemical_formula_sum   'Hf4 Sc1 Re23 Mo1'
_cell_volume   468.99321323
_cell_formula_units_Z   1
loop_
 _symmetry_equiv_pos_site_id
 _symmetry_equiv_pos_as_xyz
  1  'x, y, z'
loop_
 _atom_site_type_symbol
 _atom_site_label
 _atom_site_symmetry_multiplicity
 _atom_site_fract_x
 _atom_site_fract_y
 _atom_site_fract_z
 _atom_site_occupancy
  Hf  Hf0  1  0.629983  0.000171  0.000004  1
  Hf  Hf1  1  0.000396  0.630023  0.999998  1
  Hf  Hf2  1  0.000234  0.000028  0.630180  1
  Hf  Hf3  1  0.370065  0.369852  0.369831  1
  Sc  Sc4  1  0.000545  0.000492  0.000003  1
  Re  Re5  1  0.719433  0.322638  0.323021  1
  Re  Re6  1  0.396422  0.999610  0.676980  1
  Re  Re7  1  0.676465  0.397948  0.999995  1
  Re  Re8  1  0.998415  0.395500  0.675341  1
  Re  Re9  1  0.323075  0.720171  0.324655  1
  Re  Re10  1  0.322380  0.321824  0.716580  1
  Re  Re11  1  0.999233  0.676248  0.396224  1
  Re  Re12  1  0.677036  0.001207  0.397770  1
  Re  Re13  1  0.605791  0.605255  0.283418  1
  Re  Re14  1  0.279252  0.603430  0.602213  1
  Re  Re15  1  0.603015  0.280012  0.603769  1
  Re  Re16  1  0.377058  0.194292  0.999998  1
  Re  Re17  1  0.182994  0.807106  0.807054  1
  Re  Re18  1  0.375934  0.000027  0.192944  1
  Re  Re19  1  0.192538  0.376022  0.000007  1
  Re  Re20  1  0.999287  0.375913  0.192746  1
  Re  Re21  1  0.806533  0.183153  0.807254  1
  Re  Re22  1  0.807627  0.807617  0.182918  1
  Re  Re23  1  0.999876  0.193156  0.376103  1
  Re  Re24  1  0.193567  0.999835  0.376563  1
  Re  Re25  1  0.624699  0.624703  0.817088  1
  Re  Re26  1  0.817022  0.623282  0.623447  1
  Re  Re27  1  0.623757  0.817052  0.623898  1
  Mo  Mo28  1  0.397368  0.673435  0.999995  1
