# generated using pymatgen
data_CeErMg(Co3P2)3
_symmetry_space_group_name_H-M   'P 1'
_cell_length_a   3.70735100
_cell_length_b   10.42071200
_cell_length_c   11.90164200
_cell_angle_alpha   90.00000000
_cell_angle_beta   90.00000000
_cell_angle_gamma   90.00000000
_symmetry_Int_Tables_number   1
_chemical_formula_structural   CeErMg(Co3P2)3
_chemical_formula_sum   'Ce2 Er2 Mg2 Co18 P12'
_cell_volume   459.79895672
_cell_formula_units_Z   2
loop_
 _symmetry_equiv_pos_site_id
 _symmetry_equiv_pos_as_xyz
  1  'x, y, z'
loop_
 _atom_site_type_symbol
 _atom_site_label
 _atom_site_symmetry_multiplicity
 _atom_site_fract_x
 _atom_site_fract_y
 _atom_site_fract_z
 _atom_site_occupancy
  Ce  Ce0  1  0.250000  0.578663  0.698529  1
  Ce  Ce1  1  0.250000  0.921337  0.198529  1
  Er  Er2  1  0.750000  0.417117  0.295483  1
  Er  Er3  1  0.750000  0.082883  0.795483  1
  Mg  Mg4  1  0.250000  0.702468  0.990245  1
  Mg  Mg5  1  0.250000  0.797532  0.490245  1
  Co  Co6  1  0.750000  0.289953  0.006890  1
  Co  Co7  1  0.750000  0.210047  0.506890  1
  Co  Co8  1  0.250000  0.399554  0.485141  1
  Co  Co9  1  0.250000  0.100446  0.985141  1
  Co  Co10  1  0.750000  0.585209  0.516263  1
  Co  Co11  1  0.750000  0.914791  0.016263  1
  Co  Co12  1  0.250000  0.224377  0.174163  1
  Co  Co13  1  0.250000  0.275623  0.674163  1
  Co  Co14  1  0.750000  0.781205  0.829613  1
  Co  Co15  1  0.750000  0.718795  0.329613  1
  Co  Co16  1  0.250000  0.887145  0.701675  1
  Co  Co17  1  0.250000  0.612855  0.201675  1
  Co  Co18  1  0.750000  0.121469  0.299829  1
  Co  Co19  1  0.750000  0.378531  0.799829  1
  Co  Co20  1  0.250000  0.460405  0.931539  1
  Co  Co21  1  0.250000  0.039595  0.431539  1
  Co  Co22  1  0.750000  0.528504  0.066542  1
  Co  Co23  1  0.750000  0.971496  0.566542  1
  P  P24  1  0.250000  0.419735  0.113216  1
  P  P25  1  0.250000  0.080265  0.613216  1
  P  P26  1  0.750000  0.573297  0.883053  1
  P  P27  1  0.750000  0.926703  0.383053  1
  P  P28  1  0.250000  0.267671  0.863983  1
  P  P29  1  0.250000  0.232329  0.363983  1
  P  P30  1  0.750000  0.720267  0.145863  1
  P  P31  1  0.750000  0.779733  0.645863  1
  P  P32  1  0.250000  0.589833  0.391904  1
  P  P33  1  0.250000  0.910167  0.891904  1
  P  P34  1  0.750000  0.389205  0.606069  1
  P  P35  1  0.750000  0.110795  0.106069  1
