# generated using pymatgen
data_Nd8Hg2IrRh
_symmetry_space_group_name_H-M   'P 1'
_cell_length_a   9.91344706
_cell_length_b   9.91344694
_cell_length_c   9.89608300
_cell_angle_alpha   60.05792739
_cell_angle_beta   60.05792780
_cell_angle_gamma   60.15080080
_symmetry_Int_Tables_number   1
_chemical_formula_structural   Nd8Hg2IrRh
_chemical_formula_sum   'Nd16 Hg4 Ir2 Rh2'
_cell_volume   689.08182004
_cell_formula_units_Z   2
loop_
 _symmetry_equiv_pos_site_id
 _symmetry_equiv_pos_as_xyz
  1  'x, y, z'
loop_
 _atom_site_type_symbol
 _atom_site_label
 _atom_site_symmetry_multiplicity
 _atom_site_fract_x
 _atom_site_fract_y
 _atom_site_fract_z
 _atom_site_occupancy
  Nd  Nd0  1  0.599962  0.599962  0.599598  1
  Nd  Nd1  1  0.599962  0.599962  0.200478  1
  Nd  Nd2  1  0.600906  0.198074  0.600510  1
  Nd  Nd3  1  0.198074  0.600906  0.600510  1
  Nd  Nd4  1  0.058403  0.440727  0.441702  1
  Nd  Nd5  1  0.440727  0.058403  0.059168  1
  Nd  Nd6  1  0.440727  0.058403  0.441702  1
  Nd  Nd7  1  0.058403  0.440727  0.059168  1
  Nd  Nd8  1  0.441129  0.441129  0.058871  1
  Nd  Nd9  1  0.058409  0.058409  0.441591  1
  Nd  Nd10  1  0.189214  0.812303  0.810622  1
  Nd  Nd11  1  0.812303  0.189214  0.187860  1
  Nd  Nd12  1  0.812303  0.189214  0.810622  1
  Nd  Nd13  1  0.189214  0.812303  0.187860  1
  Nd  Nd14  1  0.811137  0.811137  0.188863  1
  Nd  Nd15  1  0.188218  0.188218  0.811782  1
  Hg  Hg16  1  0.834276  0.834276  0.833857  1
  Hg  Hg17  1  0.834276  0.834276  0.497588  1
  Hg  Hg18  1  0.834510  0.496923  0.834284  1
  Hg  Hg19  1  0.496923  0.834510  0.834284  1
  Ir  Ir20  1  0.392870  0.823848  0.391641  1
  Ir  Ir21  1  0.823848  0.392870  0.391641  1
  Rh  Rh22  1  0.392103  0.392103  0.391113  1
  Rh  Rh23  1  0.392103  0.392103  0.824681  1
