# generated using pymatgen
data_Dy9Ho(Pt2Rh)2
_symmetry_space_group_name_H-M   'P 1'
_cell_length_a   10.87691500
_cell_length_b   10.87691500
_cell_length_c   6.39013100
_cell_angle_alpha   90.00000000
_cell_angle_beta   90.00000000
_cell_angle_gamma   90.00000000
_symmetry_Int_Tables_number   1
_chemical_formula_structural   Dy9Ho(Pt2Rh)2
_chemical_formula_sum   'Dy18 Ho2 Pt8 Rh4'
_cell_volume   755.99901692
_cell_formula_units_Z   2
loop_
 _symmetry_equiv_pos_site_id
 _symmetry_equiv_pos_as_xyz
  1  'x, y, z'
loop_
 _atom_site_type_symbol
 _atom_site_label
 _atom_site_symmetry_multiplicity
 _atom_site_fract_x
 _atom_site_fract_y
 _atom_site_fract_z
 _atom_site_occupancy
  Dy  Dy0  1  0.293009  0.088525  0.376205  1
  Dy  Dy1  1  0.293009  0.911475  0.876205  1
  Dy  Dy2  1  0.706991  0.088525  0.876205  1
  Dy  Dy3  1  0.706991  0.911475  0.376205  1
  Dy  Dy4  1  0.588392  0.792602  0.876394  1
  Dy  Dy5  1  0.588392  0.207398  0.376394  1
  Dy  Dy6  1  0.411608  0.792602  0.376394  1
  Dy  Dy7  1  0.411608  0.207398  0.876394  1
  Dy  Dy8  1  0.207398  0.411608  0.623606  1
  Dy  Dy9  1  0.207398  0.588392  0.123606  1
  Dy  Dy10  1  0.792602  0.411608  0.123606  1
  Dy  Dy11  1  0.792602  0.588392  0.623606  1
  Dy  Dy12  1  0.911475  0.706991  0.123795  1
  Dy  Dy13  1  0.911475  0.293009  0.623795  1
  Dy  Dy14  1  0.088525  0.706991  0.623795  1
  Dy  Dy15  1  0.088525  0.293009  0.123795  1
  Dy  Dy16  1  0.000000  0.000000  0.500000  1
  Dy  Dy17  1  0.000000  0.000000  0.000000  1
  Ho  Ho18  1  0.500000  0.500000  0.000000  1
  Ho  Ho19  1  0.500000  0.500000  0.500000  1
  Pt  Pt20  1  0.845620  0.154380  0.250000  1
  Pt  Pt21  1  0.845620  0.845620  0.750000  1
  Pt  Pt22  1  0.154380  0.154380  0.750000  1
  Pt  Pt23  1  0.154380  0.845620  0.250000  1
  Pt  Pt24  1  0.653837  0.346163  0.750000  1
  Pt  Pt25  1  0.653837  0.653837  0.250000  1
  Pt  Pt26  1  0.346163  0.346163  0.250000  1
  Pt  Pt27  1  0.346163  0.653837  0.750000  1
  Rh  Rh28  1  0.500000  0.000000  0.122307  1
  Rh  Rh29  1  0.500000  0.000000  0.622307  1
  Rh  Rh30  1  0.000000  0.500000  0.877693  1
  Rh  Rh31  1  0.000000  0.500000  0.377693  1
