# generated using pymatgen
data_Tb16DyEr3Sn16
_symmetry_space_group_name_H-M   'P 1'
_cell_length_a   8.04651304
_cell_length_b   8.19933004
_cell_length_c   15.49912800
_cell_angle_alpha   90.00000000
_cell_angle_beta   90.00000000
_cell_angle_gamma   89.98872130
_symmetry_Int_Tables_number   1
_chemical_formula_structural   Tb16DyEr3Sn16
_chemical_formula_sum   'Tb16 Dy1 Er3 Sn16'
_cell_volume   1022.57069827
_cell_formula_units_Z   1
loop_
 _symmetry_equiv_pos_site_id
 _symmetry_equiv_pos_as_xyz
  1  'x, y, z'
loop_
 _atom_site_type_symbol
 _atom_site_label
 _atom_site_symmetry_multiplicity
 _atom_site_fract_x
 _atom_site_fract_y
 _atom_site_fract_z
 _atom_site_occupancy
  Tb  Tb0  1  0.367627  0.836402  0.878107  1
  Tb  Tb1  1  0.867630  0.663615  0.621873  1
  Tb  Tb2  1  0.632491  0.163674  0.378136  1
  Tb  Tb3  1  0.132318  0.336466  0.121865  1
  Tb  Tb4  1  0.632491  0.163674  0.121864  1
  Tb  Tb5  1  0.132318  0.336466  0.378135  1
  Tb  Tb6  1  0.367627  0.836402  0.621893  1
  Tb  Tb7  1  0.867630  0.663615  0.878127  1
  Tb  Tb8  1  0.520461  0.320459  0.902108  1
  Tb  Tb9  1  0.020484  0.179534  0.597906  1
  Tb  Tb10  1  0.479573  0.679494  0.402110  1
  Tb  Tb11  1  0.979480  0.820431  0.097881  1
  Tb  Tb12  1  0.479573  0.679494  0.097890  1
  Tb  Tb13  1  0.979480  0.820431  0.402119  1
  Tb  Tb14  1  0.520461  0.320459  0.597892  1
  Tb  Tb15  1  0.020484  0.179534  0.902094  1
  Dy  Dy16  1  0.300845  0.002263  0.250000  1
  Er  Er17  1  0.199304  0.502233  0.750000  1
  Er  Er18  1  0.699286  0.997736  0.750000  1
  Er  Er19  1  0.800571  0.497693  0.250000  1
  Sn  Sn20  1  0.292560  0.035613  0.042029  1
  Sn  Sn21  1  0.792552  0.464381  0.457841  1
  Sn  Sn22  1  0.707457  0.964415  0.542180  1
  Sn  Sn23  1  0.207455  0.535604  0.957819  1
  Sn  Sn24  1  0.707457  0.964415  0.957820  1
  Sn  Sn25  1  0.207455  0.535604  0.542181  1
  Sn  Sn26  1  0.292560  0.035613  0.457971  1
  Sn  Sn27  1  0.792552  0.464381  0.042159  1
  Sn  Sn28  1  0.565262  0.618450  0.750000  1
  Sn  Sn29  1  0.065223  0.881540  0.750000  1
  Sn  Sn30  1  0.434784  0.381698  0.250000  1
  Sn  Sn31  1  0.934415  0.118527  0.250000  1
  Sn  Sn32  1  0.329132  0.147214  0.750000  1
  Sn  Sn33  1  0.829068  0.352872  0.750000  1
  Sn  Sn34  1  0.671035  0.852767  0.250000  1
  Sn  Sn35  1  0.170899  0.646830  0.250000  1
