# generated using pymatgen
data_Dy18Er2Ir7Au5
_symmetry_space_group_name_H-M   'P 1'
_cell_length_a   11.18990891
_cell_length_b   11.18990883
_cell_length_c   6.30101295
_cell_angle_alpha   89.97752014
_cell_angle_beta   89.97751847
_cell_angle_gamma   89.63155934
_symmetry_Int_Tables_number   1
_chemical_formula_structural   Dy18Er2Ir7Au5
_chemical_formula_sum   'Dy18 Er2 Ir7 Au5'
_cell_volume   788.95898353
_cell_formula_units_Z   1
loop_
 _symmetry_equiv_pos_site_id
 _symmetry_equiv_pos_as_xyz
  1  'x, y, z'
loop_
 _atom_site_type_symbol
 _atom_site_label
 _atom_site_symmetry_multiplicity
 _atom_site_fract_x
 _atom_site_fract_y
 _atom_site_fract_z
 _atom_site_occupancy
  Dy  Dy0  1  0.299726  0.091103  0.364423  1
  Dy  Dy1  1  0.301397  0.907197  0.863129  1
  Dy  Dy2  1  0.698103  0.080954  0.859510  1
  Dy  Dy3  1  0.698244  0.905792  0.361387  1
  Dy  Dy4  1  0.581212  0.784260  0.876364  1
  Dy  Dy5  1  0.576199  0.207070  0.363582  1
  Dy  Dy6  1  0.417583  0.787996  0.376533  1
  Dy  Dy7  1  0.410966  0.208550  0.877742  1
  Dy  Dy8  1  0.215740  0.418788  0.623636  1
  Dy  Dy9  1  0.212004  0.582417  0.123467  1
  Dy  Dy10  1  0.792930  0.423801  0.136418  1
  Dy  Dy11  1  0.791450  0.589034  0.622258  1
  Dy  Dy12  1  0.908897  0.700274  0.135577  1
  Dy  Dy13  1  0.919046  0.301897  0.640490  1
  Dy  Dy14  1  0.092803  0.698603  0.636871  1
  Dy  Dy15  1  0.094208  0.301756  0.138613  1
  Dy  Dy16  1  0.998704  0.000638  0.499273  1
  Dy  Dy17  1  0.999362  0.001296  0.000727  1
  Er  Er18  1  0.495806  0.502291  0.001233  1
  Er  Er19  1  0.497709  0.504194  0.498767  1
  Ir  Ir20  1  0.652572  0.650779  0.250441  1
  Ir  Ir21  1  0.349221  0.347428  0.249559  1
  Ir  Ir22  1  0.346052  0.653948  0.750000  1
  Ir  Ir23  1  0.499483  0.999333  0.112120  1
  Ir  Ir24  1  0.499243  0.000458  0.613194  1
  Ir  Ir25  1  0.999542  0.500757  0.886806  1
  Ir  Ir26  1  0.000667  0.500517  0.387880  1
  Au  Au27  1  0.841612  0.158388  0.250000  1
  Au  Au28  1  0.843679  0.845511  0.750530  1
  Au  Au29  1  0.154489  0.156321  0.749470  1
  Au  Au30  1  0.156048  0.843952  0.250000  1
  Au  Au31  1  0.655301  0.344699  0.750000  1
