# generated using pymatgen
data_CsSnPO4
_symmetry_space_group_name_H-M   'P 1'
_cell_length_a   5.62601300
_cell_length_b   9.83839500
_cell_length_c   10.04057000
_cell_angle_alpha   90.00000000
_cell_angle_beta   90.00000000
_cell_angle_gamma   90.00000000
_symmetry_Int_Tables_number   1
_chemical_formula_structural   CsSnPO4
_chemical_formula_sum   'Cs4 Sn4 P4 O16'
_cell_volume   555.75496925
_cell_formula_units_Z   4
loop_
 _symmetry_equiv_pos_site_id
 _symmetry_equiv_pos_as_xyz
  1  'x, y, z'
loop_
 _atom_site_type_symbol
 _atom_site_label
 _atom_site_symmetry_multiplicity
 _atom_site_fract_x
 _atom_site_fract_y
 _atom_site_fract_z
 _atom_site_occupancy
  Cs  Cs0  1  0.750000  0.662922  0.019465  1
  Cs  Cs1  1  0.750000  0.837078  0.519465  1
  Cs  Cs2  1  0.250000  0.337078  0.980535  1
  Cs  Cs3  1  0.250000  0.162922  0.480535  1
  Sn  Sn4  1  0.750000  0.081612  0.154798  1
  Sn  Sn5  1  0.750000  0.418388  0.654798  1
  Sn  Sn6  1  0.250000  0.918388  0.845202  1
  Sn  Sn7  1  0.250000  0.581612  0.345202  1
  P  P8  1  0.750000  0.081702  0.844075  1
  P  P9  1  0.750000  0.418298  0.344075  1
  P  P10  1  0.250000  0.918298  0.155925  1
  P  P11  1  0.250000  0.581702  0.655925  1
  O  O12  1  0.750000  0.971096  0.959616  1
  O  O13  1  0.750000  0.528904  0.459616  1
  O  O14  1  0.250000  0.028904  0.040384  1
  O  O15  1  0.250000  0.471096  0.540384  1
  O  O16  1  0.750000  0.224750  0.903771  1
  O  O17  1  0.750000  0.275250  0.403771  1
  O  O18  1  0.250000  0.775250  0.096229  1
  O  O19  1  0.250000  0.724750  0.596229  1
  O  O20  1  0.976733  0.054557  0.756388  1
  O  O21  1  0.523267  0.445443  0.256388  1
  O  O22  1  0.476733  0.945443  0.243612  1
  O  O23  1  0.023267  0.554557  0.743612  1
  O  O24  1  0.023267  0.945443  0.243612  1
  O  O25  1  0.476733  0.554557  0.743612  1
  O  O26  1  0.523267  0.054557  0.756388  1
  O  O27  1  0.976733  0.445443  0.256388  1
