# generated using pymatgen
data_NdBi3(SeO5)2
_symmetry_space_group_name_H-M   'P 1'
_cell_length_a   8.86610527
_cell_length_b   8.86610660
_cell_length_c   11.51411900
_cell_angle_alpha   90.00000000
_cell_angle_beta   90.00000000
_cell_angle_gamma   143.30414764
_symmetry_Int_Tables_number   1
_chemical_formula_structural   NdBi3(SeO5)2
_chemical_formula_sum   'Nd2 Bi6 Se4 O20'
_cell_volume   540.85796277
_cell_formula_units_Z   2
loop_
 _symmetry_equiv_pos_site_id
 _symmetry_equiv_pos_as_xyz
  1  'x, y, z'
loop_
 _atom_site_type_symbol
 _atom_site_label
 _atom_site_symmetry_multiplicity
 _atom_site_fract_x
 _atom_site_fract_y
 _atom_site_fract_z
 _atom_site_occupancy
  Nd  Nd0  1  0.736140  0.236140  0.614657  1
  Nd  Nd1  1  0.236140  0.736140  0.385343  1
  Bi  Bi2  1  0.237286  0.737286  0.868888  1
  Bi  Bi3  1  0.737286  0.237286  0.131112  1
  Bi  Bi4  1  0.895311  0.066380  0.393915  1
  Bi  Bi5  1  0.066380  0.895311  0.606085  1
  Bi  Bi6  1  0.395311  0.566380  0.606085  1
  Bi  Bi7  1  0.566380  0.395311  0.393915  1
  Se  Se8  1  0.389054  0.575971  0.145558  1
  Se  Se9  1  0.575971  0.389054  0.854442  1
  Se  Se10  1  0.889054  0.075971  0.854442  1
  Se  Se11  1  0.075971  0.889054  0.145558  1
  O  O12  1  0.139810  0.469006  0.218164  1
  O  O13  1  0.469006  0.139810  0.781836  1
  O  O14  1  0.639810  0.969006  0.781836  1
  O  O15  1  0.969006  0.639810  0.218164  1
  O  O16  1  0.573577  0.898546  0.501124  1
  O  O17  1  0.898546  0.573577  0.498876  1
  O  O18  1  0.073577  0.398546  0.498876  1
  O  O19  1  0.398546  0.073577  0.501124  1
  O  O20  1  0.122862  0.622862  0.699081  1
  O  O21  1  0.622862  0.122862  0.300919  1
  O  O22  1  0.552351  0.853447  0.078877  1
  O  O23  1  0.853447  0.552351  0.921123  1
  O  O24  1  0.172648  0.068757  0.263264  1
  O  O25  1  0.068757  0.172648  0.736736  1
  O  O26  1  0.672648  0.568757  0.736736  1
  O  O27  1  0.568757  0.672648  0.263264  1
  O  O28  1  0.251376  0.251376  0.500000  1
  O  O29  1  0.751376  0.751376  0.500000  1
  O  O30  1  0.353447  0.052351  0.078877  1
  O  O31  1  0.052351  0.353447  0.921123  1
