# generated using pymatgen
data_In5Ir2Au
_symmetry_space_group_name_H-M   'P 1'
_cell_length_a   7.11978100
_cell_length_b   7.13652200
_cell_length_c   7.19820100
_cell_angle_alpha   90.00000000
_cell_angle_beta   90.00000000
_cell_angle_gamma   90.00000000
_symmetry_Int_Tables_number   1
_chemical_formula_structural   In5Ir2Au
_chemical_formula_sum   'In10 Ir4 Au2'
_cell_volume   365.74400290
_cell_formula_units_Z   2
loop_
 _symmetry_equiv_pos_site_id
 _symmetry_equiv_pos_as_xyz
  1  'x, y, z'
loop_
 _atom_site_type_symbol
 _atom_site_label
 _atom_site_symmetry_multiplicity
 _atom_site_fract_x
 _atom_site_fract_y
 _atom_site_fract_z
 _atom_site_occupancy
  In  In0  1  0.499999  0.000000  0.000000  1
  In  In1  1  0.000000  0.499999  0.500000  1
  In  In2  1  0.169917  0.156780  0.267282  1
  In  In3  1  0.830083  0.843220  0.267282  1
  In  In4  1  0.669916  0.343221  0.232718  1
  In  In5  1  0.330084  0.656779  0.232718  1
  In  In6  1  0.830083  0.843220  0.732718  1
  In  In7  1  0.169917  0.156780  0.732718  1
  In  In8  1  0.669916  0.343221  0.767282  1
  In  In9  1  0.330084  0.656779  0.767282  1
  Ir  Ir10  1  0.358283  0.340198  0.000000  1
  Ir  Ir11  1  0.641717  0.659802  0.000000  1
  Ir  Ir12  1  0.858284  0.159801  0.500000  1
  Ir  Ir13  1  0.141716  0.840199  0.500000  1
  Au  Au14  1  0.000000  0.499999  0.000000  1
  Au  Au15  1  0.499999  0.000000  0.500000  1
