# generated using pymatgen
data_Lu12Mn2TlInTc
_symmetry_space_group_name_H-M   'P 1'
_cell_length_a   8.21904410
_cell_length_b   8.22101754
_cell_length_c   8.21904343
_cell_angle_alpha   108.68254331
_cell_angle_beta   108.32593623
_cell_angle_gamma   111.41303852
_symmetry_Int_Tables_number   1
_chemical_formula_structural   Lu12Mn2TlInTc
_chemical_formula_sum   'Lu12 Mn2 Tl1 In1 Tc1'
_cell_volume   427.18786878
_cell_formula_units_Z   1
loop_
 _symmetry_equiv_pos_site_id
 _symmetry_equiv_pos_as_xyz
  1  'x, y, z'
loop_
 _atom_site_type_symbol
 _atom_site_label
 _atom_site_symmetry_multiplicity
 _atom_site_fract_x
 _atom_site_fract_y
 _atom_site_fract_z
 _atom_site_occupancy
  Lu  Lu0  1  0.308535  0.307156  0.615664  1
  Lu  Lu1  1  0.691465  0.692844  0.384336  1
  Lu  Lu2  1  0.691493  0.307156  0.998622  1
  Lu  Lu3  1  0.308507  0.692844  0.001378  1
  Lu  Lu4  1  0.192662  0.431052  0.238390  1
  Lu  Lu5  1  0.807338  0.568948  0.761610  1
  Lu  Lu6  1  0.192429  0.954177  0.761749  1
  Lu  Lu7  1  0.955340  0.191951  0.763470  1
  Lu  Lu8  1  0.807571  0.045823  0.238251  1
  Lu  Lu9  1  0.044660  0.808049  0.236530  1
  Lu  Lu10  1  0.428481  0.191951  0.236611  1
  Lu  Lu11  1  0.571519  0.808049  0.763389  1
  Mn  Mn12  1  0.383956  0.384482  0.000526  1
  Mn  Mn13  1  0.616044  0.615518  0.999474  1
  Tl  Tl14  1  0.000000  0.500000  0.500000  1
  In  In15  1  0.500000  0.000000  0.500000  1
  Tc  Tc16  1  0.000000  0.000000  0.000000  1
