# generated using pymatgen
data_DyHoNbOs3
_symmetry_space_group_name_H-M   'P 1'
_cell_length_a   5.54816700
_cell_length_b   5.54816676
_cell_length_c   8.53962300
_cell_angle_alpha   90.00000000
_cell_angle_beta   90.00000000
_cell_angle_gamma   120.00000740
_symmetry_Int_Tables_number   1
_chemical_formula_structural   DyHoNbOs3
_chemical_formula_sum   'Dy2 Ho2 Nb2 Os6'
_cell_volume   227.65035322
_cell_formula_units_Z   2
loop_
 _symmetry_equiv_pos_site_id
 _symmetry_equiv_pos_as_xyz
  1  'x, y, z'
loop_
 _atom_site_type_symbol
 _atom_site_label
 _atom_site_symmetry_multiplicity
 _atom_site_fract_x
 _atom_site_fract_y
 _atom_site_fract_z
 _atom_site_occupancy
  Dy  Dy0  1  0.333333  0.666667  0.433181  1
  Dy  Dy1  1  0.666667  0.333333  0.566819  1
  Ho  Ho2  1  0.666667  0.333333  0.933528  1
  Ho  Ho3  1  0.333333  0.666667  0.066472  1
  Nb  Nb4  1  0.000000  0.000000  0.500000  1
  Nb  Nb5  1  0.000000  0.000000  0.000000  1
  Os  Os6  1  0.826088  0.173912  0.249474  1
  Os  Os7  1  0.826088  0.652177  0.249474  1
  Os  Os8  1  0.347823  0.173912  0.249474  1
  Os  Os9  1  0.173912  0.826088  0.750526  1
  Os  Os10  1  0.173912  0.347823  0.750526  1
  Os  Os11  1  0.652177  0.826088  0.750526  1
