# generated using pymatgen
data_Pr6In3HgPb6
_symmetry_space_group_name_H-M   'P 1'
_cell_length_a   6.73186175
_cell_length_b   6.73186219
_cell_length_c   10.70408178
_cell_angle_alpha   90.48916656
_cell_angle_beta   90.48916925
_cell_angle_gamma   102.50091937
_symmetry_Int_Tables_number   1
_chemical_formula_structural   Pr6In3HgPb6
_chemical_formula_sum   'Pr6 In3 Hg1 Pb6'
_cell_volume   473.54296389
_cell_formula_units_Z   1
loop_
 _symmetry_equiv_pos_site_id
 _symmetry_equiv_pos_as_xyz
  1  'x, y, z'
loop_
 _atom_site_type_symbol
 _atom_site_label
 _atom_site_symmetry_multiplicity
 _atom_site_fract_x
 _atom_site_fract_y
 _atom_site_fract_z
 _atom_site_occupancy
  Pr  Pr0  1  0.626006  0.626006  0.250186  1
  Pr  Pr1  1  0.371196  0.371196  0.752247  1
  Pr  Pr2  1  0.202517  0.797503  0.500114  1
  Pr  Pr3  1  0.203442  0.797972  0.000451  1
  Pr  Pr4  1  0.797503  0.202517  0.500114  1
  Pr  Pr5  1  0.797972  0.203442  0.000451  1
  In  In6  1  0.689593  0.689593  0.957822  1
  In  In7  1  0.311714  0.311714  0.457175  1
  In  In8  1  0.688864  0.688864  0.542620  1
  Hg  Hg9  1  0.312633  0.312633  0.038000  1
  Pb  Pb10  1  0.016335  0.016335  0.249993  1
  Pb  Pb11  1  0.983773  0.983773  0.750999  1
  Pb  Pb12  1  0.502137  0.076094  0.249315  1
  Pb  Pb13  1  0.922825  0.497397  0.750599  1
  Pb  Pb14  1  0.497397  0.922825  0.750599  1
  Pb  Pb15  1  0.076094  0.502137  0.249315  1
