# generated using pymatgen
data_Er6Ge(P3Rh5)4
_symmetry_space_group_name_H-M   'P 1'
_cell_length_a   13.38175500
_cell_length_b   13.38175358
_cell_length_c   3.89706800
_cell_angle_alpha   90.00000000
_cell_angle_beta   90.00000000
_cell_angle_gamma   119.99999610
_symmetry_Int_Tables_number   1
_chemical_formula_structural   Er6Ge(P3Rh5)4
_chemical_formula_sum   'Er6 Ge1 P12 Rh20'
_cell_volume   604.35863983
_cell_formula_units_Z   1
loop_
 _symmetry_equiv_pos_site_id
 _symmetry_equiv_pos_as_xyz
  1  'x, y, z'
loop_
 _atom_site_type_symbol
 _atom_site_label
 _atom_site_symmetry_multiplicity
 _atom_site_fract_x
 _atom_site_fract_y
 _atom_site_fract_z
 _atom_site_occupancy
  Er  Er0  1  0.529601  0.717242  0.249338  1
  Er  Er1  1  0.282758  0.812358  0.249338  1
  Er  Er2  1  0.187642  0.470399  0.249338  1
  Er  Er3  1  0.470399  0.282758  0.750662  1
  Er  Er4  1  0.717242  0.187642  0.750662  1
  Er  Er5  1  0.812358  0.529601  0.750662  1
  Ge  Ge6  1  0.000000  0.000000  0.000000  1
  P  P7  1  0.527472  0.139551  0.250481  1
  P  P8  1  0.860449  0.387923  0.250481  1
  P  P9  1  0.612077  0.472528  0.250481  1
  P  P10  1  0.945934  0.715197  0.250774  1
  P  P11  1  0.284803  0.230738  0.250774  1
  P  P12  1  0.769262  0.054066  0.250774  1
  P  P13  1  0.387923  0.527472  0.749519  1
  P  P14  1  0.472528  0.860449  0.749519  1
  P  P15  1  0.139551  0.612077  0.749519  1
  P  P16  1  0.715197  0.769262  0.749226  1
  P  P17  1  0.230738  0.945934  0.749226  1
  P  P18  1  0.054066  0.284803  0.749226  1
  Rh  Rh19  1  0.333333  0.666667  0.751960  1
  Rh  Rh20  1  0.919280  0.251611  0.249202  1
  Rh  Rh21  1  0.748389  0.667669  0.249202  1
  Rh  Rh22  1  0.332331  0.080720  0.249202  1
  Rh  Rh23  1  0.439497  0.023027  0.750332  1
  Rh  Rh24  1  0.976973  0.416471  0.750332  1
  Rh  Rh25  1  0.583529  0.560503  0.750332  1
  Rh  Rh26  1  0.666667  0.333333  0.248040  1
  Rh  Rh27  1  0.096524  0.197283  0.254794  1
  Rh  Rh28  1  0.802717  0.899241  0.254794  1
  Rh  Rh29  1  0.100759  0.903476  0.254794  1
  Rh  Rh30  1  0.023027  0.583529  0.249668  1
  Rh  Rh31  1  0.416471  0.439497  0.249668  1
  Rh  Rh32  1  0.560503  0.976973  0.249668  1
  Rh  Rh33  1  0.667669  0.919280  0.750798  1
  Rh  Rh34  1  0.080720  0.748389  0.750798  1
  Rh  Rh35  1  0.251611  0.332331  0.750798  1
  Rh  Rh36  1  0.903476  0.802717  0.745206  1
  Rh  Rh37  1  0.197283  0.100759  0.745206  1
  Rh  Rh38  1  0.899241  0.096524  0.745206  1
