# generated using pymatgen
data_Pr6GePBr6
_symmetry_space_group_name_H-M   'P 1'
_cell_length_a   10.44310209
_cell_length_b   10.44310273
_cell_length_c   10.49110457
_cell_angle_alpha   109.45324057
_cell_angle_beta   109.45323990
_cell_angle_gamma   109.32118899
_symmetry_Int_Tables_number   1
_chemical_formula_structural   Pr6GePBr6
_chemical_formula_sum   'Pr12 Ge2 P2 Br12'
_cell_volume   882.77639168
_cell_formula_units_Z   2
loop_
 _symmetry_equiv_pos_site_id
 _symmetry_equiv_pos_as_xyz
  1  'x, y, z'
loop_
 _atom_site_type_symbol
 _atom_site_label
 _atom_site_symmetry_multiplicity
 _atom_site_fract_x
 _atom_site_fract_y
 _atom_site_fract_z
 _atom_site_occupancy
  Pr  Pr0  1  0.474753  0.491863  0.235183  1
  Pr  Pr1  1  0.756679  0.239569  0.264817  1
  Pr  Pr2  1  0.756506  0.016599  0.490866  1
  Pr  Pr3  1  0.234360  0.474267  0.490866  1
  Pr  Pr4  1  0.260431  0.743321  0.235183  1
  Pr  Pr5  1  0.025733  0.265640  0.009134  1
  Pr  Pr6  1  0.008137  0.025247  0.264817  1
  Pr  Pr7  1  0.483401  0.743494  0.009134  1
  Pr  Pr8  1  0.490528  0.240528  0.481056  1
  Pr  Pr9  1  0.015748  0.484252  0.750000  1
  Pr  Pr10  1  0.259472  0.009472  0.018944  1
  Pr  Pr11  1  0.234252  0.265748  0.750000  1
  Ge  Ge12  1  0.249628  0.250372  0.250000  1
  Ge  Ge13  1  0.500372  0.999628  0.250000  1
  P  P14  1  0.000471  0.250471  0.500942  1
  P  P15  1  0.249529  0.499529  0.999058  1
  Br  Br16  1  0.250059  0.754103  0.744502  1
  Br  Br17  1  0.509600  0.505558  0.755498  1
  Br  Br18  1  0.990185  0.744013  0.994472  1
  Br  Br19  1  0.745897  0.249941  0.755498  1
  Br  Br20  1  0.994442  0.990400  0.744502  1
  Br  Br21  1  0.249541  0.995712  0.505528  1
  Br  Br22  1  0.755987  0.509815  0.505528  1
  Br  Br23  1  0.504288  0.250459  0.994472  1
  Br  Br24  1  0.755262  0.744738  0.250000  1
  Br  Br25  1  0.745474  0.995474  0.990948  1
  Br  Br26  1  0.994738  0.505262  0.250000  1
  Br  Br27  1  0.504526  0.754526  0.509052  1
