# generated using pymatgen
data_Sc3U(ReB6)2
_symmetry_space_group_name_H-M   'P 1'
_cell_length_a   3.56762400
_cell_length_b   8.93837434
_cell_length_c   11.25937419
_cell_angle_alpha   90.22993719
_cell_angle_beta   90.00000000
_cell_angle_gamma   90.00000000
_symmetry_Int_Tables_number   1
_chemical_formula_structural   Sc3U(ReB6)2
_chemical_formula_sum   'Sc6 U2 Re4 B24'
_cell_volume   359.04457668
_cell_formula_units_Z   2
loop_
 _symmetry_equiv_pos_site_id
 _symmetry_equiv_pos_as_xyz
  1  'x, y, z'
loop_
 _atom_site_type_symbol
 _atom_site_label
 _atom_site_symmetry_multiplicity
 _atom_site_fract_x
 _atom_site_fract_y
 _atom_site_fract_z
 _atom_site_occupancy
  Sc  Sc0  1  0.000000  0.821126  0.084917  1
  Sc  Sc1  1  0.000000  0.178874  0.915083  1
  Sc  Sc2  1  0.000000  0.945419  0.371638  1
  Sc  Sc3  1  0.000000  0.054581  0.628362  1
  Sc  Sc4  1  0.000000  0.443882  0.124926  1
  Sc  Sc5  1  0.000000  0.556118  0.875074  1
  U  U6  1  0.000000  0.321019  0.413877  1
  U  U7  1  0.000000  0.678981  0.586123  1
  Re  Re8  1  0.000000  0.638558  0.320443  1
  Re  Re9  1  0.000000  0.361442  0.679557  1
  Re  Re10  1  0.000000  0.140742  0.180530  1
  Re  Re11  1  0.000000  0.859258  0.819470  1
  B  B12  1  0.500000  0.553548  0.433705  1
  B  B13  1  0.500000  0.446452  0.566295  1
  B  B14  1  0.500000  0.053293  0.064789  1
  B  B15  1  0.500000  0.946707  0.935211  1
  B  B16  1  0.500000  0.753638  0.419180  1
  B  B17  1  0.500000  0.246362  0.580820  1
  B  B18  1  0.500000  0.251802  0.077459  1
  B  B19  1  0.500000  0.748198  0.922541  1
  B  B20  1  0.500000  0.794964  0.262528  1
  B  B21  1  0.500000  0.205036  0.737472  1
  B  B22  1  0.500000  0.294526  0.233814  1
  B  B23  1  0.500000  0.705474  0.766186  1
  B  B24  1  0.500000  0.630344  0.181205  1
  B  B25  1  0.500000  0.369656  0.818795  1
  B  B26  1  0.500000  0.129960  0.316389  1
  B  B27  1  0.500000  0.870040  0.683611  1
  B  B28  1  0.500000  0.979146  0.211173  1
  B  B29  1  0.500000  0.020854  0.788827  1
  B  B30  1  0.500000  0.480575  0.284741  1
  B  B31  1  0.500000  0.519425  0.715259  1
  B  B32  1  0.500000  0.599673  0.027501  1
  B  B33  1  0.500000  0.400327  0.972499  1
  B  B34  1  0.500000  0.100606  0.472385  1
  B  B35  1  0.500000  0.899394  0.527615  1
