# generated using pymatgen
data_La8Sm2Tc2I15
_symmetry_space_group_name_H-M   'P 1'
_cell_length_a   10.30129660
_cell_length_b   11.15588597
_cell_length_c   11.85432493
_cell_angle_alpha   90.81718236
_cell_angle_beta   114.36784092
_cell_angle_gamma   110.73055593
_symmetry_Int_Tables_number   1
_chemical_formula_structural   La8Sm2Tc2I15
_chemical_formula_sum   'La8 Sm2 Tc2 I15'
_cell_volume   1139.86361590
_cell_formula_units_Z   1
loop_
 _symmetry_equiv_pos_site_id
 _symmetry_equiv_pos_as_xyz
  1  'x, y, z'
loop_
 _atom_site_type_symbol
 _atom_site_label
 _atom_site_symmetry_multiplicity
 _atom_site_fract_x
 _atom_site_fract_y
 _atom_site_fract_z
 _atom_site_occupancy
  La  La0  1  0.298617  0.903956  0.275117  1
  La  La1  1  0.701383  0.096044  0.724883  1
  La  La2  1  0.084648  0.552377  0.318534  1
  La  La3  1  0.915352  0.447623  0.681466  1
  La  La4  1  0.830241  0.750700  0.180524  1
  La  La5  1  0.169759  0.249300  0.819476  1
  La  La6  1  0.977232  0.787135  0.915348  1
  La  La7  1  0.022768  0.212865  0.084652  1
  Sm  Sm8  1  0.237602  0.581664  0.052949  1
  Sm  Sm9  1  0.762398  0.418336  0.947051  1
  Tc  Tc10  1  0.030849  0.670620  0.117156  1
  Tc  Tc11  1  0.969151  0.329380  0.882844  1
  I  I12  1  0.336782  0.448216  0.293636  1
  I  I13  1  0.663218  0.551784  0.706364  1
  I  I14  1  0.213812  0.733304  0.824274  1
  I  I15  1  0.786188  0.266696  0.175726  1
  I  I16  1  0.140558  0.386359  0.580413  1
  I  I17  1  0.859442  0.613641  0.419587  1
  I  I18  1  0.387012  0.799731  0.533639  1
  I  I19  1  0.612988  0.200269  0.466361  1
  I  I20  1  0.262504  0.087522  0.054551  1
  I  I21  1  0.737496  0.912478  0.945449  1
  I  I22  1  0.557453  0.838055  0.222144  1
  I  I23  1  0.442547  0.161945  0.777856  1
  I  I24  1  0.091748  0.039032  0.335439  1
  I  I25  1  0.908252  0.960968  0.664561  1
  I  I26  1  0.500000  0.500000  0.000000  1
