# generated using pymatgen
data_Pr6Al24Ru7Rh
_symmetry_space_group_name_H-M   'P 1'
_cell_length_a   8.93912700
_cell_length_b   8.92172457
_cell_length_c   9.73375948
_cell_angle_alpha   90.08419634
_cell_angle_beta   90.00000000
_cell_angle_gamma   120.06453415
_symmetry_Int_Tables_number   1
_chemical_formula_structural   Pr6Al24Ru7Rh
_chemical_formula_sum   'Pr6 Al24 Ru7 Rh1'
_cell_volume   671.84911752
_cell_formula_units_Z   1
loop_
 _symmetry_equiv_pos_site_id
 _symmetry_equiv_pos_as_xyz
  1  'x, y, z'
loop_
 _atom_site_type_symbol
 _atom_site_label
 _atom_site_symmetry_multiplicity
 _atom_site_fract_x
 _atom_site_fract_y
 _atom_site_fract_z
 _atom_site_occupancy
  Pr  Pr0  1  0.192766  0.385532  0.250467  1
  Pr  Pr1  1  0.807234  0.614468  0.749533  1
  Pr  Pr2  1  0.615781  0.806982  0.250728  1
  Pr  Pr3  1  0.384219  0.193018  0.749272  1
  Pr  Pr4  1  0.191202  0.806982  0.250728  1
  Pr  Pr5  1  0.808798  0.193018  0.749272  1
  Al  Al6  1  0.332355  0.664712  0.009173  1
  Al  Al7  1  0.667645  0.335288  0.990827  1
  Al  Al8  1  0.666791  0.333580  0.509089  1
  Al  Al9  1  0.333209  0.666420  0.490911  1
  Al  Al10  1  0.162917  0.325834  0.575955  1
  Al  Al11  1  0.837083  0.674166  0.424045  1
  Al  Al12  1  0.674545  0.837538  0.575997  1
  Al  Al13  1  0.837278  0.674556  0.076155  1
  Al  Al14  1  0.325455  0.162462  0.424003  1
  Al  Al15  1  0.162722  0.325444  0.923845  1
  Al  Al16  1  0.162995  0.837538  0.575997  1
  Al  Al17  1  0.324967  0.163756  0.076218  1
  Al  Al18  1  0.837005  0.162462  0.424003  1
  Al  Al19  1  0.675033  0.836244  0.923782  1
  Al  Al20  1  0.838788  0.163756  0.076218  1
  Al  Al21  1  0.161212  0.836244  0.923782  1
  Al  Al22  1  0.562760  0.125520  0.250851  1
  Al  Al23  1  0.437240  0.874480  0.749149  1
  Al  Al24  1  0.874418  0.437019  0.249635  1
  Al  Al25  1  0.125582  0.562981  0.750365  1
  Al  Al26  1  0.562601  0.437019  0.249635  1
  Al  Al27  1  0.437399  0.562981  0.750365  1
  Al  Al28  1  0.999761  0.999523  0.250087  1
  Al  Al29  1  0.000239  0.000477  0.749913  1
  Ru  Ru30  1  0.000000  0.500000  0.000000  1
  Ru  Ru31  1  0.500000  0.000000  0.500000  1
  Ru  Ru32  1  0.500000  0.500000  0.000000  1
  Ru  Ru33  1  0.000000  0.500000  0.500000  1
  Ru  Ru34  1  0.500000  0.500000  0.500000  1
  Ru  Ru35  1  0.000000  0.000000  0.000000  1
  Ru  Ru36  1  0.000000  0.000000  0.500000  1
  Rh  Rh37  1  0.500000  0.000000  0.000000  1
