# generated using pymatgen
data_CaDy(Si2Ni9)2
_symmetry_space_group_name_H-M   'P 1'
_cell_length_a   7.56134681
_cell_length_b   7.56134636
_cell_length_c   7.56134601
_cell_angle_alpha   99.57033467
_cell_angle_beta   99.57033882
_cell_angle_gamma   131.87314269
_symmetry_Int_Tables_number   1
_chemical_formula_structural   CaDy(Si2Ni9)2
_chemical_formula_sum   'Ca1 Dy1 Si4 Ni18'
_cell_volume   293.93445093
_cell_formula_units_Z   1
loop_
 _symmetry_equiv_pos_site_id
 _symmetry_equiv_pos_as_xyz
  1  'x, y, z'
loop_
 _atom_site_type_symbol
 _atom_site_label
 _atom_site_symmetry_multiplicity
 _atom_site_fract_x
 _atom_site_fract_y
 _atom_site_fract_z
 _atom_site_occupancy
  Ca  Ca0  1  0.500000  0.500000  0.000000  1
  Dy  Dy1  1  0.750000  0.250000  0.500000  1
  Si  Si2  1  0.624295  0.874031  0.750264  1
  Si  Si3  1  0.125969  0.375705  0.249736  1
  Si  Si4  1  0.125969  0.876234  0.750264  1
  Si  Si5  1  0.123766  0.874031  0.249736  1
  Ni  Ni6  1  0.250000  0.750000  0.500000  1
  Ni  Ni7  1  0.000000  0.000000  0.000000  1
  Ni  Ni8  1  0.687459  0.014736  0.079307  1
  Ni  Ni9  1  0.687459  0.608154  0.672723  1
  Ni  Ni10  1  0.262296  0.436075  0.578186  1
  Ni  Ni11  1  0.262296  0.684110  0.826221  1
  Ni  Ni12  1  0.935429  0.014736  0.327277  1
  Ni  Ni13  1  0.935429  0.608154  0.920693  1
  Ni  Ni14  1  0.857891  0.436075  0.173779  1
  Ni  Ni15  1  0.857891  0.684110  0.421814  1
  Ni  Ni16  1  0.563925  0.737704  0.421814  1
  Ni  Ni17  1  0.563925  0.142109  0.826221  1
  Ni  Ni18  1  0.985264  0.312541  0.920693  1
  Ni  Ni19  1  0.985264  0.064571  0.672723  1
  Ni  Ni20  1  0.315890  0.737704  0.173779  1
  Ni  Ni21  1  0.315890  0.142109  0.578186  1
  Ni  Ni22  1  0.391846  0.312541  0.327277  1
  Ni  Ni23  1  0.391846  0.064571  0.079307  1
