# generated using pymatgen
data_Tb20ZnBi8Os3
_symmetry_space_group_name_H-M   'P 1'
_cell_length_a   8.05649460
_cell_length_b   9.11531300
_cell_length_c   12.47129963
_cell_angle_alpha   90.00000000
_cell_angle_beta   89.89134156
_cell_angle_gamma   90.00000000
_symmetry_Int_Tables_number   1
_chemical_formula_structural   Tb20ZnBi8Os3
_chemical_formula_sum   'Tb20 Zn1 Bi8 Os3'
_cell_volume   915.85904579
_cell_formula_units_Z   1
loop_
 _symmetry_equiv_pos_site_id
 _symmetry_equiv_pos_as_xyz
  1  'x, y, z'
loop_
 _atom_site_type_symbol
 _atom_site_label
 _atom_site_symmetry_multiplicity
 _atom_site_fract_x
 _atom_site_fract_y
 _atom_site_fract_z
 _atom_site_occupancy
  Tb  Tb0  1  0.844323  0.750000  0.794520  1
  Tb  Tb1  1  0.158855  0.250000  0.207479  1
  Tb  Tb2  1  0.340227  0.250000  0.708990  1
  Tb  Tb3  1  0.669397  0.750000  0.282206  1
  Tb  Tb4  1  0.365187  0.750000  0.702045  1
  Tb  Tb5  1  0.624401  0.250000  0.306455  1
  Tb  Tb6  1  0.878030  0.250000  0.805617  1
  Tb  Tb7  1  0.125775  0.750000  0.196630  1
  Tb  Tb8  1  0.962708  0.750000  0.500709  1
  Tb  Tb9  1  0.048904  0.250000  0.497476  1
  Tb  Tb10  1  0.440487  0.250000  0.996433  1
  Tb  Tb11  1  0.553579  0.750000  0.001774  1
  Tb  Tb12  1  0.677626  0.053515  0.565208  1
  Tb  Tb13  1  0.318274  0.969292  0.434170  1
  Tb  Tb14  1  0.175675  0.956627  0.936609  1
  Tb  Tb15  1  0.318274  0.530708  0.434170  1
  Tb  Tb16  1  0.825488  0.038915  0.062728  1
  Tb  Tb17  1  0.677626  0.446485  0.565208  1
  Tb  Tb18  1  0.825488  0.461085  0.062728  1
  Tb  Tb19  1  0.175675  0.543373  0.936609  1
  Zn  Zn20  1  0.576310  0.750000  0.512795  1
  Bi  Bi21  1  0.568572  0.492344  0.825457  1
  Bi  Bi22  1  0.432183  0.508350  0.173176  1
  Bi  Bi23  1  0.069973  0.508256  0.671543  1
  Bi  Bi24  1  0.432183  0.991650  0.173176  1
  Bi  Bi25  1  0.927608  0.491834  0.328837  1
  Bi  Bi26  1  0.568572  0.007656  0.825457  1
  Bi  Bi27  1  0.927608  0.008166  0.328837  1
  Bi  Bi28  1  0.069973  0.991744  0.671543  1
  Os  Os29  1  0.423185  0.250000  0.488736  1
  Os  Os30  1  0.074765  0.250000  0.988876  1
  Os  Os31  1  0.923070  0.750000  0.013799  1
