# generated using pymatgen
data_Er4Pd3PtF28
_symmetry_space_group_name_H-M   'P 1'
_cell_length_a   5.49862555
_cell_length_b   8.78543963
_cell_length_c   11.87899663
_cell_angle_alpha   62.61939664
_cell_angle_beta   90.01995298
_cell_angle_gamma   89.96721367
_symmetry_Int_Tables_number   1
_chemical_formula_structural   Er4Pd3PtF28
_chemical_formula_sum   'Er4 Pd3 Pt1 F28'
_cell_volume   509.56087524
_cell_formula_units_Z   1
loop_
 _symmetry_equiv_pos_site_id
 _symmetry_equiv_pos_as_xyz
  1  'x, y, z'
loop_
 _atom_site_type_symbol
 _atom_site_label
 _atom_site_symmetry_multiplicity
 _atom_site_fract_x
 _atom_site_fract_y
 _atom_site_fract_z
 _atom_site_occupancy
  Er  Er0  1  0.761955  0.813538  0.764315  1
  Er  Er1  1  0.261131  0.186039  0.736325  1
  Er  Er2  1  0.237871  0.186228  0.234687  1
  Er  Er3  1  0.738234  0.814577  0.264046  1
  Pd  Pd4  1  0.759224  0.272365  0.956841  1
  Pd  Pd5  1  0.259434  0.727644  0.543128  1
  Pd  Pd6  1  0.240684  0.727789  0.043055  1
  Pt  Pt7  1  0.740769  0.272379  0.456846  1
  F  F8  1  0.434861  0.701622  0.916154  1
  F  F9  1  0.936368  0.298487  0.585260  1
  F  F10  1  0.565054  0.298367  0.083797  1
  F  F11  1  0.064997  0.701731  0.416069  1
  F  F12  1  0.436068  0.277128  0.542632  1
  F  F13  1  0.938326  0.722621  0.958165  1
  F  F14  1  0.561672  0.722782  0.458052  1
  F  F15  1  0.061628  0.277452  0.041651  1
  F  F16  1  0.777199  0.521348  0.858683  1
  F  F17  1  0.277951  0.478671  0.641726  1
  F  F18  1  0.222746  0.478760  0.141076  1
  F  F19  1  0.723489  0.523556  0.357975  1
  F  F20  1  0.753170  0.023630  0.049212  1
  F  F21  1  0.253088  0.976581  0.450536  1
  F  F22  1  0.246832  0.976506  0.950841  1
  F  F23  1  0.746556  0.021348  0.550215  1
  F  F24  1  0.965846  0.722717  0.636525  1
  F  F25  1  0.465380  0.276612  0.863915  1
  F  F26  1  0.037188  0.276239  0.363088  1
  F  F27  1  0.534582  0.723575  0.136072  1
  F  F28  1  0.052489  0.745740  0.176021  1
  F  F29  1  0.551283  0.253960  0.322941  1
  F  F30  1  0.947292  0.254385  0.824104  1
  F  F31  1  0.447200  0.745291  0.676358  1
  F  F32  1  0.414359  0.969898  0.232095  1
  F  F33  1  0.914314  0.030348  0.267737  1
  F  F34  1  0.585425  0.030064  0.767585  1
  F  F35  1  0.085333  0.970026  0.732269  1
