# generated using pymatgen
data_Er3Tm17Ir7Au5
_symmetry_space_group_name_H-M   'P 1'
_cell_length_a   11.01354160
_cell_length_b   11.01892967
_cell_length_c   6.30102707
_cell_angle_alpha   89.87605591
_cell_angle_beta   89.89717966
_cell_angle_gamma   89.56089155
_symmetry_Int_Tables_number   1
_chemical_formula_structural   Er3Tm17Ir7Au5
_chemical_formula_sum   'Er3 Tm17 Ir7 Au5'
_cell_volume   764.65106199
_cell_formula_units_Z   1
loop_
 _symmetry_equiv_pos_site_id
 _symmetry_equiv_pos_as_xyz
  1  'x, y, z'
loop_
 _atom_site_type_symbol
 _atom_site_label
 _atom_site_symmetry_multiplicity
 _atom_site_fract_x
 _atom_site_fract_y
 _atom_site_fract_z
 _atom_site_occupancy
  Er  Er0  1  0.299828  0.090333  0.364520  1
  Er  Er1  1  0.301398  0.907848  0.862075  1
  Er  Er2  1  0.697527  0.080215  0.860270  1
  Tm  Tm3  1  0.697462  0.906300  0.361572  1
  Tm  Tm4  1  0.580544  0.786072  0.875669  1
  Tm  Tm5  1  0.575124  0.206039  0.363427  1
  Tm  Tm6  1  0.418902  0.789509  0.375283  1
  Tm  Tm7  1  0.411833  0.207221  0.878862  1
  Tm  Tm8  1  0.213702  0.419703  0.624270  1
  Tm  Tm9  1  0.210218  0.581323  0.124654  1
  Tm  Tm10  1  0.794197  0.424975  0.136565  1
  Tm  Tm11  1  0.793056  0.588201  0.621046  1
  Tm  Tm12  1  0.909848  0.699655  0.135189  1
  Tm  Tm13  1  0.920137  0.303068  0.639244  1
  Tm  Tm14  1  0.091792  0.697994  0.637504  1
  Tm  Tm15  1  0.093217  0.302720  0.138291  1
  Tm  Tm16  1  0.998429  0.000134  0.499392  1
  Tm  Tm17  1  0.999764  0.001301  0.001108  1
  Tm  Tm18  1  0.495919  0.502185  0.001958  1
  Tm  Tm19  1  0.497842  0.504170  0.498188  1
  Ir  Ir20  1  0.653268  0.651373  0.249865  1
  Ir  Ir21  1  0.348593  0.347211  0.249831  1
  Ir  Ir22  1  0.345678  0.653882  0.749731  1
  Ir  Ir23  1  0.499514  0.999085  0.112049  1
  Ir  Ir24  1  0.499429  0.999852  0.613560  1
  Ir  Ir25  1  0.000046  0.500811  0.886120  1
  Ir  Ir26  1  0.000819  0.500774  0.388069  1
  Au  Au27  1  0.841848  0.158575  0.250653  1
  Au  Au28  1  0.843951  0.845125  0.750749  1
  Au  Au29  1  0.154097  0.156642  0.749806  1
  Au  Au30  1  0.155973  0.843234  0.250670  1
  Au  Au31  1  0.656045  0.344472  0.749809  1
