# generated using pymatgen
data_RbAsRu2S
_symmetry_space_group_name_H-M   'P 1'
_cell_length_a   7.41703023
_cell_length_b   7.41702969
_cell_length_c   7.41702979
_cell_angle_alpha   148.41732028
_cell_angle_beta   148.41731533
_cell_angle_gamma   45.26970299
_symmetry_Int_Tables_number   1
_chemical_formula_structural   RbAsRu2S
_chemical_formula_sum   'Rb1 As1 Ru2 S1'
_cell_volume   111.56009557
_cell_formula_units_Z   1
loop_
 _symmetry_equiv_pos_site_id
 _symmetry_equiv_pos_as_xyz
  1  'x, y, z'
loop_
 _atom_site_type_symbol
 _atom_site_label
 _atom_site_symmetry_multiplicity
 _atom_site_fract_x
 _atom_site_fract_y
 _atom_site_fract_z
 _atom_site_occupancy
  Rb  Rb0  1  0.996296  0.996296  0.000000  1
  As  As1  1  0.653924  0.653924  0.000000  1
  Ru  Ru2  1  0.756043  0.256043  0.500000  1
  Ru  Ru3  1  0.256043  0.756043  0.500000  1
  S  S4  1  0.337695  0.337695  0.000000  1
