# generated using pymatgen
data_La2ErTm(ZnGe)4
_symmetry_space_group_name_H-M   'P 1'
_cell_length_a   4.30665400
_cell_length_b   4.30665470
_cell_length_c   16.15052700
_cell_angle_alpha   90.00000000
_cell_angle_beta   90.00000000
_cell_angle_gamma   120.00000999
_symmetry_Int_Tables_number   1
_chemical_formula_structural   La2ErTm(ZnGe)4
_chemical_formula_sum   'La2 Er1 Tm1 Zn4 Ge4'
_cell_volume   259.41633531
_cell_formula_units_Z   1
loop_
 _symmetry_equiv_pos_site_id
 _symmetry_equiv_pos_as_xyz
  1  'x, y, z'
loop_
 _atom_site_type_symbol
 _atom_site_label
 _atom_site_symmetry_multiplicity
 _atom_site_fract_x
 _atom_site_fract_y
 _atom_site_fract_z
 _atom_site_occupancy
  La  La0  1  0.000000  0.000000  0.999928  1
  La  La1  1  0.000000  0.000000  0.500072  1
  Er  Er2  1  0.000000  0.000000  0.250000  1
  Tm  Tm3  1  0.000000  0.000000  0.750000  1
  Zn  Zn4  1  0.333333  0.666667  0.156921  1
  Zn  Zn5  1  0.666667  0.333333  0.842905  1
  Zn  Zn6  1  0.666667  0.333333  0.657095  1
  Zn  Zn7  1  0.333333  0.666667  0.343079  1
  Ge  Ge8  1  0.333333  0.666667  0.619669  1
  Ge  Ge9  1  0.666667  0.333333  0.380372  1
  Ge  Ge10  1  0.666667  0.333333  0.119628  1
  Ge  Ge11  1  0.333333  0.666667  0.880331  1
