# generated using pymatgen
data_La2InSi2AgIr4
_symmetry_space_group_name_H-M   'P 1'
_cell_length_a   4.14464700
_cell_length_b   4.14464700
_cell_length_c   11.32353400
_cell_angle_alpha   90.00000000
_cell_angle_beta   90.00000000
_cell_angle_gamma   90.00000000
_symmetry_Int_Tables_number   1
_chemical_formula_structural   La2InSi2AgIr4
_chemical_formula_sum   'La2 In1 Si2 Ag1 Ir4'
_cell_volume   194.51678530
_cell_formula_units_Z   1
loop_
 _symmetry_equiv_pos_site_id
 _symmetry_equiv_pos_as_xyz
  1  'x, y, z'
loop_
 _atom_site_type_symbol
 _atom_site_label
 _atom_site_symmetry_multiplicity
 _atom_site_fract_x
 _atom_site_fract_y
 _atom_site_fract_z
 _atom_site_occupancy
  La  La0  1  0.000000  0.500000  0.242920  1
  La  La1  1  0.500000  0.000000  0.757080  1
  In  In2  1  0.500000  0.500000  0.500000  1
  Si  Si3  1  0.000000  0.500000  0.888849  1
  Si  Si4  1  0.500000  0.000000  0.111151  1
  Ag  Ag5  1  0.000000  0.000000  0.500000  1
  Ir  Ir6  1  0.000000  0.000000  0.000000  1
  Ir  Ir7  1  0.500000  0.500000  0.000000  1
  Ir  Ir8  1  0.000000  0.500000  0.679906  1
  Ir  Ir9  1  0.500000  0.000000  0.320094  1
