# generated using pymatgen
data_Yb3ErOsRu7
_symmetry_space_group_name_H-M   'P 1'
_cell_length_a   5.20604077
_cell_length_b   5.31422351
_cell_length_c   8.84110223
_cell_angle_alpha   90.00000060
_cell_angle_beta   90.10805704
_cell_angle_gamma   120.68981496
_symmetry_Int_Tables_number   1
_chemical_formula_structural   Yb3ErOsRu7
_chemical_formula_sum   'Yb3 Er1 Os1 Ru7'
_cell_volume   210.34026725
_cell_formula_units_Z   1
loop_
 _symmetry_equiv_pos_site_id
 _symmetry_equiv_pos_as_xyz
  1  'x, y, z'
loop_
 _atom_site_type_symbol
 _atom_site_label
 _atom_site_symmetry_multiplicity
 _atom_site_fract_x
 _atom_site_fract_y
 _atom_site_fract_z
 _atom_site_occupancy
  Yb  Yb0  1  0.662620  0.331310  0.568955  1
  Yb  Yb1  1  0.658485  0.329243  0.935738  1
  Yb  Yb2  1  0.326394  0.663197  0.061918  1
  Er  Er3  1  0.331162  0.665581  0.432159  1
  Os  Os4  1  0.674292  0.837146  0.750613  1
  Ru  Ru5  1  0.982178  0.991089  0.499874  1
  Ru  Ru6  1  0.977340  0.988670  0.001012  1
  Ru  Ru7  1  0.833331  0.169599  0.250274  1
  Ru  Ru8  1  0.833331  0.663732  0.250274  1
  Ru  Ru9  1  0.358709  0.179354  0.251865  1
  Ru  Ru10  1  0.181079  0.829430  0.748659  1
  Ru  Ru11  1  0.181079  0.351649  0.748659  1
