# generated using pymatgen
data_Tb2DyMoO7
_symmetry_space_group_name_H-M   'P 1'
_cell_length_a   6.49469409
_cell_length_b   6.49469488
_cell_length_c   7.48758526
_cell_angle_alpha   90.00106716
_cell_angle_beta   90.00107379
_cell_angle_gamma   108.67347427
_symmetry_Int_Tables_number   1
_chemical_formula_structural   Tb2DyMoO7
_chemical_formula_sum   'Tb4 Dy2 Mo2 O14'
_cell_volume   299.20830166
_cell_formula_units_Z   2
loop_
 _symmetry_equiv_pos_site_id
 _symmetry_equiv_pos_as_xyz
  1  'x, y, z'
loop_
 _atom_site_type_symbol
 _atom_site_label
 _atom_site_symmetry_multiplicity
 _atom_site_fract_x
 _atom_site_fract_y
 _atom_site_fract_z
 _atom_site_occupancy
  Tb  Tb0  1  0.000370  0.535717  0.244275  1
  Tb  Tb1  1  0.464283  0.999630  0.255725  1
  Tb  Tb2  1  0.467292  0.467609  0.999524  1
  Tb  Tb3  1  0.532391  0.532708  0.500476  1
  Dy  Dy4  1  0.999409  0.463500  0.741334  1
  Dy  Dy5  1  0.536500  0.000591  0.758666  1
  Mo  Mo6  1  0.001090  0.000881  0.500535  1
  Mo  Mo7  1  0.999119  0.998910  0.999465  1
  O  O8  1  0.925239  0.074761  0.750000  1
  O  O9  1  0.638270  0.361730  0.750000  1
  O  O10  1  0.307073  0.054444  0.541030  1
  O  O11  1  0.945556  0.692927  0.958970  1
  O  O12  1  0.630567  0.369433  0.250000  1
  O  O13  1  0.916185  0.671293  0.525339  1
  O  O14  1  0.328707  0.083815  0.974661  1
  O  O15  1  0.082139  0.325239  0.024581  1
  O  O16  1  0.674761  0.917861  0.475419  1
  O  O17  1  0.368563  0.631437  0.750000  1
  O  O18  1  0.688008  0.942192  0.037355  1
  O  O19  1  0.057808  0.311992  0.462645  1
  O  O20  1  0.362944  0.637056  0.250000  1
  O  O21  1  0.073724  0.926276  0.250000  1
