# generated using pymatgen
data_Eu3(SnPt)2
_symmetry_space_group_name_H-M   'P 1'
_cell_length_a   6.00879200
_cell_length_b   8.69130500
_cell_length_c   14.01787300
_cell_angle_alpha   90.00000000
_cell_angle_beta   90.00000000
_cell_angle_gamma   90.00000000
_symmetry_Int_Tables_number   1
_chemical_formula_structural   Eu3(SnPt)2
_chemical_formula_sum   'Eu12 Sn8 Pt8'
_cell_volume   732.07281926
_cell_formula_units_Z   4
loop_
 _symmetry_equiv_pos_site_id
 _symmetry_equiv_pos_as_xyz
  1  'x, y, z'
loop_
 _atom_site_type_symbol
 _atom_site_label
 _atom_site_symmetry_multiplicity
 _atom_site_fract_x
 _atom_site_fract_y
 _atom_site_fract_z
 _atom_site_occupancy
  Eu  Eu0  1  0.150843  0.394095  0.596911  1
  Eu  Eu1  1  0.849157  0.605905  0.096911  1
  Eu  Eu2  1  0.150843  0.105905  0.403089  1
  Eu  Eu3  1  0.849157  0.894095  0.903089  1
  Eu  Eu4  1  0.849157  0.605905  0.403089  1
  Eu  Eu5  1  0.150843  0.394095  0.903089  1
  Eu  Eu6  1  0.849157  0.894095  0.596911  1
  Eu  Eu7  1  0.150843  0.105905  0.096911  1
  Eu  Eu8  1  0.639101  0.254396  0.750000  1
  Eu  Eu9  1  0.360899  0.745604  0.250000  1
  Eu  Eu10  1  0.639101  0.245604  0.250000  1
  Eu  Eu11  1  0.360899  0.754396  0.750000  1
  Sn  Sn12  1  0.653523  0.250000  0.500000  1
  Sn  Sn13  1  0.346477  0.750000  0.000000  1
  Sn  Sn14  1  0.346477  0.750000  0.500000  1
  Sn  Sn15  1  0.653523  0.250000  0.000000  1
  Sn  Sn16  1  0.138845  0.102493  0.750000  1
  Sn  Sn17  1  0.861155  0.897507  0.250000  1
  Sn  Sn18  1  0.138845  0.397507  0.250000  1
  Sn  Sn19  1  0.861155  0.602493  0.750000  1
  Pt  Pt20  1  0.381029  0.037891  0.591041  1
  Pt  Pt21  1  0.618971  0.962109  0.091041  1
  Pt  Pt22  1  0.381029  0.462109  0.408959  1
  Pt  Pt23  1  0.618971  0.537891  0.908959  1
  Pt  Pt24  1  0.618971  0.962109  0.408959  1
  Pt  Pt25  1  0.381029  0.037891  0.908959  1
  Pt  Pt26  1  0.618971  0.537891  0.591041  1
  Pt  Pt27  1  0.381029  0.462109  0.091041  1
