# generated using pymatgen
data_Y7Er9Cd4Ni3Os
_symmetry_space_group_name_H-M   'P 1'
_cell_length_a   9.56398780
_cell_length_b   9.56398808
_cell_length_c   9.61076873
_cell_angle_alpha   59.43418450
_cell_angle_beta   59.43417560
_cell_angle_gamma   59.92703571
_symmetry_Int_Tables_number   1
_chemical_formula_structural   Y7Er9Cd4Ni3Os
_chemical_formula_sum   'Y7 Er9 Cd4 Ni3 Os1'
_cell_volume   615.91051986
_cell_formula_units_Z   1
loop_
 _symmetry_equiv_pos_site_id
 _symmetry_equiv_pos_as_xyz
  1  'x, y, z'
loop_
 _atom_site_type_symbol
 _atom_site_label
 _atom_site_symmetry_multiplicity
 _atom_site_fract_x
 _atom_site_fract_y
 _atom_site_fract_z
 _atom_site_occupancy
  Y  Y0  1  0.061237  0.061237  0.436135  1
  Y  Y1  1  0.186787  0.814056  0.816033  1
  Y  Y2  1  0.805269  0.190470  0.190074  1
  Y  Y3  1  0.814056  0.186787  0.816033  1
  Y  Y4  1  0.190470  0.805269  0.190074  1
  Y  Y5  1  0.814150  0.814150  0.187457  1
  Y  Y6  1  0.190001  0.190001  0.806462  1
  Er  Er7  1  0.596802  0.596802  0.597160  1
  Er  Er8  1  0.600831  0.600831  0.204955  1
  Er  Er9  1  0.599640  0.206719  0.600759  1
  Er  Er10  1  0.206719  0.599640  0.600759  1
  Er  Er11  1  0.061180  0.437855  0.437430  1
  Er  Er12  1  0.435951  0.062073  0.061478  1
  Er  Er13  1  0.437855  0.061180  0.437430  1
  Er  Er14  1  0.062073  0.435951  0.061478  1
  Er  Er15  1  0.437352  0.437352  0.061730  1
  Cd  Cd16  1  0.830067  0.830067  0.829385  1
  Cd  Cd17  1  0.829564  0.829564  0.506144  1
  Cd  Cd18  1  0.829753  0.506661  0.828994  1
  Cd  Cd19  1  0.506661  0.829753  0.828994  1
  Ni  Ni20  1  0.390248  0.390248  0.827274  1
  Ni  Ni21  1  0.395166  0.824990  0.390138  1
  Ni  Ni22  1  0.824990  0.395166  0.390138  1
  Os  Os23  1  0.393177  0.393177  0.393483  1
