# generated using pymatgen
data_Tb5HoSi10
_symmetry_space_group_name_H-M   'P 1'
_cell_length_a   6.64717700
_cell_length_b   6.66437541
_cell_length_c   8.32514500
_cell_angle_alpha   89.95535410
_cell_angle_beta   90.00000000
_cell_angle_gamma   119.91467446
_symmetry_Int_Tables_number   1
_chemical_formula_structural   Tb5HoSi10
_chemical_formula_sum   'Tb5 Ho1 Si10'
_cell_volume   319.66252250
_cell_formula_units_Z   1
loop_
 _symmetry_equiv_pos_site_id
 _symmetry_equiv_pos_as_xyz
  1  'x, y, z'
loop_
 _atom_site_type_symbol
 _atom_site_label
 _atom_site_symmetry_multiplicity
 _atom_site_fract_x
 _atom_site_fract_y
 _atom_site_fract_z
 _atom_site_occupancy
  Tb  Tb0  1  0.330287  0.000000  0.500000  1
  Tb  Tb1  1  0.668875  0.669096  0.499767  1
  Tb  Tb2  1  0.999778  0.330904  0.500233  1
  Tb  Tb3  1  0.000120  0.330958  0.999679  1
  Tb  Tb4  1  0.669162  0.669042  0.000321  1
  Ho  Ho5  1  0.330201  0.000000  0.000000  1
  Si  Si6  1  0.000315  0.000294  0.751056  1
  Si  Si7  1  0.667606  0.050331  0.751040  1
  Si  Si8  1  0.382202  0.330602  0.751213  1
  Si  Si9  1  0.950514  0.619960  0.750164  1
  Si  Si10  1  0.333913  0.666337  0.750850  1
  Si  Si11  1  0.000021  0.999706  0.248944  1
  Si  Si12  1  0.667577  0.333663  0.249150  1
  Si  Si13  1  0.330554  0.380040  0.249836  1
  Si  Si14  1  0.051600  0.669398  0.248787  1
  Si  Si15  1  0.617276  0.949669  0.248960  1
