# generated using pymatgen
data_CePrRu2F14
_symmetry_space_group_name_H-M   'P 1'
_cell_length_a   5.80622880
_cell_length_b   6.09699919
_cell_length_c   8.33802522
_cell_angle_alpha   101.71173376
_cell_angle_beta   89.90338231
_cell_angle_gamma   90.01853833
_symmetry_Int_Tables_number   1
_chemical_formula_structural   CePrRu2F14
_chemical_formula_sum   'Ce1 Pr1 Ru2 F14'
_cell_volume   289.02536818
_cell_formula_units_Z   1
loop_
 _symmetry_equiv_pos_site_id
 _symmetry_equiv_pos_as_xyz
  1  'x, y, z'
loop_
 _atom_site_type_symbol
 _atom_site_label
 _atom_site_symmetry_multiplicity
 _atom_site_fract_x
 _atom_site_fract_y
 _atom_site_fract_z
 _atom_site_occupancy
  Ce  Ce0  1  0.700472  0.664264  0.693584  1
  Pr  Pr1  1  0.201967  0.339848  0.310476  1
  Ru  Ru2  1  0.709761  0.809590  0.222860  1
  Ru  Ru3  1  0.210012  0.188659  0.775297  1
  F  F4  1  0.882462  0.451253  0.483231  1
  F  F5  1  0.395472  0.557074  0.527760  1
  F  F6  1  0.425827  0.937820  0.770942  1
  F  F7  1  0.921839  0.057374  0.228665  1
  F  F8  1  0.952576  0.968019  0.759185  1
  F  F9  1  0.455076  0.025270  0.237079  1
  F  F10  1  0.996431  0.444748  0.787916  1
  F  F11  1  0.499580  0.558215  0.209700  1
  F  F12  1  0.703940  0.760165  0.980588  1
  F  F13  1  0.203212  0.237072  0.011643  1
  F  F14  1  0.715617  0.863501  0.465729  1
  F  F15  1  0.216643  0.135510  0.538030  1
  F  F16  1  0.482564  0.389399  0.788808  1
  F  F17  1  0.979271  0.612220  0.208508  1
