# generated using pymatgen
data_Sc5Pb3O
_symmetry_space_group_name_H-M   'P 1'
_cell_length_a   8.61183014
_cell_length_b   8.61174988
_cell_length_c   8.61178947
_cell_angle_alpha   126.01497894
_cell_angle_beta   126.01527374
_cell_angle_gamma   79.86313713
_symmetry_Int_Tables_number   1
_chemical_formula_structural   Sc5Pb3O
_chemical_formula_sum   'Sc10 Pb6 O2'
_cell_volume   403.55005234
_cell_formula_units_Z   2
loop_
 _symmetry_equiv_pos_site_id
 _symmetry_equiv_pos_as_xyz
  1  'x, y, z'
loop_
 _atom_site_type_symbol
 _atom_site_label
 _atom_site_symmetry_multiplicity
 _atom_site_fract_x
 _atom_site_fract_y
 _atom_site_fract_z
 _atom_site_occupancy
  Sc  Sc0  1  0.505710  0.301434  0.499999  1
  Sc  Sc1  1  0.801437  0.005708  0.500003  1
  Sc  Sc2  1  0.005710  0.505708  0.204271  1
  Sc  Sc3  1  0.301438  0.801441  0.795731  1
  Sc  Sc4  1  0.495358  0.700303  0.500006  1
  Sc  Sc5  1  0.200301  0.995356  0.500000  1
  Sc  Sc6  1  0.995353  0.495356  0.795058  1
  Sc  Sc7  1  0.700300  0.200298  0.204945  1
  Sc  Sc8  1  0.504703  0.504708  0.000000  1
  Sc  Sc9  1  0.004697  0.004700  0.999998  1
  Pb  Pb10  1  0.151788  0.349209  0.500003  1
  Pb  Pb11  1  0.849206  0.651786  0.499996  1
  Pb  Pb12  1  0.651773  0.151775  0.802557  1
  Pb  Pb13  1  0.349212  0.849210  0.197434  1
  Pb  Pb14  1  0.752478  0.752478  0.000000  1
  Pb  Pb15  1  0.252481  0.252479  0.000002  1
  O  O16  1  0.750445  0.250441  0.499994  1
  O  O17  1  0.250452  0.750454  0.500004  1
