# generated using pymatgen
data_Ca8YbTmIr4
_symmetry_space_group_name_H-M   'P 1'
_cell_length_a   6.47721381
_cell_length_b   7.54819735
_cell_length_c   8.56774015
_cell_angle_alpha   97.39230263
_cell_angle_beta   112.20986872
_cell_angle_gamma   90.00000138
_symmetry_Int_Tables_number   1
_chemical_formula_structural   Ca8YbTmIr4
_chemical_formula_sum   'Ca8 Yb1 Tm1 Ir4'
_cell_volume   384.04542016
_cell_formula_units_Z   1
loop_
 _symmetry_equiv_pos_site_id
 _symmetry_equiv_pos_as_xyz
  1  'x, y, z'
loop_
 _atom_site_type_symbol
 _atom_site_label
 _atom_site_symmetry_multiplicity
 _atom_site_fract_x
 _atom_site_fract_y
 _atom_site_fract_z
 _atom_site_occupancy
  Ca  Ca0  1  0.966854  0.920817  0.171303  1
  Ca  Ca1  1  0.795550  0.579183  0.828697  1
  Ca  Ca2  1  0.027544  0.079857  0.826687  1
  Ca  Ca3  1  0.200858  0.420143  0.173313  1
  Ca  Ca4  1  0.638382  0.822616  0.434703  1
  Ca  Ca5  1  0.203680  0.677384  0.565297  1
  Ca  Ca6  1  0.360731  0.178297  0.562710  1
  Ca  Ca7  1  0.798021  0.321703  0.437290  1
  Yb  Yb8  1  0.428815  0.750000  0.000000  1
  Tm  Tm9  1  0.565137  0.250000  0.000000  1
  Ir  Ir10  1  0.811480  0.569099  0.209543  1
  Ir  Ir11  1  0.601935  0.930901  0.790457  1
  Ir  Ir12  1  0.195097  0.417547  0.789180  1
  Ir  Ir13  1  0.405916  0.082453  0.210820  1
