# generated using pymatgen
data_Dy3Lu(Al3Rh)6
_symmetry_space_group_name_H-M   'P 1'
_cell_length_a   7.54470355
_cell_length_b   7.54748247
_cell_length_c   9.44137900
_cell_angle_alpha   90.00000000
_cell_angle_beta   90.00000000
_cell_angle_gamma   119.37038162
_symmetry_Int_Tables_number   1
_chemical_formula_structural   Dy3Lu(Al3Rh)6
_chemical_formula_sum   'Dy3 Lu1 Al18 Rh6'
_cell_volume   468.52298415
_cell_formula_units_Z   1
loop_
 _symmetry_equiv_pos_site_id
 _symmetry_equiv_pos_as_xyz
  1  'x, y, z'
loop_
 _atom_site_type_symbol
 _atom_site_label
 _atom_site_symmetry_multiplicity
 _atom_site_fract_x
 _atom_site_fract_y
 _atom_site_fract_z
 _atom_site_occupancy
  Dy  Dy0  1  0.994538  0.672361  0.250000  1
  Dy  Dy1  1  0.005549  0.327566  0.750000  1
  Dy  Dy2  1  0.672171  0.994198  0.250000  1
  Lu  Lu3  1  0.326871  0.005524  0.750000  1
  Al  Al4  1  0.129505  0.128653  0.250000  1
  Al  Al5  1  0.871994  0.871427  0.750000  1
  Al  Al6  1  0.001223  0.335824  0.074792  1
  Al  Al7  1  0.999895  0.664786  0.924184  1
  Al  Al8  1  0.999895  0.664786  0.575816  1
  Al  Al9  1  0.335751  0.000804  0.426968  1
  Al  Al10  1  0.001223  0.335824  0.425208  1
  Al  Al11  1  0.663018  0.999266  0.576085  1
  Al  Al12  1  0.663018  0.999266  0.923915  1
  Al  Al13  1  0.335751  0.000804  0.073032  1
  Al  Al14  1  0.332797  0.332186  0.550452  1
  Al  Al15  1  0.667275  0.667272  0.452679  1
  Al  Al16  1  0.667275  0.667272  0.047321  1
  Al  Al17  1  0.332797  0.332186  0.949548  1
  Al  Al18  1  0.340353  0.550673  0.250000  1
  Al  Al19  1  0.658829  0.448489  0.750000  1
  Al  Al20  1  0.550381  0.339463  0.250000  1
  Al  Al21  1  0.449310  0.661020  0.750000  1
  Rh  Rh22  1  0.671964  0.327799  0.999401  1
  Rh  Rh23  1  0.327721  0.671940  0.999487  1
  Rh  Rh24  1  0.327721  0.671940  0.500513  1
  Rh  Rh25  1  0.671964  0.327799  0.500599  1
  Rh  Rh26  1  0.000607  0.000435  0.999041  1
  Rh  Rh27  1  0.000607  0.000435  0.500959  1
