# generated using pymatgen
data_HoErV2(WO6)2
_symmetry_space_group_name_H-M   'P 1'
_cell_length_a   5.20709001
_cell_length_b   7.41809502
_cell_length_c   11.17098400
_cell_angle_alpha   90.00000000
_cell_angle_beta   90.00000000
_cell_angle_gamma   90.00770537
_symmetry_Int_Tables_number   1
_chemical_formula_structural   HoErV2(WO6)2
_chemical_formula_sum   'Ho2 Er2 V4 W4 O24'
_cell_volume   431.49811495
_cell_formula_units_Z   2
loop_
 _symmetry_equiv_pos_site_id
 _symmetry_equiv_pos_as_xyz
  1  'x, y, z'
loop_
 _atom_site_type_symbol
 _atom_site_label
 _atom_site_symmetry_multiplicity
 _atom_site_fract_x
 _atom_site_fract_y
 _atom_site_fract_z
 _atom_site_occupancy
  Ho  Ho0  1  0.544174  0.250721  0.045563  1
  Ho  Ho1  1  0.044174  0.750721  0.454437  1
  Er  Er2  1  0.955441  0.250772  0.545607  1
  Er  Er3  1  0.455441  0.750772  0.954393  1
  V  V4  1  0.051149  0.997899  0.134292  1
  V  V5  1  0.551149  0.497899  0.365709  1
  V  V6  1  0.448843  0.998021  0.634332  1
  V  V7  1  0.948843  0.498021  0.865668  1
  W  W8  1  0.056846  0.506261  0.143176  1
  W  W9  1  0.556846  0.006261  0.356824  1
  W  W10  1  0.443193  0.506166  0.643252  1
  W  W11  1  0.943193  0.006166  0.856748  1
  O  O12  1  0.754682  0.958684  0.020037  1
  O  O13  1  0.762919  0.547623  0.029347  1
  O  O14  1  0.183295  0.749598  0.114687  1
  O  O15  1  0.931555  0.258123  0.142950  1
  O  O16  1  0.376739  0.431674  0.205882  1
  O  O17  1  0.394250  0.069502  0.213485  1
  O  O18  1  0.894250  0.569502  0.286514  1
  O  O19  1  0.876739  0.931674  0.294117  1
  O  O20  1  0.431555  0.758122  0.357050  1
  O  O21  1  0.683295  0.249599  0.385313  1
  O  O22  1  0.262918  0.047622  0.470652  1
  O  O23  1  0.254682  0.458684  0.479963  1
  O  O24  1  0.745090  0.959278  0.520116  1
  O  O25  1  0.736834  0.547135  0.529452  1
  O  O26  1  0.317251  0.749534  0.614926  1
  O  O27  1  0.569185  0.258102  0.642832  1
  O  O28  1  0.123031  0.431443  0.705702  1
  O  O29  1  0.105522  0.069662  0.713320  1
  O  O30  1  0.605522  0.569662  0.786681  1
  O  O31  1  0.623031  0.931443  0.794298  1
  O  O32  1  0.069185  0.758101  0.857168  1
  O  O33  1  0.817251  0.249535  0.885075  1
  O  O34  1  0.236834  0.047134  0.970548  1
  O  O35  1  0.245092  0.459278  0.979884  1
