# generated using pymatgen
data_Zr10CuSn2Sb5
_symmetry_space_group_name_H-M   'P 1'
_cell_length_a   5.91206547
_cell_length_b   8.73756752
_cell_length_c   8.72915905
_cell_angle_alpha   120.03186557
_cell_angle_beta   90.01675485
_cell_angle_gamma   89.96652158
_symmetry_Int_Tables_number   1
_chemical_formula_structural   Zr10CuSn2Sb5
_chemical_formula_sum   'Zr10 Cu1 Sn2 Sb5'
_cell_volume   390.38507228
_cell_formula_units_Z   1
loop_
 _symmetry_equiv_pos_site_id
 _symmetry_equiv_pos_as_xyz
  1  'x, y, z'
loop_
 _atom_site_type_symbol
 _atom_site_label
 _atom_site_symmetry_multiplicity
 _atom_site_fract_x
 _atom_site_fract_y
 _atom_site_fract_z
 _atom_site_occupancy
  Zr  Zr0  1  0.499009  0.333233  0.667142  1
  Zr  Zr1  1  0.499009  0.666091  0.332858  1
  Zr  Zr2  1  0.000767  0.666081  0.332468  1
  Zr  Zr3  1  0.000767  0.333613  0.667532  1
  Zr  Zr4  1  0.735987  0.272473  0.000000  1
  Zr  Zr5  1  0.734814  0.728384  0.727991  1
  Zr  Zr6  1  0.734814  0.000393  0.272009  1
  Zr  Zr7  1  0.265215  0.724763  0.000000  1
  Zr  Zr8  1  0.265910  0.273938  0.273602  1
  Zr  Zr9  1  0.265910  0.000337  0.726398  1
  Cu  Cu10  1  0.496821  0.999330  0.000000  1
  Sn  Sn11  1  0.245439  0.615039  0.615140  1
  Sn  Sn12  1  0.245439  0.999899  0.384860  1
  Sb  Sb13  1  0.752931  0.613272  0.000000  1
  Sb  Sb14  1  0.753565  0.388324  0.388921  1
  Sb  Sb15  1  0.753565  0.999402  0.611079  1
  Sb  Sb16  1  0.247052  0.386092  0.000000  1
  Sb  Sb17  1  0.002989  0.999335  0.000000  1
