# generated using pymatgen
data_HoTmNbB2Ru5
_symmetry_space_group_name_H-M   'P 1'
_cell_length_a   9.64817402
_cell_length_b   9.64817402
_cell_length_c   3.12203600
_cell_angle_alpha   90.00000000
_cell_angle_beta   90.00000000
_cell_angle_gamma   90.15666982
_symmetry_Int_Tables_number   1
_chemical_formula_structural   HoTmNbB2Ru5
_chemical_formula_sum   'Ho2 Tm2 Nb2 B4 Ru10'
_cell_volume   290.62069621
_cell_formula_units_Z   2
loop_
 _symmetry_equiv_pos_site_id
 _symmetry_equiv_pos_as_xyz
  1  'x, y, z'
loop_
 _atom_site_type_symbol
 _atom_site_label
 _atom_site_symmetry_multiplicity
 _atom_site_fract_x
 _atom_site_fract_y
 _atom_site_fract_z
 _atom_site_occupancy
  Ho  Ho0  1  0.825281  0.674719  0.000000  1
  Ho  Ho1  1  0.174719  0.325281  0.000000  1
  Tm  Tm2  1  0.325208  0.825208  0.000000  1
  Tm  Tm3  1  0.674792  0.174792  0.000000  1
  Nb  Nb4  1  0.500000  0.500000  0.000000  1
  Nb  Nb5  1  0.000000  0.000000  0.000000  1
  B  B6  1  0.620009  0.879991  0.000000  1
  B  B7  1  0.379991  0.120009  0.000000  1
  B  B8  1  0.120459  0.620459  0.000000  1
  B  B9  1  0.879541  0.379541  0.000000  1
  Ru  Ru10  1  0.570402  0.718743  0.500000  1
  Ru  Ru11  1  0.429598  0.281257  0.500000  1
  Ru  Ru12  1  0.072125  0.781971  0.500000  1
  Ru  Ru13  1  0.927875  0.218029  0.500000  1
  Ru  Ru14  1  0.281971  0.572125  0.500000  1
  Ru  Ru15  1  0.718029  0.427875  0.500000  1
  Ru  Ru16  1  0.218743  0.070402  0.500000  1
  Ru  Ru17  1  0.781257  0.929598  0.500000  1
  Ru  Ru18  1  0.500000  0.000000  0.500000  1
  Ru  Ru19  1  0.000000  0.500000  0.500000  1
