# generated using pymatgen
data_TiBi2PtF14
_symmetry_space_group_name_H-M   'P 1'
_cell_length_a   5.61831510
_cell_length_b   9.19900018
_cell_length_c   12.14010500
_cell_angle_alpha   62.00910649
_cell_angle_beta   90.21100804
_cell_angle_gamma   90.34418578
_symmetry_Int_Tables_number   1
_chemical_formula_structural   TiBi2PtF14
_chemical_formula_sum   'Ti2 Bi4 Pt2 F28'
_cell_volume   554.02930981
_cell_formula_units_Z   2
loop_
 _symmetry_equiv_pos_site_id
 _symmetry_equiv_pos_as_xyz
  1  'x, y, z'
loop_
 _atom_site_type_symbol
 _atom_site_label
 _atom_site_symmetry_multiplicity
 _atom_site_fract_x
 _atom_site_fract_y
 _atom_site_fract_z
 _atom_site_occupancy
  Ti  Ti0  1  0.753399  0.725586  0.041362  1
  Ti  Ti1  1  0.246601  0.274414  0.958638  1
  Bi  Bi2  1  0.258074  0.815859  0.261378  1
  Bi  Bi3  1  0.741926  0.184141  0.738622  1
  Bi  Bi4  1  0.765608  0.182082  0.239464  1
  Bi  Bi5  1  0.234392  0.817918  0.760536  1
  Pt  Pt6  1  0.260290  0.273162  0.456868  1
  Pt  Pt7  1  0.739710  0.726838  0.543132  1
  F  F8  1  0.920491  0.703750  0.413084  1
  F  F9  1  0.079509  0.296250  0.586916  1
  F  F10  1  0.448056  0.285691  0.078032  1
  F  F11  1  0.551944  0.714309  0.921968  1
  F  F12  1  0.487346  0.739895  0.129810  1
  F  F13  1  0.512654  0.260105  0.870190  1
  F  F14  1  0.962174  0.275978  0.369569  1
  F  F15  1  0.037826  0.724022  0.630431  1
  F  F16  1  0.949861  0.750340  0.159762  1
  F  F17  1  0.050139  0.249660  0.840238  1
  F  F18  1  0.434257  0.257234  0.321644  1
  F  F19  1  0.565743  0.742766  0.678356  1
  F  F20  1  0.766937  0.498387  0.132073  1
  F  F21  1  0.233063  0.501613  0.867927  1
  F  F22  1  0.273299  0.514142  0.357604  1
  F  F23  1  0.726701  0.485858  0.642396  1
  F  F24  1  0.966514  0.277540  0.048046  1
  F  F25  1  0.033486  0.722460  0.951954  1
  F  F26  1  0.436559  0.721362  0.462027  1
  F  F27  1  0.563441  0.278638  0.537973  1
  F  F28  1  0.741512  0.971326  0.450946  1
  F  F29  1  0.258488  0.028674  0.549054  1
  F  F30  1  0.237719  0.037699  0.057458  1
  F  F31  1  0.762281  0.962301  0.942542  1
  F  F32  1  0.599478  0.966792  0.230818  1
  F  F33  1  0.400522  0.033208  0.769182  1
  F  F34  1  0.097838  0.027275  0.278191  1
  F  F35  1  0.902162  0.972725  0.721809  1
