# generated using pymatgen
data_In4Hg11AsP3Br16
_symmetry_space_group_name_H-M   'P 1'
_cell_length_a   7.91383500
_cell_length_b   8.00612032
_cell_length_c   22.66218921
_cell_angle_alpha   98.43604929
_cell_angle_beta   90.00000000
_cell_angle_gamma   119.61942604
_symmetry_Int_Tables_number   1
_chemical_formula_structural   In4Hg11AsP3Br16
_chemical_formula_sum   'In4 Hg11 As1 P3 Br16'
_cell_volume   1230.32662158
_cell_formula_units_Z   1
loop_
 _symmetry_equiv_pos_site_id
 _symmetry_equiv_pos_as_xyz
  1  'x, y, z'
loop_
 _atom_site_type_symbol
 _atom_site_label
 _atom_site_symmetry_multiplicity
 _atom_site_fract_x
 _atom_site_fract_y
 _atom_site_fract_z
 _atom_site_occupancy
  In  In0  1  0.360246  0.720493  0.108183  1
  In  In1  1  0.758234  0.516467  0.388997  1
  In  In2  1  0.241811  0.483624  0.611095  1
  In  In3  1  0.639704  0.279410  0.891728  1
  Hg  Hg4  1  0.001024  0.002048  0.004779  1
  Hg  Hg5  1  0.032787  0.065575  0.126259  1
  Hg  Hg6  1  0.236673  0.971519  0.279737  1
  Hg  Hg7  1  0.734845  0.971519  0.279737  1
  Hg  Hg8  1  0.237171  0.474343  0.283465  1
  Hg  Hg9  1  0.471221  0.942443  0.437890  1
  Hg  Hg10  1  0.525866  0.051732  0.557851  1
  Hg  Hg11  1  0.760374  0.520749  0.713372  1
  Hg  Hg12  1  0.269857  0.030787  0.717875  1
  Hg  Hg13  1  0.760931  0.030787  0.717875  1
  Hg  Hg14  1  0.969117  0.938233  0.882974  1
  As  As15  1  0.940464  0.880929  0.762848  1
  P  P16  1  0.060760  0.121519  0.241112  1
  P  P17  1  0.415479  0.830960  0.323645  1
  P  P18  1  0.583444  0.166890  0.671138  1
  Br  Br19  1  0.332306  0.664612  0.996723  1
  Br  Br20  1  0.036206  0.578832  0.155881  1
  Br  Br21  1  0.542626  0.578832  0.155881  1
  Br  Br22  1  0.540236  0.080473  0.156030  1
  Br  Br23  1  0.737088  0.474178  0.275948  1
  Br  Br24  1  0.407932  0.342517  0.416458  1
  Br  Br25  1  0.934586  0.342517  0.416458  1
  Br  Br26  1  0.939945  0.879894  0.422893  1
  Br  Br27  1  0.060165  0.120330  0.576445  1
  Br  Br28  1  0.065406  0.656507  0.582480  1
  Br  Br29  1  0.591100  0.656507  0.582480  1
  Br  Br30  1  0.263193  0.526385  0.723982  1
  Br  Br31  1  0.459650  0.919299  0.844737  1
  Br  Br32  1  0.457249  0.421744  0.844766  1
  Br  Br33  1  0.964495  0.421744  0.844766  1
  Br  Br34  1  0.667803  0.335607  0.003512  1
