# generated using pymatgen
data_Cs2Ir2OF10
_symmetry_space_group_name_H-M   'P 1'
_cell_length_a   5.38505200
_cell_length_b   7.61707501
_cell_length_c   14.15197638
_cell_angle_alpha   78.57879208
_cell_angle_beta   90.00000000
_cell_angle_gamma   90.00000000
_symmetry_Int_Tables_number   1
_chemical_formula_structural   Cs2Ir2OF10
_chemical_formula_sum   'Cs4 Ir4 O2 F20'
_cell_volume   568.99574231
_cell_formula_units_Z   2
loop_
 _symmetry_equiv_pos_site_id
 _symmetry_equiv_pos_as_xyz
  1  'x, y, z'
loop_
 _atom_site_type_symbol
 _atom_site_label
 _atom_site_symmetry_multiplicity
 _atom_site_fract_x
 _atom_site_fract_y
 _atom_site_fract_z
 _atom_site_occupancy
  Cs  Cs0  1  0.405448  0.228356  0.590313  1
  Cs  Cs1  1  0.594552  0.228356  0.090313  1
  Cs  Cs2  1  0.594552  0.771644  0.409687  1
  Cs  Cs3  1  0.405448  0.771644  0.909687  1
  Ir  Ir4  1  0.015499  0.296437  0.332810  1
  Ir  Ir5  1  0.984501  0.296437  0.832810  1
  Ir  Ir6  1  0.015499  0.703563  0.167190  1
  Ir  Ir7  1  0.984501  0.703563  0.667190  1
  O  O8  1  0.099265  0.500000  0.750000  1
  O  O9  1  0.900735  0.500000  0.250000  1
  F  F10  1  0.720574  0.839327  0.187119  1
  F  F11  1  0.685091  0.582027  0.639334  1
  F  F12  1  0.165197  0.791503  0.272510  1
  F  F13  1  0.855466  0.086524  0.917750  1
  F  F14  1  0.314909  0.417973  0.360666  1
  F  F15  1  0.144534  0.913476  0.082250  1
  F  F16  1  0.165197  0.208497  0.227490  1
  F  F17  1  0.279426  0.839327  0.687119  1
  F  F18  1  0.834803  0.208497  0.727490  1
  F  F19  1  0.685091  0.417973  0.860666  1
  F  F20  1  0.144534  0.086524  0.417750  1
  F  F21  1  0.133375  0.362963  0.945638  1
  F  F22  1  0.279426  0.160673  0.812881  1
  F  F23  1  0.866625  0.637037  0.054362  1
  F  F24  1  0.834803  0.791503  0.772510  1
  F  F25  1  0.720574  0.160673  0.312881  1
  F  F26  1  0.855466  0.913476  0.582250  1
  F  F27  1  0.866625  0.362963  0.445638  1
  F  F28  1  0.314909  0.582027  0.139334  1
  F  F29  1  0.133375  0.637037  0.554362  1
