# generated using pymatgen
data_Pr4ScV3O12
_symmetry_space_group_name_H-M   'P 1'
_cell_length_a   5.57156461
_cell_length_b   5.75385695
_cell_length_c   7.95012928
_cell_angle_alpha   89.65270638
_cell_angle_beta   89.87280603
_cell_angle_gamma   90.05938375
_symmetry_Int_Tables_number   1
_chemical_formula_structural   Pr4ScV3O12
_chemical_formula_sum   'Pr4 Sc1 V3 O12'
_cell_volume   254.85968098
_cell_formula_units_Z   1
loop_
 _symmetry_equiv_pos_site_id
 _symmetry_equiv_pos_as_xyz
  1  'x, y, z'
loop_
 _atom_site_type_symbol
 _atom_site_label
 _atom_site_symmetry_multiplicity
 _atom_site_fract_x
 _atom_site_fract_y
 _atom_site_fract_z
 _atom_site_occupancy
  Pr  Pr0  1  0.014619  0.947305  0.754370  1
  Pr  Pr1  1  0.511890  0.556929  0.246219  1
  Pr  Pr2  1  0.488110  0.443071  0.753781  1
  Pr  Pr3  1  0.985381  0.052695  0.245630  1
  Sc  Sc4  1  0.000000  0.500000  0.500000  1
  V  V5  1  0.500000  0.000000  0.500000  1
  V  V6  1  0.500000  0.000000  0.000000  1
  V  V7  1  0.000000  0.500000  0.000000  1
  O  O8  1  0.697863  0.291198  0.449479  1
  O  O9  1  0.207220  0.201295  0.551426  1
  O  O10  1  0.790168  0.799682  0.049381  1
  O  O11  1  0.291011  0.699375  0.951085  1
  O  O12  1  0.302137  0.708802  0.550521  1
  O  O13  1  0.792780  0.798705  0.448574  1
  O  O14  1  0.209832  0.200318  0.950619  1
  O  O15  1  0.708989  0.300625  0.048915  1
  O  O16  1  0.093581  0.471111  0.245355  1
  O  O17  1  0.596543  0.029153  0.753667  1
  O  O18  1  0.403457  0.970847  0.246333  1
  O  O19  1  0.906419  0.528889  0.754645  1
