# generated using pymatgen
data_CeHo7(ErCo)4
_symmetry_space_group_name_H-M   'P 1'
_cell_length_a   6.19624303
_cell_length_b   6.85124845
_cell_length_c   9.40151374
_cell_angle_alpha   90.00228549
_cell_angle_beta   90.04540611
_cell_angle_gamma   91.96586837
_symmetry_Int_Tables_number   1
_chemical_formula_structural   CeHo7(ErCo)4
_chemical_formula_sum   'Ce1 Ho7 Er4 Co4'
_cell_volume   398.87803718
_cell_formula_units_Z   1
loop_
 _symmetry_equiv_pos_site_id
 _symmetry_equiv_pos_as_xyz
  1  'x, y, z'
loop_
 _atom_site_type_symbol
 _atom_site_label
 _atom_site_symmetry_multiplicity
 _atom_site_fract_x
 _atom_site_fract_y
 _atom_site_fract_z
 _atom_site_occupancy
  Ce  Ce0  1  0.352080  0.559726  0.250083  1
  Ho  Ho1  1  0.136849  0.044235  0.249954  1
  Ho  Ho2  1  0.673098  0.175328  0.430660  1
  Ho  Ho3  1  0.177975  0.325344  0.932619  1
  Ho  Ho4  1  0.324684  0.827114  0.568847  1
  Ho  Ho5  1  0.859725  0.958123  0.750044  1
  Ho  Ho6  1  0.644117  0.455766  0.749952  1
  Ho  Ho7  1  0.826591  0.674155  0.064746  1
  Er  Er8  1  0.672850  0.175089  0.069302  1
  Er  Er9  1  0.826798  0.674049  0.435234  1
  Er  Er10  1  0.324908  0.827266  0.931129  1
  Er  Er11  1  0.177703  0.325440  0.567365  1
  Co  Co12  1  0.977212  0.395451  0.250146  1
  Co  Co13  1  0.448453  0.112882  0.750106  1
  Co  Co14  1  0.530984  0.857996  0.249907  1
  Co  Co15  1  0.045973  0.612033  0.749904  1
