# generated using pymatgen
data_Nd6TlCo13
_symmetry_space_group_name_H-M   'P 1'
_cell_length_a   8.02842457
_cell_length_b   8.02842457
_cell_length_c   12.79386209
_cell_angle_alpha   108.28602151
_cell_angle_beta   108.28602239
_cell_angle_gamma   90.00000227
_symmetry_Int_Tables_number   1
_chemical_formula_structural   Nd6TlCo13
_chemical_formula_sum   'Nd12 Tl2 Co26'
_cell_volume   739.00841033
_cell_formula_units_Z   2
loop_
 _symmetry_equiv_pos_site_id
 _symmetry_equiv_pos_as_xyz
  1  'x, y, z'
loop_
 _atom_site_type_symbol
 _atom_site_label
 _atom_site_symmetry_multiplicity
 _atom_site_fract_x
 _atom_site_fract_y
 _atom_site_fract_z
 _atom_site_occupancy
  Nd  Nd0  1  0.599778  0.599778  0.199557  1
  Nd  Nd1  1  0.099778  0.099778  0.199557  1
  Nd  Nd2  1  0.400222  0.400222  0.800443  1
  Nd  Nd3  1  0.900222  0.900222  0.800443  1
  Nd  Nd4  1  0.981100  0.481100  0.636162  1
  Nd  Nd5  1  0.655062  0.155062  0.636162  1
  Nd  Nd6  1  0.155062  0.981100  0.636162  1
  Nd  Nd7  1  0.481100  0.655062  0.636162  1
  Nd  Nd8  1  0.018900  0.518900  0.363838  1
  Nd  Nd9  1  0.344938  0.844938  0.363838  1
  Nd  Nd10  1  0.844938  0.018900  0.363838  1
  Nd  Nd11  1  0.518900  0.344938  0.363838  1
  Tl  Tl12  1  0.250000  0.250000  0.500000  1
  Tl  Tl13  1  0.750000  0.750000  0.500000  1
  Co  Co14  1  0.000000  0.500000  0.000000  1
  Co  Co15  1  0.500000  0.000000  0.000000  1
  Co  Co16  1  0.716339  0.565206  0.000000  1
  Co  Co17  1  0.283661  0.434794  0.000000  1
  Co  Co18  1  0.783661  0.065206  0.000000  1
  Co  Co19  1  0.216339  0.934794  0.000000  1
  Co  Co20  1  0.565206  0.283661  0.000000  1
  Co  Co21  1  0.434794  0.716339  0.000000  1
  Co  Co22  1  0.065206  0.216339  0.000000  1
  Co  Co23  1  0.934794  0.783661  0.000000  1
  Co  Co24  1  0.119770  0.619770  0.886566  1
  Co  Co25  1  0.766796  0.266796  0.886566  1
  Co  Co26  1  0.266796  0.119770  0.886566  1
  Co  Co27  1  0.619770  0.766796  0.886566  1
  Co  Co28  1  0.880230  0.380230  0.113434  1
  Co  Co29  1  0.233204  0.733204  0.113434  1
  Co  Co30  1  0.733204  0.880230  0.113434  1
  Co  Co31  1  0.380230  0.233204  0.113434  1
  Co  Co32  1  0.295118  0.795119  0.818872  1
  Co  Co33  1  0.523754  0.023754  0.818872  1
  Co  Co34  1  0.023754  0.295118  0.818872  1
  Co  Co35  1  0.795119  0.523754  0.818872  1
  Co  Co36  1  0.704881  0.204881  0.181128  1
  Co  Co37  1  0.476246  0.976246  0.181128  1
  Co  Co38  1  0.976246  0.704881  0.181128  1
  Co  Co39  1  0.204881  0.476246  0.181128  1
