# generated using pymatgen
data_Y6TiCo16TcP12
_symmetry_space_group_name_H-M   'P 1'
_cell_length_a   3.71562500
_cell_length_b   10.59399200
_cell_length_c   12.28355100
_cell_angle_alpha   90.00000000
_cell_angle_beta   90.00000000
_cell_angle_gamma   90.00000000
_symmetry_Int_Tables_number   1
_chemical_formula_structural   Y6TiCo16TcP12
_chemical_formula_sum   'Y6 Ti1 Co16 Tc1 P12'
_cell_volume   483.52112181
_cell_formula_units_Z   1
loop_
 _symmetry_equiv_pos_site_id
 _symmetry_equiv_pos_as_xyz
  1  'x, y, z'
loop_
 _atom_site_type_symbol
 _atom_site_label
 _atom_site_symmetry_multiplicity
 _atom_site_fract_x
 _atom_site_fract_y
 _atom_site_fract_z
 _atom_site_occupancy
  Y  Y0  1  0.000000  0.500000  0.524374  1
  Y  Y1  1  0.500000  0.000000  0.475680  1
  Y  Y2  1  0.500000  0.818526  0.204451  1
  Y  Y3  1  0.500000  0.181474  0.204451  1
  Y  Y4  1  0.000000  0.680649  0.794367  1
  Y  Y5  1  0.000000  0.319351  0.794367  1
  Ti  Ti6  1  0.000000  0.000000  0.847877  1
  Co  Co7  1  0.500000  0.500000  0.702484  1
  Co  Co8  1  0.000000  0.000000  0.297378  1
  Co  Co9  1  0.000000  0.500000  0.988273  1
  Co  Co10  1  0.500000  0.000000  0.013539  1
  Co  Co11  1  0.500000  0.334431  0.992147  1
  Co  Co12  1  0.500000  0.665569  0.992147  1
  Co  Co13  1  0.000000  0.169641  0.008017  1
  Co  Co14  1  0.000000  0.830359  0.008017  1
  Co  Co15  1  0.500000  0.296958  0.430406  1
  Co  Co16  1  0.500000  0.703042  0.430406  1
  Co  Co17  1  0.000000  0.204586  0.567774  1
  Co  Co18  1  0.000000  0.795414  0.567774  1
  Co  Co19  1  0.500000  0.878243  0.707533  1
  Co  Co20  1  0.500000  0.121757  0.707533  1
  Co  Co21  1  0.000000  0.620291  0.292606  1
  Co  Co22  1  0.000000  0.379709  0.292606  1
  Tc  Tc23  1  0.500000  0.500000  0.156952  1
  P  P24  1  0.500000  0.500000  0.881634  1
  P  P25  1  0.000000  0.000000  0.117435  1
  P  P26  1  0.500000  0.500000  0.348174  1
  P  P27  1  0.000000  0.000000  0.647893  1
  P  P28  1  0.500000  0.311008  0.615219  1
  P  P29  1  0.500000  0.688992  0.615219  1
  P  P30  1  0.000000  0.189182  0.383636  1
  P  P31  1  0.000000  0.810818  0.383636  1
  P  P32  1  0.500000  0.842696  0.894678  1
  P  P33  1  0.500000  0.157304  0.894678  1
  P  P34  1  0.000000  0.653486  0.108315  1
  P  P35  1  0.000000  0.346514  0.108315  1
