# generated using pymatgen
data_CaNdMnIr3
_symmetry_space_group_name_H-M   'P 1'
_cell_length_a   5.52374077
_cell_length_b   5.52374103
_cell_length_c   5.26195146
_cell_angle_alpha   58.34011666
_cell_angle_beta   58.34011518
_cell_angle_gamma   59.99998576
_symmetry_Int_Tables_number   1
_chemical_formula_structural   CaNdMnIr3
_chemical_formula_sum   'Ca1 Nd1 Mn1 Ir3'
_cell_volume   110.59460913
_cell_formula_units_Z   1
loop_
 _symmetry_equiv_pos_site_id
 _symmetry_equiv_pos_as_xyz
  1  'x, y, z'
loop_
 _atom_site_type_symbol
 _atom_site_label
 _atom_site_symmetry_multiplicity
 _atom_site_fract_x
 _atom_site_fract_y
 _atom_site_fract_z
 _atom_site_occupancy
  Ca  Ca0  1  0.999949  0.999949  0.000151  1
  Nd  Nd1  1  0.248589  0.248589  0.254233  1
  Mn  Mn2  1  0.625114  0.625114  0.124658  1
  Ir  Ir3  1  0.625998  0.625998  0.623653  1
  Ir  Ir4  1  0.124352  0.625998  0.623653  1
  Ir  Ir5  1  0.625998  0.124352  0.623653  1
