# generated using pymatgen
data_Lu6Sc2VSi16Tc11
_symmetry_space_group_name_H-M   'P 1'
_cell_length_a   6.73540900
_cell_length_b   6.72698854
_cell_length_c   12.43559652
_cell_angle_alpha   89.79858238
_cell_angle_beta   89.85077406
_cell_angle_gamma   90.00082995
_symmetry_Int_Tables_number   1
_chemical_formula_structural   Lu6Sc2VSi16Tc11
_chemical_formula_sum   'Lu6 Sc2 V1 Si16 Tc11'
_cell_volume   563.43928831
_cell_formula_units_Z   1
loop_
 _symmetry_equiv_pos_site_id
 _symmetry_equiv_pos_as_xyz
  1  'x, y, z'
loop_
 _atom_site_type_symbol
 _atom_site_label
 _atom_site_symmetry_multiplicity
 _atom_site_fract_x
 _atom_site_fract_y
 _atom_site_fract_z
 _atom_site_occupancy
  Lu  Lu0  1  0.999488  0.661752  0.029421  1
  Lu  Lu1  1  0.839257  0.498652  0.280667  1
  Lu  Lu2  1  0.158883  0.498417  0.780175  1
  Lu  Lu3  1  0.500363  0.841472  0.719575  1
  Lu  Lu4  1  0.497101  0.158414  0.220210  1
  Lu  Lu5  1  0.996947  0.337838  0.529184  1
  Sc  Sc6  1  0.656484  0.004378  0.969110  1
  Sc  Sc7  1  0.341835  0.996065  0.469689  1
  V  V8  1  0.832006  0.008344  0.375392  1
  Si  Si9  1  0.281012  0.971358  0.064393  1
  Si  Si10  1  0.532791  0.786384  0.317366  1
  Si  Si11  1  0.475315  0.224971  0.815231  1
  Si  Si12  1  0.774643  0.528358  0.685644  1
  Si  Si13  1  0.218063  0.469879  0.183838  1
  Si  Si14  1  0.716402  0.031381  0.564555  1
  Si  Si15  1  0.969928  0.275786  0.935730  1
  Si  Si16  1  0.036586  0.717331  0.434672  1
  Si  Si17  1  0.691694  0.375853  0.063000  1
  Si  Si18  1  0.123876  0.192661  0.317016  1
  Si  Si19  1  0.876602  0.811661  0.814135  1
  Si  Si20  1  0.192881  0.121160  0.685054  1
  Si  Si21  1  0.804266  0.879545  0.187228  1
  Si  Si22  1  0.309096  0.622901  0.562165  1
  Si  Si23  1  0.381724  0.694270  0.936545  1
  Si  Si24  1  0.620465  0.297997  0.434760  1
  Tc  Tc25  1  0.331930  0.328685  0.998741  1
  Tc  Tc26  1  0.167799  0.833988  0.251154  1
  Tc  Tc27  1  0.828650  0.171567  0.751072  1
  Tc  Tc28  1  0.667951  0.671663  0.499984  1
  Tc  Tc29  1  0.977663  0.176007  0.128465  1
  Tc  Tc30  1  0.329250  0.486267  0.374891  1
  Tc  Tc31  1  0.681162  0.526841  0.880637  1
  Tc  Tc32  1  0.474049  0.319540  0.620467  1
  Tc  Tc33  1  0.517774  0.672425  0.122936  1
  Tc  Tc34  1  0.020374  0.828704  0.625573  1
  Tc  Tc35  1  0.175693  0.977483  0.871322  1
