# generated using pymatgen
data_Zr8Nb11Si16Ni
_symmetry_space_group_name_H-M   'P 1'
_cell_length_a   6.88444737
_cell_length_b   6.87634290
_cell_length_c   12.71594500
_cell_angle_alpha   89.65302186
_cell_angle_beta   89.90672824
_cell_angle_gamma   89.82923545
_symmetry_Int_Tables_number   1
_chemical_formula_structural   Zr8Nb11Si16Ni
_chemical_formula_sum   'Zr8 Nb11 Si16 Ni1'
_cell_volume   601.95606523
_cell_formula_units_Z   1
loop_
 _symmetry_equiv_pos_site_id
 _symmetry_equiv_pos_as_xyz
  1  'x, y, z'
loop_
 _atom_site_type_symbol
 _atom_site_label
 _atom_site_symmetry_multiplicity
 _atom_site_fract_x
 _atom_site_fract_y
 _atom_site_fract_z
 _atom_site_occupancy
  Zr  Zr0  1  0.002113  0.345004  0.218095  1
  Zr  Zr1  1  0.999977  0.657588  0.716305  1
  Zr  Zr2  1  0.155871  0.504801  0.468213  1
  Zr  Zr3  1  0.497054  0.837847  0.031997  1
  Zr  Zr4  1  0.839317  0.495919  0.967657  1
  Zr  Zr5  1  0.508709  0.159296  0.533263  1
  Zr  Zr6  1  0.339342  0.999316  0.780417  1
  Zr  Zr7  1  0.660580  0.995951  0.277878  1
  Nb  Nb8  1  0.168311  0.165044  0.001177  1
  Nb  Nb9  1  0.829609  0.832244  0.497788  1
  Nb  Nb10  1  0.325832  0.666731  0.249624  1
  Nb  Nb11  1  0.669378  0.328758  0.748892  1
  Nb  Nb12  1  0.844974  0.003661  0.874708  1
  Nb  Nb13  1  0.501485  0.654603  0.623536  1
  Nb  Nb14  1  0.346578  0.493911  0.872799  1
  Nb  Nb15  1  0.491708  0.338235  0.128478  1
  Nb  Nb16  1  0.651907  0.501135  0.372223  1
  Nb  Nb17  1  0.996615  0.152589  0.623142  1
  Nb  Nb18  1  0.001374  0.839659  0.120506  1
  Si  Si19  1  0.285958  0.037636  0.195045  1
  Si  Si20  1  0.703248  0.952316  0.685585  1
  Si  Si21  1  0.449302  0.804755  0.432709  1
  Si  Si22  1  0.203000  0.540406  0.062674  1
  Si  Si23  1  0.542969  0.199267  0.937159  1
  Si  Si24  1  0.796383  0.454730  0.560702  1
  Si  Si25  1  0.044805  0.296427  0.812889  1
  Si  Si26  1  0.962272  0.723548  0.315317  1
  Si  Si27  1  0.360245  0.288838  0.325220  1
  Si  Si28  1  0.633357  0.706717  0.821517  1
  Si  Si29  1  0.205653  0.869110  0.568971  1
  Si  Si30  1  0.134230  0.789631  0.925991  1
  Si  Si31  1  0.790324  0.131672  0.073265  1
  Si  Si32  1  0.876747  0.199802  0.423131  1
  Si  Si33  1  0.291638  0.365507  0.675644  1
  Si  Si34  1  0.707796  0.627624  0.177645  1
  Ni  Ni35  1  0.181341  0.039722  0.399838  1
