# generated using pymatgen
data_TaNbSe6
_symmetry_space_group_name_H-M   'P 1'
_cell_length_a   3.51407600
_cell_length_b   10.52923171
_cell_length_c   11.05206219
_cell_angle_alpha   69.29600055
_cell_angle_beta   90.00000000
_cell_angle_gamma   90.00000000
_symmetry_Int_Tables_number   1
_chemical_formula_structural   TaNbSe6
_chemical_formula_sum   'Ta2 Nb2 Se12'
_cell_volume   382.52295741
_cell_formula_units_Z   2
loop_
 _symmetry_equiv_pos_site_id
 _symmetry_equiv_pos_as_xyz
  1  'x, y, z'
loop_
 _atom_site_type_symbol
 _atom_site_label
 _atom_site_symmetry_multiplicity
 _atom_site_fract_x
 _atom_site_fract_y
 _atom_site_fract_z
 _atom_site_occupancy
  Ta  Ta0  1  0.250000  0.040951  0.664731  1
  Ta  Ta1  1  0.750000  0.959049  0.335269  1
  Nb  Nb2  1  0.250000  0.370540  0.190281  1
  Nb  Nb3  1  0.750000  0.629460  0.809719  1
  Se  Se4  1  0.250000  0.430529  0.922482  1
  Se  Se5  1  0.750000  0.569471  0.077518  1
  Se  Se6  1  0.250000  0.795052  0.867148  1
  Se  Se7  1  0.750000  0.204948  0.132852  1
  Se  Se8  1  0.250000  0.936185  0.167114  1
  Se  Se9  1  0.750000  0.063815  0.832886  1
  Se  Se10  1  0.250000  0.589080  0.647156  1
  Se  Se11  1  0.750000  0.410920  0.352844  1
  Se  Se12  1  0.250000  0.754942  0.399649  1
  Se  Se13  1  0.750000  0.245058  0.600351  1
  Se  Se14  1  0.250000  0.117483  0.397069  1
  Se  Se15  1  0.750000  0.882517  0.602931  1
