# generated using pymatgen
data_Cs4Zn2NiF10
_symmetry_space_group_name_H-M   'P 1'
_cell_length_a   7.98361000
_cell_length_b   7.98361032
_cell_length_c   13.98956400
_cell_angle_alpha   90.00000000
_cell_angle_beta   90.00000000
_cell_angle_gamma   133.66383854
_symmetry_Int_Tables_number   1
_chemical_formula_structural   Cs4Zn2NiF10
_chemical_formula_sum   'Cs8 Zn4 Ni2 F20'
_cell_volume   645.03481399
_cell_formula_units_Z   2
loop_
 _symmetry_equiv_pos_site_id
 _symmetry_equiv_pos_as_xyz
  1  'x, y, z'
loop_
 _atom_site_type_symbol
 _atom_site_label
 _atom_site_symmetry_multiplicity
 _atom_site_fract_x
 _atom_site_fract_y
 _atom_site_fract_z
 _atom_site_occupancy
  Cs  Cs0  1  0.044313  0.955687  0.639141  1
  Cs  Cs1  1  0.955687  0.044313  0.360859  1
  Cs  Cs2  1  0.455687  0.544313  0.139141  1
  Cs  Cs3  1  0.544313  0.455687  0.860859  1
  Cs  Cs4  1  0.744279  0.255721  0.609014  1
  Cs  Cs5  1  0.255721  0.744279  0.390986  1
  Cs  Cs6  1  0.755721  0.244279  0.109014  1
  Cs  Cs7  1  0.244279  0.755721  0.890986  1
  Zn  Zn8  1  0.378396  0.621604  0.654816  1
  Zn  Zn9  1  0.621604  0.378396  0.345184  1
  Zn  Zn10  1  0.121604  0.878396  0.154816  1
  Zn  Zn11  1  0.878396  0.121604  0.845184  1
  Ni  Ni12  1  0.500000  0.500000  0.500000  1
  Ni  Ni13  1  0.000000  0.000000  0.000000  1
  F  F14  1  0.636049  0.863951  0.750000  1
  F  F15  1  0.863951  0.636049  0.250000  1
  F  F16  1  0.363951  0.136049  0.250000  1
  F  F17  1  0.136049  0.363951  0.750000  1
  F  F18  1  0.245260  0.754740  0.647019  1
  F  F19  1  0.754740  0.245260  0.352981  1
  F  F20  1  0.254740  0.745260  0.147019  1
  F  F21  1  0.745260  0.254740  0.852981  1
  F  F22  1  0.525708  0.474292  0.643335  1
  F  F23  1  0.474292  0.525708  0.356665  1
  F  F24  1  0.974292  0.025708  0.143335  1
  F  F25  1  0.025708  0.974292  0.856665  1
  F  F26  1  0.614579  0.811683  0.536440  1
  F  F27  1  0.811683  0.614579  0.463560  1
  F  F28  1  0.311683  0.114579  0.036440  1
  F  F29  1  0.114579  0.311683  0.963560  1
  F  F30  1  0.385421  0.188317  0.463560  1
  F  F31  1  0.188317  0.385421  0.536440  1
  F  F32  1  0.688317  0.885421  0.963560  1
  F  F33  1  0.885421  0.688317  0.036440  1
