# generated using pymatgen
data_Pr2Y18Si15Os
_symmetry_space_group_name_H-M   'P 1'
_cell_length_a   7.44816805
_cell_length_b   7.80103357
_cell_length_c   14.70763388
_cell_angle_alpha   89.71701450
_cell_angle_beta   90.01605944
_cell_angle_gamma   89.95029216
_symmetry_Int_Tables_number   1
_chemical_formula_structural   Pr2Y18Si15Os
_chemical_formula_sum   'Pr2 Y18 Si15 Os1'
_cell_volume   854.55288740
_cell_formula_units_Z   1
loop_
 _symmetry_equiv_pos_site_id
 _symmetry_equiv_pos_as_xyz
  1  'x, y, z'
loop_
 _atom_site_type_symbol
 _atom_site_label
 _atom_site_symmetry_multiplicity
 _atom_site_fract_x
 _atom_site_fract_y
 _atom_site_fract_z
 _atom_site_occupancy
  Pr  Pr0  1  0.522986  0.568879  0.342816  1
  Pr  Pr1  1  0.024304  0.429112  0.657470  1
  Y  Y2  1  0.806824  0.576725  0.877282  1
  Y  Y3  1  0.324345  0.431699  0.123641  1
  Y  Y4  1  0.183502  0.927938  0.372804  1
  Y  Y5  1  0.682689  0.069600  0.626838  1
  Y  Y6  1  0.183420  0.927611  0.628593  1
  Y  Y7  1  0.682043  0.070149  0.371900  1
  Y  Y8  1  0.809502  0.573927  0.123635  1
  Y  Y9  1  0.326771  0.436356  0.875187  1
  Y  Y10  1  0.643779  0.238723  0.999668  1
  Y  Y11  1  0.158504  0.761578  0.000408  1
  Y  Y12  1  0.350260  0.263853  0.499732  1
  Y  Y13  1  0.849422  0.734217  0.500014  1
  Y  Y14  1  0.477369  0.924885  0.848951  1
  Y  Y15  1  0.973267  0.066029  0.151277  1
  Y  Y16  1  0.475975  0.925051  0.150707  1
  Y  Y17  1  0.971959  0.067109  0.849261  1
  Y  Y18  1  0.528971  0.564782  0.652199  1
  Y  Y19  1  0.027580  0.433735  0.347300  1
  Si  Si20  1  0.018821  0.350034  0.999534  1
  Si  Si21  1  0.475930  0.857884  0.500856  1
  Si  Si22  1  0.978711  0.140711  0.499332  1
  Si  Si23  1  0.652687  0.275851  0.789443  1
  Si  Si24  1  0.146929  0.720977  0.210218  1
  Si  Si25  1  0.352586  0.216707  0.287098  1
  Si  Si26  1  0.850558  0.783032  0.712825  1
  Si  Si27  1  0.361507  0.219594  0.711459  1
  Si  Si28  1  0.858340  0.780234  0.288587  1
  Si  Si29  1  0.648532  0.268903  0.207511  1
  Si  Si30  1  0.141077  0.727606  0.792525  1
  Si  Si31  1  0.767241  0.883114  0.000463  1
  Si  Si32  1  0.257855  0.126331  0.999502  1
  Si  Si33  1  0.232967  0.625996  0.501762  1
  Si  Si34  1  0.734199  0.373945  0.498836  1
  Os  Os35  1  0.518589  0.657118  0.000360  1
