# generated using pymatgen
data_Sc3Fe7(P3Ir)2
_symmetry_space_group_name_H-M   'P 1'
_cell_length_a   3.68370600
_cell_length_b   10.62922600
_cell_length_c   11.99961700
_cell_angle_alpha   90.00000000
_cell_angle_beta   90.00000000
_cell_angle_gamma   90.00000000
_symmetry_Int_Tables_number   1
_chemical_formula_structural   Sc3Fe7(P3Ir)2
_chemical_formula_sum   'Sc6 Fe14 P12 Ir4'
_cell_volume   469.84432676
_cell_formula_units_Z   2
loop_
 _symmetry_equiv_pos_site_id
 _symmetry_equiv_pos_as_xyz
  1  'x, y, z'
loop_
 _atom_site_type_symbol
 _atom_site_label
 _atom_site_symmetry_multiplicity
 _atom_site_fract_x
 _atom_site_fract_y
 _atom_site_fract_z
 _atom_site_occupancy
  Sc  Sc0  1  0.000000  0.500000  0.522389  1
  Sc  Sc1  1  0.500000  0.000000  0.477611  1
  Sc  Sc2  1  0.500000  0.815827  0.203335  1
  Sc  Sc3  1  0.500000  0.184173  0.203335  1
  Sc  Sc4  1  0.000000  0.684173  0.796665  1
  Sc  Sc5  1  0.000000  0.315827  0.796665  1
  Fe  Fe6  1  0.000000  0.500000  0.990059  1
  Fe  Fe7  1  0.500000  0.000000  0.009941  1
  Fe  Fe8  1  0.500000  0.331570  0.993638  1
  Fe  Fe9  1  0.500000  0.668430  0.993638  1
  Fe  Fe10  1  0.000000  0.168430  0.006362  1
  Fe  Fe11  1  0.000000  0.831570  0.006362  1
  Fe  Fe12  1  0.500000  0.301585  0.431694  1
  Fe  Fe13  1  0.500000  0.698415  0.431694  1
  Fe  Fe14  1  0.000000  0.198415  0.568306  1
  Fe  Fe15  1  0.000000  0.801585  0.568306  1
  Fe  Fe16  1  0.500000  0.881571  0.710018  1
  Fe  Fe17  1  0.500000  0.118429  0.710018  1
  Fe  Fe18  1  0.000000  0.618429  0.289982  1
  Fe  Fe19  1  0.000000  0.381571  0.289982  1
  P  P20  1  0.500000  0.500000  0.887320  1
  P  P21  1  0.000000  0.000000  0.112680  1
  P  P22  1  0.500000  0.500000  0.351326  1
  P  P23  1  0.000000  0.000000  0.648674  1
  P  P24  1  0.500000  0.298326  0.616315  1
  P  P25  1  0.500000  0.701674  0.616315  1
  P  P26  1  0.000000  0.201674  0.383685  1
  P  P27  1  0.000000  0.798326  0.383685  1
  P  P28  1  0.500000  0.840781  0.893366  1
  P  P29  1  0.500000  0.159219  0.893366  1
  P  P30  1  0.000000  0.659219  0.106634  1
  P  P31  1  0.000000  0.340781  0.106634  1
  Ir  Ir32  1  0.500000  0.500000  0.156870  1
  Ir  Ir33  1  0.000000  0.000000  0.843130  1
  Ir  Ir34  1  0.500000  0.500000  0.695021  1
  Ir  Ir35  1  0.000000  0.000000  0.304979  1
