# generated using pymatgen
data_Tb8Hf2IrRh5
_symmetry_space_group_name_H-M   'P 1'
_cell_length_a   10.92420324
_cell_length_b   10.92566700
_cell_length_c   6.25254350
_cell_angle_alpha   90.00000000
_cell_angle_beta   90.24656584
_cell_angle_gamma   90.00000000
_symmetry_Int_Tables_number   1
_chemical_formula_structural   Tb8Hf2IrRh5
_chemical_formula_sum   'Tb16 Hf4 Ir2 Rh10'
_cell_volume   746.26046027
_cell_formula_units_Z   2
loop_
 _symmetry_equiv_pos_site_id
 _symmetry_equiv_pos_as_xyz
  1  'x, y, z'
loop_
 _atom_site_type_symbol
 _atom_site_label
 _atom_site_symmetry_multiplicity
 _atom_site_fract_x
 _atom_site_fract_y
 _atom_site_fract_z
 _atom_site_occupancy
  Tb  Tb0  1  0.288453  0.087326  0.374854  1
  Tb  Tb1  1  0.288453  0.912674  0.874854  1
  Tb  Tb2  1  0.711889  0.085688  0.875287  1
  Tb  Tb3  1  0.711889  0.914312  0.375287  1
  Tb  Tb4  1  0.584152  0.787265  0.876033  1
  Tb  Tb5  1  0.584152  0.212735  0.376033  1
  Tb  Tb6  1  0.413797  0.787753  0.375595  1
  Tb  Tb7  1  0.413797  0.212247  0.875595  1
  Tb  Tb8  1  0.212931  0.415576  0.623892  1
  Tb  Tb9  1  0.212931  0.584424  0.123892  1
  Tb  Tb10  1  0.787903  0.414041  0.124397  1
  Tb  Tb11  1  0.787903  0.585959  0.624397  1
  Tb  Tb12  1  0.914480  0.712033  0.124672  1
  Tb  Tb13  1  0.914480  0.287967  0.624672  1
  Tb  Tb14  1  0.087585  0.711397  0.625198  1
  Tb  Tb15  1  0.087585  0.288603  0.125198  1
  Hf  Hf16  1  0.000316  0.000106  0.499967  1
  Hf  Hf17  1  0.000316  0.999894  0.999967  1
  Hf  Hf18  1  0.498964  0.499787  0.999935  1
  Hf  Hf19  1  0.498964  0.500213  0.499935  1
  Ir  Ir20  1  0.357733  0.356668  0.249651  1
  Ir  Ir21  1  0.357733  0.643332  0.749651  1
  Rh  Rh22  1  0.857887  0.141915  0.250031  1
  Rh  Rh23  1  0.857887  0.858085  0.750031  1
  Rh  Rh24  1  0.141781  0.141897  0.750096  1
  Rh  Rh25  1  0.141781  0.858103  0.250096  1
  Rh  Rh26  1  0.643097  0.358050  0.750275  1
  Rh  Rh27  1  0.643097  0.641950  0.250275  1
  Rh  Rh28  1  0.500378  0.999587  0.117509  1
  Rh  Rh29  1  0.500378  0.000413  0.617509  1
  Rh  Rh30  1  0.998655  0.499913  0.882609  1
  Rh  Rh31  1  0.998655  0.500087  0.382609  1
