# generated using pymatgen
data_Hf3(V2Re)2
_symmetry_space_group_name_H-M   'P 1'
_cell_length_a   5.19026168
_cell_length_b   5.20928661
_cell_length_c   12.75568099
_cell_angle_alpha   90.35812613
_cell_angle_beta   89.58055114
_cell_angle_gamma   119.73414530
_symmetry_Int_Tables_number   1
_chemical_formula_structural   Hf3(V2Re)2
_chemical_formula_sum   'Hf6 V8 Re4'
_cell_volume   299.46453344
_cell_formula_units_Z   2
loop_
 _symmetry_equiv_pos_site_id
 _symmetry_equiv_pos_as_xyz
  1  'x, y, z'
loop_
 _atom_site_type_symbol
 _atom_site_label
 _atom_site_symmetry_multiplicity
 _atom_site_fract_x
 _atom_site_fract_y
 _atom_site_fract_z
 _atom_site_occupancy
  Hf  Hf0  1  0.334011  0.665234  0.917385  1
  Hf  Hf1  1  0.000289  0.001133  0.248960  1
  Hf  Hf2  1  0.666504  0.333265  0.583560  1
  Hf  Hf3  1  0.333496  0.666735  0.666440  1
  Hf  Hf4  1  0.999711  0.998867  0.001039  1
  Hf  Hf5  1  0.665989  0.334766  0.332615  1
  V  V6  1  0.166928  0.335143  0.458855  1
  V  V7  1  0.833072  0.664857  0.791145  1
  V  V8  1  0.331992  0.668706  0.292881  1
  V  V9  1  0.000000  0.000000  0.625000  1
  V  V10  1  0.668008  0.331294  0.957119  1
  V  V11  1  0.000000  0.500000  0.125000  1
  V  V12  1  0.665642  0.834050  0.459166  1
  V  V13  1  0.334358  0.165950  0.790834  1
  Re  Re14  1  0.500000  0.500000  0.125000  1
  Re  Re15  1  0.166151  0.834381  0.458926  1
  Re  Re16  1  0.833849  0.165619  0.791074  1
  Re  Re17  1  0.500000  0.000000  0.125000  1
