# generated using pymatgen
data_HoCr3BiO8
_symmetry_space_group_name_H-M   'P 1'
_cell_length_a   6.31888660
_cell_length_b   6.31888705
_cell_length_c   5.13372132
_cell_angle_alpha   71.80295761
_cell_angle_beta   71.80296280
_cell_angle_gamma   57.82676787
_symmetry_Int_Tables_number   1
_chemical_formula_structural   HoCr3BiO8
_chemical_formula_sum   'Ho1 Cr3 Bi1 O8'
_cell_volume   162.08754082
_cell_formula_units_Z   1
loop_
 _symmetry_equiv_pos_site_id
 _symmetry_equiv_pos_as_xyz
  1  'x, y, z'
loop_
 _atom_site_type_symbol
 _atom_site_label
 _atom_site_symmetry_multiplicity
 _atom_site_fract_x
 _atom_site_fract_y
 _atom_site_fract_z
 _atom_site_occupancy
  Ho  Ho0  1  0.723178  0.723178  0.325863  1
  Cr  Cr1  1  0.001394  0.001394  0.504409  1
  Cr  Cr2  1  0.745329  0.257754  0.998118  1
  Cr  Cr3  1  0.257754  0.745329  0.998118  1
  Bi  Bi4  1  0.283637  0.283637  0.663832  1
  O  O5  1  0.390895  0.390895  0.957234  1
  O  O6  1  0.606043  0.606043  0.061012  1
  O  O7  1  0.898894  0.898894  0.914933  1
  O  O8  1  0.098926  0.098926  0.086489  1
  O  O9  1  0.336298  0.884994  0.594485  1
  O  O10  1  0.884994  0.336298  0.594485  1
  O  O11  1  0.102913  0.669743  0.400512  1
  O  O12  1  0.669743  0.102913  0.400512  1
