# generated using pymatgen
data_NdDyZr2(Al8Pt3)3
_symmetry_space_group_name_H-M   'P 1'
_cell_length_a   7.52170327
_cell_length_b   7.52771238
_cell_length_c   13.09891609
_cell_angle_alpha   84.49600405
_cell_angle_beta   78.97452144
_cell_angle_gamma   59.92974535
_symmetry_Int_Tables_number   1
_chemical_formula_structural   NdDyZr2(Al8Pt3)3
_chemical_formula_sum   'Nd1 Dy1 Zr2 Al24 Pt9'
_cell_volume   630.00835490
_cell_formula_units_Z   1
loop_
 _symmetry_equiv_pos_site_id
 _symmetry_equiv_pos_as_xyz
  1  'x, y, z'
loop_
 _atom_site_type_symbol
 _atom_site_label
 _atom_site_symmetry_multiplicity
 _atom_site_fract_x
 _atom_site_fract_y
 _atom_site_fract_z
 _atom_site_occupancy
  Nd  Nd0  1  0.732994  0.498178  0.809845  1
  Dy  Dy1  1  0.266244  0.501469  0.192261  1
  Zr  Zr2  1  0.393927  0.167562  0.809873  1
  Zr  Zr3  1  0.605950  0.832922  0.190200  1
  Al  Al4  1  0.680384  0.837781  0.946214  1
  Al  Al5  1  0.318523  0.164194  0.056700  1
  Al  Al6  1  0.146322  0.833104  0.562130  1
  Al  Al7  1  0.854184  0.166561  0.436739  1
  Al  Al8  1  0.480317  0.166954  0.560404  1
  Al  Al9  1  0.519941  0.833095  0.438428  1
  Al  Al10  1  0.220555  0.163357  0.327119  1
  Al  Al11  1  0.780279  0.836900  0.670538  1
  Al  Al12  1  0.437069  0.504178  0.670540  1
  Al  Al13  1  0.563279  0.495787  0.327074  1
  Al  Al14  1  0.112682  0.159876  0.669087  1
  Al  Al15  1  0.888880  0.839550  0.328392  1
  Al  Al16  1  0.350522  0.497224  0.944353  1
  Al  Al17  1  0.646095  0.503232  0.059605  1
  Al  Al18  1  0.019224  0.166056  0.953838  1
  Al  Al19  1  0.981381  0.832427  0.049318  1
  Al  Al20  1  0.186910  0.499639  0.440118  1
  Al  Al21  1  0.813675  0.500339  0.558638  1
  Al  Al22  1  0.734007  0.158000  0.184036  1
  Al  Al23  1  0.263332  0.844876  0.815978  1
  Al  Al24  1  0.069123  0.625904  0.814830  1
  Al  Al25  1  0.934187  0.373596  0.185130  1
  Al  Al26  1  0.849999  0.037545  0.815462  1
  Al  Al27  1  0.149588  0.959482  0.184533  1
  Pt  Pt28  1  0.121816  0.491470  0.638000  1
  Pt  Pt29  1  0.879808  0.508798  0.360837  1
  Pt  Pt30  1  0.657082  0.172438  0.000261  1
  Pt  Pt31  1  0.342078  0.827555  0.001041  1
  Pt  Pt32  1  0.537274  0.166643  0.361425  1
  Pt  Pt33  1  0.461861  0.834296  0.637385  1
  Pt  Pt34  1  0.779387  0.174426  0.636657  1
  Pt  Pt35  1  0.221357  0.824115  0.362248  1
  Pt  Pt36  1  0.999762  0.500472  0.000761  1
