# generated using pymatgen
data_Zr6Zn15SiAg8
_symmetry_space_group_name_H-M   'P 1'
_cell_length_a   8.93709448
_cell_length_b   8.93709349
_cell_length_c   8.93709400
_cell_angle_alpha   59.99999810
_cell_angle_beta   60.00000180
_cell_angle_gamma   59.99999750
_symmetry_Int_Tables_number   1
_chemical_formula_structural   Zr6Zn15SiAg8
_chemical_formula_sum   'Zr6 Zn15 Si1 Ag8'
_cell_volume   504.74725970
_cell_formula_units_Z   1
loop_
 _symmetry_equiv_pos_site_id
 _symmetry_equiv_pos_as_xyz
  1  'x, y, z'
loop_
 _atom_site_type_symbol
 _atom_site_label
 _atom_site_symmetry_multiplicity
 _atom_site_fract_x
 _atom_site_fract_y
 _atom_site_fract_z
 _atom_site_occupancy
  Zr  Zr0  1  0.707979  0.292021  0.292021  1
  Zr  Zr1  1  0.292021  0.707979  0.707979  1
  Zr  Zr2  1  0.292021  0.707979  0.292021  1
  Zr  Zr3  1  0.707979  0.292021  0.707979  1
  Zr  Zr4  1  0.292021  0.292021  0.707979  1
  Zr  Zr5  1  0.707979  0.707979  0.292021  1
  Zn  Zn6  1  0.500000  0.000000  0.000000  1
  Zn  Zn7  1  0.000000  0.500000  0.500000  1
  Zn  Zn8  1  0.000000  0.500000  0.000000  1
  Zn  Zn9  1  0.500000  0.000000  0.500000  1
  Zn  Zn10  1  0.000000  0.000000  0.500000  1
  Zn  Zn11  1  0.500000  0.500000  0.000000  1
  Zn  Zn12  1  0.335994  0.335994  0.335994  1
  Zn  Zn13  1  0.664006  0.664006  0.664006  1
  Zn  Zn14  1  0.335994  0.335994  0.992020  1
  Zn  Zn15  1  0.335994  0.992020  0.335994  1
  Zn  Zn16  1  0.664006  0.664006  0.007980  1
  Zn  Zn17  1  0.664006  0.007980  0.664006  1
  Zn  Zn18  1  0.992020  0.335994  0.335994  1
  Zn  Zn19  1  0.007980  0.664006  0.664006  1
  Zn  Zn20  1  0.000000  0.000000  0.000000  1
  Si  Si21  1  0.500000  0.500000  0.500000  1
  Ag  Ag22  1  0.121355  0.121355  0.121355  1
  Ag  Ag23  1  0.878645  0.878645  0.878645  1
  Ag  Ag24  1  0.121355  0.121355  0.635937  1
  Ag  Ag25  1  0.121355  0.635937  0.121355  1
  Ag  Ag26  1  0.878645  0.878645  0.364063  1
  Ag  Ag27  1  0.878645  0.364063  0.878645  1
  Ag  Ag28  1  0.635937  0.121355  0.121355  1
  Ag  Ag29  1  0.364063  0.878645  0.878645  1
