# generated using pymatgen
data_La2Nd2P7Ir8
_symmetry_space_group_name_H-M   'P 1'
_cell_length_a   4.01184800
_cell_length_b   12.85852865
_cell_length_c   13.29698711
_cell_angle_alpha   81.12568589
_cell_angle_beta   90.00000000
_cell_angle_gamma   90.00000000
_symmetry_Int_Tables_number   1
_chemical_formula_structural   La2Nd2P7Ir8
_chemical_formula_sum   'La4 Nd4 P14 Ir16'
_cell_volume   677.73316908
_cell_formula_units_Z   2
loop_
 _symmetry_equiv_pos_site_id
 _symmetry_equiv_pos_as_xyz
  1  'x, y, z'
loop_
 _atom_site_type_symbol
 _atom_site_label
 _atom_site_symmetry_multiplicity
 _atom_site_fract_x
 _atom_site_fract_y
 _atom_site_fract_z
 _atom_site_occupancy
  La  La0  1  0.250000  0.104339  0.790618  1
  La  La1  1  0.750000  0.895661  0.209382  1
  La  La2  1  0.250000  0.281865  0.104408  1
  La  La3  1  0.750000  0.718135  0.895592  1
  Nd  Nd4  1  0.250000  0.518138  0.293387  1
  Nd  Nd5  1  0.750000  0.481862  0.706613  1
  Nd  Nd6  1  0.250000  0.209735  0.437901  1
  Nd  Nd7  1  0.750000  0.790265  0.562099  1
  P  P8  1  0.250000  0.053887  0.097715  1
  P  P9  1  0.750000  0.946113  0.902285  1
  P  P10  1  0.250000  0.314580  0.686187  1
  P  P11  1  0.750000  0.685420  0.313813  1
  P  P12  1  0.250000  0.607119  0.563469  1
  P  P13  1  0.750000  0.392881  0.436531  1
  P  P14  1  0.250000  0.846328  0.717624  1
  P  P15  1  0.750000  0.153672  0.282376  1
  P  P16  1  0.750000  0.258382  0.918048  1
  P  P17  1  0.250000  0.741618  0.081952  1
  P  P18  1  0.750000  0.092441  0.588363  1
  P  P19  1  0.250000  0.907559  0.411637  1
  P  P20  1  0.750000  0.473645  0.127658  1
  P  P21  1  0.250000  0.526355  0.872342  1
  Ir  Ir22  1  0.250000  0.989445  0.575940  1
  Ir  Ir23  1  0.750000  0.010555  0.424060  1
  Ir  Ir24  1  0.250000  0.664122  0.730859  1
  Ir  Ir25  1  0.750000  0.335878  0.269141  1
  Ir  Ir26  1  0.250000  0.553229  0.047025  1
  Ir  Ir27  1  0.750000  0.446771  0.952975  1
  Ir  Ir28  1  0.250000  0.059561  0.273074  1
  Ir  Ir29  1  0.750000  0.940439  0.726926  1
  Ir  Ir30  1  0.250000  0.423801  0.526101  1
  Ir  Ir31  1  0.750000  0.576199  0.473899  1
  Ir  Ir32  1  0.250000  0.915928  0.998231  1
  Ir  Ir33  1  0.750000  0.084072  0.001769  1
  Ir  Ir34  1  0.250000  0.727169  0.397437  1
  Ir  Ir35  1  0.750000  0.272831  0.602563  1
  Ir  Ir36  1  0.250000  0.342122  0.857379  1
  Ir  Ir37  1  0.750000  0.657878  0.142621  1
