# generated using pymatgen
data_BaEuH12Ir2Pb
_symmetry_space_group_name_H-M   'P 1'
_cell_length_a   5.26059200
_cell_length_b   5.26059123
_cell_length_c   8.68990400
_cell_angle_alpha   90.00000000
_cell_angle_beta   90.00000000
_cell_angle_gamma   119.99999226
_symmetry_Int_Tables_number   1
_chemical_formula_structural   BaEuH12Ir2Pb
_chemical_formula_sum   'Ba1 Eu1 H12 Ir2 Pb1'
_cell_volume   208.26429527
_cell_formula_units_Z   1
loop_
 _symmetry_equiv_pos_site_id
 _symmetry_equiv_pos_as_xyz
  1  'x, y, z'
loop_
 _atom_site_type_symbol
 _atom_site_label
 _atom_site_symmetry_multiplicity
 _atom_site_fract_x
 _atom_site_fract_y
 _atom_site_fract_z
 _atom_site_occupancy
  Ba  Ba0  1  0.000000  0.000000  0.002704  1
  Eu  Eu1  1  0.333333  0.666667  0.630927  1
  H  H2  1  0.180911  0.819089  0.368485  1
  H  H3  1  0.638179  0.819089  0.368485  1
  H  H4  1  0.180911  0.361821  0.368485  1
  H  H5  1  0.826388  0.173612  0.642719  1
  H  H6  1  0.347223  0.173612  0.642719  1
  H  H7  1  0.826388  0.652777  0.642719  1
  H  H8  1  0.516971  0.033942  0.855292  1
  H  H9  1  0.516971  0.483029  0.855292  1
  H  H10  1  0.966058  0.483029  0.855292  1
  H  H11  1  0.475993  0.951987  0.134578  1
  H  H12  1  0.475993  0.524007  0.134578  1
  H  H13  1  0.048013  0.524007  0.134578  1
  Ir  Ir14  1  0.666667  0.333333  0.741888  1
  Ir  Ir15  1  0.333333  0.666667  0.256772  1
  Pb  Pb16  1  0.666667  0.333333  0.364486  1
