# generated using pymatgen
data_Ta6Al3Cr(ReC)2
_symmetry_space_group_name_H-M   'P 1'
_cell_length_a   8.35318849
_cell_length_b   8.31137305
_cell_length_c   8.31137138
_cell_angle_alpha   59.91574105
_cell_angle_beta   59.83343018
_cell_angle_gamma   59.83342952
_symmetry_Int_Tables_number   1
_chemical_formula_structural   Ta6Al3Cr(ReC)2
_chemical_formula_sum   'Ta12 Al6 Cr2 Re4 C4'
_cell_volume   406.73243253
_cell_formula_units_Z   2
loop_
 _symmetry_equiv_pos_site_id
 _symmetry_equiv_pos_as_xyz
  1  'x, y, z'
loop_
 _atom_site_type_symbol
 _atom_site_label
 _atom_site_symmetry_multiplicity
 _atom_site_fract_x
 _atom_site_fract_y
 _atom_site_fract_z
 _atom_site_occupancy
  Ta  Ta0  1  0.558997  0.941653  0.555160  1
  Ta  Ta1  1  0.307780  0.691076  0.691076  1
  Ta  Ta2  1  0.694775  0.308064  0.308064  1
  Ta  Ta3  1  0.305810  0.694840  0.308347  1
  Ta  Ta4  1  0.691456  0.683317  0.312007  1
  Ta  Ta5  1  0.305810  0.308347  0.694840  1
  Ta  Ta6  1  0.558997  0.555160  0.941653  1
  Ta  Ta7  1  0.939932  0.558924  0.558924  1
  Ta  Ta8  1  0.560902  0.941936  0.941936  1
  Ta  Ta9  1  0.936779  0.937993  0.566683  1
  Ta  Ta10  1  0.691456  0.312007  0.683317  1
  Ta  Ta11  1  0.936779  0.566683  0.937993  1
  Al  Al12  1  0.337835  0.993497  0.334534  1
  Al  Al13  1  0.337835  0.334534  0.993497  1
  Al  Al14  1  0.915868  0.256503  0.915466  1
  Al  Al15  1  0.915868  0.915466  0.256503  1
  Al  Al16  1  0.254728  0.916070  0.916070  1
  Al  Al17  1  0.336867  0.333930  0.333930  1
  Cr  Cr18  1  0.921623  0.923935  0.923935  1
  Cr  Cr19  1  0.019492  0.326065  0.326065  1
  Re  Re20  1  0.115279  0.134431  0.134431  1
  Re  Re21  1  0.634141  0.115569  0.115569  1
  Re  Re22  1  0.113207  0.625000  0.125000  1
  Re  Re23  1  0.113207  0.125000  0.625000  1
  C  C24  1  0.624261  0.624969  0.624969  1
  C  C25  1  0.124199  0.625031  0.625031  1
  C  C26  1  0.623058  0.125000  0.625000  1
  C  C27  1  0.623058  0.625000  0.125000  1
