# generated using pymatgen
data_Nd3Dy2Bi3O14
_symmetry_space_group_name_H-M   'P 1'
_cell_length_a   6.68380065
_cell_length_b   6.74323881
_cell_length_c   7.85549502
_cell_angle_alpha   106.68218706
_cell_angle_beta   89.69727615
_cell_angle_gamma   98.58592443
_symmetry_Int_Tables_number   1
_chemical_formula_structural   Nd3Dy2Bi3O14
_chemical_formula_sum   'Nd3 Dy2 Bi3 O14'
_cell_volume   335.08467052
_cell_formula_units_Z   1
loop_
 _symmetry_equiv_pos_site_id
 _symmetry_equiv_pos_as_xyz
  1  'x, y, z'
loop_
 _atom_site_type_symbol
 _atom_site_label
 _atom_site_symmetry_multiplicity
 _atom_site_fract_x
 _atom_site_fract_y
 _atom_site_fract_z
 _atom_site_occupancy
  Nd  Nd0  1  0.270390  0.536786  0.883058  1
  Nd  Nd1  1  0.740697  0.457261  0.114224  1
  Nd  Nd2  1  0.749845  0.481650  0.618297  1
  Dy  Dy3  1  0.458660  0.009495  0.255912  1
  Dy  Dy4  1  0.537274  0.999670  0.748661  1
  Bi  Bi5  1  0.994130  0.998766  0.499901  1
  Bi  Bi6  1  0.998731  0.995601  0.997471  1
  Bi  Bi7  1  0.286372  0.539866  0.389819  1
  O  O8  1  0.448845  0.659680  0.175224  1
  O  O9  1  0.556438  0.347764  0.833071  1
  O  O10  1  0.302515  0.930478  0.952480  1
  O  O11  1  0.696949  0.065371  0.049793  1
  O  O12  1  0.297018  0.934749  0.517143  1
  O  O13  1  0.697704  0.077144  0.488653  1
  O  O14  1  0.541313  0.357258  0.343195  1
  O  O15  1  0.460122  0.648536  0.653963  1
  O  O16  1  0.927257  0.664432  0.944555  1
  O  O17  1  0.068137  0.319840  0.030666  1
  O  O18  1  0.069388  0.331406  0.623788  1
  O  O19  1  0.909966  0.667972  0.385972  1
  O  O20  1  0.871685  0.910817  0.728066  1
  O  O21  1  0.116559  0.065461  0.266085  1
