# generated using pymatgen
data_Ba4Re(TcSe2)11
_symmetry_space_group_name_H-M   'P 1'
_cell_length_a   12.57280005
_cell_length_b   12.56164383
_cell_length_c   12.57251851
_cell_angle_alpha   45.15819967
_cell_angle_beta   45.14253541
_cell_angle_gamma   45.13471519
_symmetry_Int_Tables_number   1
_chemical_formula_structural   Ba4Re(TcSe2)11
_chemical_formula_sum   'Ba4 Re1 Tc11 Se22'
_cell_volume   908.50303624
_cell_formula_units_Z   1
loop_
 _symmetry_equiv_pos_site_id
 _symmetry_equiv_pos_as_xyz
  1  'x, y, z'
loop_
 _atom_site_type_symbol
 _atom_site_label
 _atom_site_symmetry_multiplicity
 _atom_site_fract_x
 _atom_site_fract_y
 _atom_site_fract_z
 _atom_site_occupancy
  Ba  Ba0  1  0.310398  0.310418  0.310323  1
  Ba  Ba1  1  0.189776  0.189444  0.189584  1
  Ba  Ba2  1  0.689520  0.689388  0.689713  1
  Ba  Ba3  1  0.810561  0.810186  0.810685  1
  Re  Re4  1  0.613320  0.299576  0.489872  1
  Tc  Tc5  1  0.489700  0.614044  0.298800  1
  Tc  Tc6  1  0.799017  0.113619  0.989930  1
  Tc  Tc7  1  0.989974  0.798963  0.113542  1
  Tc  Tc8  1  0.113622  0.989773  0.799133  1
  Tc  Tc9  1  0.701079  0.510497  0.386110  1
  Tc  Tc10  1  0.386257  0.701219  0.510138  1
  Tc  Tc11  1  0.509920  0.386486  0.701090  1
  Tc  Tc12  1  0.298613  0.490068  0.613808  1
  Tc  Tc13  1  0.886396  0.010299  0.200710  1
  Tc  Tc14  1  0.010013  0.201086  0.886383  1
  Tc  Tc15  1  0.200955  0.886372  0.010047  1
  Se  Se16  1  0.090547  0.090705  0.090650  1
  Se  Se17  1  0.408988  0.409290  0.409010  1
  Se  Se18  1  0.909440  0.909144  0.909465  1
  Se  Se19  1  0.590701  0.590517  0.590706  1
  Se  Se20  1  0.249941  0.983936  0.516205  1
  Se  Se21  1  0.516216  0.249918  0.984005  1
  Se  Se22  1  0.983991  0.516038  0.250005  1
  Se  Se23  1  0.749582  0.017556  0.483860  1
  Se  Se24  1  0.483985  0.749966  0.015970  1
  Se  Se25  1  0.016037  0.483909  0.749958  1
  Se  Se26  1  0.073649  0.707724  0.309825  1
  Se  Se27  1  0.309819  0.073724  0.707673  1
  Se  Se28  1  0.707499  0.310109  0.073703  1
  Se  Se29  1  0.426322  0.189023  0.793040  1
  Se  Se30  1  0.793146  0.425612  0.189566  1
  Se  Se31  1  0.190090  0.792363  0.426264  1
  Se  Se32  1  0.810675  0.206760  0.573912  1
  Se  Se33  1  0.207618  0.573693  0.809964  1
  Se  Se34  1  0.573807  0.809919  0.207551  1
  Se  Se35  1  0.292488  0.689932  0.926229  1
  Se  Se36  1  0.690173  0.926235  0.292390  1
  Se  Se37  1  0.926166  0.292490  0.690180  1
