# generated using pymatgen
data_Ba6Ni2IrO12
_symmetry_space_group_name_H-M   'P 1'
_cell_length_a   9.14942125
_cell_length_b   9.14942014
_cell_length_c   7.30984300
_cell_angle_alpha   68.12622484
_cell_angle_beta   68.12622761
_cell_angle_gamma   36.76048153
_symmetry_Int_Tables_number   1
_chemical_formula_structural   Ba6Ni2IrO12
_chemical_formula_sum   'Ba6 Ni2 Ir1 O12'
_cell_volume   336.81455430
_cell_formula_units_Z   1
loop_
 _symmetry_equiv_pos_site_id
 _symmetry_equiv_pos_as_xyz
  1  'x, y, z'
loop_
 _atom_site_type_symbol
 _atom_site_label
 _atom_site_symmetry_multiplicity
 _atom_site_fract_x
 _atom_site_fract_y
 _atom_site_fract_z
 _atom_site_occupancy
  Ba  Ba0  1  0.875069  0.875069  0.719364  1
  Ba  Ba1  1  0.218622  0.218622  0.716132  1
  Ba  Ba2  1  0.547663  0.547663  0.710809  1
  Ba  Ba3  1  0.452337  0.452337  0.289191  1
  Ba  Ba4  1  0.781378  0.781378  0.283868  1
  Ba  Ba5  1  0.124931  0.124931  0.280636  1
  Ni  Ni6  1  0.668562  0.668562  0.000063  1
  Ni  Ni7  1  0.331438  0.331438  0.999937  1
  Ir  Ir8  1  0.000000  0.000000  0.000000  1
  O  O9  1  0.950437  0.950437  0.298388  1
  O  O10  1  0.283938  0.283938  0.303206  1
  O  O11  1  0.614791  0.614791  0.305419  1
  O  O12  1  0.385209  0.385209  0.694581  1
  O  O13  1  0.716062  0.716062  0.696794  1
  O  O14  1  0.049563  0.049563  0.701612  1
  O  O15  1  0.500000  0.000000  0.000000  1
  O  O16  1  0.839380  0.319241  0.000069  1
  O  O17  1  0.160620  0.680759  0.999931  1
  O  O18  1  0.000000  0.500000  0.000000  1
  O  O19  1  0.319241  0.839380  0.000069  1
  O  O20  1  0.680759  0.160620  0.999931  1
