# generated using pymatgen
data_Ba12SiSn11Au12
_symmetry_space_group_name_H-M   'P 1'
_cell_length_a   5.05895000
_cell_length_b   8.55093858
_cell_length_c   25.31135500
_cell_angle_alpha   90.14014162
_cell_angle_beta   90.00000000
_cell_angle_gamma   90.00000000
_symmetry_Int_Tables_number   1
_chemical_formula_structural   Ba12SiSn11Au12
_chemical_formula_sum   'Ba12 Si1 Sn11 Au12'
_cell_volume   1094.93482730
_cell_formula_units_Z   1
loop_
 _symmetry_equiv_pos_site_id
 _symmetry_equiv_pos_as_xyz
  1  'x, y, z'
loop_
 _atom_site_type_symbol
 _atom_site_label
 _atom_site_symmetry_multiplicity
 _atom_site_fract_x
 _atom_site_fract_y
 _atom_site_fract_z
 _atom_site_occupancy
  Ba  Ba0  1  0.750000  0.225381  0.499315  1
  Ba  Ba1  1  0.250000  0.795412  0.165672  1
  Ba  Ba2  1  0.250000  0.772640  0.505997  1
  Ba  Ba3  1  0.250000  0.793306  0.833131  1
  Ba  Ba4  1  0.250000  0.709753  0.332750  1
  Ba  Ba5  1  0.750000  0.202967  0.833963  1
  Ba  Ba6  1  0.750000  0.292958  0.997281  1
  Ba  Ba7  1  0.750000  0.295538  0.666722  1
  Ba  Ba8  1  0.750000  0.294881  0.333176  1
  Ba  Ba9  1  0.250000  0.697561  0.664225  1
  Ba  Ba10  1  0.250000  0.707297  0.002859  1
  Ba  Ba11  1  0.750000  0.207297  0.166249  1
  Si  Si12  1  0.250000  0.406145  0.573436  1
  Sn  Sn13  1  0.250000  0.081270  0.395518  1
  Sn  Sn14  1  0.250000  0.086357  0.062025  1
  Sn  Sn15  1  0.250000  0.418251  0.895727  1
  Sn  Sn16  1  0.750000  0.581892  0.104443  1
  Sn  Sn17  1  0.250000  0.418291  0.772799  1
  Sn  Sn18  1  0.750000  0.581494  0.227601  1
  Sn  Sn19  1  0.750000  0.589352  0.433868  1
  Sn  Sn20  1  0.750000  0.913985  0.938270  1
  Sn  Sn21  1  0.250000  0.081890  0.271550  1
  Sn  Sn22  1  0.750000  0.922063  0.604861  1
  Sn  Sn23  1  0.750000  0.916645  0.727602  1
  Au  Au24  1  0.250000  0.112643  0.591100  1
  Au  Au25  1  0.250000  0.082654  0.740529  1
  Au  Au26  1  0.750000  0.587430  0.906839  1
  Au  Au27  1  0.750000  0.915154  0.407257  1
  Au  Au28  1  0.750000  0.562083  0.568325  1
  Au  Au29  1  0.750000  0.585216  0.759981  1
  Au  Au30  1  0.250000  0.420030  0.425417  1
  Au  Au31  1  0.250000  0.415869  0.239154  1
  Au  Au32  1  0.750000  0.919459  0.065711  1
  Au  Au33  1  0.250000  0.412189  0.093264  1
  Au  Au34  1  0.250000  0.079609  0.934807  1
  Au  Au35  1  0.750000  0.915043  0.258577  1
