# generated using pymatgen
data_DyLu(Ni2B)12
_symmetry_space_group_name_H-M   'P 1'
_cell_length_a   6.01532026
_cell_length_b   6.01532048
_cell_length_c   10.94406240
_cell_angle_alpha   89.90640946
_cell_angle_beta   89.90640946
_cell_angle_gamma   104.69710932
_symmetry_Int_Tables_number   1
_chemical_formula_structural   DyLu(Ni2B)12
_chemical_formula_sum   'Dy1 Lu1 Ni24 B12'
_cell_volume   383.04252354
_cell_formula_units_Z   1
loop_
 _symmetry_equiv_pos_site_id
 _symmetry_equiv_pos_as_xyz
  1  'x, y, z'
loop_
 _atom_site_type_symbol
 _atom_site_label
 _atom_site_symmetry_multiplicity
 _atom_site_fract_x
 _atom_site_fract_y
 _atom_site_fract_z
 _atom_site_occupancy
  Dy  Dy0  1  0.166148  0.166148  0.995895  1
  Lu  Lu1  1  0.833732  0.833732  0.493795  1
  Ni  Ni2  1  0.564615  0.564615  0.919575  1
  Ni  Ni3  1  0.436137  0.436137  0.419747  1
  Ni  Ni4  1  0.782574  0.782574  0.098481  1
  Ni  Ni5  1  0.215891  0.215891  0.598505  1
  Ni  Ni6  1  0.545517  0.805285  0.732489  1
  Ni  Ni7  1  0.805285  0.545517  0.732489  1
  Ni  Ni8  1  0.455813  0.195334  0.233322  1
  Ni  Ni9  1  0.195334  0.455813  0.233322  1
  Ni  Ni10  1  0.144722  0.881637  0.755348  1
  Ni  Ni11  1  0.881637  0.144722  0.755348  1
  Ni  Ni12  1  0.854809  0.117842  0.256076  1
  Ni  Ni13  1  0.117842  0.854809  0.256076  1
  Ni  Ni14  1  0.659284  0.268324  0.567815  1
  Ni  Ni15  1  0.268324  0.659284  0.567815  1
  Ni  Ni16  1  0.341143  0.731663  0.068026  1
  Ni  Ni17  1  0.731663  0.341143  0.068026  1
  Ni  Ni18  1  0.630163  0.996987  0.937393  1
  Ni  Ni19  1  0.996987  0.630163  0.937393  1
  Ni  Ni20  1  0.369089  0.002937  0.437487  1
  Ni  Ni21  1  0.002937  0.369089  0.437487  1
  Ni  Ni22  1  0.473057  0.212079  0.776657  1
  Ni  Ni23  1  0.212079  0.473057  0.776657  1
  Ni  Ni24  1  0.528099  0.788048  0.277367  1
  Ni  Ni25  1  0.788048  0.528099  0.277367  1
  B  B26  1  0.835689  0.835689  0.839653  1
  B  B27  1  0.163764  0.163764  0.339629  1
  B  B28  1  0.487669  0.487669  0.653824  1
  B  B29  1  0.511500  0.511500  0.153510  1
  B  B30  1  0.327307  0.759133  0.884039  1
  B  B31  1  0.759133  0.327307  0.884039  1
  B  B32  1  0.672357  0.240599  0.384559  1
  B  B33  1  0.240599  0.672357  0.384559  1
  B  B34  1  0.402187  0.989189  0.623145  1
  B  B35  1  0.989189  0.402187  0.623145  1
  B  B36  1  0.598175  0.011503  0.122969  1
  B  B37  1  0.011503  0.598175  0.122969  1
