# generated using pymatgen
data_ErTm3(ScGa5)2
_symmetry_space_group_name_H-M   'P 1'
_cell_length_a   5.95388600
_cell_length_b   9.44295731
_cell_length_c   11.24483000
_cell_angle_alpha   90.00000000
_cell_angle_beta   90.00000000
_cell_angle_gamma   90.01462284
_symmetry_Int_Tables_number   1
_chemical_formula_structural   ErTm3(ScGa5)2
_chemical_formula_sum   'Er2 Tm6 Sc4 Ga20'
_cell_volume   632.21008742
_cell_formula_units_Z   2
loop_
 _symmetry_equiv_pos_site_id
 _symmetry_equiv_pos_as_xyz
  1  'x, y, z'
loop_
 _atom_site_type_symbol
 _atom_site_label
 _atom_site_symmetry_multiplicity
 _atom_site_fract_x
 _atom_site_fract_y
 _atom_site_fract_z
 _atom_site_occupancy
  Er  Er0  1  0.891262  0.509591  0.352518  1
  Er  Er1  1  0.608738  0.990409  0.852518  1
  Tm  Tm2  1  0.108787  0.009504  0.647463  1
  Tm  Tm3  1  0.391213  0.490496  0.147463  1
  Tm  Tm4  1  0.108889  0.490482  0.647589  1
  Tm  Tm5  1  0.391111  0.009518  0.147589  1
  Tm  Tm6  1  0.891166  0.990505  0.352473  1
  Tm  Tm7  1  0.608834  0.509495  0.852473  1
  Sc  Sc8  1  0.849107  0.749997  0.073171  1
  Sc  Sc9  1  0.650893  0.750003  0.573171  1
  Sc  Sc10  1  0.150826  0.250018  0.926810  1
  Sc  Sc11  1  0.349174  0.249982  0.426810  1
  Ga  Ga12  1  0.877030  0.050295  0.090072  1
  Ga  Ga13  1  0.622970  0.449705  0.590072  1
  Ga  Ga14  1  0.122999  0.550242  0.909952  1
  Ga  Ga15  1  0.377001  0.949758  0.409952  1
  Ga  Ga16  1  0.122928  0.949788  0.909971  1
  Ga  Ga17  1  0.377072  0.550212  0.409971  1
  Ga  Ga18  1  0.877024  0.449703  0.089947  1
  Ga  Ga19  1  0.622976  0.050297  0.589947  1
  Ga  Ga20  1  0.164067  0.750054  0.248149  1
  Ga  Ga21  1  0.335933  0.749946  0.748149  1
  Ga  Ga22  1  0.835994  0.250073  0.751840  1
  Ga  Ga23  1  0.664006  0.249927  0.251840  1
  Ga  Ga24  1  0.381876  0.749946  0.004098  1
  Ga  Ga25  1  0.118124  0.750054  0.504098  1
  Ga  Ga26  1  0.618101  0.250126  0.995971  1
  Ga  Ga27  1  0.881899  0.249874  0.495971  1
  Ga  Ga28  1  0.607201  0.750100  0.295036  1
  Ga  Ga29  1  0.892799  0.749900  0.795036  1
  Ga  Ga30  1  0.392580  0.250033  0.704940  1
  Ga  Ga31  1  0.107420  0.249967  0.204940  1
