# generated using pymatgen
data_Zr3(Al3Fe)4
_symmetry_space_group_name_H-M   'P 1'
_cell_length_a   8.50418000
_cell_length_b   8.50417920
_cell_length_c   9.07867100
_cell_angle_alpha   90.00000000
_cell_angle_beta   90.00000000
_cell_angle_gamma   120.00000309
_symmetry_Int_Tables_number   1
_chemical_formula_structural   Zr3(Al3Fe)4
_chemical_formula_sum   'Zr6 Al24 Fe8'
_cell_volume   568.61425542
_cell_formula_units_Z   2
loop_
 _symmetry_equiv_pos_site_id
 _symmetry_equiv_pos_as_xyz
  1  'x, y, z'
loop_
 _atom_site_type_symbol
 _atom_site_label
 _atom_site_symmetry_multiplicity
 _atom_site_fract_x
 _atom_site_fract_y
 _atom_site_fract_z
 _atom_site_occupancy
  Zr  Zr0  1  0.804839  0.195161  0.750000  1
  Zr  Zr1  1  0.195161  0.804839  0.250000  1
  Zr  Zr2  1  0.390321  0.195161  0.750000  1
  Zr  Zr3  1  0.609679  0.804839  0.250000  1
  Zr  Zr4  1  0.804839  0.609679  0.750000  1
  Zr  Zr5  1  0.195161  0.390321  0.250000  1
  Al  Al6  1  0.666667  0.333333  0.975144  1
  Al  Al7  1  0.333333  0.666667  0.024856  1
  Al  Al8  1  0.333333  0.666667  0.475144  1
  Al  Al9  1  0.666667  0.333333  0.524856  1
  Al  Al10  1  0.838382  0.161618  0.425974  1
  Al  Al11  1  0.161618  0.838382  0.574026  1
  Al  Al12  1  0.323236  0.161618  0.425974  1
  Al  Al13  1  0.161618  0.838382  0.925974  1
  Al  Al14  1  0.676764  0.838382  0.574026  1
  Al  Al15  1  0.838382  0.161618  0.074026  1
  Al  Al16  1  0.838382  0.676764  0.425974  1
  Al  Al17  1  0.676764  0.838382  0.925974  1
  Al  Al18  1  0.161618  0.323236  0.574026  1
  Al  Al19  1  0.323236  0.161618  0.074026  1
  Al  Al20  1  0.161618  0.323236  0.925974  1
  Al  Al21  1  0.838382  0.676764  0.074026  1
  Al  Al22  1  0.444370  0.555630  0.750000  1
  Al  Al23  1  0.555630  0.444370  0.250000  1
  Al  Al24  1  0.111260  0.555630  0.750000  1
  Al  Al25  1  0.888740  0.444370  0.250000  1
  Al  Al26  1  0.444370  0.888740  0.750000  1
  Al  Al27  1  0.555630  0.111260  0.250000  1
  Al  Al28  1  0.000000  0.000000  0.750000  1
  Al  Al29  1  0.000000  0.000000  0.250000  1
  Fe  Fe30  1  0.500000  0.500000  0.000000  1
  Fe  Fe31  1  0.000000  0.500000  0.000000  1
  Fe  Fe32  1  0.500000  0.500000  0.500000  1
  Fe  Fe33  1  0.500000  0.000000  0.000000  1
  Fe  Fe34  1  0.000000  0.500000  0.500000  1
  Fe  Fe35  1  0.500000  0.000000  0.500000  1
  Fe  Fe36  1  0.000000  0.000000  0.000000  1
  Fe  Fe37  1  0.000000  0.000000  0.500000  1
