# generated using pymatgen
data_Ho6Er10Cd4TcPt3
_symmetry_space_group_name_H-M   'P 1'
_cell_length_a   9.65049170
_cell_length_b   9.65049274
_cell_length_c   9.65049173
_cell_angle_alpha   59.37266008
_cell_angle_beta   59.37265924
_cell_angle_gamma   59.37265114
_symmetry_Int_Tables_number   1
_chemical_formula_structural   Ho6Er10Cd4TcPt3
_chemical_formula_sum   'Ho6 Er10 Cd4 Tc1 Pt3'
_cell_volume   626.45175544
_cell_formula_units_Z   1
loop_
 _symmetry_equiv_pos_site_id
 _symmetry_equiv_pos_as_xyz
  1  'x, y, z'
loop_
 _atom_site_type_symbol
 _atom_site_label
 _atom_site_symmetry_multiplicity
 _atom_site_fract_x
 _atom_site_fract_y
 _atom_site_fract_z
 _atom_site_occupancy
  Ho  Ho0  1  0.185821  0.815007  0.815007  1
  Ho  Ho1  1  0.806331  0.188172  0.188172  1
  Ho  Ho2  1  0.815007  0.185821  0.815007  1
  Ho  Ho3  1  0.188172  0.806331  0.188172  1
  Ho  Ho4  1  0.815007  0.815007  0.185821  1
  Ho  Ho5  1  0.188172  0.188172  0.806331  1
  Er  Er6  1  0.601515  0.601515  0.601515  1
  Er  Er7  1  0.601288  0.601288  0.197018  1
  Er  Er8  1  0.601288  0.197018  0.601288  1
  Er  Er9  1  0.197018  0.601288  0.601288  1
  Er  Er10  1  0.065159  0.437896  0.437896  1
  Er  Er11  1  0.438949  0.060087  0.060087  1
  Er  Er12  1  0.437896  0.065159  0.437896  1
  Er  Er13  1  0.060087  0.438949  0.060087  1
  Er  Er14  1  0.437896  0.437896  0.065159  1
  Er  Er15  1  0.060087  0.060087  0.438949  1
  Cd  Cd16  1  0.829860  0.829860  0.829860  1
  Cd  Cd17  1  0.830763  0.830763  0.504228  1
  Cd  Cd18  1  0.830763  0.504228  0.830763  1
  Cd  Cd19  1  0.504228  0.830763  0.830763  1
  Tc  Tc20  1  0.394256  0.394256  0.394256  1
  Pt  Pt21  1  0.393882  0.393882  0.822668  1
  Pt  Pt22  1  0.393882  0.822668  0.393882  1
  Pt  Pt23  1  0.822668  0.393882  0.393882  1
