# generated using pymatgen
data_TbScTcB6
_symmetry_space_group_name_H-M   'P 1'
_cell_length_a   3.59367200
_cell_length_b   9.01874600
_cell_length_c   11.41079900
_cell_angle_alpha   90.00000000
_cell_angle_beta   90.00000000
_cell_angle_gamma   90.00000000
_symmetry_Int_Tables_number   1
_chemical_formula_structural   TbScTcB6
_chemical_formula_sum   'Tb4 Sc4 Tc4 B24'
_cell_volume   369.82873079
_cell_formula_units_Z   4
loop_
 _symmetry_equiv_pos_site_id
 _symmetry_equiv_pos_as_xyz
  1  'x, y, z'
loop_
 _atom_site_type_symbol
 _atom_site_label
 _atom_site_symmetry_multiplicity
 _atom_site_fract_x
 _atom_site_fract_y
 _atom_site_fract_z
 _atom_site_occupancy
  Tb  Tb0  1  0.000000  0.322105  0.414402  1
  Tb  Tb1  1  0.000000  0.677895  0.585598  1
  Tb  Tb2  1  0.000000  0.822105  0.085598  1
  Tb  Tb3  1  0.000000  0.177895  0.914402  1
  Sc  Sc4  1  0.000000  0.944194  0.370518  1
  Sc  Sc5  1  0.000000  0.055806  0.629482  1
  Sc  Sc6  1  0.000000  0.444194  0.129482  1
  Sc  Sc7  1  0.000000  0.555806  0.870518  1
  Tc  Tc8  1  0.000000  0.641241  0.317910  1
  Tc  Tc9  1  0.000000  0.358759  0.682090  1
  Tc  Tc10  1  0.000000  0.141241  0.182090  1
  Tc  Tc11  1  0.000000  0.858759  0.817910  1
  B  B12  1  0.500000  0.554651  0.432049  1
  B  B13  1  0.500000  0.445349  0.567951  1
  B  B14  1  0.500000  0.054651  0.067951  1
  B  B15  1  0.500000  0.945349  0.932049  1
  B  B16  1  0.500000  0.753944  0.417779  1
  B  B17  1  0.500000  0.246056  0.582221  1
  B  B18  1  0.500000  0.253944  0.082221  1
  B  B19  1  0.500000  0.746056  0.917779  1
  B  B20  1  0.500000  0.795085  0.265238  1
  B  B21  1  0.500000  0.204915  0.734762  1
  B  B22  1  0.500000  0.295085  0.234762  1
  B  B23  1  0.500000  0.704915  0.765238  1
  B  B24  1  0.500000  0.628975  0.183207  1
  B  B25  1  0.500000  0.371025  0.816793  1
  B  B26  1  0.500000  0.128975  0.316793  1
  B  B27  1  0.500000  0.871025  0.683207  1
  B  B28  1  0.500000  0.981486  0.213908  1
  B  B29  1  0.500000  0.018514  0.786092  1
  B  B30  1  0.500000  0.481486  0.286092  1
  B  B31  1  0.500000  0.518514  0.713908  1
  B  B32  1  0.500000  0.595642  0.026070  1
  B  B33  1  0.500000  0.404358  0.973930  1
  B  B34  1  0.500000  0.095642  0.473930  1
  B  B35  1  0.500000  0.904358  0.526070  1
