# generated using pymatgen
data_Tm2IrRu3
_symmetry_space_group_name_H-M   'P 1'
_cell_length_a   5.22962100
_cell_length_b   5.22962156
_cell_length_c   8.93063500
_cell_angle_alpha   90.00000000
_cell_angle_beta   90.00000000
_cell_angle_gamma   120.00000276
_symmetry_Int_Tables_number   1
_chemical_formula_structural   Tm2IrRu3
_chemical_formula_sum   'Tm4 Ir2 Ru6'
_cell_volume   211.52097422
_cell_formula_units_Z   2
loop_
 _symmetry_equiv_pos_site_id
 _symmetry_equiv_pos_as_xyz
  1  'x, y, z'
loop_
 _atom_site_type_symbol
 _atom_site_label
 _atom_site_symmetry_multiplicity
 _atom_site_fract_x
 _atom_site_fract_y
 _atom_site_fract_z
 _atom_site_occupancy
  Tm  Tm0  1  0.666668  0.333334  0.068980  1
  Tm  Tm1  1  0.666668  0.333334  0.431020  1
  Tm  Tm2  1  0.333333  0.666666  0.568981  1
  Tm  Tm3  1  0.333333  0.666666  0.931019  1
  Ir  Ir4  1  0.000000  0.000000  0.000000  1
  Ir  Ir5  1  0.000000  0.000000  0.500000  1
  Ru  Ru6  1  0.171555  0.343109  0.250000  1
  Ru  Ru7  1  0.171554  0.828445  0.250000  1
  Ru  Ru8  1  0.656890  0.828445  0.250000  1
  Ru  Ru9  1  0.343109  0.171554  0.749999  1
  Ru  Ru10  1  0.828445  0.171554  0.749999  1
  Ru  Ru11  1  0.828446  0.656891  0.749999  1
