# generated using pymatgen
data_DyY9(Bi2Ir)2
_symmetry_space_group_name_H-M   'P 1'
_cell_length_a   8.03843205
_cell_length_b   9.03517517
_cell_length_c   12.51317035
_cell_angle_alpha   89.98422531
_cell_angle_beta   90.00239838
_cell_angle_gamma   89.98684357
_symmetry_Int_Tables_number   1
_chemical_formula_structural   DyY9(Bi2Ir)2
_chemical_formula_sum   'Dy2 Y18 Bi8 Ir4'
_cell_volume   908.81450540
_cell_formula_units_Z   2
loop_
 _symmetry_equiv_pos_site_id
 _symmetry_equiv_pos_as_xyz
  1  'x, y, z'
loop_
 _atom_site_type_symbol
 _atom_site_label
 _atom_site_symmetry_multiplicity
 _atom_site_fract_x
 _atom_site_fract_y
 _atom_site_fract_z
 _atom_site_occupancy
  Dy  Dy0  1  0.824682  0.458970  0.065685  1
  Dy  Dy1  1  0.175318  0.541030  0.934315  1
  Y  Y2  1  0.840151  0.749686  0.793115  1
  Y  Y3  1  0.159849  0.250314  0.206885  1
  Y  Y4  1  0.340110  0.250035  0.706786  1
  Y  Y5  1  0.659890  0.749965  0.293214  1
  Y  Y6  1  0.375330  0.749923  0.693792  1
  Y  Y7  1  0.624670  0.250077  0.306208  1
  Y  Y8  1  0.875078  0.250107  0.806009  1
  Y  Y9  1  0.124922  0.749893  0.193991  1
  Y  Y10  1  0.947379  0.750035  0.501438  1
  Y  Y11  1  0.052621  0.249965  0.498562  1
  Y  Y12  1  0.447555  0.251183  0.998548  1
  Y  Y13  1  0.552445  0.748817  0.001452  1
  Y  Y14  1  0.676006  0.041176  0.566394  1
  Y  Y15  1  0.323994  0.958824  0.433606  1
  Y  Y16  1  0.176098  0.958753  0.933987  1
  Y  Y17  1  0.323928  0.541221  0.433812  1
  Y  Y18  1  0.823902  0.041247  0.066013  1
  Y  Y19  1  0.676072  0.458779  0.566188  1
  Bi  Bi20  1  0.568412  0.491267  0.827041  1
  Bi  Bi21  1  0.431588  0.508733  0.172959  1
  Bi  Bi22  1  0.068591  0.508697  0.672510  1
  Bi  Bi23  1  0.431686  0.991414  0.172096  1
  Bi  Bi24  1  0.931409  0.491303  0.327490  1
  Bi  Bi25  1  0.568314  0.008586  0.827904  1
  Bi  Bi26  1  0.931690  0.008771  0.327322  1
  Bi  Bi27  1  0.068310  0.991229  0.672678  1
  Ir  Ir28  1  0.570330  0.750057  0.509453  1
  Ir  Ir29  1  0.429670  0.249943  0.490547  1
  Ir  Ir30  1  0.069619  0.251360  0.990613  1
  Ir  Ir31  1  0.930381  0.748640  0.009387  1
