# generated using pymatgen
data_Ho6V2Co16Si5P7
_symmetry_space_group_name_H-M   'P 1'
_cell_length_a   3.71809800
_cell_length_b   10.61286981
_cell_length_c   12.30718992
_cell_angle_alpha   90.17824297
_cell_angle_beta   90.00000000
_cell_angle_gamma   90.00000000
_symmetry_Int_Tables_number   1
_chemical_formula_structural   Ho6V2Co16Si5P7
_chemical_formula_sum   'Ho6 V2 Co16 Si5 P7'
_cell_volume   485.63554930
_cell_formula_units_Z   1
loop_
 _symmetry_equiv_pos_site_id
 _symmetry_equiv_pos_as_xyz
  1  'x, y, z'
loop_
 _atom_site_type_symbol
 _atom_site_label
 _atom_site_symmetry_multiplicity
 _atom_site_fract_x
 _atom_site_fract_y
 _atom_site_fract_z
 _atom_site_occupancy
  Ho  Ho0  1  0.000000  0.502634  0.525317  1
  Ho  Ho1  1  0.500000  0.000387  0.474830  1
  Ho  Ho2  1  0.500000  0.818091  0.206244  1
  Ho  Ho3  1  0.500000  0.182665  0.205272  1
  Ho  Ho4  1  0.000000  0.682195  0.794284  1
  Ho  Ho5  1  0.000000  0.317355  0.795655  1
  V  V6  1  0.500000  0.500565  0.146573  1
  V  V7  1  0.000000  0.998945  0.853859  1
  Co  Co8  1  0.000000  0.500112  0.990874  1
  Co  Co9  1  0.500000  0.999717  0.010121  1
  Co  Co10  1  0.500000  0.294693  0.427959  1
  Co  Co11  1  0.500000  0.706747  0.432105  1
  Co  Co12  1  0.000000  0.199275  0.564858  1
  Co  Co13  1  0.000000  0.794540  0.567374  1
  Co  Co14  1  0.500000  0.876382  0.708775  1
  Co  Co15  1  0.500000  0.118682  0.710319  1
  Co  Co16  1  0.000000  0.623270  0.291484  1
  Co  Co17  1  0.000000  0.378939  0.290839  1
  Co  Co18  1  0.500000  0.330322  0.995964  1
  Co  Co19  1  0.500000  0.669861  0.996199  1
  Co  Co20  1  0.000000  0.169319  0.004843  1
  Co  Co21  1  0.000000  0.829983  0.005045  1
  Co  Co22  1  0.500000  0.503938  0.697473  1
  Co  Co23  1  0.000000  0.000340  0.303784  1
  Si  Si24  1  0.500000  0.306507  0.614754  1
  Si  Si25  1  0.500000  0.499884  0.883211  1
  Si  Si26  1  0.000000  0.000002  0.117555  1
  Si  Si27  1  0.500000  0.500388  0.345526  1
  Si  Si28  1  0.000000  0.999764  0.654903  1
  P  P29  1  0.500000  0.693062  0.615605  1
  P  P30  1  0.000000  0.193246  0.383280  1
  P  P31  1  0.000000  0.808703  0.384003  1
  P  P32  1  0.500000  0.844011  0.893004  1
  P  P33  1  0.500000  0.154621  0.892842  1
  P  P34  1  0.000000  0.655669  0.107780  1
  P  P35  1  0.000000  0.345186  0.107486  1
