# generated using pymatgen
data_Tm3HgIrRu
_symmetry_space_group_name_H-M   'P 1'
_cell_length_a   3.39283700
_cell_length_b   3.39283700
_cell_length_c   11.02147500
_cell_angle_alpha   90.00000000
_cell_angle_beta   90.00000000
_cell_angle_gamma   90.00000000
_symmetry_Int_Tables_number   1
_chemical_formula_structural   Tm3HgIrRu
_chemical_formula_sum   'Tm3 Hg1 Ir1 Ru1'
_cell_volume   126.87197808
_cell_formula_units_Z   1
loop_
 _symmetry_equiv_pos_site_id
 _symmetry_equiv_pos_as_xyz
  1  'x, y, z'
loop_
 _atom_site_type_symbol
 _atom_site_label
 _atom_site_symmetry_multiplicity
 _atom_site_fract_x
 _atom_site_fract_y
 _atom_site_fract_z
 _atom_site_occupancy
  Tm  Tm0  1  0.000000  0.000000  0.995860  1
  Tm  Tm1  1  0.000000  0.000000  0.302597  1
  Tm  Tm2  1  0.000000  0.000000  0.699248  1
  Hg  Hg3  1  0.500001  0.500001  0.501022  1
  Ir  Ir4  1  0.500001  0.500001  0.158510  1
  Ru  Ru5  1  0.500001  0.500001  0.842763  1
