# generated using pymatgen
data_La5Er(OsI3)2
_symmetry_space_group_name_H-M   'P 1'
_cell_length_a   4.41376100
_cell_length_b   9.48863040
_cell_length_c   12.41485524
_cell_angle_alpha   86.29981526
_cell_angle_beta   90.00000000
_cell_angle_gamma   90.00000000
_symmetry_Int_Tables_number   1
_chemical_formula_structural   La5Er(OsI3)2
_chemical_formula_sum   'La5 Er1 Os2 I6'
_cell_volume   518.85706241
_cell_formula_units_Z   1
loop_
 _symmetry_equiv_pos_site_id
 _symmetry_equiv_pos_as_xyz
  1  'x, y, z'
loop_
 _atom_site_type_symbol
 _atom_site_label
 _atom_site_symmetry_multiplicity
 _atom_site_fract_x
 _atom_site_fract_y
 _atom_site_fract_z
 _atom_site_occupancy
  La  La0  1  0.750000  0.686715  0.120052  1
  La  La1  1  0.250000  0.888073  0.330359  1
  La  La2  1  0.250000  0.309697  0.886049  1
  La  La3  1  0.250000  0.899557  0.894082  1
  La  La4  1  0.750000  0.119615  0.668727  1
  Er  Er5  1  0.750000  0.085774  0.104199  1
  Os  Os6  1  0.250000  0.892199  0.123420  1
  Os  Os7  1  0.750000  0.108770  0.878073  1
  I  I8  1  0.250000  0.391151  0.139847  1
  I  I9  1  0.750000  0.140764  0.371396  1
  I  I10  1  0.750000  0.603453  0.862342  1
  I  I11  1  0.250000  0.369298  0.620851  1
  I  I12  1  0.750000  0.636288  0.382235  1
  I  I13  1  0.250000  0.868646  0.618368  1
