# generated using pymatgen
data_Tb3Sm2(TcO6)2
_symmetry_space_group_name_H-M   'P 1'
_cell_length_a   6.89452243
_cell_length_b   6.89452208
_cell_length_c   7.62714240
_cell_angle_alpha   74.01675658
_cell_angle_beta   74.01675847
_cell_angle_gamma   49.03156280
_symmetry_Int_Tables_number   1
_chemical_formula_structural   Tb3Sm2(TcO6)2
_chemical_formula_sum   'Tb3 Sm2 Tc2 O12'
_cell_volume   260.91475123
_cell_formula_units_Z   1
loop_
 _symmetry_equiv_pos_site_id
 _symmetry_equiv_pos_as_xyz
  1  'x, y, z'
loop_
 _atom_site_type_symbol
 _atom_site_label
 _atom_site_symmetry_multiplicity
 _atom_site_fract_x
 _atom_site_fract_y
 _atom_site_fract_z
 _atom_site_occupancy
  Tb  Tb0  1  0.684475  0.684475  0.172927  1
  Tb  Tb1  1  0.315525  0.315525  0.827073  1
  Tb  Tb2  1  0.000000  0.000000  0.500000  1
  Sm  Sm3  1  0.693994  0.693994  0.644282  1
  Sm  Sm4  1  0.306006  0.306006  0.355718  1
  Tc  Tc5  1  0.787092  0.212908  0.000000  1
  Tc  Tc6  1  0.212908  0.787092  0.000000  1
  O  O7  1  0.999305  0.999305  0.203558  1
  O  O8  1  0.000695  0.000695  0.796442  1
  O  O9  1  0.589373  0.084291  0.079769  1
  O  O10  1  0.410627  0.915709  0.920231  1
  O  O11  1  0.915709  0.410627  0.920231  1
  O  O12  1  0.084291  0.589373  0.079769  1
  O  O13  1  0.499935  0.499935  0.172977  1
  O  O14  1  0.500065  0.500065  0.827023  1
  O  O15  1  0.404950  0.900837  0.421712  1
  O  O16  1  0.595050  0.099163  0.578288  1
  O  O17  1  0.099163  0.595050  0.578288  1
  O  O18  1  0.900837  0.404950  0.421712  1
