# generated using pymatgen
data_Tb3P6Ir8Ru
_symmetry_space_group_name_H-M   'P 1'
_cell_length_a   3.98529000
_cell_length_b   11.21069900
_cell_length_c   12.74634900
_cell_angle_alpha   90.00000000
_cell_angle_beta   90.00000000
_cell_angle_gamma   90.00000000
_symmetry_Int_Tables_number   1
_chemical_formula_structural   Tb3P6Ir8Ru
_chemical_formula_sum   'Tb6 P12 Ir16 Ru2'
_cell_volume   569.47993541
_cell_formula_units_Z   2
loop_
 _symmetry_equiv_pos_site_id
 _symmetry_equiv_pos_as_xyz
  1  'x, y, z'
loop_
 _atom_site_type_symbol
 _atom_site_label
 _atom_site_symmetry_multiplicity
 _atom_site_fract_x
 _atom_site_fract_y
 _atom_site_fract_z
 _atom_site_occupancy
  Tb  Tb0  1  0.000000  0.500000  0.521505  1
  Tb  Tb1  1  0.500000  0.000000  0.478495  1
  Tb  Tb2  1  0.500000  0.818302  0.205482  1
  Tb  Tb3  1  0.500000  0.181698  0.205482  1
  Tb  Tb4  1  0.000000  0.681698  0.794518  1
  Tb  Tb5  1  0.000000  0.318302  0.794518  1
  P  P6  1  0.500000  0.500000  0.878473  1
  P  P7  1  0.000000  0.000000  0.121527  1
  P  P8  1  0.500000  0.500000  0.352031  1
  P  P9  1  0.000000  0.000000  0.647969  1
  P  P10  1  0.500000  0.315632  0.618310  1
  P  P11  1  0.500000  0.684368  0.618310  1
  P  P12  1  0.000000  0.184368  0.381690  1
  P  P13  1  0.000000  0.815632  0.381690  1
  P  P14  1  0.500000  0.843872  0.889209  1
  P  P15  1  0.500000  0.156128  0.889209  1
  P  P16  1  0.000000  0.656128  0.110791  1
  P  P17  1  0.000000  0.343872  0.110791  1
  Ir  Ir18  1  0.500000  0.500000  0.700854  1
  Ir  Ir19  1  0.000000  0.000000  0.299146  1
  Ir  Ir20  1  0.000000  0.500000  0.992333  1
  Ir  Ir21  1  0.500000  0.000000  0.007667  1
  Ir  Ir22  1  0.500000  0.332423  0.985519  1
  Ir  Ir23  1  0.500000  0.667577  0.985519  1
  Ir  Ir24  1  0.000000  0.167577  0.014481  1
  Ir  Ir25  1  0.000000  0.832423  0.014481  1
  Ir  Ir26  1  0.500000  0.296075  0.430645  1
  Ir  Ir27  1  0.500000  0.703925  0.430645  1
  Ir  Ir28  1  0.000000  0.203925  0.569355  1
  Ir  Ir29  1  0.000000  0.796075  0.569355  1
  Ir  Ir30  1  0.500000  0.872155  0.711542  1
  Ir  Ir31  1  0.500000  0.127845  0.711542  1
  Ir  Ir32  1  0.000000  0.627845  0.288458  1
  Ir  Ir33  1  0.000000  0.372155  0.288458  1
  Ru  Ru34  1  0.500000  0.500000  0.168633  1
  Ru  Ru35  1  0.000000  0.000000  0.831367  1
