# generated using pymatgen
data_TbU3(Al3Ir)6
_symmetry_space_group_name_H-M   'P 1'
_cell_length_a   7.59865804
_cell_length_b   7.59201315
_cell_length_c   9.40231500
_cell_angle_alpha   90.00000000
_cell_angle_beta   90.00000000
_cell_angle_gamma   119.47445537
_symmetry_Int_Tables_number   1
_chemical_formula_structural   TbU3(Al3Ir)6
_chemical_formula_sum   'Tb1 U3 Al18 Ir6'
_cell_volume   472.20971276
_cell_formula_units_Z   1
loop_
 _symmetry_equiv_pos_site_id
 _symmetry_equiv_pos_as_xyz
  1  'x, y, z'
loop_
 _atom_site_type_symbol
 _atom_site_label
 _atom_site_symmetry_multiplicity
 _atom_site_fract_x
 _atom_site_fract_y
 _atom_site_fract_z
 _atom_site_occupancy
  Tb  Tb0  1  0.329487  0.004937  0.750000  1
  U  U1  1  0.994504  0.669772  0.250000  1
  U  U2  1  0.003407  0.329249  0.750000  1
  U  U3  1  0.672216  0.995394  0.250000  1
  Al  Al4  1  0.130792  0.131604  0.250000  1
  Al  Al5  1  0.872116  0.873029  0.750000  1
  Al  Al6  1  0.002990  0.336475  0.073680  1
  Al  Al7  1  0.999525  0.666226  0.924537  1
  Al  Al8  1  0.999525  0.666226  0.575463  1
  Al  Al9  1  0.335771  0.002523  0.424227  1
  Al  Al10  1  0.002990  0.336475  0.426320  1
  Al  Al11  1  0.662810  0.996622  0.575347  1
  Al  Al12  1  0.662810  0.996622  0.924653  1
  Al  Al13  1  0.335771  0.002523  0.075773  1
  Al  Al14  1  0.333991  0.332887  0.555552  1
  Al  Al15  1  0.664867  0.664636  0.447428  1
  Al  Al16  1  0.664867  0.664636  0.052572  1
  Al  Al17  1  0.333991  0.332887  0.944448  1
  Al  Al18  1  0.340828  0.549438  0.250000  1
  Al  Al19  1  0.660956  0.451412  0.750000  1
  Al  Al20  1  0.546524  0.340813  0.250000  1
  Al  Al21  1  0.449808  0.658532  0.750000  1
  Ir  Ir22  1  0.672689  0.326882  0.000602  1
  Ir  Ir23  1  0.327853  0.672567  0.000915  1
  Ir  Ir24  1  0.327853  0.672567  0.499085  1
  Ir  Ir25  1  0.672689  0.326882  0.499398  1
  Ir  Ir26  1  0.999185  0.999092  0.001623  1
  Ir  Ir27  1  0.999185  0.999092  0.498377  1
