# generated using pymatgen
data_Yb4Sn5GePt7
_symmetry_space_group_name_H-M   'P 1'
_cell_length_a   7.63264413
_cell_length_b   7.63264345
_cell_length_c   7.63264338
_cell_angle_alpha   109.65321119
_cell_angle_beta   109.65321117
_cell_angle_gamma   109.10784684
_symmetry_Int_Tables_number   1
_chemical_formula_structural   Yb4Sn5GePt7
_chemical_formula_sum   'Yb4 Sn5 Ge1 Pt7'
_cell_volume   342.28667480
_cell_formula_units_Z   1
loop_
 _symmetry_equiv_pos_site_id
 _symmetry_equiv_pos_as_xyz
  1  'x, y, z'
loop_
 _atom_site_type_symbol
 _atom_site_label
 _atom_site_symmetry_multiplicity
 _atom_site_fract_x
 _atom_site_fract_y
 _atom_site_fract_z
 _atom_site_occupancy
  Yb  Yb0  1  0.480786  0.480786  0.474105  1
  Yb  Yb1  1  0.006681  0.480786  0.000000  1
  Yb  Yb2  1  0.006681  0.006681  0.525895  1
  Yb  Yb3  1  0.480786  0.006681  0.000000  1
  Sn  Sn4  1  0.675072  0.990131  0.684941  1
  Sn  Sn5  1  0.305190  0.990131  0.315059  1
  Sn  Sn6  1  0.990131  0.305190  0.315059  1
  Sn  Sn7  1  0.990131  0.675072  0.684941  1
  Sn  Sn8  1  0.700489  0.700489  0.000000  1
  Ge  Ge9  1  0.338825  0.338825  0.000000  1
  Pt  Pt10  1  0.255938  0.501775  0.754164  1
  Pt  Pt11  1  0.242770  0.742770  0.500000  1
  Pt  Pt12  1  0.501775  0.255938  0.754164  1
  Pt  Pt13  1  0.501775  0.747611  0.245836  1
  Pt  Pt14  1  0.747611  0.501775  0.245836  1
  Pt  Pt15  1  0.032588  0.032588  0.000000  1
  Pt  Pt16  1  0.742770  0.242770  0.500000  1
