# generated using pymatgen
data_Yb6ReIrO12
_symmetry_space_group_name_H-M   'P 1'
_cell_length_a   5.81853851
_cell_length_b   5.46039580
_cell_length_c   9.59575511
_cell_angle_alpha   55.45448679
_cell_angle_beta   89.10753163
_cell_angle_gamma   89.86803130
_symmetry_Int_Tables_number   1
_chemical_formula_structural   Yb6ReIrO12
_chemical_formula_sum   'Yb6 Re1 Ir1 O12'
_cell_volume   251.07719534
_cell_formula_units_Z   1
loop_
 _symmetry_equiv_pos_site_id
 _symmetry_equiv_pos_as_xyz
  1  'x, y, z'
loop_
 _atom_site_type_symbol
 _atom_site_label
 _atom_site_symmetry_multiplicity
 _atom_site_fract_x
 _atom_site_fract_y
 _atom_site_fract_z
 _atom_site_occupancy
  Yb  Yb0  1  0.572766  0.237334  0.239990  1
  Yb  Yb1  1  0.062954  0.789667  0.228462  1
  Yb  Yb2  1  0.500000  0.000000  0.000000  1
  Yb  Yb3  1  0.000000  0.000000  0.500000  1
  Yb  Yb4  1  0.937046  0.210333  0.771538  1
  Yb  Yb5  1  0.427234  0.762666  0.760010  1
  Re  Re6  1  0.500000  0.500000  0.500000  1
  Ir  Ir7  1  0.000000  0.500000  0.000000  1
  O  O8  1  0.549617  0.394342  0.723853  1
  O  O9  1  0.054525  0.612295  0.765966  1
  O  O10  1  0.450383  0.605658  0.276147  1
  O  O11  1  0.945475  0.387705  0.234034  1
  O  O12  1  0.775877  0.736675  0.426191  1
  O  O13  1  0.284660  0.259022  0.068476  1
  O  O14  1  0.224123  0.263325  0.573809  1
  O  O15  1  0.715340  0.740978  0.931524  1
  O  O16  1  0.184011  0.847631  0.947711  1
  O  O17  1  0.669503  0.160614  0.553375  1
  O  O18  1  0.815989  0.152369  0.052289  1
  O  O19  1  0.330497  0.839386  0.446625  1
