# generated using pymatgen
data_Tb5YIrI10
_symmetry_space_group_name_H-M   'P 1'
_cell_length_a   7.77332546
_cell_length_b   9.72898365
_cell_length_c   9.82616624
_cell_angle_alpha   107.23410505
_cell_angle_beta   96.92679504
_cell_angle_gamma   104.56515511
_symmetry_Int_Tables_number   1
_chemical_formula_structural   Tb5YIrI10
_chemical_formula_sum   'Tb5 Y1 Ir1 I10'
_cell_volume   671.46948840
_cell_formula_units_Z   1
loop_
 _symmetry_equiv_pos_site_id
 _symmetry_equiv_pos_as_xyz
  1  'x, y, z'
loop_
 _atom_site_type_symbol
 _atom_site_label
 _atom_site_symmetry_multiplicity
 _atom_site_fract_x
 _atom_site_fract_y
 _atom_site_fract_z
 _atom_site_occupancy
  Tb  Tb0  1  0.115018  0.042498  0.758124  1
  Tb  Tb1  1  0.884794  0.957551  0.241847  1
  Tb  Tb2  1  0.969253  0.279627  0.082603  1
  Tb  Tb3  1  0.030583  0.720323  0.917414  1
  Tb  Tb4  1  0.350777  0.125718  0.167224  1
  Y  Y5  1  0.649061  0.874147  0.832719  1
  Ir  Ir6  1  0.000061  0.000049  0.000049  1
  I  I7  1  0.350497  0.451592  0.272445  1
  I  I8  1  0.649491  0.548664  0.727615  1
  I  I9  1  0.258742  0.088031  0.462484  1
  I  I10  1  0.741218  0.911942  0.537593  1
  I  I11  1  0.085644  0.372315  0.821445  1
  I  I12  1  0.914331  0.627689  0.178546  1
  I  I13  1  0.453215  0.815355  0.090744  1
  I  I14  1  0.546875  0.184461  0.909093  1
  I  I15  1  0.780974  0.258061  0.345443  1
  I  I16  1  0.219465  0.741977  0.654612  1
