# generated using pymatgen
data_CeDy3Ho12(CdRu)4
_symmetry_space_group_name_H-M   'P 1'
_cell_length_a   9.61722520
_cell_length_b   9.61722542
_cell_length_c   9.61632459
_cell_angle_alpha   59.65507598
_cell_angle_beta   59.65508126
_cell_angle_gamma   59.57916238
_symmetry_Int_Tables_number   1
_chemical_formula_structural   CeDy3Ho12(CdRu)4
_chemical_formula_sum   'Ce1 Dy3 Ho12 Cd4 Ru4'
_cell_volume   623.62552233
_cell_formula_units_Z   1
loop_
 _symmetry_equiv_pos_site_id
 _symmetry_equiv_pos_as_xyz
  1  'x, y, z'
loop_
 _atom_site_type_symbol
 _atom_site_label
 _atom_site_symmetry_multiplicity
 _atom_site_fract_x
 _atom_site_fract_y
 _atom_site_fract_z
 _atom_site_occupancy
  Ce  Ce0  1  0.342886  0.342886  0.342907  1
  Dy  Dy1  1  0.562549  0.562549  0.937744  1
  Dy  Dy2  1  0.939260  0.560866  0.938736  1
  Dy  Dy3  1  0.560866  0.939260  0.938736  1
  Ho  Ho4  1  0.938923  0.938923  0.560682  1
  Ho  Ho5  1  0.562734  0.937814  0.562372  1
  Ho  Ho6  1  0.937814  0.562734  0.562372  1
  Ho  Ho7  1  0.188984  0.188984  0.812222  1
  Ho  Ho8  1  0.811079  0.187966  0.810861  1
  Ho  Ho9  1  0.187965  0.811080  0.810861  1
  Ho  Ho10  1  0.810943  0.810944  0.188183  1
  Ho  Ho11  1  0.188679  0.812386  0.189230  1
  Ho  Ho12  1  0.812386  0.188680  0.189231  1
  Ho  Ho13  1  0.347019  0.347019  0.956501  1
  Ho  Ho14  1  0.347072  0.956231  0.347310  1
  Ho  Ho15  1  0.956231  0.347072  0.347310  1
  Cd  Cd16  1  0.579843  0.579843  0.258204  1
  Cd  Cd17  1  0.580113  0.257772  0.579766  1
  Cd  Cd18  1  0.257772  0.580113  0.579766  1
  Cd  Cd19  1  0.579983  0.579983  0.579684  1
  Ru  Ru20  1  0.145510  0.145510  0.576231  1
  Ru  Ru21  1  0.145400  0.576335  0.145534  1
  Ru  Ru22  1  0.576335  0.145400  0.145534  1
  Ru  Ru23  1  0.139651  0.139651  0.140024  1
