# generated using pymatgen
data_Pr10GaSn19Pd8
_symmetry_space_group_name_H-M   'P 1'
_cell_length_a   14.33418593
_cell_length_b   14.36610187
_cell_length_c   4.65581000
_cell_angle_alpha   90.00000000
_cell_angle_beta   90.00000000
_cell_angle_gamma   90.15948464
_symmetry_Int_Tables_number   1
_chemical_formula_structural   Pr10GaSn19Pd8
_chemical_formula_sum   'Pr10 Ga1 Sn19 Pd8'
_cell_volume   958.75036288
_cell_formula_units_Z   1
loop_
 _symmetry_equiv_pos_site_id
 _symmetry_equiv_pos_as_xyz
  1  'x, y, z'
loop_
 _atom_site_type_symbol
 _atom_site_label
 _atom_site_symmetry_multiplicity
 _atom_site_fract_x
 _atom_site_fract_y
 _atom_site_fract_z
 _atom_site_occupancy
  Pr  Pr0  1  0.505526  0.500589  0.000000  1
  Pr  Pr1  1  0.999931  0.999983  0.000000  1
  Pr  Pr2  1  0.679722  0.180077  0.500000  1
  Pr  Pr3  1  0.321060  0.819374  0.500000  1
  Pr  Pr4  1  0.179283  0.320458  0.500000  1
  Pr  Pr5  1  0.817579  0.676925  0.500000  1
  Pr  Pr6  1  0.889906  0.392442  0.500000  1
  Pr  Pr7  1  0.108227  0.608319  0.500000  1
  Pr  Pr8  1  0.391971  0.108887  0.500000  1
  Pr  Pr9  1  0.608259  0.891282  0.500000  1
  Ga  Ga10  1  0.665217  0.502729  0.500000  1
  Sn  Sn11  1  0.568838  0.069084  0.000000  1
  Sn  Sn12  1  0.431303  0.931293  0.000000  1
  Sn  Sn13  1  0.068256  0.431347  0.000000  1
  Sn  Sn14  1  0.928515  0.567772  0.000000  1
  Sn  Sn15  1  0.652086  0.699250  0.000000  1
  Sn  Sn16  1  0.347779  0.300452  0.000000  1
  Sn  Sn17  1  0.152876  0.799537  0.000000  1
  Sn  Sn18  1  0.846076  0.201686  0.000000  1
  Sn  Sn19  1  0.299847  0.652364  0.000000  1
  Sn  Sn20  1  0.698697  0.349454  0.000000  1
  Sn  Sn21  1  0.200818  0.152890  0.000000  1
  Sn  Sn22  1  0.799051  0.846491  0.000000  1
  Sn  Sn23  1  0.339183  0.498758  0.500000  1
  Sn  Sn24  1  0.162016  0.998661  0.500000  1
  Sn  Sn25  1  0.837886  0.001560  0.500000  1
  Sn  Sn26  1  0.502782  0.659851  0.500000  1
  Sn  Sn27  1  0.505925  0.341090  0.500000  1
  Sn  Sn28  1  0.000668  0.161958  0.500000  1
  Sn  Sn29  1  0.998237  0.837836  0.500000  1
  Pd  Pd30  1  0.739914  0.529874  0.000000  1
  Pd  Pd31  1  0.254332  0.469475  0.000000  1
  Pd  Pd32  1  0.245287  0.969389  0.000000  1
  Pd  Pd33  1  0.754649  0.030176  0.000000  1
  Pd  Pd34  1  0.469026  0.745743  0.000000  1
  Pd  Pd35  1  0.529709  0.253754  0.000000  1
  Pd  Pd36  1  0.030897  0.245536  0.000000  1
  Pd  Pd37  1  0.968669  0.753652  0.000000  1
