# generated using pymatgen
data_Lu2MnSi14Ir5
_symmetry_space_group_name_H-M   'P 1'
_cell_length_a   7.94453920
_cell_length_b   7.94453980
_cell_length_c   7.98185218
_cell_angle_alpha   56.85472256
_cell_angle_beta   56.85472142
_cell_angle_gamma   57.06773951
_symmetry_Int_Tables_number   1
_chemical_formula_structural   Lu2MnSi14Ir5
_chemical_formula_sum   'Lu2 Mn1 Si14 Ir5'
_cell_volume   330.96247250
_cell_formula_units_Z   1
loop_
 _symmetry_equiv_pos_site_id
 _symmetry_equiv_pos_as_xyz
  1  'x, y, z'
loop_
 _atom_site_type_symbol
 _atom_site_label
 _atom_site_symmetry_multiplicity
 _atom_site_fract_x
 _atom_site_fract_y
 _atom_site_fract_z
 _atom_site_occupancy
  Lu  Lu0  1  0.001908  0.004630  0.994787  1
  Lu  Lu1  1  0.495370  0.498092  0.505213  1
  Mn  Mn2  1  0.076045  0.423955  0.750000  1
  Si  Si3  1  0.762591  0.737409  0.750000  1
  Si  Si4  1  0.248967  0.251033  0.250000  1
  Si  Si5  1  0.849877  0.065671  0.672139  1
  Si  Si6  1  0.671220  0.852645  0.063645  1
  Si  Si7  1  0.064663  0.662810  0.847667  1
  Si  Si8  1  0.647355  0.828780  0.436355  1
  Si  Si9  1  0.434329  0.650123  0.827861  1
  Si  Si10  1  0.837190  0.435337  0.652333  1
  Si  Si11  1  0.168972  0.561414  0.364483  1
  Si  Si12  1  0.566845  0.351466  0.171339  1
  Si  Si13  1  0.343142  0.179778  0.572045  1
  Si  Si14  1  0.938586  0.331028  0.135517  1
  Si  Si15  1  0.320222  0.156858  0.927955  1
  Si  Si16  1  0.148534  0.933155  0.328661  1
  Ir  Ir17  1  0.248897  0.926996  0.573699  1
  Ir  Ir18  1  0.573004  0.251103  0.926301  1
  Ir  Ir19  1  0.925288  0.574712  0.250000  1
  Ir  Ir20  1  0.427010  0.750015  0.072448  1
  Ir  Ir21  1  0.749985  0.072990  0.427552  1
