# generated using pymatgen
data_Rb4Zr5O12
_symmetry_space_group_name_H-M   'P 1'
_cell_length_a   5.96286800
_cell_length_b   5.96286786
_cell_length_c   10.62221000
_cell_angle_alpha   90.00000000
_cell_angle_beta   90.00000000
_cell_angle_gamma   120.00000080
_symmetry_Int_Tables_number   1
_chemical_formula_structural   Rb4Zr5O12
_chemical_formula_sum   'Rb4 Zr5 O12'
_cell_volume   327.08143292
_cell_formula_units_Z   1
loop_
 _symmetry_equiv_pos_site_id
 _symmetry_equiv_pos_as_xyz
  1  'x, y, z'
loop_
 _atom_site_type_symbol
 _atom_site_label
 _atom_site_symmetry_multiplicity
 _atom_site_fract_x
 _atom_site_fract_y
 _atom_site_fract_z
 _atom_site_occupancy
  Rb  Rb0  1  0.000000  0.000000  0.168195  1
  Rb  Rb1  1  0.666667  0.333332  0.380201  1
  Rb  Rb2  1  0.333333  0.666667  0.619799  1
  Rb  Rb3  1  0.000000  0.000000  0.831805  1
  Zr  Zr4  1  0.666667  0.333332  0.023418  1
  Zr  Zr5  1  0.333333  0.666667  0.285041  1
  Zr  Zr6  1  0.000000  0.000000  0.500000  1
  Zr  Zr7  1  0.666667  0.333332  0.714958  1
  Zr  Zr8  1  0.333333  0.666667  0.976582  1
  O  O9  1  0.019679  0.509839  0.121633  1
  O  O10  1  0.490161  0.509839  0.121633  1
  O  O11  1  0.490160  0.980320  0.121633  1
  O  O12  1  0.165325  0.330651  0.378980  1
  O  O13  1  0.165324  0.834674  0.378980  1
  O  O14  1  0.669350  0.834674  0.378980  1
  O  O15  1  0.330651  0.165325  0.621019  1
  O  O16  1  0.834674  0.165325  0.621019  1
  O  O17  1  0.834675  0.669349  0.621019  1
  O  O18  1  0.509840  0.019680  0.878366  1
  O  O19  1  0.509840  0.490160  0.878366  1
  O  O20  1  0.980320  0.490160  0.878366  1
