# generated using pymatgen
data_TmPuNiO6
_symmetry_space_group_name_H-M   'P 1'
_cell_length_a   5.19263366
_cell_length_b   5.18989168
_cell_length_c   5.00624800
_cell_angle_alpha   90.03979877
_cell_angle_beta   89.95421972
_cell_angle_gamma   120.06702755
_symmetry_Int_Tables_number   1
_chemical_formula_structural   TmPuNiO6
_chemical_formula_sum   'Tm1 Pu1 Ni1 O6'
_cell_volume   116.76026724
_cell_formula_units_Z   1
loop_
 _symmetry_equiv_pos_site_id
 _symmetry_equiv_pos_as_xyz
  1  'x, y, z'
loop_
 _atom_site_type_symbol
 _atom_site_label
 _atom_site_symmetry_multiplicity
 _atom_site_fract_x
 _atom_site_fract_y
 _atom_site_fract_z
 _atom_site_occupancy
  Tm  Tm0  1  0.000021  0.000219  0.000010  1
  Pu  Pu1  1  0.666649  0.333380  0.499989  1
  Ni  Ni2  1  0.333199  0.666473  0.500022  1
  O  O3  1  0.350715  0.009191  0.727901  1
  O  O4  1  0.990679  0.341583  0.727792  1
  O  O5  1  0.658390  0.649340  0.727691  1
  O  O6  1  0.990977  0.649259  0.272032  1
  O  O7  1  0.658417  0.009056  0.272303  1
  O  O8  1  0.350954  0.341501  0.272260  1
