# generated using pymatgen
data_Zr10Zn2(InBi)3
_symmetry_space_group_name_H-M   'P 1'
_cell_length_a   8.81382000
_cell_length_b   8.81056912
_cell_length_c   5.94489000
_cell_angle_alpha   90.00000000
_cell_angle_beta   90.00000000
_cell_angle_gamma   120.01220635
_symmetry_Int_Tables_number   1
_chemical_formula_structural   Zr10Zn2(InBi)3
_chemical_formula_sum   'Zr10 Zn2 In3 Bi3'
_cell_volume   399.75063594
_cell_formula_units_Z   1
loop_
 _symmetry_equiv_pos_site_id
 _symmetry_equiv_pos_as_xyz
  1  'x, y, z'
loop_
 _atom_site_type_symbol
 _atom_site_label
 _atom_site_symmetry_multiplicity
 _atom_site_fract_x
 _atom_site_fract_y
 _atom_site_fract_z
 _atom_site_occupancy
  Zr  Zr0  1  0.335674  0.666460  0.997078  1
  Zr  Zr1  1  0.669215  0.333540  0.502922  1
  Zr  Zr2  1  0.669215  0.333540  0.997078  1
  Zr  Zr3  1  0.335674  0.666460  0.502922  1
  Zr  Zr4  1  0.263139  0.000000  0.250000  1
  Zr  Zr5  1  0.266466  0.269131  0.750000  1
  Zr  Zr6  1  0.997335  0.730869  0.750000  1
  Zr  Zr7  1  0.995021  0.260490  0.250000  1
  Zr  Zr8  1  0.734531  0.739510  0.250000  1
  Zr  Zr9  1  0.733283  0.000000  0.750000  1
  Zn  Zn10  1  0.996927  0.000000  0.994119  1
  Zn  Zn11  1  0.996927  0.000000  0.505881  1
  In  In12  1  0.613664  0.000000  0.250000  1
  In  In13  1  0.619158  0.618045  0.750000  1
  In  In14  1  0.001113  0.381955  0.750000  1
  Bi  Bi15  1  0.000428  0.613697  0.250000  1
  Bi  Bi16  1  0.386730  0.386303  0.250000  1
  Bi  Bi17  1  0.385499  0.000000  0.750000  1
