# generated using pymatgen
data_LaPr7(TmPb3)2
_symmetry_space_group_name_H-M   'P 1'
_cell_length_a   6.88609700
_cell_length_b   9.36743830
_cell_length_c   9.36751200
_cell_angle_alpha   119.99955398
_cell_angle_beta   89.99980863
_cell_angle_gamma   90.00052995
_symmetry_Int_Tables_number   1
_chemical_formula_structural   LaPr7(TmPb3)2
_chemical_formula_sum   'La1 Pr7 Tm2 Pb6'
_cell_volume   523.30010169
_cell_formula_units_Z   1
loop_
 _symmetry_equiv_pos_site_id
 _symmetry_equiv_pos_as_xyz
  1  'x, y, z'
loop_
 _atom_site_type_symbol
 _atom_site_label
 _atom_site_symmetry_multiplicity
 _atom_site_fract_x
 _atom_site_fract_y
 _atom_site_fract_z
 _atom_site_occupancy
  La  La0  1  0.500001  0.666535  0.333228  1
  Pr  Pr1  1  0.500003  0.333378  0.666699  1
  Pr  Pr2  1  0.752213  0.239912  0.999125  1
  Pr  Pr3  1  0.752197  0.759199  0.760100  1
  Pr  Pr4  1  0.752233  0.000847  0.240775  1
  Pr  Pr5  1  0.247784  0.759236  0.999132  1
  Pr  Pr6  1  0.247802  0.239942  0.240798  1
  Pr  Pr7  1  0.247762  0.000895  0.760112  1
  Tm  Tm8  1  0.000004  0.666676  0.333335  1
  Tm  Tm9  1  0.999998  0.333345  0.666674  1
  Pb  Pb10  1  0.760835  0.602752  0.000197  1
  Pb  Pb11  1  0.760825  0.397456  0.397227  1
  Pb  Pb12  1  0.760826  0.999789  0.602553  1
  Pb  Pb13  1  0.239157  0.397471  0.000229  1
  Pb  Pb14  1  0.239180  0.602770  0.602569  1
  Pb  Pb15  1  0.239181  0.999797  0.397247  1
