# generated using pymatgen
data_Ce2Nd2ErAgSn3
_symmetry_space_group_name_H-M   'P 1'
_cell_length_a   6.48874200
_cell_length_b   9.53870365
_cell_length_c   9.51945549
_cell_angle_alpha   120.06691325
_cell_angle_beta   90.00000000
_cell_angle_gamma   90.00000000
_symmetry_Int_Tables_number   1
_chemical_formula_structural   Ce2Nd2ErAgSn3
_chemical_formula_sum   'Ce4 Nd4 Er2 Ag2 Sn6'
_cell_volume   509.91686785
_cell_formula_units_Z   2
loop_
 _symmetry_equiv_pos_site_id
 _symmetry_equiv_pos_as_xyz
  1  'x, y, z'
loop_
 _atom_site_type_symbol
 _atom_site_label
 _atom_site_symmetry_multiplicity
 _atom_site_fract_x
 _atom_site_fract_y
 _atom_site_fract_z
 _atom_site_occupancy
  Ce  Ce0  1  0.000000  0.665502  0.331002  1
  Ce  Ce1  1  0.000000  0.334498  0.668998  1
  Ce  Ce2  1  0.500000  0.334498  0.668998  1
  Ce  Ce3  1  0.500000  0.665502  0.331002  1
  Nd  Nd4  1  0.750000  0.718504  0.720113  1
  Nd  Nd5  1  0.250000  0.281496  0.279887  1
  Nd  Nd6  1  0.750000  0.998390  0.279887  1
  Nd  Nd7  1  0.250000  0.001610  0.720113  1
  Er  Er8  1  0.750000  0.278011  0.000000  1
  Er  Er9  1  0.250000  0.721989  0.000000  1
  Ag  Ag10  1  0.000000  0.000000  0.000000  1
  Ag  Ag11  1  0.500000  0.000000  0.000000  1
  Sn  Sn12  1  0.750000  0.373503  0.370233  1
  Sn  Sn13  1  0.250000  0.626497  0.629767  1
  Sn  Sn14  1  0.750000  0.003270  0.629767  1
  Sn  Sn15  1  0.250000  0.996730  0.370233  1
  Sn  Sn16  1  0.750000  0.619309  0.000000  1
  Sn  Sn17  1  0.250000  0.380691  0.000000  1
