# generated using pymatgen
data_PrNd19(GaSi5)2
_symmetry_space_group_name_H-M   'P 1'
_cell_length_a   7.77413801
_cell_length_b   7.77481102
_cell_length_c   14.37725003
_cell_angle_alpha   89.99343353
_cell_angle_beta   89.99687554
_cell_angle_gamma   90.00611679
_symmetry_Int_Tables_number   1
_chemical_formula_structural   PrNd19(GaSi5)2
_chemical_formula_sum   'Pr1 Nd19 Ga2 Si10'
_cell_volume   868.99626059
_cell_formula_units_Z   1
loop_
 _symmetry_equiv_pos_site_id
 _symmetry_equiv_pos_as_xyz
  1  'x, y, z'
loop_
 _atom_site_type_symbol
 _atom_site_label
 _atom_site_symmetry_multiplicity
 _atom_site_fract_x
 _atom_site_fract_y
 _atom_site_fract_z
 _atom_site_occupancy
  Pr  Pr0  1  0.169687  0.185473  0.890688  1
  Nd  Nd1  1  0.813982  0.828072  0.605244  1
  Nd  Nd2  1  0.185444  0.830354  0.109723  1
  Nd  Nd3  1  0.171939  0.814010  0.394717  1
  Nd  Nd4  1  0.999993  0.500036  0.729226  1
  Nd  Nd5  1  0.828067  0.185989  0.394716  1
  Nd  Nd6  1  0.685973  0.671917  0.394727  1
  Nd  Nd7  1  0.671930  0.314018  0.605259  1
  Nd  Nd8  1  0.328062  0.685987  0.605268  1
  Nd  Nd9  1  0.000011  0.499993  0.227815  1
  Nd  Nd10  1  0.669525  0.685427  0.109707  1
  Nd  Nd11  1  0.685338  0.330573  0.890314  1
  Nd  Nd12  1  0.830424  0.814468  0.890291  1
  Nd  Nd13  1  0.314010  0.328068  0.394709  1
  Nd  Nd14  1  0.185968  0.171922  0.605253  1
  Nd  Nd15  1  0.814481  0.169545  0.109724  1
  Nd  Nd16  1  0.314687  0.669550  0.890292  1
  Nd  Nd17  1  0.330540  0.314644  0.109737  1
  Nd  Nd18  1  0.499994  0.000017  0.270724  1
  Nd  Nd19  1  0.500051  0.999988  0.772138  1
  Ga  Ga20  1  0.500218  0.999858  0.995967  1
  Ga  Ga21  1  0.999784  0.500273  0.004223  1
  Si  Si22  1  0.614305  0.386215  0.253086  1
  Si  Si23  1  0.114209  0.885985  0.746779  1
  Si  Si24  1  0.386478  0.385886  0.746788  1
  Si  Si25  1  0.385684  0.613753  0.253085  1
  Si  Si26  1  0.886242  0.885692  0.253083  1
  Si  Si27  1  0.613763  0.614335  0.746911  1
  Si  Si28  1  0.000016  0.500003  0.507680  1
  Si  Si29  1  0.885418  0.113619  0.746738  1
  Si  Si30  1  0.500005  0.000006  0.492308  1
  Si  Si31  1  0.113772  0.114320  0.253084  1
