# generated using pymatgen
data_HoTmCoSi5Rh2
_symmetry_space_group_name_H-M   'P 1'
_cell_length_a   8.01273430
_cell_length_b   7.98314197
_cell_length_c   7.98314225
_cell_angle_alpha   138.40397564
_cell_angle_beta   105.18463283
_cell_angle_gamma   89.38659662
_symmetry_Int_Tables_number   1
_chemical_formula_structural   HoTmCoSi5Rh2
_chemical_formula_sum   'Ho2 Tm2 Co2 Si10 Rh4'
_cell_volume   313.21208543
_cell_formula_units_Z   2
loop_
 _symmetry_equiv_pos_site_id
 _symmetry_equiv_pos_as_xyz
  1  'x, y, z'
loop_
 _atom_site_type_symbol
 _atom_site_label
 _atom_site_symmetry_multiplicity
 _atom_site_fract_x
 _atom_site_fract_y
 _atom_site_fract_z
 _atom_site_occupancy
  Ho  Ho0  1  0.363302  0.632457  0.730844  1
  Ho  Ho1  1  0.900892  0.134025  0.766866  1
  Tm  Tm2  1  0.098947  0.865993  0.232955  1
  Tm  Tm3  1  0.636787  0.367454  0.269333  1
  Co  Co4  1  0.251851  0.140031  0.111822  1
  Co  Co5  1  0.748466  0.860221  0.888243  1
  Si  Si6  1  0.278776  0.512939  0.244381  1
  Si  Si7  1  0.721577  0.965930  0.234163  1
  Si  Si8  1  0.999941  0.777001  0.777259  1
  Si  Si9  1  0.234379  0.393593  0.840785  1
  Si  Si10  1  0.765199  0.606188  0.159013  1
  Si  Si11  1  0.442536  0.106839  0.335698  1
  Si  Si12  1  0.999941  0.222683  0.222940  1
  Si  Si13  1  0.557360  0.892930  0.664430  1
  Si  Si14  1  0.721577  0.487414  0.755647  1
  Si  Si15  1  0.278776  0.034395  0.765837  1
  Rh  Rh16  1  0.031579  0.636837  0.394743  1
  Rh  Rh17  1  0.968482  0.363392  0.605090  1
  Rh  Rh18  1  0.499816  0.750228  0.250363  1
  Rh  Rh19  1  0.499816  0.249452  0.749588  1
