# generated using pymatgen
data_Pa6Fe15Si7Ni
_symmetry_space_group_name_H-M   'P 1'
_cell_length_a   8.26224023
_cell_length_b   8.25297716
_cell_length_c   8.26224100
_cell_angle_alpha   59.96286558
_cell_angle_beta   60.00000093
_cell_angle_gamma   59.96286758
_symmetry_Int_Tables_number   1
_chemical_formula_structural   Pa6Fe15Si7Ni
_chemical_formula_sum   'Pa6 Fe15 Si7 Ni1'
_cell_volume   398.15056864
_cell_formula_units_Z   1
loop_
 _symmetry_equiv_pos_site_id
 _symmetry_equiv_pos_as_xyz
  1  'x, y, z'
loop_
 _atom_site_type_symbol
 _atom_site_label
 _atom_site_symmetry_multiplicity
 _atom_site_fract_x
 _atom_site_fract_y
 _atom_site_fract_z
 _atom_site_occupancy
  Pa  Pa0  1  0.782123  0.213255  0.782123  1
  Pa  Pa1  1  0.784518  0.783696  0.215893  1
  Pa  Pa2  1  0.215893  0.783696  0.784518  1
  Pa  Pa3  1  0.222499  0.213255  0.782123  1
  Pa  Pa4  1  0.782123  0.213255  0.222499  1
  Pa  Pa5  1  0.215893  0.783696  0.215893  1
  Fe  Fe6  1  0.175133  0.177906  0.175133  1
  Fe  Fe7  1  0.621961  0.623066  0.133014  1
  Fe  Fe8  1  0.377251  0.378023  0.377251  1
  Fe  Fe9  1  0.175646  0.473063  0.175646  1
  Fe  Fe10  1  0.175133  0.177906  0.471830  1
  Fe  Fe11  1  0.133014  0.623066  0.621961  1
  Fe  Fe12  1  0.621336  0.135992  0.621336  1
  Fe  Fe13  1  0.824139  0.827359  0.824139  1
  Fe  Fe14  1  0.867474  0.378023  0.377251  1
  Fe  Fe15  1  0.377251  0.378023  0.867474  1
  Fe  Fe16  1  0.377407  0.867779  0.377407  1
  Fe  Fe17  1  0.524362  0.827359  0.824139  1
  Fe  Fe18  1  0.621961  0.623066  0.621961  1
  Fe  Fe19  1  0.824139  0.827359  0.524362  1
  Fe  Fe20  1  0.471830  0.177906  0.175133  1
  Si  Si21  1  0.998703  0.502008  0.998703  1
  Si  Si22  1  0.499780  0.500662  0.499780  1
  Si  Si23  1  0.500585  0.502008  0.998703  1
  Si  Si24  1  0.499296  0.998488  0.499296  1
  Si  Si25  1  0.998703  0.502008  0.500585  1
  Si  Si26  1  0.002920  0.998488  0.499296  1
  Si  Si27  1  0.499296  0.998488  0.002920  1
  Ni  Ni28  1  0.829633  0.511101  0.829633  1
