# generated using pymatgen
data_La6Pr4Al(ZnRu2)3
_symmetry_space_group_name_H-M   'P 1'
_cell_length_a   8.57360543
_cell_length_b   8.65138961
_cell_length_c   8.57360517
_cell_angle_alpha   109.65510929
_cell_angle_beta   109.28669282
_cell_angle_gamma   109.65512851
_symmetry_Int_Tables_number   1
_chemical_formula_structural   La6Pr4Al(ZnRu2)3
_chemical_formula_sum   'La6 Pr4 Al1 Zn3 Ru6'
_cell_volume   488.42770402
_cell_formula_units_Z   1
loop_
 _symmetry_equiv_pos_site_id
 _symmetry_equiv_pos_as_xyz
  1  'x, y, z'
loop_
 _atom_site_type_symbol
 _atom_site_label
 _atom_site_symmetry_multiplicity
 _atom_site_fract_x
 _atom_site_fract_y
 _atom_site_fract_z
 _atom_site_occupancy
  La  La0  1  0.251163  0.687192  0.440854  1
  La  La1  1  0.748280  0.811224  0.059119  1
  La  La2  1  0.440881  0.252105  0.689160  1
  La  La3  1  0.689691  0.436030  0.248837  1
  La  La4  1  0.059146  0.746339  0.810309  1
  La  La5  1  0.810840  0.062945  0.751720  1
  Pr  Pr6  1  0.221420  0.221639  0.221324  1
  Pr  Pr7  1  0.499904  0.000219  0.278580  1
  Pr  Pr8  1  0.278676  0.500316  0.000096  1
  Pr  Pr9  1  0.000000  0.279202  0.500000  1
  Al  Al10  1  0.000000  0.911376  0.500000  1
  Zn  Zn11  1  0.588221  0.587448  0.585752  1
  Zn  Zn12  1  0.497531  0.999227  0.911779  1
  Zn  Zn13  1  0.914248  0.501696  0.002469  1
  Ru  Ru14  1  0.242181  0.118121  0.863207  1
  Ru  Ru15  1  0.748755  0.376106  0.625499  1
  Ru  Ru16  1  0.874500  0.250608  0.123256  1
  Ru  Ru17  1  0.121026  0.875938  0.257819  1
  Ru  Ru18  1  0.636793  0.754914  0.378974  1
  Ru  Ru19  1  0.376744  0.627352  0.751245  1
