# generated using pymatgen
data_Y3TmZn4(Ga7Pd3)2
_symmetry_space_group_name_H-M   'P 1'
_cell_length_a   7.60703505
_cell_length_b   7.64147709
_cell_length_c   9.50710100
_cell_angle_alpha   90.00000000
_cell_angle_beta   90.00000000
_cell_angle_gamma   119.34814326
_symmetry_Int_Tables_number   1
_chemical_formula_structural   Y3TmZn4(Ga7Pd3)2
_chemical_formula_sum   'Y3 Tm1 Zn4 Ga14 Pd6'
_cell_volume   481.71130601
_cell_formula_units_Z   1
loop_
 _symmetry_equiv_pos_site_id
 _symmetry_equiv_pos_as_xyz
  1  'x, y, z'
loop_
 _atom_site_type_symbol
 _atom_site_label
 _atom_site_symmetry_multiplicity
 _atom_site_fract_x
 _atom_site_fract_y
 _atom_site_fract_z
 _atom_site_occupancy
  Y  Y0  1  0.004637  0.329666  0.750000  1
  Y  Y1  1  0.672930  0.998028  0.250000  1
  Y  Y2  1  0.326860  0.001804  0.750000  1
  Tm  Tm3  1  0.995786  0.670614  0.250000  1
  Zn  Zn4  1  0.137960  0.136754  0.250000  1
  Zn  Zn5  1  0.861936  0.862450  0.750000  1
  Zn  Zn6  1  0.341492  0.544859  0.250000  1
  Zn  Zn7  1  0.658026  0.455335  0.750000  1
  Ga  Ga8  1  0.009211  0.337964  0.085793  1
  Ga  Ga9  1  0.990869  0.663232  0.915579  1
  Ga  Ga10  1  0.990869  0.663232  0.584421  1
  Ga  Ga11  1  0.331872  0.999922  0.415117  1
  Ga  Ga12  1  0.009211  0.337964  0.414207  1
  Ga  Ga13  1  0.666978  0.998907  0.584240  1
  Ga  Ga14  1  0.666978  0.998907  0.915760  1
  Ga  Ga15  1  0.331872  0.999922  0.084883  1
  Ga  Ga16  1  0.336159  0.333012  0.564631  1
  Ga  Ga17  1  0.664858  0.666957  0.434532  1
  Ga  Ga18  1  0.664858  0.666957  0.065468  1
  Ga  Ga19  1  0.336159  0.333012  0.935369  1
  Ga  Ga20  1  0.539803  0.342493  0.250000  1
  Ga  Ga21  1  0.461087  0.658353  0.750000  1
  Pd  Pd22  1  0.675449  0.325817  0.004124  1
  Pd  Pd23  1  0.324542  0.674477  0.996776  1
  Pd  Pd24  1  0.324542  0.674477  0.503224  1
  Pd  Pd25  1  0.675449  0.325817  0.495876  1
  Pd  Pd26  1  0.999802  0.999533  0.000561  1
  Pd  Pd27  1  0.999802  0.999533  0.499439  1
