# generated using pymatgen
data_TbCe2TcF15
_symmetry_space_group_name_H-M   'P 1'
_cell_length_a   8.55394273
_cell_length_b   8.55394444
_cell_length_c   8.60947800
_cell_angle_alpha   79.67152962
_cell_angle_beta   79.67152073
_cell_angle_gamma   99.53031421
_symmetry_Int_Tables_number   1
_chemical_formula_structural   TbCe2TcF15
_chemical_formula_sum   'Tb2 Ce4 Tc2 F30'
_cell_volume   596.84763905
_cell_formula_units_Z   2
loop_
 _symmetry_equiv_pos_site_id
 _symmetry_equiv_pos_as_xyz
  1  'x, y, z'
loop_
 _atom_site_type_symbol
 _atom_site_label
 _atom_site_symmetry_multiplicity
 _atom_site_fract_x
 _atom_site_fract_y
 _atom_site_fract_z
 _atom_site_occupancy
  Tb  Tb0  1  0.177462  0.822538  0.250000  1
  Tb  Tb1  1  0.822538  0.177462  0.750000  1
  Ce  Ce2  1  0.752649  0.678889  0.673196  1
  Ce  Ce3  1  0.321111  0.247351  0.826804  1
  Ce  Ce4  1  0.247351  0.321111  0.326804  1
  Ce  Ce5  1  0.678889  0.752649  0.173196  1
  Tc  Tc6  1  0.750543  0.249457  0.250000  1
  Tc  Tc7  1  0.249457  0.750543  0.750000  1
  F  F8  1  0.467306  0.532694  0.250000  1
  F  F9  1  0.752399  0.963409  0.965790  1
  F  F10  1  0.036591  0.247601  0.534210  1
  F  F11  1  0.247601  0.036591  0.034210  1
  F  F12  1  0.963409  0.752399  0.465790  1
  F  F13  1  0.532694  0.467306  0.750000  1
  F  F14  1  0.223181  0.515752  0.775654  1
  F  F15  1  0.229939  0.729020  0.982647  1
  F  F16  1  0.014362  0.728614  0.777659  1
  F  F17  1  0.728614  0.014362  0.277659  1
  F  F18  1  0.729020  0.229939  0.482647  1
  F  F19  1  0.515752  0.223181  0.275654  1
  F  F20  1  0.776820  0.484248  0.224346  1
  F  F21  1  0.770061  0.270980  0.017353  1
  F  F22  1  0.985638  0.271386  0.222341  1
  F  F23  1  0.271386  0.985638  0.722341  1
  F  F24  1  0.270980  0.770061  0.517353  1
  F  F25  1  0.484248  0.776819  0.724346  1
  F  F26  1  0.551789  0.156561  0.808574  1
  F  F27  1  0.195893  0.055682  0.343350  1
  F  F28  1  0.652369  0.690686  0.443615  1
  F  F29  1  0.690686  0.652369  0.943615  1
  F  F30  1  0.055682  0.195893  0.843350  1
  F  F31  1  0.156561  0.551789  0.308574  1
  F  F32  1  0.448211  0.843439  0.191426  1
  F  F33  1  0.804107  0.944318  0.656650  1
  F  F34  1  0.347631  0.309314  0.556385  1
  F  F35  1  0.309314  0.347631  0.056385  1
  F  F36  1  0.944318  0.804107  0.156650  1
  F  F37  1  0.843439  0.448211  0.691426  1
