# generated using pymatgen
data_Ca2ErNbN4
_symmetry_space_group_name_H-M   'P 1'
_cell_length_a   5.85906710
_cell_length_b   5.88066331
_cell_length_c   4.92058678
_cell_angle_alpha   65.08808125
_cell_angle_beta   65.44185660
_cell_angle_gamma   49.57531152
_symmetry_Int_Tables_number   1
_chemical_formula_structural   Ca2ErNbN4
_chemical_formula_sum   'Ca2 Er1 Nb1 N4'
_cell_volume   114.53576098
_cell_formula_units_Z   1
loop_
 _symmetry_equiv_pos_site_id
 _symmetry_equiv_pos_as_xyz
  1  'x, y, z'
loop_
 _atom_site_type_symbol
 _atom_site_label
 _atom_site_symmetry_multiplicity
 _atom_site_fract_x
 _atom_site_fract_y
 _atom_site_fract_z
 _atom_site_occupancy
  Ca  Ca0  1  0.251053  0.248803  0.248914  1
  Ca  Ca1  1  0.505207  0.494851  0.494942  1
  Er  Er2  1  0.756880  0.743344  0.742976  1
  Nb  Nb3  1  0.045113  0.954960  0.954950  1
  N  N4  1  0.000652  0.985586  0.566383  1
  N  N5  1  0.197945  0.239047  0.790821  1
  N  N6  1  0.446892  0.566768  0.985716  1
  N  N7  1  0.772191  0.790706  0.239365  1
