# generated using pymatgen
data_Tb3ZnIn4Rh
_symmetry_space_group_name_H-M   'P 1'
_cell_length_a   7.91070100
_cell_length_b   7.91069986
_cell_length_c   3.89312400
_cell_angle_alpha   90.00000000
_cell_angle_beta   90.00000000
_cell_angle_gamma   120.00000059
_symmetry_Int_Tables_number   1
_chemical_formula_structural   Tb3ZnIn4Rh
_chemical_formula_sum   'Tb3 Zn1 In4 Rh1'
_cell_volume   210.98847975
_cell_formula_units_Z   1
loop_
 _symmetry_equiv_pos_site_id
 _symmetry_equiv_pos_as_xyz
  1  'x, y, z'
loop_
 _atom_site_type_symbol
 _atom_site_label
 _atom_site_symmetry_multiplicity
 _atom_site_fract_x
 _atom_site_fract_y
 _atom_site_fract_z
 _atom_site_occupancy
  Tb  Tb0  1  0.299293  0.253330  0.500000  1
  Tb  Tb1  1  0.746670  0.045962  0.500000  1
  Tb  Tb2  1  0.954038  0.700707  0.500000  1
  Zn  Zn3  1  0.333333  0.666667  0.500000  1
  In  In4  1  0.069964  0.405113  0.000000  1
  In  In5  1  0.594887  0.664850  0.000000  1
  In  In6  1  0.335150  0.930036  0.000000  1
  In  In7  1  0.666667  0.333333  0.000000  1
  Rh  Rh8  1  0.000000  0.000000  0.000000  1
