# generated using pymatgen
data_Ho2MnCoSi2C
_symmetry_space_group_name_H-M   'P 1'
_cell_length_a   5.62835205
_cell_length_b   5.62835215
_cell_length_c   6.72050342
_cell_angle_alpha   126.57763720
_cell_angle_beta   126.57763454
_cell_angle_gamma   40.70821715
_symmetry_Int_Tables_number   1
_chemical_formula_structural   Ho2MnCoSi2C
_chemical_formula_sum   'Ho2 Mn1 Co1 Si2 C1'
_cell_volume   107.19602911
_cell_formula_units_Z   1
loop_
 _symmetry_equiv_pos_site_id
 _symmetry_equiv_pos_as_xyz
  1  'x, y, z'
loop_
 _atom_site_type_symbol
 _atom_site_label
 _atom_site_symmetry_multiplicity
 _atom_site_fract_x
 _atom_site_fract_y
 _atom_site_fract_z
 _atom_site_occupancy
  Ho  Ho0  1  0.559773  0.559773  0.293442  1
  Ho  Ho1  1  0.439088  0.439088  0.707294  1
  Mn  Mn2  1  0.200702  0.200702  0.094508  1
  Co  Co3  1  0.795958  0.795958  0.902190  1
  Si  Si4  1  0.842685  0.842685  0.288874  1
  Si  Si5  1  0.158451  0.158451  0.709059  1
  C  C6  1  0.003343  0.003343  0.004636  1
