# generated using pymatgen
data_AcCd2
_symmetry_space_group_name_H-M   'P 1'
_cell_length_a   6.45221339
_cell_length_b   6.45221380
_cell_length_c   6.45221335
_cell_angle_alpha   132.73514686
_cell_angle_beta   102.92202938
_cell_angle_gamma   95.61046145
_symmetry_Int_Tables_number   1
_chemical_formula_structural   AcCd2
_chemical_formula_sum   'Ac2 Cd4'
_cell_volume   180.24069726
_cell_formula_units_Z   2
loop_
 _symmetry_equiv_pos_site_id
 _symmetry_equiv_pos_as_xyz
  1  'x, y, z'
loop_
 _atom_site_type_symbol
 _atom_site_label
 _atom_site_symmetry_multiplicity
 _atom_site_fract_x
 _atom_site_fract_y
 _atom_site_fract_z
 _atom_site_occupancy
  Ac  Ac0  1  0.720225  0.970225  0.750000  1
  Ac  Ac1  1  0.279775  0.029775  0.250000  1
  Cd  Cd2  1  0.716061  0.666346  0.049715  1
  Cd  Cd3  1  0.883370  0.333654  0.549715  1
  Cd  Cd4  1  0.283939  0.333654  0.950285  1
  Cd  Cd5  1  0.116630  0.666346  0.450285  1
