# generated using pymatgen
data_Y18Tm2(Ir3Os)3
_symmetry_space_group_name_H-M   'P 1'
_cell_length_a   10.90441100
_cell_length_b   10.90544600
_cell_length_c   6.42970400
_cell_angle_alpha   90.00000000
_cell_angle_beta   90.00000000
_cell_angle_gamma   90.00027321
_symmetry_Int_Tables_number   1
_chemical_formula_structural   Y18Tm2(Ir3Os)3
_chemical_formula_sum   'Y18 Tm2 Ir9 Os3'
_cell_volume   764.60410245
_cell_formula_units_Z   1
loop_
 _symmetry_equiv_pos_site_id
 _symmetry_equiv_pos_as_xyz
  1  'x, y, z'
loop_
 _atom_site_type_symbol
 _atom_site_label
 _atom_site_symmetry_multiplicity
 _atom_site_fract_x
 _atom_site_fract_y
 _atom_site_fract_z
 _atom_site_occupancy
  Y  Y0  1  0.293031  0.086303  0.377505  1
  Y  Y1  1  0.293043  0.913943  0.877669  1
  Y  Y2  1  0.706957  0.086057  0.877669  1
  Y  Y3  1  0.706969  0.913697  0.377505  1
  Y  Y4  1  0.586334  0.794003  0.877859  1
  Y  Y5  1  0.586600  0.206021  0.377707  1
  Y  Y6  1  0.413400  0.793979  0.377707  1
  Y  Y7  1  0.413666  0.205997  0.877859  1
  Y  Y8  1  0.207878  0.412815  0.623943  1
  Y  Y9  1  0.207355  0.587308  0.119972  1
  Y  Y10  1  0.792645  0.412692  0.119972  1
  Y  Y11  1  0.792122  0.587185  0.623943  1
  Y  Y12  1  0.912986  0.708380  0.120152  1
  Y  Y13  1  0.913122  0.291168  0.624133  1
  Y  Y14  1  0.086878  0.708832  0.624133  1
  Y  Y15  1  0.087014  0.291620  0.120152  1
  Y  Y16  1  0.500000  0.500000  0.999906  1
  Y  Y17  1  0.500000  0.500000  0.499589  1
  Tm  Tm18  1  0.000000  0.000000  0.499630  1
  Tm  Tm19  1  0.000000  0.000000  0.999898  1
  Ir  Ir20  1  0.850527  0.150915  0.250284  1
  Ir  Ir21  1  0.850294  0.849336  0.749651  1
  Ir  Ir22  1  0.149706  0.150664  0.749651  1
  Ir  Ir23  1  0.149473  0.849085  0.250284  1
  Ir  Ir24  1  0.653048  0.347969  0.749632  1
  Ir  Ir25  1  0.653319  0.651781  0.250248  1
  Ir  Ir26  1  0.346681  0.348219  0.250248  1
  Ir  Ir27  1  0.346952  0.652031  0.749632  1
  Ir  Ir28  1  0.000000  0.500000  0.377114  1
  Os  Os29  1  0.500000  0.000000  0.125645  1
  Os  Os30  1  0.500000  0.000000  0.625209  1
  Os  Os31  1  0.000000  0.500000  0.875499  1
