# generated using pymatgen
data_La7SmSc12Si15Ge
_symmetry_space_group_name_H-M   'P 1'
_cell_length_a   7.31156770
_cell_length_b   7.59163653
_cell_length_c   14.32273264
_cell_angle_alpha   89.88345024
_cell_angle_beta   89.89168366
_cell_angle_gamma   90.14741790
_symmetry_Int_Tables_number   1
_chemical_formula_structural   La7SmSc12Si15Ge
_chemical_formula_sum   'La7 Sm1 Sc12 Si15 Ge1'
_cell_volume   795.00284272
_cell_formula_units_Z   1
loop_
 _symmetry_equiv_pos_site_id
 _symmetry_equiv_pos_as_xyz
  1  'x, y, z'
loop_
 _atom_site_type_symbol
 _atom_site_label
 _atom_site_symmetry_multiplicity
 _atom_site_fract_x
 _atom_site_fract_y
 _atom_site_fract_z
 _atom_site_occupancy
  La  La0  1  0.011732  0.171152  0.097822  1
  La  La1  1  0.987962  0.829454  0.901416  1
  La  La2  1  0.488683  0.670169  0.902264  1
  La  La3  1  0.988792  0.829584  0.597702  1
  La  La4  1  0.510611  0.329845  0.097522  1
  La  La5  1  0.011993  0.169652  0.402843  1
  La  La6  1  0.511029  0.327421  0.402486  1
  Sm  Sm7  1  0.491925  0.675042  0.600298  1
  Sc  Sc8  1  0.159845  0.497953  0.750236  1
  Sc  Sc9  1  0.839926  0.504092  0.250405  1
  Sc  Sc10  1  0.340979  0.994615  0.250415  1
  Sc  Sc11  1  0.659386  0.004117  0.748817  1
  Sc  Sc12  1  0.334126  0.173782  0.626753  1
  Sc  Sc13  1  0.666826  0.823069  0.374993  1
  Sc  Sc14  1  0.169595  0.675648  0.375210  1
  Sc  Sc15  1  0.669692  0.824540  0.125299  1
  Sc  Sc16  1  0.828755  0.326121  0.624529  1
  Sc  Sc17  1  0.330242  0.175105  0.873089  1
  Sc  Sc18  1  0.830131  0.324916  0.873740  1
  Sc  Sc19  1  0.168208  0.675884  0.125181  1
  Si  Si20  1  0.033301  0.129491  0.749289  1
  Si  Si21  1  0.965471  0.871631  0.250230  1
  Si  Si22  1  0.464224  0.627945  0.249939  1
  Si  Si23  1  0.534351  0.375400  0.748963  1
  Si  Si24  1  0.291547  0.882472  0.749090  1
  Si  Si25  1  0.710291  0.113216  0.250022  1
  Si  Si26  1  0.209229  0.386606  0.250227  1
  Si  Si27  1  0.788294  0.615610  0.748259  1
  Si  Si28  1  0.842676  0.538922  0.459469  1
  Si  Si29  1  0.350143  0.958745  0.462056  1
  Si  Si30  1  0.849489  0.537165  0.039778  1
  Si  Si31  1  0.649990  0.033975  0.540997  1
  Si  Si32  1  0.149494  0.463031  0.959419  1
  Si  Si33  1  0.649446  0.037672  0.959766  1
  Si  Si34  1  0.350116  0.963208  0.039380  1
  Ge  Ge35  1  0.161499  0.462748  0.542095  1
