# generated using pymatgen
data_NdNiSb2Rh
_symmetry_space_group_name_H-M   'P 1'
_cell_length_a   4.50676300
_cell_length_b   4.50676300
_cell_length_c   10.28193700
_cell_angle_alpha   90.00000000
_cell_angle_beta   90.00000000
_cell_angle_gamma   90.00000000
_symmetry_Int_Tables_number   1
_chemical_formula_structural   NdNiSb2Rh
_chemical_formula_sum   'Nd2 Ni2 Sb4 Rh2'
_cell_volume   208.83552519
_cell_formula_units_Z   2
loop_
 _symmetry_equiv_pos_site_id
 _symmetry_equiv_pos_as_xyz
  1  'x, y, z'
loop_
 _atom_site_type_symbol
 _atom_site_label
 _atom_site_symmetry_multiplicity
 _atom_site_fract_x
 _atom_site_fract_y
 _atom_site_fract_z
 _atom_site_occupancy
  Nd  Nd0  1  0.000000  0.500000  0.753165  1
  Nd  Nd1  1  0.500000  0.000000  0.246835  1
  Ni  Ni2  1  0.000000  0.500000  0.381289  1
  Ni  Ni3  1  0.500000  0.000000  0.618711  1
  Sb  Sb4  1  0.000000  0.500000  0.138226  1
  Sb  Sb5  1  0.500000  0.000000  0.861774  1
  Sb  Sb6  1  0.500000  0.500000  0.500000  1
  Sb  Sb7  1  0.000000  0.000000  0.500000  1
  Rh  Rh8  1  0.500000  0.500000  0.000000  1
  Rh  Rh9  1  0.000000  0.000000  0.000000  1
