# generated using pymatgen
data_Tm7ScV(B8Rh)3
_symmetry_space_group_name_H-M   'P 1'
_cell_length_a   3.58142900
_cell_length_b   9.06514476
_cell_length_c   11.43835968
_cell_angle_alpha   90.24217760
_cell_angle_beta   90.00000000
_cell_angle_gamma   90.00000000
_symmetry_Int_Tables_number   1
_chemical_formula_structural   Tm7ScV(B8Rh)3
_chemical_formula_sum   'Tm7 Sc1 V1 B24 Rh3'
_cell_volume   371.35643923
_cell_formula_units_Z   1
loop_
 _symmetry_equiv_pos_site_id
 _symmetry_equiv_pos_as_xyz
  1  'x, y, z'
loop_
 _atom_site_type_symbol
 _atom_site_label
 _atom_site_symmetry_multiplicity
 _atom_site_fract_x
 _atom_site_fract_y
 _atom_site_fract_z
 _atom_site_occupancy
  Tm  Tm0  1  0.000000  0.946445  0.372108  1
  Tm  Tm1  1  0.000000  0.055960  0.628024  1
  Tm  Tm2  1  0.000000  0.555795  0.874654  1
  Tm  Tm3  1  0.000000  0.179283  0.918864  1
  Tm  Tm4  1  0.000000  0.823556  0.087574  1
  Tm  Tm5  1  0.000000  0.677110  0.584316  1
  Tm  Tm6  1  0.000000  0.319162  0.409243  1
  Sc  Sc7  1  0.000000  0.442070  0.125953  1
  V  V8  1  0.000000  0.141416  0.178946  1
  B  B9  1  0.500000  0.368103  0.818791  1
  B  B10  1  0.500000  0.981255  0.212162  1
  B  B11  1  0.500000  0.552212  0.433018  1
  B  B12  1  0.500000  0.296910  0.234246  1
  B  B13  1  0.500000  0.207660  0.737303  1
  B  B14  1  0.500000  0.108636  0.471517  1
  B  B15  1  0.500000  0.792427  0.263972  1
  B  B16  1  0.500000  0.446273  0.564896  1
  B  B17  1  0.500000  0.250518  0.579029  1
  B  B18  1  0.500000  0.480440  0.285297  1
  B  B19  1  0.500000  0.705810  0.764545  1
  B  B20  1  0.500000  0.749059  0.419550  1
  B  B21  1  0.500000  0.517965  0.712967  1
  B  B22  1  0.500000  0.890875  0.529897  1
  B  B23  1  0.500000  0.053770  0.065135  1
  B  B24  1  0.500000  0.602944  0.030115  1
  B  B25  1  0.500000  0.750113  0.921847  1
  B  B26  1  0.500000  0.017875  0.787971  1
  B  B27  1  0.500000  0.397449  0.973240  1
  B  B28  1  0.500000  0.947529  0.934415  1
  B  B29  1  0.500000  0.629251  0.182453  1
  B  B30  1  0.500000  0.253517  0.079816  1
  B  B31  1  0.500000  0.866561  0.683111  1
  B  B32  1  0.500000  0.133273  0.315242  1
  Rh  Rh33  1  0.000000  0.361783  0.680099  1
  Rh  Rh34  1  0.000000  0.859340  0.820524  1
  Rh  Rh35  1  0.000000  0.637653  0.319165  1
