# generated using pymatgen
data_TmTh7(MnSi3)4
_symmetry_space_group_name_H-M   'P 1'
_cell_length_a   8.22723700
_cell_length_b   8.22723654
_cell_length_c   8.19728100
_cell_angle_alpha   90.00000000
_cell_angle_beta   90.00000000
_cell_angle_gamma   119.99999784
_symmetry_Int_Tables_number   1
_chemical_formula_structural   TmTh7(MnSi3)4
_chemical_formula_sum   'Tm1 Th7 Mn4 Si12'
_cell_volume   480.51666673
_cell_formula_units_Z   1
loop_
 _symmetry_equiv_pos_site_id
 _symmetry_equiv_pos_as_xyz
  1  'x, y, z'
loop_
 _atom_site_type_symbol
 _atom_site_label
 _atom_site_symmetry_multiplicity
 _atom_site_fract_x
 _atom_site_fract_y
 _atom_site_fract_z
 _atom_site_occupancy
  Tm  Tm0  1  0.000000  0.000000  0.750000  1
  Th  Th1  1  0.500381  0.000760  0.250000  1
  Th  Th2  1  0.499422  0.998846  0.750000  1
  Th  Th3  1  0.999240  0.499619  0.250000  1
  Th  Th4  1  0.001154  0.500578  0.750000  1
  Th  Th5  1  0.500381  0.499619  0.250000  1
  Th  Th6  1  0.499422  0.500578  0.750000  1
  Th  Th7  1  0.000000  0.000000  0.250000  1
  Mn  Mn8  1  0.333333  0.666667  0.002110  1
  Mn  Mn9  1  0.666667  0.333333  0.997638  1
  Mn  Mn10  1  0.666667  0.333333  0.502362  1
  Mn  Mn11  1  0.333333  0.666667  0.497890  1
  Si  Si12  1  0.167900  0.335800  0.998067  1
  Si  Si13  1  0.832172  0.664343  0.996895  1
  Si  Si14  1  0.664200  0.832100  0.998067  1
  Si  Si15  1  0.832172  0.664343  0.503105  1
  Si  Si16  1  0.335657  0.167828  0.996895  1
  Si  Si17  1  0.167900  0.335800  0.501933  1
  Si  Si18  1  0.167900  0.832100  0.998067  1
  Si  Si19  1  0.335657  0.167828  0.503105  1
  Si  Si20  1  0.832172  0.167828  0.996895  1
  Si  Si21  1  0.664200  0.832100  0.501933  1
  Si  Si22  1  0.832172  0.167828  0.503105  1
  Si  Si23  1  0.167900  0.832100  0.501933  1
