# generated using pymatgen
data_Mg3SiGeRh2
_symmetry_space_group_name_H-M   'P 1'
_cell_length_a   5.33659900
_cell_length_b   7.09947600
_cell_length_c   13.01001700
_cell_angle_alpha   90.00000000
_cell_angle_beta   90.00000000
_cell_angle_gamma   90.00000000
_symmetry_Int_Tables_number   1
_chemical_formula_structural   Mg3SiGeRh2
_chemical_formula_sum   'Mg12 Si4 Ge4 Rh8'
_cell_volume   492.91124943
_cell_formula_units_Z   4
loop_
 _symmetry_equiv_pos_site_id
 _symmetry_equiv_pos_as_xyz
  1  'x, y, z'
loop_
 _atom_site_type_symbol
 _atom_site_label
 _atom_site_symmetry_multiplicity
 _atom_site_fract_x
 _atom_site_fract_y
 _atom_site_fract_z
 _atom_site_occupancy
  Mg  Mg0  1  0.614198  0.241204  0.250000  1
  Mg  Mg1  1  0.385802  0.758796  0.750000  1
  Mg  Mg2  1  0.385802  0.741204  0.250000  1
  Mg  Mg3  1  0.614198  0.258796  0.750000  1
  Mg  Mg4  1  0.139080  0.395306  0.094398  1
  Mg  Mg5  1  0.860920  0.604694  0.905602  1
  Mg  Mg6  1  0.860920  0.604694  0.594398  1
  Mg  Mg7  1  0.860920  0.895306  0.405602  1
  Mg  Mg8  1  0.139080  0.395306  0.405602  1
  Mg  Mg9  1  0.139080  0.104694  0.594398  1
  Mg  Mg10  1  0.139080  0.104694  0.905602  1
  Mg  Mg11  1  0.860920  0.895306  0.094398  1
  Si  Si12  1  0.604084  0.250000  0.000000  1
  Si  Si13  1  0.395916  0.750000  0.000000  1
  Si  Si14  1  0.395916  0.750000  0.500000  1
  Si  Si15  1  0.604084  0.250000  0.500000  1
  Ge  Ge16  1  0.105334  0.090804  0.250000  1
  Ge  Ge17  1  0.894666  0.909196  0.750000  1
  Ge  Ge18  1  0.894666  0.590804  0.250000  1
  Ge  Ge19  1  0.105334  0.409196  0.750000  1
  Rh  Rh20  1  0.355348  0.029008  0.093589  1
  Rh  Rh21  1  0.644652  0.970992  0.906411  1
  Rh  Rh22  1  0.644652  0.970992  0.593589  1
  Rh  Rh23  1  0.644652  0.529008  0.406411  1
  Rh  Rh24  1  0.355348  0.029008  0.406411  1
  Rh  Rh25  1  0.355348  0.470992  0.593589  1
  Rh  Rh26  1  0.355348  0.470992  0.906411  1
  Rh  Rh27  1  0.644652  0.529008  0.093589  1
