# generated using pymatgen
data_La3USi10OsPt5
_symmetry_space_group_name_H-M   'P 1'
_cell_length_a   8.31172039
_cell_length_b   8.29773206
_cell_length_c   6.06620330
_cell_angle_alpha   68.58967904
_cell_angle_beta   68.63735184
_cell_angle_gamma   90.08698472
_symmetry_Int_Tables_number   1
_chemical_formula_structural   La3USi10OsPt5
_chemical_formula_sum   'La3 U1 Si10 Os1 Pt5'
_cell_volume   358.35212321
_cell_formula_units_Z   1
loop_
 _symmetry_equiv_pos_site_id
 _symmetry_equiv_pos_as_xyz
  1  'x, y, z'
loop_
 _atom_site_type_symbol
 _atom_site_label
 _atom_site_symmetry_multiplicity
 _atom_site_fract_x
 _atom_site_fract_y
 _atom_site_fract_z
 _atom_site_occupancy
  La  La0  1  0.863634  0.601984  0.766810  1
  La  La1  1  0.396893  0.139101  0.733412  1
  La  La2  1  0.138075  0.395138  0.232640  1
  U  U3  1  0.598721  0.863293  0.271031  1
  Si  Si4  1  0.038355  0.258653  0.856450  1
  Si  Si5  1  0.741370  0.961082  0.644031  1
  Si  Si6  1  0.953080  0.744021  0.154771  1
  Si  Si7  1  0.261717  0.033719  0.346685  1
  Si  Si8  1  0.233484  0.771046  0.746132  1
  Si  Si9  1  0.775952  0.219479  0.249704  1
  Si  Si10  1  0.500650  0.505548  0.745582  1
  Si  Si11  1  0.501096  0.505907  0.249343  1
  Si  Si12  1  0.771366  0.225253  0.754672  1
  Si  Si13  1  0.225032  0.776721  0.248856  1
  Os  Os14  1  0.998916  0.998149  0.248441  1
  Pt  Pt15  1  0.253355  0.526218  0.607820  1
  Pt  Pt16  1  0.475562  0.750652  0.890363  1
  Pt  Pt17  1  0.746342  0.471988  0.389328  1
  Pt  Pt18  1  0.526206  0.252867  0.113212  1
  Pt  Pt19  1  0.000195  0.999181  0.750715  1
