# generated using pymatgen
data_Tb5CoPtO12
_symmetry_space_group_name_H-M   'P 1'
_cell_length_a   6.87103506
_cell_length_b   6.87103543
_cell_length_c   7.25682058
_cell_angle_alpha   74.61552708
_cell_angle_beta   74.61552743
_cell_angle_gamma   50.83872777
_symmetry_Int_Tables_number   1
_chemical_formula_structural   Tb5CoPtO12
_chemical_formula_sum   'Tb5 Co1 Pt1 O12'
_cell_volume   253.92629114
_cell_formula_units_Z   1
loop_
 _symmetry_equiv_pos_site_id
 _symmetry_equiv_pos_as_xyz
  1  'x, y, z'
loop_
 _atom_site_type_symbol
 _atom_site_label
 _atom_site_symmetry_multiplicity
 _atom_site_fract_x
 _atom_site_fract_y
 _atom_site_fract_z
 _atom_site_occupancy
  Tb  Tb0  1  0.690984  0.695250  0.666098  1
  Tb  Tb1  1  0.689912  0.704963  0.141677  1
  Tb  Tb2  1  0.002301  0.997699  0.000000  1
  Tb  Tb3  1  0.295037  0.310088  0.858323  1
  Tb  Tb4  1  0.304750  0.309016  0.333902  1
  Co  Co5  1  0.251959  0.748041  0.500000  1
  Pt  Pt6  1  0.759611  0.240389  0.500000  1
  O  O7  1  0.398795  0.906670  0.925672  1
  O  O8  1  0.570416  0.096043  0.582675  1
  O  O9  1  0.903957  0.429584  0.417325  1
  O  O10  1  0.093330  0.601205  0.074328  1
  O  O11  1  0.018593  0.982200  0.324129  1
  O  O12  1  0.492374  0.507213  0.678996  1
  O  O13  1  0.898893  0.403743  0.925204  1
  O  O14  1  0.101926  0.579680  0.580343  1
  O  O15  1  0.420320  0.898074  0.419657  1
  O  O16  1  0.596257  0.101107  0.074796  1
  O  O17  1  0.492787  0.507626  0.321004  1
  O  O18  1  0.017800  0.981407  0.675871  1
