# generated using pymatgen
data_CePa3(CoP)4
_symmetry_space_group_name_H-M   'P 1'
_cell_length_a   3.87257600
_cell_length_b   7.71888857
_cell_length_c   6.75581730
_cell_angle_alpha   89.88828485
_cell_angle_beta   90.00000000
_cell_angle_gamma   90.00000000
_symmetry_Int_Tables_number   1
_chemical_formula_structural   CePa3(CoP)4
_chemical_formula_sum   'Ce1 Pa3 Co4 P4'
_cell_volume   201.94438939
_cell_formula_units_Z   1
loop_
 _symmetry_equiv_pos_site_id
 _symmetry_equiv_pos_as_xyz
  1  'x, y, z'
loop_
 _atom_site_type_symbol
 _atom_site_label
 _atom_site_symmetry_multiplicity
 _atom_site_fract_x
 _atom_site_fract_y
 _atom_site_fract_z
 _atom_site_occupancy
  Ce  Ce0  1  0.250000  0.999902  0.750238  1
  Pa  Pa1  1  0.250000  0.499875  0.749905  1
  Pa  Pa2  1  0.750000  0.000041  0.249958  1
  Pa  Pa3  1  0.750000  0.500106  0.249991  1
  Co  Co4  1  0.250000  0.273091  0.412426  1
  Co  Co5  1  0.250000  0.727284  0.087616  1
  Co  Co6  1  0.750000  0.721624  0.583413  1
  Co  Co7  1  0.750000  0.278134  0.916452  1
  P  P8  1  0.250000  0.237499  0.082268  1
  P  P9  1  0.250000  0.762687  0.417771  1
  P  P10  1  0.750000  0.759847  0.918190  1
  P  P11  1  0.750000  0.239911  0.581771  1
