# generated using pymatgen
data_Lu8B24IrRh3
_symmetry_space_group_name_H-M   'P 1'
_cell_length_a   3.58873400
_cell_length_b   9.07300605
_cell_length_c   11.39187632
_cell_angle_alpha   90.05516948
_cell_angle_beta   90.00000000
_cell_angle_gamma   90.00000000
_symmetry_Int_Tables_number   1
_chemical_formula_structural   Lu8B24IrRh3
_chemical_formula_sum   'Lu8 B24 Ir1 Rh3'
_cell_volume   370.92621653
_cell_formula_units_Z   1
loop_
 _symmetry_equiv_pos_site_id
 _symmetry_equiv_pos_as_xyz
  1  'x, y, z'
loop_
 _atom_site_type_symbol
 _atom_site_label
 _atom_site_symmetry_multiplicity
 _atom_site_fract_x
 _atom_site_fract_y
 _atom_site_fract_z
 _atom_site_occupancy
  Lu  Lu0  1  0.500000  0.321344  0.414571  1
  Lu  Lu1  1  0.500000  0.678650  0.586223  1
  Lu  Lu2  1  0.500000  0.179739  0.912829  1
  Lu  Lu3  1  0.500000  0.819808  0.086097  1
  Lu  Lu4  1  0.500000  0.444876  0.126474  1
  Lu  Lu5  1  0.500000  0.555975  0.872880  1
  Lu  Lu6  1  0.500000  0.055999  0.626976  1
  Lu  Lu7  1  0.500000  0.943256  0.374087  1
  B  B8  1  0.000000  0.107349  0.470990  1
  B  B9  1  0.000000  0.892129  0.529313  1
  B  B10  1  0.000000  0.392990  0.970798  1
  B  B11  1  0.000000  0.607312  0.028869  1
  B  B12  1  0.000000  0.132055  0.317163  1
  B  B13  1  0.000000  0.867537  0.683125  1
  B  B14  1  0.000000  0.367542  0.816812  1
  B  B15  1  0.000000  0.632676  0.182696  1
  B  B16  1  0.000000  0.054243  0.064670  1
  B  B17  1  0.000000  0.946065  0.935393  1
  B  B18  1  0.000000  0.446253  0.564591  1
  B  B19  1  0.000000  0.553390  0.435371  1
  B  B20  1  0.000000  0.481393  0.286942  1
  B  B21  1  0.000000  0.518690  0.713022  1
  B  B22  1  0.000000  0.018678  0.786821  1
  B  B23  1  0.000000  0.981542  0.213617  1
  B  B24  1  0.000000  0.250619  0.078558  1
  B  B25  1  0.000000  0.749591  0.921041  1
  B  B26  1  0.000000  0.249898  0.579035  1
  B  B27  1  0.000000  0.749760  0.421161  1
  B  B28  1  0.000000  0.294721  0.236352  1
  B  B29  1  0.000000  0.705271  0.763233  1
  B  B30  1  0.000000  0.205167  0.736898  1
  B  B31  1  0.000000  0.794625  0.263037  1
  Ir  Ir32  1  0.500000  0.139456  0.178985  1
  Rh  Rh33  1  0.500000  0.861212  0.821953  1
  Rh  Rh34  1  0.500000  0.360657  0.679186  1
  Rh  Rh35  1  0.500000  0.639533  0.320231  1
