# generated using pymatgen
data_Sm2Er7Tm(In2Pt)4
_symmetry_space_group_name_H-M   'P 1'
_cell_length_a   3.60044400
_cell_length_b   8.16768225
_cell_length_c   18.27606436
_cell_angle_alpha   89.88353744
_cell_angle_beta   90.00000000
_cell_angle_gamma   90.00000000
_symmetry_Int_Tables_number   1
_chemical_formula_structural   Sm2Er7Tm(In2Pt)4
_chemical_formula_sum   'Sm2 Er7 Tm1 In8 Pt4'
_cell_volume   537.44827851
_cell_formula_units_Z   1
loop_
 _symmetry_equiv_pos_site_id
 _symmetry_equiv_pos_as_xyz
  1  'x, y, z'
loop_
 _atom_site_type_symbol
 _atom_site_label
 _atom_site_symmetry_multiplicity
 _atom_site_fract_x
 _atom_site_fract_y
 _atom_site_fract_z
 _atom_site_occupancy
  Sm  Sm0  1  0.000000  0.000068  0.000069  1
  Sm  Sm1  1  0.000000  0.500251  0.499818  1
  Er  Er2  1  0.000000  0.880839  0.585943  1
  Er  Er3  1  0.000000  0.380845  0.914097  1
  Er  Er4  1  0.000000  0.619139  0.086118  1
  Er  Er5  1  0.000000  0.241890  0.219637  1
  Er  Er6  1  0.000000  0.758040  0.780412  1
  Er  Er7  1  0.000000  0.258045  0.719589  1
  Er  Er8  1  0.000000  0.741654  0.280430  1
  Tm  Tm9  1  0.000000  0.119129  0.413509  1
  In  In10  1  0.500000  0.421153  0.348865  1
  In  In11  1  0.500000  0.578406  0.651247  1
  In  In12  1  0.500000  0.078036  0.848793  1
  In  In13  1  0.500000  0.921746  0.151358  1
  In  In14  1  0.500000  0.297740  0.067106  1
  In  In15  1  0.500000  0.702280  0.933249  1
  In  In16  1  0.500000  0.201863  0.566420  1
  In  In17  1  0.500000  0.798634  0.432987  1
  Pt  Pt18  1  0.500000  0.025179  0.303906  1
  Pt  Pt19  1  0.500000  0.975252  0.696383  1
  Pt  Pt20  1  0.500000  0.475087  0.803699  1
  Pt  Pt21  1  0.500000  0.524724  0.196367  1
