# generated using pymatgen
data_TbPa(Al5Os)4
_symmetry_space_group_name_H-M   'P 1'
_cell_length_a   6.86162323
_cell_length_b   6.86162337
_cell_length_c   9.15550400
_cell_angle_alpha   90.00000000
_cell_angle_beta   90.00000000
_cell_angle_gamma   97.15930520
_symmetry_Int_Tables_number   1
_chemical_formula_structural   TbPa(Al5Os)4
_chemical_formula_sum   'Tb1 Pa1 Al20 Os4'
_cell_volume   427.69752995
_cell_formula_units_Z   1
loop_
 _symmetry_equiv_pos_site_id
 _symmetry_equiv_pos_as_xyz
  1  'x, y, z'
loop_
 _atom_site_type_symbol
 _atom_site_label
 _atom_site_symmetry_multiplicity
 _atom_site_fract_x
 _atom_site_fract_y
 _atom_site_fract_z
 _atom_site_occupancy
  Tb  Tb0  1  0.131134  0.868866  0.250000  1
  Pa  Pa1  1  0.872422  0.127578  0.750000  1
  Al  Al2  1  0.517060  0.781464  0.750000  1
  Al  Al3  1  0.782023  0.517794  0.250000  1
  Al  Al4  1  0.482206  0.217977  0.250000  1
  Al  Al5  1  0.218536  0.482940  0.750000  1
  Al  Al6  1  0.622609  0.377391  0.952885  1
  Al  Al7  1  0.375394  0.624606  0.046079  1
  Al  Al8  1  0.622609  0.377391  0.547115  1
  Al  Al9  1  0.375394  0.624606  0.453921  1
  Al  Al10  1  0.410182  0.146236  0.750000  1
  Al  Al11  1  0.148731  0.417665  0.250000  1
  Al  Al12  1  0.582335  0.851269  0.250000  1
  Al  Al13  1  0.853764  0.589818  0.750000  1
  Al  Al14  1  0.843628  0.156372  0.396839  1
  Al  Al15  1  0.154056  0.845944  0.601324  1
  Al  Al16  1  0.843628  0.156372  0.103161  1
  Al  Al17  1  0.154056  0.845944  0.898676  1
  Al  Al18  1  0.778647  0.776223  0.001291  1
  Al  Al19  1  0.778647  0.776223  0.498709  1
  Al  Al20  1  0.223777  0.221353  0.001291  1
  Al  Al21  1  0.223777  0.221353  0.498709  1
  Os  Os22  1  0.503544  0.000851  0.997896  1
  Os  Os23  1  0.999149  0.496456  0.997896  1
  Os  Os24  1  0.503544  0.000851  0.502104  1
  Os  Os25  1  0.999149  0.496456  0.502104  1
