# generated using pymatgen
data_Sc2UCoSn3Ir2
_symmetry_space_group_name_H-M   'P 1'
_cell_length_a   7.37481975
_cell_length_b   7.50093987
_cell_length_c   3.66273000
_cell_angle_alpha   90.00000000
_cell_angle_beta   90.00000000
_cell_angle_gamma   120.56735759
_symmetry_Int_Tables_number   1
_chemical_formula_structural   Sc2UCoSn3Ir2
_chemical_formula_sum   'Sc2 U1 Co1 Sn3 Ir2'
_cell_volume   174.45814083
_cell_formula_units_Z   1
loop_
 _symmetry_equiv_pos_site_id
 _symmetry_equiv_pos_as_xyz
  1  'x, y, z'
loop_
 _atom_site_type_symbol
 _atom_site_label
 _atom_site_symmetry_multiplicity
 _atom_site_fract_x
 _atom_site_fract_y
 _atom_site_fract_z
 _atom_site_occupancy
  Sc  Sc0  1  0.401684  0.401522  0.500000  1
  Sc  Sc1  1  0.598316  0.999838  0.500000  1
  U  U2  1  0.000000  0.591846  0.500000  1
  Co  Co3  1  0.000000  0.984214  0.500000  1
  Sn  Sn4  1  0.728264  0.745844  0.000000  1
  Sn  Sn5  1  0.271736  0.017580  0.000000  1
  Sn  Sn6  1  0.000000  0.238056  0.000000  1
  Ir  Ir7  1  0.691409  0.356254  0.000000  1
  Ir  Ir8  1  0.308591  0.664847  0.000000  1
