# generated using pymatgen
data_La2Ga3GeRh4
_symmetry_space_group_name_H-M   'P 1'
_cell_length_a   4.32321000
_cell_length_b   4.32321000
_cell_length_c   10.26729800
_cell_angle_alpha   90.00000000
_cell_angle_beta   90.00000000
_cell_angle_gamma   90.00000000
_symmetry_Int_Tables_number   1
_chemical_formula_structural   La2Ga3GeRh4
_chemical_formula_sum   'La2 Ga3 Ge1 Rh4'
_cell_volume   191.89728534
_cell_formula_units_Z   1
loop_
 _symmetry_equiv_pos_site_id
 _symmetry_equiv_pos_as_xyz
  1  'x, y, z'
loop_
 _atom_site_type_symbol
 _atom_site_label
 _atom_site_symmetry_multiplicity
 _atom_site_fract_x
 _atom_site_fract_y
 _atom_site_fract_z
 _atom_site_occupancy
  La  La0  1  0.000000  0.500000  0.244006  1
  La  La1  1  0.500000  0.000000  0.753538  1
  Ga  Ga2  1  0.000000  0.000000  0.499345  1
  Ga  Ga3  1  0.500000  0.500000  0.499345  1
  Ga  Ga4  1  0.000000  0.500000  0.875651  1
  Ge  Ge5  1  0.500000  0.000000  0.123715  1
  Rh  Rh6  1  0.000000  0.000000  0.003428  1
  Rh  Rh7  1  0.500000  0.500000  0.003428  1
  Rh  Rh8  1  0.000000  0.500000  0.629256  1
  Rh  Rh9  1  0.500000  0.000000  0.368290  1
