# generated using pymatgen
data_YbTm3(Si4Tc3)2
_symmetry_space_group_name_H-M   'P 1'
_cell_length_a   6.78284873
_cell_length_b   6.67293121
_cell_length_c   6.77089066
_cell_angle_alpha   70.32312939
_cell_angle_beta   90.06298858
_cell_angle_gamma   89.83857205
_symmetry_Int_Tables_number   1
_chemical_formula_structural   YbTm3(Si4Tc3)2
_chemical_formula_sum   'Yb1 Tm3 Si8 Tc6'
_cell_volume   288.56343478
_cell_formula_units_Z   1
loop_
 _symmetry_equiv_pos_site_id
 _symmetry_equiv_pos_as_xyz
  1  'x, y, z'
loop_
 _atom_site_type_symbol
 _atom_site_label
 _atom_site_symmetry_multiplicity
 _atom_site_fract_x
 _atom_site_fract_y
 _atom_site_fract_z
 _atom_site_occupancy
  Yb  Yb0  1  0.333427  0.555457  0.813637  1
  Tm  Tm1  1  0.831622  0.941825  0.192708  1
  Tm  Tm2  1  0.667618  0.442864  0.191046  1
  Tm  Tm3  1  0.169134  0.058602  0.806668  1
  Si  Si4  1  0.548088  0.878188  0.897462  1
  Si  Si5  1  0.049163  0.622380  0.101792  1
  Si  Si6  1  0.451298  0.122104  0.101147  1
  Si  Si7  1  0.952049  0.378805  0.896606  1
  Si  Si8  1  0.142171  0.865226  0.491032  1
  Si  Si9  1  0.639606  0.631945  0.513009  1
  Si  Si10  1  0.859129  0.132990  0.510734  1
  Si  Si11  1  0.358554  0.369333  0.488832  1
  Tc  Tc12  1  0.500662  0.002811  0.497881  1
  Tc  Tc13  1  0.997139  0.500132  0.496871  1
  Tc  Tc14  1  0.846698  0.758093  0.763495  1
  Tc  Tc15  1  0.346653  0.744178  0.236719  1
  Tc  Tc16  1  0.151198  0.240126  0.237052  1
  Tc  Tc17  1  0.655792  0.254941  0.763308  1
