# generated using pymatgen
data_ErFe7Tc5
_symmetry_space_group_name_H-M   'P 1'
_cell_length_a   4.72982307
_cell_length_b   6.54911807
_cell_length_c   6.54911763
_cell_angle_alpha   98.82913516
_cell_angle_beta   111.16800242
_cell_angle_gamma   68.83200479
_symmetry_Int_Tables_number   1
_chemical_formula_structural   ErFe7Tc5
_chemical_formula_sum   'Er1 Fe7 Tc5'
_cell_volume   176.35138814
_cell_formula_units_Z   1
loop_
 _symmetry_equiv_pos_site_id
 _symmetry_equiv_pos_as_xyz
  1  'x, y, z'
loop_
 _atom_site_type_symbol
 _atom_site_label
 _atom_site_symmetry_multiplicity
 _atom_site_fract_x
 _atom_site_fract_y
 _atom_site_fract_z
 _atom_site_occupancy
  Er  Er0  1  0.000000  0.008203  0.008203  1
  Fe  Fe1  1  0.500000  0.207612  0.207612  1
  Fe  Fe2  1  0.497021  0.000850  0.494005  1
  Fe  Fe3  1  0.996135  0.000850  0.494005  1
  Fe  Fe4  1  0.502979  0.494005  0.000850  1
  Fe  Fe5  1  0.003865  0.494005  0.000850  1
  Fe  Fe6  1  0.725798  0.772226  0.223822  1
  Fe  Fe7  1  0.274202  0.223822  0.772226  1
  Tc  Tc8  1  0.639502  0.355427  0.634431  1
  Tc  Tc9  1  0.360498  0.634431  0.355427  1
  Tc  Tc10  1  0.000000  0.360678  0.360678  1
  Tc  Tc11  1  0.000000  0.649022  0.649022  1
  Tc  Tc12  1  0.500000  0.798870  0.798870  1
