# generated using pymatgen
data_Ho4Er9Lu7(CoSb2)4
_symmetry_space_group_name_H-M   'P 1'
_cell_length_a   7.74489835
_cell_length_b   8.73298341
_cell_length_c   12.06750001
_cell_angle_alpha   90.02340323
_cell_angle_beta   89.93785440
_cell_angle_gamma   90.02609932
_symmetry_Int_Tables_number   1
_chemical_formula_structural   Ho4Er9Lu7(CoSb2)4
_chemical_formula_sum   'Ho4 Er9 Lu7 Co4 Sb8'
_cell_volume   816.19762809
_cell_formula_units_Z   1
loop_
 _symmetry_equiv_pos_site_id
 _symmetry_equiv_pos_as_xyz
  1  'x, y, z'
loop_
 _atom_site_type_symbol
 _atom_site_label
 _atom_site_symmetry_multiplicity
 _atom_site_fract_x
 _atom_site_fract_y
 _atom_site_fract_z
 _atom_site_occupancy
  Ho  Ho0  1  0.623361  0.750272  0.308148  1
  Ho  Ho1  1  0.122690  0.250078  0.191448  1
  Ho  Ho2  1  0.377499  0.249610  0.691895  1
  Ho  Ho3  1  0.877177  0.749971  0.808478  1
  Er  Er4  1  0.155538  0.750081  0.203791  1
  Er  Er5  1  0.656081  0.249771  0.295924  1
  Er  Er6  1  0.844358  0.250035  0.796061  1
  Er  Er7  1  0.344212  0.750083  0.704153  1
  Er  Er8  1  0.450890  0.750054  0.997766  1
  Er  Er9  1  0.950583  0.249761  0.502220  1
  Er  Er10  1  0.549223  0.249929  0.002231  1
  Er  Er11  1  0.048225  0.750405  0.497844  1
  Er  Er12  1  0.322911  0.463255  0.434519  1
  Lu  Lu13  1  0.825092  0.963267  0.065187  1
  Lu  Lu14  1  0.324987  0.036791  0.434854  1
  Lu  Lu15  1  0.174893  0.463182  0.934826  1
  Lu  Lu16  1  0.675412  0.536993  0.565431  1
  Lu  Lu17  1  0.174946  0.036776  0.934800  1
  Lu  Lu18  1  0.674941  0.962853  0.565310  1
  Lu  Lu19  1  0.825028  0.536721  0.065170  1
  Co  Co20  1  0.433660  0.750493  0.491068  1
  Co  Co21  1  0.933187  0.249962  0.008967  1
  Co  Co22  1  0.568159  0.249392  0.509340  1
  Co  Co23  1  0.066806  0.750025  0.991068  1
  Sb  Sb24  1  0.931542  0.991824  0.327513  1
  Sb  Sb25  1  0.431528  0.008133  0.172409  1
  Sb  Sb26  1  0.068844  0.491869  0.672353  1
  Sb  Sb27  1  0.568559  0.508222  0.827607  1
  Sb  Sb28  1  0.068603  0.008151  0.672447  1
  Sb  Sb29  1  0.568634  0.991778  0.827699  1
  Sb  Sb30  1  0.930723  0.508353  0.327315  1
  Sb  Sb31  1  0.431710  0.491910  0.172157  1
