# generated using pymatgen
data_Cs2Mn11VS14
_symmetry_space_group_name_H-M   'P 1'
_cell_length_a   9.03506495
_cell_length_b   9.06362679
_cell_length_c   9.05097800
_cell_angle_alpha   60.39693724
_cell_angle_beta   60.10668662
_cell_angle_gamma   60.46283689
_symmetry_Int_Tables_number   1
_chemical_formula_structural   Cs2Mn11VS14
_chemical_formula_sum   'Cs2 Mn11 V1 S14'
_cell_volume   527.90834223
_cell_formula_units_Z   1
loop_
 _symmetry_equiv_pos_site_id
 _symmetry_equiv_pos_as_xyz
  1  'x, y, z'
loop_
 _atom_site_type_symbol
 _atom_site_label
 _atom_site_symmetry_multiplicity
 _atom_site_fract_x
 _atom_site_fract_y
 _atom_site_fract_z
 _atom_site_occupancy
  Cs  Cs0  1  0.379046  0.381779  0.378252  1
  Cs  Cs1  1  0.623026  0.617582  0.620665  1
  Mn  Mn2  1  0.197693  0.884838  0.057894  1
  Mn  Mn3  1  0.881512  0.062175  0.198489  1
  Mn  Mn4  1  0.939278  0.802721  0.115548  1
  Mn  Mn5  1  0.805323  0.115005  0.939827  1
  Mn  Mn6  1  0.124288  0.939576  0.798735  1
  Mn  Mn7  1  0.991865  0.307834  0.122363  1
  Mn  Mn8  1  0.874507  0.008568  0.685785  1
  Mn  Mn9  1  0.124563  0.993650  0.308427  1
  Mn  Mn10  1  0.009498  0.690020  0.872935  1
  Mn  Mn11  1  0.678834  0.871676  0.020340  1
  Mn  Mn12  1  0.063283  0.196508  0.880378  1
  V  V13  1  0.305906  0.125476  0.992406  1
  S  S14  1  0.989047  0.224409  0.656066  1
  S  S15  1  0.228816  0.658277  0.980044  1
  S  S16  1  0.654928  0.982805  0.228238  1
  S  S17  1  0.014716  0.776754  0.342822  1
  S  S18  1  0.775300  0.344060  0.016834  1
  S  S19  1  0.350104  0.016498  0.768286  1
  S  S20  1  0.160528  0.412589  0.822913  1
  S  S21  1  0.402304  0.817490  0.174358  1
  S  S22  1  0.824988  0.167703  0.408333  1
  S  S23  1  0.836351  0.591035  0.174424  1
  S  S24  1  0.595465  0.171907  0.837599  1
  S  S25  1  0.177528  0.834829  0.588443  1
  S  S26  1  0.778726  0.780996  0.785896  1
  S  S27  1  0.212578  0.223240  0.223700  1
