# generated using pymatgen
data_Y2TcMoC3
_symmetry_space_group_name_H-M   'P 1'
_cell_length_a   6.04813193
_cell_length_b   6.04813213
_cell_length_c   5.72267291
_cell_angle_alpha   67.89649902
_cell_angle_beta   67.89649842
_cell_angle_gamma   32.57232027
_symmetry_Int_Tables_number   1
_chemical_formula_structural   Y2TcMoC3
_chemical_formula_sum   'Y2 Tc1 Mo1 C3'
_cell_volume   103.67795462
_cell_formula_units_Z   1
loop_
 _symmetry_equiv_pos_site_id
 _symmetry_equiv_pos_as_xyz
  1  'x, y, z'
loop_
 _atom_site_type_symbol
 _atom_site_label
 _atom_site_symmetry_multiplicity
 _atom_site_fract_x
 _atom_site_fract_y
 _atom_site_fract_z
 _atom_site_occupancy
  Y  Y0  1  0.391090  0.391090  0.822175  1
  Y  Y1  1  0.607995  0.607995  0.172926  1
  Tc  Tc2  1  0.160565  0.160565  0.679304  1
  Mo  Mo3  1  0.840370  0.840370  0.324108  1
  C  C4  1  0.001878  0.001878  0.998822  1
  C  C5  1  0.247158  0.247158  0.272466  1
  C  C6  1  0.750944  0.750944  0.730198  1
