# generated using pymatgen
data_Dy6Er3Tm7(Ga3Co)2
_symmetry_space_group_name_H-M   'P 1'
_cell_length_a   9.90817301
_cell_length_b   9.91052720
_cell_length_c   6.92046601
_cell_angle_alpha   90.00467143
_cell_angle_beta   89.99618752
_cell_angle_gamma   119.99103570
_symmetry_Int_Tables_number   1
_chemical_formula_structural   Dy6Er3Tm7(Ga3Co)2
_chemical_formula_sum   'Dy6 Er3 Tm7 Ga6 Co2'
_cell_volume   588.56648979
_cell_formula_units_Z   1
loop_
 _symmetry_equiv_pos_site_id
 _symmetry_equiv_pos_as_xyz
  1  'x, y, z'
loop_
 _atom_site_type_symbol
 _atom_site_label
 _atom_site_symmetry_multiplicity
 _atom_site_fract_x
 _atom_site_fract_y
 _atom_site_fract_z
 _atom_site_occupancy
  Dy  Dy0  1  0.463290  0.926582  0.207706  1
  Dy  Dy1  1  0.536134  0.463888  0.708096  1
  Dy  Dy2  1  0.927734  0.463873  0.708099  1
  Dy  Dy3  1  0.536230  0.072450  0.708180  1
  Dy  Dy4  1  0.999994  0.000005  0.232085  1
  Dy  Dy5  1  0.999965  0.999927  0.731168  1
  Er  Er6  1  0.666771  0.333552  0.327266  1
  Er  Er7  1  0.463114  0.536681  0.207395  1
  Er  Er8  1  0.073592  0.536719  0.207422  1
  Tm  Tm9  1  0.173437  0.826282  0.512150  1
  Tm  Tm10  1  0.652854  0.826285  0.512162  1
  Tm  Tm11  1  0.173718  0.347440  0.511927  1
  Tm  Tm12  1  0.827119  0.173351  0.011850  1
  Tm  Tm13  1  0.346238  0.173353  0.011831  1
  Tm  Tm14  1  0.826850  0.653694  0.012038  1
  Tm  Tm15  1  0.333189  0.666379  0.826253  1
  Ga  Ga16  1  0.163585  0.836128  0.957533  1
  Ga  Ga17  1  0.672534  0.836126  0.957536  1
  Ga  Ga18  1  0.163835  0.327670  0.957782  1
  Ga  Ga19  1  0.836991  0.163056  0.458195  1
  Ga  Ga20  1  0.326080  0.163065  0.458193  1
  Ga  Ga21  1  0.836957  0.673928  0.458040  1
  Co  Co22  1  0.333104  0.666205  0.445197  1
  Co  Co23  1  0.666682  0.333363  0.946733  1
