# generated using pymatgen
data_K3Re2NCl10
_symmetry_space_group_name_H-M   'P 1'
_cell_length_a   6.99665100
_cell_length_b   6.99665100
_cell_length_c   18.04885200
_cell_angle_alpha   90.00000000
_cell_angle_beta   90.00000000
_cell_angle_gamma   90.00000000
_symmetry_Int_Tables_number   1
_chemical_formula_structural   K3Re2NCl10
_chemical_formula_sum   'K6 Re4 N2 Cl20'
_cell_volume   883.54771196
_cell_formula_units_Z   2
loop_
 _symmetry_equiv_pos_site_id
 _symmetry_equiv_pos_as_xyz
  1  'x, y, z'
loop_
 _atom_site_type_symbol
 _atom_site_label
 _atom_site_symmetry_multiplicity
 _atom_site_fract_x
 _atom_site_fract_y
 _atom_site_fract_z
 _atom_site_occupancy
  K  K0  1  0.500000  0.500000  0.000000  1
  K  K1  1  0.000000  0.000000  0.500000  1
  K  K2  1  0.000000  0.500000  0.250000  1
  K  K3  1  0.500000  0.000000  0.750000  1
  K  K4  1  0.500000  0.000000  0.250000  1
  K  K5  1  0.000000  0.500000  0.750000  1
  Re  Re6  1  0.500000  0.500000  0.399864  1
  Re  Re7  1  0.000000  0.000000  0.899864  1
  Re  Re8  1  0.500000  0.500000  0.600136  1
  Re  Re9  1  0.000000  0.000000  0.100136  1
  N  N10  1  0.500000  0.500000  0.500000  1
  N  N11  1  0.000000  0.000000  0.000000  1
  Cl  Cl12  1  0.784008  0.684333  0.392944  1
  Cl  Cl13  1  0.215992  0.315667  0.392944  1
  Cl  Cl14  1  0.715992  0.184333  0.892944  1
  Cl  Cl15  1  0.284008  0.815667  0.892944  1
  Cl  Cl16  1  0.684333  0.215992  0.392944  1
  Cl  Cl17  1  0.315667  0.784008  0.392944  1
  Cl  Cl18  1  0.184333  0.284008  0.892944  1
  Cl  Cl19  1  0.815667  0.715992  0.892944  1
  Cl  Cl20  1  0.215992  0.315667  0.607056  1
  Cl  Cl21  1  0.784008  0.684333  0.607056  1
  Cl  Cl22  1  0.284008  0.815667  0.107056  1
  Cl  Cl23  1  0.715992  0.184333  0.107056  1
  Cl  Cl24  1  0.315667  0.784008  0.607056  1
  Cl  Cl25  1  0.684333  0.215992  0.607056  1
  Cl  Cl26  1  0.815667  0.715992  0.107056  1
  Cl  Cl27  1  0.184333  0.284008  0.107056  1
  Cl  Cl28  1  0.500000  0.500000  0.262143  1
  Cl  Cl29  1  0.000000  0.000000  0.762143  1
  Cl  Cl30  1  0.500000  0.500000  0.737857  1
  Cl  Cl31  1  0.000000  0.000000  0.237857  1
