# generated using pymatgen
data_Ho2LuAl12RuRh3
_symmetry_space_group_name_H-M   'P 1'
_cell_length_a   8.76958000
_cell_length_b   8.80160628
_cell_length_c   9.49492500
_cell_angle_alpha   90.00000000
_cell_angle_beta   90.00000000
_cell_angle_gamma   119.87969855
_symmetry_Int_Tables_number   1
_chemical_formula_structural   Ho2LuAl12RuRh3
_chemical_formula_sum   'Ho4 Lu2 Al24 Ru2 Rh6'
_cell_volume   635.45981897
_cell_formula_units_Z   2
loop_
 _symmetry_equiv_pos_site_id
 _symmetry_equiv_pos_as_xyz
  1  'x, y, z'
loop_
 _atom_site_type_symbol
 _atom_site_label
 _atom_site_symmetry_multiplicity
 _atom_site_fract_x
 _atom_site_fract_y
 _atom_site_fract_z
 _atom_site_occupancy
  Ho  Ho0  1  0.615666  0.808292  0.250000  1
  Ho  Ho1  1  0.384334  0.191708  0.750000  1
  Ho  Ho2  1  0.192624  0.808292  0.250000  1
  Ho  Ho3  1  0.807376  0.191708  0.750000  1
  Lu  Lu4  1  0.193751  0.387503  0.250000  1
  Lu  Lu5  1  0.806249  0.612497  0.750000  1
  Al  Al6  1  0.333337  0.666675  0.030800  1
  Al  Al7  1  0.666663  0.333325  0.969200  1
  Al  Al8  1  0.666663  0.333325  0.530800  1
  Al  Al9  1  0.333337  0.666675  0.469200  1
  Al  Al10  1  0.163621  0.327243  0.576031  1
  Al  Al11  1  0.836379  0.672757  0.423969  1
  Al  Al12  1  0.673019  0.835701  0.577397  1
  Al  Al13  1  0.836379  0.672757  0.076031  1
  Al  Al14  1  0.326981  0.164299  0.422603  1
  Al  Al15  1  0.163621  0.327243  0.923969  1
  Al  Al16  1  0.162681  0.835701  0.577397  1
  Al  Al17  1  0.326981  0.164299  0.077397  1
  Al  Al18  1  0.837319  0.164299  0.422603  1
  Al  Al19  1  0.673019  0.835701  0.922603  1
  Al  Al20  1  0.837319  0.164299  0.077397  1
  Al  Al21  1  0.162681  0.835701  0.922603  1
  Al  Al22  1  0.562353  0.124707  0.250000  1
  Al  Al23  1  0.437647  0.875293  0.750000  1
  Al  Al24  1  0.875884  0.437886  0.250000  1
  Al  Al25  1  0.124116  0.562114  0.750000  1
  Al  Al26  1  0.562001  0.437886  0.250000  1
  Al  Al27  1  0.437999  0.562114  0.750000  1
  Al  Al28  1  0.001467  0.002934  0.250000  1
  Al  Al29  1  0.998533  0.997066  0.750000  1
  Ru  Ru30  1  0.000000  0.000000  0.000000  1
  Ru  Ru31  1  0.000000  0.000000  0.500000  1
  Rh  Rh32  1  0.500000  0.000000  0.000000  1
  Rh  Rh33  1  0.000000  0.500000  0.000000  1
  Rh  Rh34  1  0.500000  0.000000  0.500000  1
  Rh  Rh35  1  0.500000  0.500000  0.000000  1
  Rh  Rh36  1  0.000000  0.500000  0.500000  1
  Rh  Rh37  1  0.500000  0.500000  0.500000  1
