# generated using pymatgen
data_Hf3Sc(MnP)4
_symmetry_space_group_name_H-M   'P 1'
_cell_length_a   3.59982600
_cell_length_b   6.39834884
_cell_length_c   7.47182031
_cell_angle_alpha   89.89210128
_cell_angle_beta   90.00000000
_cell_angle_gamma   90.00000000
_symmetry_Int_Tables_number   1
_chemical_formula_structural   Hf3Sc(MnP)4
_chemical_formula_sum   'Hf3 Sc1 Mn4 P4'
_cell_volume   172.09770245
_cell_formula_units_Z   1
loop_
 _symmetry_equiv_pos_site_id
 _symmetry_equiv_pos_as_xyz
  1  'x, y, z'
loop_
 _atom_site_type_symbol
 _atom_site_label
 _atom_site_symmetry_multiplicity
 _atom_site_fract_x
 _atom_site_fract_y
 _atom_site_fract_z
 _atom_site_occupancy
  Hf  Hf0  1  0.750000  0.468072  0.825280  1
  Hf  Hf1  1  0.750000  0.968183  0.674970  1
  Hf  Hf2  1  0.250000  0.031642  0.325494  1
  Sc  Sc3  1  0.250000  0.532343  0.174229  1
  Mn  Mn4  1  0.250000  0.637560  0.560751  1
  Mn  Mn5  1  0.750000  0.362560  0.440806  1
  Mn  Mn6  1  0.750000  0.865310  0.059381  1
  Mn  Mn7  1  0.250000  0.134902  0.939603  1
  P  P8  1  0.250000  0.766189  0.872788  1
  P  P9  1  0.750000  0.234132  0.127752  1
  P  P10  1  0.750000  0.731626  0.370787  1
  P  P11  1  0.250000  0.267480  0.628161  1
