# generated using pymatgen
data_Sr3ErHgPb11
_symmetry_space_group_name_H-M   'P 1'
_cell_length_a   10.06238000
_cell_length_b   7.04839959
_cell_length_c   7.01596213
_cell_angle_alpha   88.71085042
_cell_angle_beta   90.00000000
_cell_angle_gamma   90.00000000
_symmetry_Int_Tables_number   1
_chemical_formula_structural   Sr3ErHgPb11
_chemical_formula_sum   'Sr3 Er1 Hg1 Pb11'
_cell_volume   497.47187023
_cell_formula_units_Z   1
loop_
 _symmetry_equiv_pos_site_id
 _symmetry_equiv_pos_as_xyz
  1  'x, y, z'
loop_
 _atom_site_type_symbol
 _atom_site_label
 _atom_site_symmetry_multiplicity
 _atom_site_fract_x
 _atom_site_fract_y
 _atom_site_fract_z
 _atom_site_occupancy
  Sr  Sr0  1  0.250000  0.498426  0.504484  1
  Sr  Sr1  1  0.750000  0.997376  0.001450  1
  Sr  Sr2  1  0.750000  0.507405  0.498312  1
  Er  Er3  1  0.250000  0.007158  0.003133  1
  Hg  Hg4  1  0.750000  0.492810  0.997812  1
  Pb  Pb5  1  0.005731  0.234749  0.748983  1
  Pb  Pb6  1  0.495558  0.247486  0.243118  1
  Pb  Pb7  1  0.492522  0.756711  0.241355  1
  Pb  Pb8  1  0.004094  0.752575  0.760797  1
  Pb  Pb9  1  0.007478  0.756711  0.241355  1
  Pb  Pb10  1  0.495906  0.752575  0.760797  1
  Pb  Pb11  1  0.494269  0.234749  0.748983  1
  Pb  Pb12  1  0.004442  0.247486  0.243118  1
  Pb  Pb13  1  0.250000  0.997353  0.502431  1
  Pb  Pb14  1  0.250000  0.510324  0.003744  1
  Pb  Pb15  1  0.750000  0.006106  0.500128  1
