# generated using pymatgen
data_Ti3VGaS8
_symmetry_space_group_name_H-M   'P 1'
_cell_length_a   7.03174591
_cell_length_b   7.03174522
_cell_length_c   7.03174533
_cell_angle_alpha   60.15209018
_cell_angle_beta   60.15209787
_cell_angle_gamma   60.15209203
_symmetry_Int_Tables_number   1
_chemical_formula_structural   Ti3VGaS8
_chemical_formula_sum   'Ti3 V1 Ga1 S8'
_cell_volume   246.69935354
_cell_formula_units_Z   1
loop_
 _symmetry_equiv_pos_site_id
 _symmetry_equiv_pos_as_xyz
  1  'x, y, z'
loop_
 _atom_site_type_symbol
 _atom_site_label
 _atom_site_symmetry_multiplicity
 _atom_site_fract_x
 _atom_site_fract_y
 _atom_site_fract_z
 _atom_site_occupancy
  Ti  Ti0  1  0.836518  0.384244  0.384244  1
  Ti  Ti1  1  0.384244  0.836518  0.384244  1
  Ti  Ti2  1  0.384244  0.384244  0.836518  1
  V  V3  1  0.392926  0.392926  0.392926  1
  Ga  Ga4  1  0.996148  0.996148  0.996148  1
  S  S5  1  0.130670  0.130670  0.130670  1
  S  S6  1  0.594738  0.139765  0.139765  1
  S  S7  1  0.139765  0.594738  0.139765  1
  S  S8  1  0.139765  0.139765  0.594738  1
  S  S9  1  0.623362  0.623362  0.623362  1
  S  S10  1  0.120662  0.628478  0.628478  1
  S  S11  1  0.628478  0.120662  0.628478  1
  S  S12  1  0.628478  0.628478  0.120662  1
