# generated using pymatgen
data_Sc4(Al8Ni3)3
_symmetry_space_group_name_H-M   'P 1'
_cell_length_a   7.22620402
_cell_length_b   7.23770634
_cell_length_c   12.59606697
_cell_angle_alpha   84.50532573
_cell_angle_beta   100.90817029
_cell_angle_gamma   119.81070963
_symmetry_Int_Tables_number   1
_chemical_formula_structural   Sc4(Al8Ni3)3
_chemical_formula_sum   'Sc4 Al24 Ni9'
_cell_volume   561.28372455
_cell_formula_units_Z   1
loop_
 _symmetry_equiv_pos_site_id
 _symmetry_equiv_pos_as_xyz
  1  'x, y, z'
loop_
 _atom_site_type_symbol
 _atom_site_label
 _atom_site_symmetry_multiplicity
 _atom_site_fract_x
 _atom_site_fract_y
 _atom_site_fract_z
 _atom_site_occupancy
  Sc  Sc0  1  0.732597  0.997773  0.194690  1
  Sc  Sc1  1  0.267403  0.002227  0.805310  1
  Sc  Sc2  1  0.063075  0.668717  0.194781  1
  Sc  Sc3  1  0.936925  0.331283  0.805219  1
  Al  Al4  1  0.818600  0.880238  0.814785  1
  Al  Al5  1  0.181400  0.119762  0.185215  1
  Al  Al6  1  0.988562  0.666573  0.945543  1
  Al  Al7  1  0.011438  0.333427  0.054457  1
  Al  Al8  1  0.386833  0.663988  0.815600  1
  Al  Al9  1  0.613167  0.336012  0.184400  1
  Al  Al10  1  0.885729  0.665941  0.668951  1
  Al  Al11  1  0.114271  0.334059  0.331049  1
  Al  Al12  1  0.602727  0.447876  0.815712  1
  Al  Al13  1  0.397273  0.552124  0.184288  1
  Al  Al14  1  0.228067  0.337731  0.667670  1
  Al  Al15  1  0.771933  0.662269  0.332330  1
  Al  Al16  1  0.853688  0.333598  0.559171  1
  Al  Al17  1  0.187191  0.000071  0.559194  1
  Al  Al18  1  0.812809  0.999929  0.440806  1
  Al  Al19  1  0.351312  0.993172  0.054225  1
  Al  Al20  1  0.648688  0.006828  0.945775  1
  Al  Al21  1  0.556489  0.996575  0.668888  1
  Al  Al22  1  0.443511  0.003425  0.331112  1
  Al  Al23  1  0.521960  0.667298  0.561410  1
  Al  Al24  1  0.478040  0.332702  0.438590  1
  Al  Al25  1  0.686463  0.672206  0.042628  1
  Al  Al26  1  0.313537  0.327794  0.957372  1
  Al  Al27  1  0.146312  0.666402  0.440829  1
  Ni  Ni28  1  0.329592  0.670273  0.999940  1
  Ni  Ni29  1  0.547551  0.325584  0.638181  1
  Ni  Ni30  1  0.452449  0.674416  0.361819  1
  Ni  Ni31  1  0.888713  0.008460  0.638272  1
  Ni  Ni32  1  0.111287  0.991540  0.361728  1
  Ni  Ni33  1  0.670408  0.329727  0.000060  1
  Ni  Ni34  1  0.205276  0.667178  0.638036  1
  Ni  Ni35  1  0.794724  0.332822  0.361964  1
  Ni  Ni36  1  0.000000  0.000000  0.000000  1
