# generated using pymatgen
data_YEr19Cd6FeNi
_symmetry_space_group_name_H-M   'P 1'
_cell_length_a   9.48611900
_cell_length_b   9.48614377
_cell_length_c   9.69072900
_cell_angle_alpha   90.00000000
_cell_angle_beta   90.00000000
_cell_angle_gamma   120.00007839
_symmetry_Int_Tables_number   1
_chemical_formula_structural   YEr19Cd6FeNi
_chemical_formula_sum   'Y1 Er19 Cd6 Fe1 Ni1'
_cell_volume   755.20526369
_cell_formula_units_Z   1
loop_
 _symmetry_equiv_pos_site_id
 _symmetry_equiv_pos_as_xyz
  1  'x, y, z'
loop_
 _atom_site_type_symbol
 _atom_site_label
 _atom_site_symmetry_multiplicity
 _atom_site_fract_x
 _atom_site_fract_y
 _atom_site_fract_z
 _atom_site_occupancy
  Y  Y0  1  0.916347  0.458174  0.250000  1
  Er  Er1  1  0.000023  0.000012  0.499900  1
  Er  Er2  1  0.000023  0.000012  0.000100  1
  Er  Er3  1  0.541382  0.458325  0.250000  1
  Er  Er4  1  0.541382  0.083057  0.250000  1
  Er  Er5  1  0.456602  0.543381  0.750000  1
  Er  Er6  1  0.456602  0.913222  0.750000  1
  Er  Er7  1  0.086736  0.543368  0.750000  1
  Er  Er8  1  0.212229  0.788487  0.436508  1
  Er  Er9  1  0.212229  0.423744  0.436508  1
  Er  Er10  1  0.576282  0.788142  0.436368  1
  Er  Er11  1  0.789024  0.210551  0.562349  1
  Er  Er12  1  0.789024  0.578472  0.562349  1
  Er  Er13  1  0.421614  0.210806  0.562097  1
  Er  Er14  1  0.789024  0.210551  0.937651  1
  Er  Er15  1  0.789024  0.578472  0.937651  1
  Er  Er16  1  0.421614  0.210806  0.937903  1
  Er  Er17  1  0.212229  0.788487  0.063492  1
  Er  Er18  1  0.212229  0.423744  0.063492  1
  Er  Er19  1  0.576282  0.788142  0.063632  1
  Cd  Cd20  1  0.884864  0.114664  0.250000  1
  Cd  Cd21  1  0.884864  0.770200  0.250000  1
  Cd  Cd22  1  0.230151  0.115075  0.250000  1
  Cd  Cd23  1  0.115197  0.884864  0.750000  1
  Cd  Cd24  1  0.115197  0.230333  0.750000  1
  Cd  Cd25  1  0.769652  0.884826  0.750000  1
  Fe  Fe26  1  0.333458  0.666729  0.250000  1
  Ni  Ni27  1  0.666714  0.333357  0.750000  1
