# generated using pymatgen
data_YTm3Co18(P6Ru)2
_symmetry_space_group_name_H-M   'P 1'
_cell_length_a   3.66030800
_cell_length_b   10.30374922
_cell_length_c   11.73095525
_cell_angle_alpha   90.02368748
_cell_angle_beta   90.00000000
_cell_angle_gamma   90.00000000
_symmetry_Int_Tables_number   1
_chemical_formula_structural   YTm3Co18(P6Ru)2
_chemical_formula_sum   'Y1 Tm3 Co18 P12 Ru2'
_cell_volume   442.43171593
_cell_formula_units_Z   1
loop_
 _symmetry_equiv_pos_site_id
 _symmetry_equiv_pos_as_xyz
  1  'x, y, z'
loop_
 _atom_site_type_symbol
 _atom_site_label
 _atom_site_symmetry_multiplicity
 _atom_site_fract_x
 _atom_site_fract_y
 _atom_site_fract_z
 _atom_site_occupancy
  Y  Y0  1  0.250000  0.582415  0.702505  1
  Tm  Tm1  1  0.250000  0.918018  0.202193  1
  Tm  Tm2  1  0.750000  0.413771  0.295504  1
  Tm  Tm3  1  0.750000  0.085997  0.795449  1
  Co  Co4  1  0.750000  0.282934  0.008415  1
  Co  Co5  1  0.750000  0.216468  0.507460  1
  Co  Co6  1  0.250000  0.405461  0.486585  1
  Co  Co7  1  0.250000  0.093840  0.987029  1
  Co  Co8  1  0.750000  0.590081  0.509280  1
  Co  Co9  1  0.750000  0.909766  0.011352  1
  Co  Co10  1  0.250000  0.220653  0.176910  1
  Co  Co11  1  0.250000  0.278786  0.676784  1
  Co  Co12  1  0.750000  0.779218  0.823228  1
  Co  Co13  1  0.750000  0.722240  0.322487  1
  Co  Co14  1  0.250000  0.887847  0.702040  1
  Co  Co15  1  0.250000  0.613049  0.202494  1
  Co  Co16  1  0.750000  0.115936  0.300264  1
  Co  Co17  1  0.750000  0.382704  0.801246  1
  Co  Co18  1  0.250000  0.463894  0.933218  1
  Co  Co19  1  0.250000  0.035615  0.431766  1
  Co  Co20  1  0.750000  0.532759  0.070269  1
  Co  Co21  1  0.750000  0.967964  0.569079  1
  P  P22  1  0.250000  0.417018  0.113385  1
  P  P23  1  0.250000  0.083050  0.612560  1
  P  P24  1  0.750000  0.578704  0.887848  1
  P  P25  1  0.750000  0.921415  0.386121  1
  P  P26  1  0.250000  0.269278  0.869041  1
  P  P27  1  0.250000  0.230371  0.368760  1
  P  P28  1  0.750000  0.730295  0.133050  1
  P  P29  1  0.750000  0.771570  0.632399  1
  P  P30  1  0.250000  0.593732  0.389959  1
  P  P31  1  0.250000  0.906127  0.889996  1
  P  P32  1  0.750000  0.396520  0.608441  1
  P  P33  1  0.750000  0.102087  0.108934  1
  Ru  Ru34  1  0.250000  0.716027  0.992309  1
  Ru  Ru35  1  0.250000  0.784393  0.491637  1
