# generated using pymatgen
data_NdDyCo12SiP6
_symmetry_space_group_name_H-M   'P 1'
_cell_length_a   9.04873900
_cell_length_b   9.04873888
_cell_length_c   3.61597200
_cell_angle_alpha   90.00000000
_cell_angle_beta   90.00000000
_cell_angle_gamma   119.99999677
_symmetry_Int_Tables_number   1
_chemical_formula_structural   NdDyCo12SiP6
_chemical_formula_sum   'Nd1 Dy1 Co12 Si1 P6'
_cell_volume   256.40814838
_cell_formula_units_Z   1
loop_
 _symmetry_equiv_pos_site_id
 _symmetry_equiv_pos_as_xyz
  1  'x, y, z'
loop_
 _atom_site_type_symbol
 _atom_site_label
 _atom_site_symmetry_multiplicity
 _atom_site_fract_x
 _atom_site_fract_y
 _atom_site_fract_z
 _atom_site_occupancy
  Nd  Nd0  1  0.333333  0.666667  0.500000  1
  Dy  Dy1  1  0.000000  0.000000  0.000000  1
  Co  Co2  1  0.098604  0.389601  0.000000  1
  Co  Co3  1  0.610399  0.709001  0.000000  1
  Co  Co4  1  0.290999  0.901396  0.000000  1
  Co  Co5  1  0.048820  0.768346  0.500000  1
  Co  Co6  1  0.231654  0.280473  0.500000  1
  Co  Co7  1  0.719527  0.951180  0.500000  1
  Co  Co8  1  0.823153  0.613543  0.000000  1
  Co  Co9  1  0.386457  0.209610  0.000000  1
  Co  Co10  1  0.790390  0.176847  0.000000  1
  Co  Co11  1  0.894014  0.432331  0.500000  1
  Co  Co12  1  0.567669  0.461683  0.500000  1
  Co  Co13  1  0.538317  0.105986  0.500000  1
  Si  Si14  1  0.666667  0.333333  0.000000  1
  P  P15  1  0.777559  0.735968  0.500000  1
  P  P16  1  0.264032  0.041591  0.500000  1
  P  P17  1  0.958409  0.222441  0.500000  1
  P  P18  1  0.068282  0.626364  0.000000  1
  P  P19  1  0.373636  0.441919  0.000000  1
  P  P20  1  0.558081  0.931718  0.000000  1
