# generated using pymatgen
data_La5Sm3Sc11Si16Mo
_symmetry_space_group_name_H-M   'P 1'
_cell_length_a   7.25449844
_cell_length_b   7.50293707
_cell_length_c   14.15690513
_cell_angle_alpha   90.11748880
_cell_angle_beta   89.81934298
_cell_angle_gamma   89.62121237
_symmetry_Int_Tables_number   1
_chemical_formula_structural   La5Sm3Sc11Si16Mo
_chemical_formula_sum   'La5 Sm3 Sc11 Si16 Mo1'
_cell_volume   770.53866415
_cell_formula_units_Z   1
loop_
 _symmetry_equiv_pos_site_id
 _symmetry_equiv_pos_as_xyz
  1  'x, y, z'
loop_
 _atom_site_type_symbol
 _atom_site_label
 _atom_site_symmetry_multiplicity
 _atom_site_fract_x
 _atom_site_fract_y
 _atom_site_fract_z
 _atom_site_occupancy
  La  La0  1  0.011075  0.168904  0.098267  1
  La  La1  1  0.990671  0.829677  0.898159  1
  La  La2  1  0.485959  0.673242  0.897475  1
  La  La3  1  0.990837  0.832275  0.592885  1
  La  La4  1  0.513440  0.329042  0.098064  1
  Sm  Sm5  1  0.012372  0.174373  0.402799  1
  Sm  Sm6  1  0.506716  0.325222  0.408962  1
  Sm  Sm7  1  0.486340  0.674852  0.596392  1
  Sc  Sc8  1  0.164288  0.487309  0.741674  1
  Sc  Sc9  1  0.838064  0.500656  0.254752  1
  Sc  Sc10  1  0.338386  0.999025  0.255012  1
  Sc  Sc11  1  0.656305  0.006356  0.745632  1
  Sc  Sc12  1  0.664765  0.826772  0.379876  1
  Sc  Sc13  1  0.170241  0.674455  0.379495  1
  Sc  Sc14  1  0.670576  0.825531  0.127391  1
  Sc  Sc15  1  0.832067  0.324884  0.621650  1
  Sc  Sc16  1  0.332518  0.177257  0.874285  1
  Sc  Sc17  1  0.829696  0.324476  0.869506  1
  Sc  Sc18  1  0.170716  0.674699  0.128483  1
  Si  Si19  1  0.045272  0.128776  0.743156  1
  Si  Si20  1  0.963766  0.876032  0.255009  1
  Si  Si21  1  0.466611  0.626400  0.253898  1
  Si  Si22  1  0.529484  0.366873  0.742806  1
  Si  Si23  1  0.291411  0.895845  0.743552  1
  Si  Si24  1  0.709469  0.118339  0.254812  1
  Si  Si25  1  0.212172  0.380383  0.254473  1
  Si  Si26  1  0.784828  0.614015  0.744062  1
  Si  Si27  1  0.174300  0.447176  0.541601  1
  Si  Si28  1  0.843302  0.529737  0.458454  1
  Si  Si29  1  0.340575  0.971157  0.468509  1
  Si  Si30  1  0.851410  0.538568  0.039268  1
  Si  Si31  1  0.638577  0.038668  0.545829  1
  Si  Si32  1  0.147062  0.462965  0.959504  1
  Si  Si33  1  0.653872  0.038618  0.958203  1
  Si  Si34  1  0.350174  0.960804  0.039880  1
  Mo  Mo35  1  0.332684  0.176635  0.626221  1
