# generated using pymatgen
data_Nd4SiBr6
_symmetry_space_group_name_H-M   'P 1'
_cell_length_a   4.20695900
_cell_length_b   13.75034500
_cell_length_c   14.54733900
_cell_angle_alpha   90.00000000
_cell_angle_beta   90.00000000
_cell_angle_gamma   90.00000000
_symmetry_Int_Tables_number   1
_chemical_formula_structural   Nd4SiBr6
_chemical_formula_sum   'Nd8 Si2 Br12'
_cell_volume   841.52192159
_cell_formula_units_Z   2
loop_
 _symmetry_equiv_pos_site_id
 _symmetry_equiv_pos_as_xyz
  1  'x, y, z'
loop_
 _atom_site_type_symbol
 _atom_site_label
 _atom_site_symmetry_multiplicity
 _atom_site_fract_x
 _atom_site_fract_y
 _atom_site_fract_z
 _atom_site_occupancy
  Nd  Nd0  1  0.500000  0.118981  0.340381  1
  Nd  Nd1  1  0.500000  0.881019  0.659619  1
  Nd  Nd2  1  0.500000  0.618981  0.159619  1
  Nd  Nd3  1  0.500000  0.381019  0.840381  1
  Nd  Nd4  1  0.000000  0.119766  0.579497  1
  Nd  Nd5  1  0.000000  0.880234  0.420503  1
  Nd  Nd6  1  0.000000  0.619766  0.920503  1
  Nd  Nd7  1  0.000000  0.380234  0.079497  1
  Si  Si8  1  0.500000  0.000000  0.500000  1
  Si  Si9  1  0.500000  0.500000  0.000000  1
  Br  Br10  1  0.500000  0.243683  0.162176  1
  Br  Br11  1  0.500000  0.756317  0.837824  1
  Br  Br12  1  0.500000  0.743683  0.337824  1
  Br  Br13  1  0.500000  0.256317  0.662176  1
  Br  Br14  1  0.000000  0.254272  0.411384  1
  Br  Br15  1  0.000000  0.745728  0.588616  1
  Br  Br16  1  0.000000  0.754272  0.088616  1
  Br  Br17  1  0.000000  0.245728  0.911384  1
  Br  Br18  1  0.000000  0.001734  0.244286  1
  Br  Br19  1  0.000000  0.998266  0.755714  1
  Br  Br20  1  0.000000  0.501734  0.255714  1
  Br  Br21  1  0.000000  0.498266  0.744286  1
