# generated using pymatgen
data_Dy2Er3AlSb2
_symmetry_space_group_name_H-M   'P 1'
_cell_length_a   8.84946759
_cell_length_b   8.85065555
_cell_length_c   6.36396400
_cell_angle_alpha   90.00000000
_cell_angle_beta   90.00000000
_cell_angle_gamma   120.00444190
_symmetry_Int_Tables_number   1
_chemical_formula_structural   Dy2Er3AlSb2
_chemical_formula_sum   'Dy4 Er6 Al2 Sb4'
_cell_volume   431.64974419
_cell_formula_units_Z   2
loop_
 _symmetry_equiv_pos_site_id
 _symmetry_equiv_pos_as_xyz
  1  'x, y, z'
loop_
 _atom_site_type_symbol
 _atom_site_label
 _atom_site_symmetry_multiplicity
 _atom_site_fract_x
 _atom_site_fract_y
 _atom_site_fract_z
 _atom_site_occupancy
  Dy  Dy0  1  0.008937  0.766397  0.750000  1
  Dy  Dy1  1  0.008937  0.242540  0.250000  1
  Dy  Dy2  1  0.755356  0.756437  0.250000  1
  Dy  Dy3  1  0.755356  0.998919  0.750000  1
  Er  Er4  1  0.242209  0.232459  0.750000  1
  Er  Er5  1  0.242209  0.009750  0.250000  1
  Er  Er6  1  0.335775  0.667888  0.500000  1
  Er  Er7  1  0.655538  0.327769  0.000000  1
  Er  Er8  1  0.655538  0.327769  0.500000  1
  Er  Er9  1  0.335775  0.667888  0.000000  1
  Al  Al10  1  0.397933  0.997360  0.750000  1
  Al  Al11  1  0.397933  0.400572  0.250000  1
  Sb  Sb12  1  0.998955  0.606618  0.250000  1
  Sb  Sb13  1  0.998955  0.392337  0.750000  1
  Sb  Sb14  1  0.605297  0.604349  0.750000  1
  Sb  Sb15  1  0.605297  0.000949  0.250000  1
