# generated using pymatgen
data_CaLa2Nd4OsI12
_symmetry_space_group_name_H-M   'P 1'
_cell_length_a   10.10553745
_cell_length_b   10.06323883
_cell_length_c   10.17561771
_cell_angle_alpha   107.16040669
_cell_angle_beta   107.01676865
_cell_angle_gamma   106.78299885
_symmetry_Int_Tables_number   1
_chemical_formula_structural   CaLa2Nd4OsI12
_chemical_formula_sum   'Ca1 La2 Nd4 Os1 I12'
_cell_volume   862.09895941
_cell_formula_units_Z   1
loop_
 _symmetry_equiv_pos_site_id
 _symmetry_equiv_pos_as_xyz
  1  'x, y, z'
loop_
 _atom_site_type_symbol
 _atom_site_label
 _atom_site_symmetry_multiplicity
 _atom_site_fract_x
 _atom_site_fract_y
 _atom_site_fract_z
 _atom_site_occupancy
  Ca  Ca0  1  0.499541  0.500044  0.496923  1
  La  La1  1  0.972987  0.697076  0.900968  1
  La  La2  1  0.698845  0.902000  0.974351  1
  Nd  Nd3  1  0.295266  0.098487  0.025885  1
  Nd  Nd4  1  0.025012  0.297130  0.099481  1
  Nd  Nd5  1  0.104583  0.026087  0.311960  1
  Nd  Nd6  1  0.897878  0.972830  0.689681  1
  Os  Os7  1  0.995959  0.994858  0.999562  1
  I  I8  1  0.685261  0.233201  0.074906  1
  I  I9  1  0.378299  0.459343  0.157634  1
  I  I10  1  0.076167  0.683231  0.230289  1
  I  I11  1  0.779755  0.931933  0.322659  1
  I  I12  1  0.460654  0.158229  0.378225  1
  I  I13  1  0.159760  0.381240  0.459234  1
  I  I14  1  0.839681  0.617970  0.536427  1
  I  I15  1  0.540166  0.842340  0.613977  1
  I  I16  1  0.226000  0.072899  0.685450  1
  I  I17  1  0.931018  0.318073  0.778589  1
  I  I18  1  0.611663  0.534164  0.833734  1
  I  I19  1  0.321509  0.778869  0.930067  1
