# generated using pymatgen
data_BaSr7(Sb2O)2
_symmetry_space_group_name_H-M   'P 1'
_cell_length_a   9.56958420
_cell_length_b   9.56958392
_cell_length_c   7.09404700
_cell_angle_alpha   90.00387356
_cell_angle_beta   89.99612434
_cell_angle_gamma   136.42948346
_symmetry_Int_Tables_number   1
_chemical_formula_structural   BaSr7(Sb2O)2
_chemical_formula_sum   'Ba1 Sr7 Sb4 O2'
_cell_volume   447.76995142
_cell_formula_units_Z   1
loop_
 _symmetry_equiv_pos_site_id
 _symmetry_equiv_pos_as_xyz
  1  'x, y, z'
loop_
 _atom_site_type_symbol
 _atom_site_label
 _atom_site_symmetry_multiplicity
 _atom_site_fract_x
 _atom_site_fract_y
 _atom_site_fract_z
 _atom_site_occupancy
  Ba  Ba0  1  0.678340  0.321661  0.000009  1
  Sr  Sr1  1  0.249047  0.251546  0.250151  1
  Sr  Sr2  1  0.748453  0.750952  0.250151  1
  Sr  Sr3  1  0.177665  0.822336  0.499931  1
  Sr  Sr4  1  0.838260  0.161741  0.500036  1
  Sr  Sr5  1  0.249038  0.251573  0.749862  1
  Sr  Sr6  1  0.748426  0.750961  0.749862  1
  Sr  Sr7  1  0.337920  0.662081  0.999984  1
  Sb  Sb8  1  0.136395  0.863606  0.999955  1
  Sb  Sb9  1  0.636712  0.363288  0.499935  1
  Sb  Sb10  1  0.362956  0.637044  0.500083  1
  Sb  Sb11  1  0.868270  0.131731  0.000047  1
  O  O12  1  0.483888  0.516112  0.999986  1
  O  O13  1  0.984633  0.015367  0.500004  1
