# generated using pymatgen
data_YHo3Al18(IrPd)3
_symmetry_space_group_name_H-M   'P 1'
_cell_length_a   7.59687371
_cell_length_b   7.59755159
_cell_length_c   9.44004400
_cell_angle_alpha   89.97552039
_cell_angle_beta   89.97628305
_cell_angle_gamma   119.64428908
_symmetry_Int_Tables_number   1
_chemical_formula_structural   YHo3Al18(IrPd)3
_chemical_formula_sum   'Y1 Ho3 Al18 Ir3 Pd3'
_cell_volume   473.54211133
_cell_formula_units_Z   1
loop_
 _symmetry_equiv_pos_site_id
 _symmetry_equiv_pos_as_xyz
  1  'x, y, z'
loop_
 _atom_site_type_symbol
 _atom_site_label
 _atom_site_symmetry_multiplicity
 _atom_site_fract_x
 _atom_site_fract_y
 _atom_site_fract_z
 _atom_site_occupancy
  Y  Y0  1  0.995605  0.670294  0.250444  1
  Ho  Ho1  1  0.004506  0.329496  0.749549  1
  Ho  Ho2  1  0.670548  0.995555  0.250469  1
  Ho  Ho3  1  0.329641  0.004390  0.749525  1
  Al  Al4  1  0.126935  0.127904  0.250400  1
  Al  Al5  1  0.872311  0.873101  0.749594  1
  Al  Al6  1  0.000383  0.331552  0.076423  1
  Al  Al7  1  0.999684  0.668555  0.922428  1
  Al  Al8  1  0.997106  0.664903  0.575508  1
  Al  Al9  1  0.335291  0.003094  0.424829  1
  Al  Al10  1  0.996262  0.330788  0.424895  1
  Al  Al11  1  0.668989  0.003721  0.575248  1
  Al  Al12  1  0.668226  0.999618  0.923423  1
  Al  Al13  1  0.331664  0.000534  0.077223  1
  Al  Al14  1  0.332865  0.329736  0.553525  1
  Al  Al15  1  0.670080  0.667127  0.446626  1
  Al  Al16  1  0.668977  0.669135  0.057059  1
  Al  Al17  1  0.330879  0.330833  0.942770  1
  Al  Al18  1  0.340217  0.547150  0.250652  1
  Al  Al19  1  0.659245  0.451969  0.747701  1
  Al  Al20  1  0.547754  0.340503  0.252307  1
  Al  Al21  1  0.452793  0.659962  0.749344  1
  Ir  Ir22  1  0.671906  0.327940  0.500059  1
  Ir  Ir23  1  0.000017  0.000101  0.999917  1
  Ir  Ir24  1  0.000426  0.999712  0.500091  1
  Pd  Pd25  1  0.672458  0.327529  0.999989  1
  Pd  Pd26  1  0.327609  0.672402  0.999989  1
  Pd  Pd27  1  0.327622  0.672392  0.500011  1
