# generated using pymatgen
data_Ba4Zr(RhO4)3
_symmetry_space_group_name_H-M   'P 1'
_cell_length_a   10.29357026
_cell_length_b   10.29357011
_cell_length_c   10.29357066
_cell_angle_alpha   33.24362789
_cell_angle_beta   33.24363274
_cell_angle_gamma   33.24362265
_symmetry_Int_Tables_number   1
_chemical_formula_structural   Ba4Zr(RhO4)3
_chemical_formula_sum   'Ba4 Zr1 Rh3 O12'
_cell_volume   291.80745076
_cell_formula_units_Z   1
loop_
 _symmetry_equiv_pos_site_id
 _symmetry_equiv_pos_as_xyz
  1  'x, y, z'
loop_
 _atom_site_type_symbol
 _atom_site_label
 _atom_site_symmetry_multiplicity
 _atom_site_fract_x
 _atom_site_fract_y
 _atom_site_fract_z
 _atom_site_occupancy
  Ba  Ba0  1  0.712822  0.712822  0.712822  1
  Ba  Ba1  1  0.287178  0.287178  0.287178  1
  Ba  Ba2  1  0.871935  0.871935  0.871935  1
  Ba  Ba3  1  0.128065  0.128065  0.128065  1
  Zr  Zr4  1  0.000000  0.000000  0.000000  1
  Rh  Rh5  1  0.413139  0.413139  0.413139  1
  Rh  Rh6  1  0.500000  0.500000  0.500000  1
  Rh  Rh7  1  0.586861  0.586861  0.586861  1
  O  O8  1  0.210469  0.210469  0.702382  1
  O  O9  1  0.702382  0.210469  0.210469  1
  O  O10  1  0.210469  0.702382  0.210469  1
  O  O11  1  0.789531  0.297618  0.789531  1
  O  O12  1  0.789531  0.789531  0.297618  1
  O  O13  1  0.297618  0.789531  0.789531  1
  O  O14  1  0.385807  0.385807  0.857162  1
  O  O15  1  0.857162  0.385807  0.385807  1
  O  O16  1  0.142838  0.614193  0.614193  1
  O  O17  1  0.614193  0.614193  0.142838  1
  O  O18  1  0.614193  0.142838  0.614193  1
  O  O19  1  0.385807  0.857162  0.385807  1
