# generated using pymatgen
data_YbSm6MnBr12
_symmetry_space_group_name_H-M   'P 1'
_cell_length_a   9.34446551
_cell_length_b   9.34446590
_cell_length_c   9.34446608
_cell_angle_alpha   106.93139116
_cell_angle_beta   106.93139967
_cell_angle_gamma   106.93140561
_symmetry_Int_Tables_number   1
_chemical_formula_structural   YbSm6MnBr12
_chemical_formula_sum   'Yb1 Sm6 Mn1 Br12'
_cell_volume   680.79844975
_cell_formula_units_Z   1
loop_
 _symmetry_equiv_pos_site_id
 _symmetry_equiv_pos_as_xyz
  1  'x, y, z'
loop_
 _atom_site_type_symbol
 _atom_site_label
 _atom_site_symmetry_multiplicity
 _atom_site_fract_x
 _atom_site_fract_y
 _atom_site_fract_z
 _atom_site_occupancy
  Yb  Yb0  1  0.500000  0.500000  0.500000  1
  Sm  Sm1  1  0.898135  0.691029  0.973494  1
  Sm  Sm2  1  0.973494  0.898135  0.691029  1
  Sm  Sm3  1  0.691029  0.973494  0.898135  1
  Sm  Sm4  1  0.101865  0.308971  0.026506  1
  Sm  Sm5  1  0.026506  0.101865  0.308971  1
  Sm  Sm6  1  0.308971  0.026506  0.101865  1
  Mn  Mn7  1  0.000000  0.000000  0.000000  1
  Br  Br8  1  0.776036  0.314283  0.925967  1
  Br  Br9  1  0.925967  0.776036  0.314283  1
  Br  Br10  1  0.314283  0.925967  0.776036  1
  Br  Br11  1  0.223964  0.685717  0.074033  1
  Br  Br12  1  0.074033  0.223964  0.685717  1
  Br  Br13  1  0.685717  0.074033  0.223964  1
  Br  Br14  1  0.542825  0.619388  0.837609  1
  Br  Br15  1  0.837609  0.542825  0.619388  1
  Br  Br16  1  0.619388  0.837609  0.542825  1
  Br  Br17  1  0.457175  0.380612  0.162391  1
  Br  Br18  1  0.162391  0.457175  0.380612  1
  Br  Br19  1  0.380612  0.162391  0.457175  1
