# generated using pymatgen
data_Tm2Mn6Fe5CoP7
_symmetry_space_group_name_H-M   'P 1'
_cell_length_a   9.18179970
_cell_length_b   9.14162239
_cell_length_c   3.58075500
_cell_angle_alpha   90.00000000
_cell_angle_beta   90.00000000
_cell_angle_gamma   120.47293188
_symmetry_Int_Tables_number   1
_chemical_formula_structural   Tm2Mn6Fe5CoP7
_chemical_formula_sum   'Tm2 Mn6 Fe5 Co1 P7'
_cell_volume   259.04002828
_cell_formula_units_Z   1
loop_
 _symmetry_equiv_pos_site_id
 _symmetry_equiv_pos_as_xyz
  1  'x, y, z'
loop_
 _atom_site_type_symbol
 _atom_site_label
 _atom_site_symmetry_multiplicity
 _atom_site_fract_x
 _atom_site_fract_y
 _atom_site_fract_z
 _atom_site_occupancy
  Tm  Tm0  1  0.327690  0.659480  0.000000  1
  Tm  Tm1  1  0.003840  0.004090  0.500000  1
  Mn  Mn2  1  0.719325  0.956436  0.000000  1
  Mn  Mn3  1  0.276661  0.897250  0.500000  1
  Mn  Mn4  1  0.619964  0.720961  0.500000  1
  Mn  Mn5  1  0.771784  0.206907  0.500000  1
  Mn  Mn6  1  0.437291  0.230153  0.500000  1
  Mn  Mn7  1  0.794078  0.564749  0.500000  1
  Fe  Fe8  1  0.237486  0.278867  0.000000  1
  Fe  Fe9  1  0.046656  0.764557  0.000000  1
  Fe  Fe10  1  0.938749  0.450306  0.000000  1
  Fe  Fe11  1  0.509172  0.057517  0.000000  1
  Fe  Fe12  1  0.548116  0.490038  0.000000  1
  Co  Co13  1  0.103890  0.385657  0.500000  1
  P  P14  1  0.967892  0.222445  0.000000  1
  P  P15  1  0.255189  0.045198  0.000000  1
  P  P16  1  0.791359  0.743861  0.000000  1
  P  P17  1  0.069124  0.615104  0.500000  1
  P  P18  1  0.539851  0.922874  0.500000  1
  P  P19  1  0.376522  0.449263  0.500000  1
  P  P20  1  0.665365  0.334287  0.000000  1
