# generated using pymatgen
data_La8Ti(Pd3Pt)6
_symmetry_space_group_name_H-M   'P 1'
_cell_length_a   8.51946800
_cell_length_b   8.51946800
_cell_length_c   8.51946800
_cell_angle_alpha   90.00000000
_cell_angle_beta   90.00000000
_cell_angle_gamma   90.00000000
_symmetry_Int_Tables_number   1
_chemical_formula_structural   La8Ti(Pd3Pt)6
_chemical_formula_sum   'La8 Ti1 Pd18 Pt6'
_cell_volume   618.35436096
_cell_formula_units_Z   1
loop_
 _symmetry_equiv_pos_site_id
 _symmetry_equiv_pos_as_xyz
  1  'x, y, z'
loop_
 _atom_site_type_symbol
 _atom_site_label
 _atom_site_symmetry_multiplicity
 _atom_site_fract_x
 _atom_site_fract_y
 _atom_site_fract_z
 _atom_site_occupancy
  La  La0  1  0.250886  0.250886  0.250886  1
  La  La1  1  0.749114  0.749114  0.749114  1
  La  La2  1  0.749114  0.749114  0.250886  1
  La  La3  1  0.749114  0.250886  0.749114  1
  La  La4  1  0.250886  0.250886  0.749114  1
  La  La5  1  0.250886  0.749114  0.250886  1
  La  La6  1  0.250886  0.749114  0.749114  1
  La  La7  1  0.749114  0.250886  0.250886  1
  Ti  Ti8  1  0.000000  0.000000  0.000000  1
  Pd  Pd9  1  0.264862  0.500000  0.000000  1
  Pd  Pd10  1  0.735138  0.500000  0.000000  1
  Pd  Pd11  1  0.000000  0.264862  0.500000  1
  Pd  Pd12  1  0.500000  0.264862  0.000000  1
  Pd  Pd13  1  0.000000  0.735138  0.500000  1
  Pd  Pd14  1  0.500000  0.735138  0.000000  1
  Pd  Pd15  1  0.500000  0.000000  0.264862  1
  Pd  Pd16  1  0.264862  0.000000  0.500000  1
  Pd  Pd17  1  0.500000  0.000000  0.735138  1
  Pd  Pd18  1  0.735138  0.000000  0.500000  1
  Pd  Pd19  1  0.000000  0.500000  0.264862  1
  Pd  Pd20  1  0.000000  0.500000  0.735138  1
  Pd  Pd21  1  0.255204  0.500000  0.500000  1
  Pd  Pd22  1  0.744796  0.500000  0.500000  1
  Pd  Pd23  1  0.500000  0.255204  0.500000  1
  Pd  Pd24  1  0.500000  0.744796  0.500000  1
  Pd  Pd25  1  0.500000  0.500000  0.255204  1
  Pd  Pd26  1  0.500000  0.500000  0.744796  1
  Pt  Pt27  1  0.300437  0.000000  0.000000  1
  Pt  Pt28  1  0.699563  0.000000  0.000000  1
  Pt  Pt29  1  0.000000  0.300437  0.000000  1
  Pt  Pt30  1  0.000000  0.699563  0.000000  1
  Pt  Pt31  1  0.000000  0.000000  0.300437  1
  Pt  Pt32  1  0.000000  0.000000  0.699563  1
