# generated using pymatgen
data_Er2Tm10Fe2Co3Bi
_symmetry_space_group_name_H-M   'P 1'
_cell_length_a   8.19312172
_cell_length_b   8.19353633
_cell_length_c   8.19312314
_cell_angle_alpha   111.10184085
_cell_angle_beta   111.76189344
_cell_angle_gamma   105.61614107
_symmetry_Int_Tables_number   1
_chemical_formula_structural   Er2Tm10Fe2Co3Bi
_chemical_formula_sum   'Er2 Tm10 Fe2 Co3 Bi1'
_cell_volume   421.96808231
_cell_formula_units_Z   1
loop_
 _symmetry_equiv_pos_site_id
 _symmetry_equiv_pos_as_xyz
  1  'x, y, z'
loop_
 _atom_site_type_symbol
 _atom_site_label
 _atom_site_symmetry_multiplicity
 _atom_site_fract_x
 _atom_site_fract_y
 _atom_site_fract_z
 _atom_site_occupancy
  Er  Er0  1  0.208668  0.012337  0.803671  1
  Er  Er1  1  0.791332  0.987663  0.196329  1
  Tm  Tm2  1  0.284706  0.185156  0.469544  1
  Tm  Tm3  1  0.715294  0.814844  0.530456  1
  Tm  Tm4  1  0.284388  0.814844  0.099550  1
  Tm  Tm5  1  0.715612  0.185156  0.900450  1
  Tm  Tm6  1  0.618777  0.310705  0.308553  1
  Tm  Tm7  1  0.381223  0.689295  0.691447  1
  Tm  Tm8  1  0.002154  0.310705  0.691928  1
  Tm  Tm9  1  0.997846  0.689295  0.308072  1
  Tm  Tm10  1  0.208537  0.405107  0.196569  1
  Tm  Tm11  1  0.791463  0.594893  0.803431  1
  Fe  Fe12  1  0.000177  0.382281  0.382104  1
  Fe  Fe13  1  0.999823  0.617719  0.617896  1
  Co  Co14  1  0.388928  0.888870  0.499941  1
  Co  Co15  1  0.611072  0.111130  0.500059  1
  Co  Co16  1  0.000000  0.000000  0.000000  1
  Bi  Bi17  1  0.500000  0.500000  0.000000  1
