# generated using pymatgen
data_PtSe2(Cl4O)2
_symmetry_space_group_name_H-M   'P 1'
_cell_length_a   6.73865985
_cell_length_b   6.73866013
_cell_length_c   16.47774973
_cell_angle_alpha   87.02181837
_cell_angle_beta   87.02181623
_cell_angle_gamma   89.37732540
_symmetry_Int_Tables_number   1
_chemical_formula_structural   PtSe2(Cl4O)2
_chemical_formula_sum   'Pt2 Se4 Cl16 O4'
_cell_volume   746.20216835
_cell_formula_units_Z   2
loop_
 _symmetry_equiv_pos_site_id
 _symmetry_equiv_pos_as_xyz
  1  'x, y, z'
loop_
 _atom_site_type_symbol
 _atom_site_label
 _atom_site_symmetry_multiplicity
 _atom_site_fract_x
 _atom_site_fract_y
 _atom_site_fract_z
 _atom_site_occupancy
  Pt  Pt0  1  0.183794  0.816206  0.750000  1
  Pt  Pt1  1  0.816206  0.183794  0.250000  1
  Se  Se2  1  0.784374  0.893401  0.863890  1
  Se  Se3  1  0.106599  0.215626  0.636110  1
  Se  Se4  1  0.215626  0.106599  0.136110  1
  Se  Se5  1  0.893401  0.784374  0.363890  1
  Cl  Cl6  1  0.165093  0.695900  0.424752  1
  Cl  Cl7  1  0.834907  0.304100  0.575248  1
  Cl  Cl8  1  0.304100  0.834907  0.075248  1
  Cl  Cl9  1  0.413518  0.074411  0.737778  1
  Cl  Cl10  1  0.925589  0.586482  0.762222  1
  Cl  Cl11  1  0.074411  0.413518  0.237778  1
  Cl  Cl12  1  0.700877  0.815752  0.474747  1
  Cl  Cl13  1  0.648282  0.356860  0.150319  1
  Cl  Cl14  1  0.351718  0.643140  0.849681  1
  Cl  Cl15  1  0.356860  0.648282  0.650319  1
  Cl  Cl16  1  0.695900  0.165093  0.924752  1
  Cl  Cl17  1  0.815752  0.700877  0.974747  1
  Cl  Cl18  1  0.184248  0.299123  0.025253  1
  Cl  Cl19  1  0.643140  0.351718  0.349681  1
  Cl  Cl20  1  0.299123  0.184248  0.525253  1
  Cl  Cl21  1  0.586482  0.925589  0.262222  1
  O  O22  1  0.025029  0.978635  0.662197  1
  O  O23  1  0.974971  0.021365  0.337803  1
  O  O24  1  0.978635  0.025029  0.162197  1
  O  O25  1  0.021365  0.974971  0.837803  1
