# generated using pymatgen
data_SrErLuSe4
_symmetry_space_group_name_H-M   'P 1'
_cell_length_a   4.09856300
_cell_length_b   12.54318000
_cell_length_c   14.81194800
_cell_angle_alpha   90.00000000
_cell_angle_beta   90.00000000
_cell_angle_gamma   90.00000000
_symmetry_Int_Tables_number   1
_chemical_formula_structural   SrErLuSe4
_chemical_formula_sum   'Sr4 Er4 Lu4 Se16'
_cell_volume   761.46763396
_cell_formula_units_Z   4
loop_
 _symmetry_equiv_pos_site_id
 _symmetry_equiv_pos_as_xyz
  1  'x, y, z'
loop_
 _atom_site_type_symbol
 _atom_site_label
 _atom_site_symmetry_multiplicity
 _atom_site_fract_x
 _atom_site_fract_y
 _atom_site_fract_z
 _atom_site_occupancy
  Sr  Sr0  1  0.250000  0.760117  0.333777  1
  Sr  Sr1  1  0.250000  0.260117  0.166223  1
  Sr  Sr2  1  0.750000  0.239883  0.666223  1
  Sr  Sr3  1  0.750000  0.739883  0.833777  1
  Er  Er4  1  0.250000  0.438916  0.389112  1
  Er  Er5  1  0.250000  0.938916  0.110888  1
  Er  Er6  1  0.750000  0.561084  0.610888  1
  Er  Er7  1  0.750000  0.061084  0.889112  1
  Lu  Lu8  1  0.250000  0.417319  0.902636  1
  Lu  Lu9  1  0.250000  0.917319  0.597364  1
  Lu  Lu10  1  0.750000  0.582681  0.097364  1
  Lu  Lu11  1  0.750000  0.082681  0.402636  1
  Se  Se12  1  0.250000  0.205732  0.831352  1
  Se  Se13  1  0.250000  0.705732  0.668648  1
  Se  Se14  1  0.750000  0.794268  0.168648  1
  Se  Se15  1  0.750000  0.294268  0.331352  1
  Se  Se16  1  0.250000  0.127401  0.530071  1
  Se  Se17  1  0.250000  0.627401  0.969929  1
  Se  Se18  1  0.750000  0.872599  0.469929  1
  Se  Se19  1  0.750000  0.372599  0.030071  1
  Se  Se20  1  0.250000  0.028625  0.285542  1
  Se  Se21  1  0.250000  0.528625  0.214458  1
  Se  Se22  1  0.750000  0.971375  0.714458  1
  Se  Se23  1  0.750000  0.471375  0.785542  1
  Se  Se24  1  0.250000  0.408903  0.577000  1
  Se  Se25  1  0.250000  0.908903  0.923000  1
  Se  Se26  1  0.750000  0.591097  0.423000  1
  Se  Se27  1  0.750000  0.091097  0.077000  1
