# generated using pymatgen
data_GeF18
_symmetry_space_group_name_H-M   'P 1'
_cell_length_a   7.07858485
_cell_length_b   9.95492376
_cell_length_c   10.60764048
_cell_angle_alpha   95.16170823
_cell_angle_beta   97.56601536
_cell_angle_gamma   69.57748720
_symmetry_Int_Tables_number   1
_chemical_formula_structural   GeF18
_chemical_formula_sum   'Ge2 F36'
_cell_volume   693.62408595
_cell_formula_units_Z   2
loop_
 _symmetry_equiv_pos_site_id
 _symmetry_equiv_pos_as_xyz
  1  'x, y, z'
loop_
 _atom_site_type_symbol
 _atom_site_label
 _atom_site_symmetry_multiplicity
 _atom_site_fract_x
 _atom_site_fract_y
 _atom_site_fract_z
 _atom_site_occupancy
  Ge  Ge0  1  0.693383  0.834109  0.832342  1
  Ge  Ge1  1  0.306617  0.165891  0.167658  1
  F  F2  1  0.362360  0.379870  0.900957  1
  F  F3  1  0.637640  0.620130  0.099043  1
  F  F4  1  0.292943  0.268447  0.569491  1
  F  F5  1  0.707057  0.731553  0.430509  1
  F  F6  1  0.930303  0.220216  0.812270  1
  F  F7  1  0.069697  0.779784  0.187730  1
  F  F8  1  0.607078  0.896806  0.997796  1
  F  F9  1  0.392922  0.103194  0.002204  1
  F  F10  1  0.799845  0.671972  0.913174  1
  F  F11  1  0.200155  0.328028  0.086826  1
  F  F12  1  0.455026  0.421180  0.806851  1
  F  F13  1  0.544974  0.578820  0.193149  1
  F  F14  1  0.757037  0.734828  0.685583  1
  F  F15  1  0.242963  0.265172  0.314417  1
  F  F16  1  0.738019  0.010791  0.519711  1
  F  F17  1  0.261981  0.989209  0.480289  1
  F  F18  1  0.298937  0.191273  0.677411  1
  F  F19  1  0.701063  0.808727  0.322589  1
  F  F20  1  0.808303  0.103890  0.608224  1
  F  F21  1  0.191697  0.896110  0.391776  1
  F  F22  1  0.844832  0.938409  0.841177  1
  F  F23  1  0.155168  0.061591  0.158823  1
  F  F24  1  0.899747  0.369300  0.811852  1
  F  F25  1  0.100253  0.630700  0.188148  1
  F  F26  1  0.224092  0.689244  0.939033  1
  F  F27  1  0.775908  0.310756  0.060967  1
  F  F28  1  0.443482  0.918911  0.766863  1
  F  F29  1  0.556518  0.081089  0.233137  1
  F  F30  1  0.127228  0.742068  0.567378  1
  F  F31  1  0.872772  0.257932  0.432622  1
  F  F32  1  0.157985  0.624400  0.643038  1
  F  F33  1  0.842015  0.375600  0.356962  1
  F  F34  1  0.291917  0.776991  0.869505  1
  F  F35  1  0.708083  0.223009  0.130495  1
  F  F36  1  0.503289  0.438689  0.530984  1
  F  F37  1  0.496711  0.561311  0.469016  1
