# generated using pymatgen
data_Lu4Ge2B4Ir3Ru7
_symmetry_space_group_name_H-M   'P 1'
_cell_length_a   9.55762687
_cell_length_b   9.54904288
_cell_length_c   3.06132800
_cell_angle_alpha   90.00000000
_cell_angle_beta   90.00000000
_cell_angle_gamma   89.92821034
_symmetry_Int_Tables_number   1
_chemical_formula_structural   Lu4Ge2B4Ir3Ru7
_chemical_formula_sum   'Lu4 Ge2 B4 Ir3 Ru7'
_cell_volume   279.39551994
_cell_formula_units_Z   1
loop_
 _symmetry_equiv_pos_site_id
 _symmetry_equiv_pos_as_xyz
  1  'x, y, z'
loop_
 _atom_site_type_symbol
 _atom_site_label
 _atom_site_symmetry_multiplicity
 _atom_site_fract_x
 _atom_site_fract_y
 _atom_site_fract_z
 _atom_site_occupancy
  Lu  Lu0  1  0.681059  0.176593  0.000000  1
  Lu  Lu1  1  0.321615  0.821293  0.000000  1
  Lu  Lu2  1  0.173713  0.322384  0.000000  1
  Lu  Lu3  1  0.822087  0.678034  0.000000  1
  Ge  Ge4  1  0.000159  0.999951  0.000000  1
  Ge  Ge5  1  0.501426  0.504202  0.000000  1
  B  B6  1  0.124822  0.624731  0.000000  1
  B  B7  1  0.874734  0.374754  0.000000  1
  B  B8  1  0.626940  0.875512  0.000000  1
  B  B9  1  0.373685  0.121584  0.000000  1
  Ir  Ir10  1  0.431517  0.283992  0.500000  1
  Ir  Ir11  1  0.500301  0.000437  0.500000  1
  Ir  Ir12  1  0.998915  0.500537  0.500000  1
  Ru  Ru13  1  0.216108  0.068611  0.500000  1
  Ru  Ru14  1  0.784113  0.931922  0.500000  1
  Ru  Ru15  1  0.068721  0.783691  0.500000  1
  Ru  Ru16  1  0.715030  0.431309  0.500000  1
  Ru  Ru17  1  0.932048  0.215918  0.500000  1
  Ru  Ru18  1  0.284447  0.566560  0.500000  1
  Ru  Ru19  1  0.568560  0.717987  0.500000  1
