# generated using pymatgen
data_Tb14Ho2In4IrPd3
_symmetry_space_group_name_H-M   'P 1'
_cell_length_a   9.76047986
_cell_length_b   9.75385090
_cell_length_c   9.74897432
_cell_angle_alpha   60.00948688
_cell_angle_beta   60.05651708
_cell_angle_gamma   59.99708141
_symmetry_Int_Tables_number   1
_chemical_formula_structural   Tb14Ho2In4IrPd3
_chemical_formula_sum   'Tb14 Ho2 In4 Ir1 Pd3'
_cell_volume   656.59554482
_cell_formula_units_Z   1
loop_
 _symmetry_equiv_pos_site_id
 _symmetry_equiv_pos_as_xyz
  1  'x, y, z'
loop_
 _atom_site_type_symbol
 _atom_site_label
 _atom_site_symmetry_multiplicity
 _atom_site_fract_x
 _atom_site_fract_y
 _atom_site_fract_z
 _atom_site_occupancy
  Tb  Tb0  1  0.437371  0.435868  0.063545  1
  Tb  Tb1  1  0.646298  0.646465  0.061654  1
  Tb  Tb2  1  0.185223  0.809905  0.193713  1
  Tb  Tb3  1  0.062859  0.437047  0.063287  1
  Tb  Tb4  1  0.190013  0.810172  0.809460  1
  Tb  Tb5  1  0.063400  0.439453  0.433510  1
  Tb  Tb6  1  0.809631  0.185390  0.193943  1
  Tb  Tb7  1  0.651479  0.651577  0.644466  1
  Tb  Tb8  1  0.809739  0.190170  0.809072  1
  Tb  Tb9  1  0.191050  0.190553  0.808067  1
  Tb  Tb10  1  0.051752  0.651846  0.644866  1
  Tb  Tb11  1  0.437821  0.063128  0.063150  1
  Tb  Tb12  1  0.062737  0.063598  0.434062  1
  Tb  Tb13  1  0.650957  0.053852  0.644408  1
  Ho  Ho14  1  0.810069  0.810233  0.194017  1
  Ho  Ho15  1  0.442155  0.062048  0.434023  1
  In  In16  1  0.416204  0.416365  0.417010  1
  In  In17  1  0.417206  0.417777  0.748119  1
  In  In18  1  0.416678  0.749069  0.417803  1
  In  In19  1  0.749857  0.416639  0.417141  1
  Ir  Ir20  1  0.855824  0.857343  0.428787  1
  Pd  Pd21  1  0.432059  0.855278  0.858002  1
  Pd  Pd22  1  0.854609  0.854915  0.859078  1
  Pd  Pd23  1  0.855010  0.431308  0.858814  1
