# generated using pymatgen
data_Tb5Dy7TcRu3
_symmetry_space_group_name_H-M   'P 1'
_cell_length_a   6.30810723
_cell_length_b   7.34046966
_cell_length_c   9.22913262
_cell_angle_alpha   89.99306804
_cell_angle_beta   90.05113842
_cell_angle_gamma   90.04292595
_symmetry_Int_Tables_number   1
_chemical_formula_structural   Tb5Dy7TcRu3
_chemical_formula_sum   'Tb5 Dy7 Tc1 Ru3'
_cell_volume   427.34979877
_cell_formula_units_Z   1
loop_
 _symmetry_equiv_pos_site_id
 _symmetry_equiv_pos_as_xyz
  1  'x, y, z'
loop_
 _atom_site_type_symbol
 _atom_site_label
 _atom_site_symmetry_multiplicity
 _atom_site_fract_x
 _atom_site_fract_y
 _atom_site_fract_z
 _atom_site_occupancy
  Tb  Tb0  1  0.332155  0.676604  0.065236  1
  Tb  Tb1  1  0.866515  0.540310  0.250253  1
  Tb  Tb2  1  0.629159  0.042745  0.250193  1
  Tb  Tb3  1  0.134750  0.456649  0.749771  1
  Tb  Tb4  1  0.365505  0.957681  0.749786  1
  Dy  Dy5  1  0.168267  0.176545  0.434934  1
  Dy  Dy6  1  0.668608  0.323352  0.565080  1
  Dy  Dy7  1  0.833992  0.824374  0.936318  1
  Dy  Dy8  1  0.668923  0.323043  0.934624  1
  Dy  Dy9  1  0.834112  0.824342  0.563519  1
  Dy  Dy10  1  0.332266  0.676255  0.435017  1
  Dy  Dy11  1  0.168080  0.176481  0.065138  1
  Tc  Tc12  1  0.039099  0.887537  0.250253  1
  Ru  Ru13  1  0.460037  0.385843  0.250372  1
  Ru  Ru14  1  0.958219  0.115138  0.750103  1
  Ru  Ru15  1  0.540312  0.613101  0.749405  1
