# generated using pymatgen
data_Sc24Tc7Mo
_symmetry_space_group_name_H-M   'P 1'
_cell_length_a   5.76787880
_cell_length_b   8.56693700
_cell_length_c   13.95905314
_cell_angle_alpha   90.00000000
_cell_angle_beta   89.93595135
_cell_angle_gamma   90.00000000
_symmetry_Int_Tables_number   1
_chemical_formula_structural   Sc24Tc7Mo
_chemical_formula_sum   'Sc24 Tc7 Mo1'
_cell_volume   689.75901958
_cell_formula_units_Z   1
loop_
 _symmetry_equiv_pos_site_id
 _symmetry_equiv_pos_as_xyz
  1  'x, y, z'
loop_
 _atom_site_type_symbol
 _atom_site_label
 _atom_site_symmetry_multiplicity
 _atom_site_fract_x
 _atom_site_fract_y
 _atom_site_fract_z
 _atom_site_occupancy
  Sc  Sc0  1  0.528526  0.750000  0.352913  1
  Sc  Sc1  1  0.026086  0.250000  0.146520  1
  Sc  Sc2  1  0.471863  0.250000  0.646086  1
  Sc  Sc3  1  0.971145  0.750000  0.855178  1
  Sc  Sc4  1  0.788434  0.750000  0.111412  1
  Sc  Sc5  1  0.289754  0.250000  0.388400  1
  Sc  Sc6  1  0.211645  0.250000  0.889117  1
  Sc  Sc7  1  0.700253  0.750000  0.611627  1
  Sc  Sc8  1  0.446786  0.936535  0.790686  1
  Sc  Sc9  1  0.945128  0.064041  0.709665  1
  Sc  Sc10  1  0.558944  0.436129  0.210714  1
  Sc  Sc11  1  0.058247  0.564615  0.289302  1
  Sc  Sc12  1  0.558944  0.063871  0.210714  1
  Sc  Sc13  1  0.058247  0.935385  0.289302  1
  Sc  Sc14  1  0.446786  0.563465  0.790686  1
  Sc  Sc15  1  0.945128  0.435959  0.709665  1
  Sc  Sc16  1  0.246420  0.940074  0.531031  1
  Sc  Sc17  1  0.744407  0.061236  0.967269  1
  Sc  Sc18  1  0.755730  0.439688  0.465871  1
  Sc  Sc19  1  0.252682  0.560594  0.035325  1
  Sc  Sc20  1  0.755730  0.060312  0.465871  1
  Sc  Sc21  1  0.252682  0.939406  0.035325  1
  Sc  Sc22  1  0.246420  0.559926  0.531031  1
  Sc  Sc23  1  0.744407  0.438764  0.967269  1
  Tc  Tc24  1  0.923608  0.750000  0.442407  1
  Tc  Tc25  1  0.425154  0.250000  0.057917  1
  Tc  Tc26  1  0.072847  0.250000  0.556487  1
  Tc  Tc27  1  0.570294  0.750000  0.943428  1
  Tc  Tc28  1  0.351182  0.750000  0.181382  1
  Tc  Tc29  1  0.849551  0.250000  0.318714  1
  Tc  Tc30  1  0.650552  0.250000  0.818958  1
  Mo  Mo31  1  0.152418  0.750000  0.679726  1
