# generated using pymatgen
data_PaSeS
_symmetry_space_group_name_H-M   'P 1'
_cell_length_a   4.10378500
_cell_length_b   7.39837600
_cell_length_c   8.73803500
_cell_angle_alpha   90.00000000
_cell_angle_beta   90.00000000
_cell_angle_gamma   90.00000000
_symmetry_Int_Tables_number   1
_chemical_formula_structural   PaSeS
_chemical_formula_sum   'Pa4 Se4 S4'
_cell_volume   265.29849048
_cell_formula_units_Z   4
loop_
 _symmetry_equiv_pos_site_id
 _symmetry_equiv_pos_as_xyz
  1  'x, y, z'
loop_
 _atom_site_type_symbol
 _atom_site_label
 _atom_site_symmetry_multiplicity
 _atom_site_fract_x
 _atom_site_fract_y
 _atom_site_fract_z
 _atom_site_occupancy
  Pa  Pa0  1  0.250000  0.228608  0.869605  1
  Pa  Pa1  1  0.750000  0.771392  0.130395  1
  Pa  Pa2  1  0.250000  0.728608  0.630395  1
  Pa  Pa3  1  0.750000  0.271392  0.369605  1
  Se  Se4  1  0.750000  0.029174  0.663819  1
  Se  Se5  1  0.250000  0.970826  0.336181  1
  Se  Se6  1  0.750000  0.529174  0.836181  1
  Se  Se7  1  0.250000  0.470826  0.163819  1
  S  S8  1  0.250000  0.856649  0.930885  1
  S  S9  1  0.750000  0.143351  0.069115  1
  S  S10  1  0.250000  0.356649  0.569115  1
  S  S11  1  0.750000  0.643351  0.430885  1
