# generated using pymatgen
data_Gd8In4Rh3Au5
_symmetry_space_group_name_H-M   'P 1'
_cell_length_a   7.84279044
_cell_length_b   7.84279015
_cell_length_c   7.48387500
_cell_angle_alpha   90.03475974
_cell_angle_beta   90.03475974
_cell_angle_gamma   90.98700535
_symmetry_Int_Tables_number   1
_chemical_formula_structural   Gd8In4Rh3Au5
_chemical_formula_sum   'Gd8 In4 Rh3 Au5'
_cell_volume   460.25988630
_cell_formula_units_Z   1
loop_
 _symmetry_equiv_pos_site_id
 _symmetry_equiv_pos_as_xyz
  1  'x, y, z'
loop_
 _atom_site_type_symbol
 _atom_site_label
 _atom_site_symmetry_multiplicity
 _atom_site_fract_x
 _atom_site_fract_y
 _atom_site_fract_z
 _atom_site_occupancy
  Gd  Gd0  1  0.172823  0.172823  0.009269  1
  Gd  Gd1  1  0.817987  0.817987  0.000124  1
  Gd  Gd2  1  0.664968  0.347226  0.493404  1
  Gd  Gd3  1  0.347226  0.664968  0.493404  1
  Gd  Gd4  1  0.673085  0.341287  0.005716  1
  Gd  Gd5  1  0.341287  0.673085  0.005716  1
  Gd  Gd6  1  0.811237  0.811237  0.499758  1
  Gd  Gd7  1  0.182098  0.182098  0.492815  1
  In  In8  1  0.499837  0.006062  0.248980  1
  In  In9  1  0.501748  0.993105  0.749020  1
  In  In10  1  0.006062  0.499837  0.248980  1
  In  In11  1  0.993105  0.501748  0.749020  1
  Rh  Rh12  1  0.367269  0.367269  0.243407  1
  Rh  Rh13  1  0.628537  0.628537  0.755830  1
  Rh  Rh14  1  0.629070  0.629070  0.243280  1
  Au  Au15  1  0.869420  0.127944  0.741851  1
  Au  Au16  1  0.868395  0.124966  0.259217  1
  Au  Au17  1  0.372935  0.372935  0.759140  1
  Au  Au18  1  0.124966  0.868395  0.259217  1
  Au  Au19  1  0.127944  0.869420  0.741851  1
