# generated using pymatgen
data_La3Ta2Bi3O14
_symmetry_space_group_name_H-M   'P 1'
_cell_length_a   6.78789202
_cell_length_b   6.79611530
_cell_length_c   7.74108700
_cell_angle_alpha   90.00000000
_cell_angle_beta   90.00000000
_cell_angle_gamma   111.46382351
_symmetry_Int_Tables_number   1
_chemical_formula_structural   La3Ta2Bi3O14
_chemical_formula_sum   'La3 Ta2 Bi3 O14'
_cell_volume   332.34062264
_cell_formula_units_Z   1
loop_
 _symmetry_equiv_pos_site_id
 _symmetry_equiv_pos_as_xyz
  1  'x, y, z'
loop_
 _atom_site_type_symbol
 _atom_site_label
 _atom_site_symmetry_multiplicity
 _atom_site_fract_x
 _atom_site_fract_y
 _atom_site_fract_z
 _atom_site_occupancy
  La  La0  1  0.999298  0.989863  0.000189  1
  La  La1  1  0.999298  0.989863  0.499811  1
  La  La2  1  0.056061  0.510357  0.250000  1
  Ta  Ta3  1  0.504157  0.502280  0.998931  1
  Ta  Ta4  1  0.504157  0.502280  0.501069  1
  Bi  Bi5  1  0.486548  0.966151  0.750000  1
  Bi  Bi6  1  0.521910  0.033742  0.250000  1
  Bi  Bi7  1  0.974214  0.475408  0.750000  1
  O  O8  1  0.853624  0.101574  0.750000  1
  O  O9  1  0.163436  0.883072  0.250000  1
  O  O10  1  0.116616  0.838530  0.750000  1
  O  O11  1  0.898187  0.138991  0.250000  1
  O  O12  1  0.438151  0.196426  0.958932  1
  O  O13  1  0.552890  0.816218  0.461125  1
  O  O14  1  0.179312  0.433826  0.535053  1
  O  O15  1  0.806851  0.574331  0.035607  1
  O  O16  1  0.423901  0.450231  0.250000  1
  O  O17  1  0.544184  0.576056  0.750000  1
  O  O18  1  0.179312  0.433826  0.964947  1
  O  O19  1  0.806851  0.574331  0.464393  1
  O  O20  1  0.438151  0.196426  0.541068  1
  O  O21  1  0.552890  0.816218  0.038875  1
