# generated using pymatgen
data_KRb19(SiP3)4
_symmetry_space_group_name_H-M   'P 1'
_cell_length_a   5.60477900
_cell_length_b   13.96398361
_cell_length_c   15.53271719
_cell_angle_alpha   90.11206210
_cell_angle_beta   90.00000000
_cell_angle_gamma   90.00000000
_symmetry_Int_Tables_number   1
_chemical_formula_structural   KRb19(SiP3)4
_chemical_formula_sum   'K1 Rb19 Si4 P12'
_cell_volume   1215.66643912
_cell_formula_units_Z   1
loop_
 _symmetry_equiv_pos_site_id
 _symmetry_equiv_pos_as_xyz
  1  'x, y, z'
loop_
 _atom_site_type_symbol
 _atom_site_label
 _atom_site_symmetry_multiplicity
 _atom_site_fract_x
 _atom_site_fract_y
 _atom_site_fract_z
 _atom_site_occupancy
  K  K0  1  0.750000  0.389666  0.685118  1
  Rb  Rb1  1  0.250000  0.559564  0.550434  1
  Rb  Rb2  1  0.750000  0.454914  0.145648  1
  Rb  Rb3  1  0.750000  0.955189  0.356134  1
  Rb  Rb4  1  0.250000  0.061976  0.948538  1
  Rb  Rb5  1  0.250000  0.268796  0.786033  1
  Rb  Rb6  1  0.250000  0.852472  0.460082  1
  Rb  Rb7  1  0.750000  0.148925  0.545527  1
  Rb  Rb8  1  0.250000  0.766822  0.711531  1
  Rb  Rb9  1  0.250000  0.614885  0.315372  1
  Rb  Rb10  1  0.750000  0.646015  0.957545  1
  Rb  Rb11  1  0.250000  0.044021  0.647363  1
  Rb  Rb12  1  0.250000  0.544112  0.850845  1
  Rb  Rb13  1  0.750000  0.731677  0.210993  1
  Rb  Rb14  1  0.750000  0.883688  0.815546  1
  Rb  Rb15  1  0.750000  0.939711  0.049995  1
  Rb  Rb16  1  0.250000  0.115853  0.185269  1
  Rb  Rb17  1  0.250000  0.354672  0.037243  1
  Rb  Rb18  1  0.750000  0.232836  0.289712  1
  Rb  Rb19  1  0.750000  0.439354  0.452094  1
  Si  Si20  1  0.250000  0.263056  0.435193  1
  Si  Si21  1  0.750000  0.735728  0.567337  1
  Si  Si22  1  0.750000  0.237745  0.930175  1
  Si  Si23  1  0.250000  0.761937  0.066844  1
  P  P24  1  0.250000  0.369782  0.330596  1
  P  P25  1  0.250000  0.307278  0.571986  1
  P  P26  1  0.250000  0.869082  0.171672  1
  P  P27  1  0.750000  0.692949  0.430670  1
  P  P28  1  0.750000  0.392314  0.899526  1
  P  P29  1  0.750000  0.128833  0.827064  1
  P  P30  1  0.750000  0.890835  0.595880  1
  P  P31  1  0.250000  0.606767  0.094612  1
  P  P32  1  0.750000  0.628237  0.671858  1
  P  P33  1  0.250000  0.107771  0.407504  1
  P  P34  1  0.250000  0.805713  0.930517  1
  P  P35  1  0.750000  0.196827  0.067542  1
