# generated using pymatgen
data_Pr3Dy(B2Ir5)2
_symmetry_space_group_name_H-M   'P 1'
_cell_length_a   11.14769228
_cell_length_b   11.14769252
_cell_length_c   11.14769301
_cell_angle_alpha   28.75054397
_cell_angle_beta   28.75054072
_cell_angle_gamma   28.75054149
_symmetry_Int_Tables_number   1
_chemical_formula_structural   Pr3Dy(B2Ir5)2
_chemical_formula_sum   'Pr3 Dy1 B4 Ir10'
_cell_volume   283.38572361
_cell_formula_units_Z   1
loop_
 _symmetry_equiv_pos_site_id
 _symmetry_equiv_pos_as_xyz
  1  'x, y, z'
loop_
 _atom_site_type_symbol
 _atom_site_label
 _atom_site_symmetry_multiplicity
 _atom_site_fract_x
 _atom_site_fract_y
 _atom_site_fract_z
 _atom_site_occupancy
  Pr  Pr0  1  0.151323  0.151323  0.151323  1
  Pr  Pr1  1  0.950622  0.950622  0.950622  1
  Pr  Pr2  1  0.848413  0.848413  0.848413  1
  Dy  Dy3  1  0.049660  0.049660  0.049660  1
  B  B4  1  0.618478  0.618478  0.618478  1
  B  B5  1  0.716247  0.716247  0.716247  1
  B  B6  1  0.381644  0.381644  0.381644  1
  B  B7  1  0.283982  0.283982  0.283982  1
  Ir  Ir8  1  0.408484  0.898406  0.408484  1
  Ir  Ir9  1  0.898406  0.408484  0.408484  1
  Ir  Ir10  1  0.500632  0.500632  0.000340  1
  Ir  Ir11  1  0.500632  0.000340  0.500632  1
  Ir  Ir12  1  0.000340  0.500632  0.500632  1
  Ir  Ir13  1  0.499779  0.499779  0.499779  1
  Ir  Ir14  1  0.590856  0.101162  0.590856  1
  Ir  Ir15  1  0.590856  0.590856  0.101162  1
  Ir  Ir16  1  0.101162  0.590856  0.590856  1
  Ir  Ir17  1  0.408484  0.408484  0.898406  1
