# generated using pymatgen
data_Np2MoWC4
_symmetry_space_group_name_H-M   'P 1'
_cell_length_a   3.22369500
_cell_length_b   5.65612300
_cell_length_c   10.94102500
_cell_angle_alpha   90.00000000
_cell_angle_beta   90.00000000
_cell_angle_gamma   90.00000000
_symmetry_Int_Tables_number   1
_chemical_formula_structural   Np2MoWC4
_chemical_formula_sum   'Np4 Mo2 W2 C8'
_cell_volume   199.49444231
_cell_formula_units_Z   2
loop_
 _symmetry_equiv_pos_site_id
 _symmetry_equiv_pos_as_xyz
  1  'x, y, z'
loop_
 _atom_site_type_symbol
 _atom_site_label
 _atom_site_symmetry_multiplicity
 _atom_site_fract_x
 _atom_site_fract_y
 _atom_site_fract_z
 _atom_site_occupancy
  Np  Np0  1  0.250000  0.080364  0.859030  1
  Np  Np1  1  0.250000  0.580364  0.640970  1
  Np  Np2  1  0.750000  0.920386  0.141417  1
  Np  Np3  1  0.750000  0.420386  0.358583  1
  Mo  Mo4  1  0.250000  0.418770  0.102766  1
  Mo  Mo5  1  0.250000  0.918770  0.397234  1
  W  W6  1  0.750000  0.580941  0.897078  1
  W  W7  1  0.750000  0.080941  0.602922  1
  C  C8  1  0.250000  0.162841  0.245267  1
  C  C9  1  0.250000  0.662841  0.254733  1
  C  C10  1  0.750000  0.836196  0.755037  1
  C  C11  1  0.750000  0.336196  0.744963  1
  C  C12  1  0.250000  0.749064  0.991453  1
  C  C13  1  0.250000  0.249064  0.508547  1
  C  C14  1  0.750000  0.251438  0.007244  1
  C  C15  1  0.750000  0.751438  0.492756  1
