# generated using pymatgen
data_La5Sb2Os
_symmetry_space_group_name_H-M   'P 1'
_cell_length_a   8.42841000
_cell_length_b   9.24178300
_cell_length_c   12.90488400
_cell_angle_alpha   90.00000000
_cell_angle_beta   90.00000000
_cell_angle_gamma   90.00000000
_symmetry_Int_Tables_number   1
_chemical_formula_structural   La5Sb2Os
_chemical_formula_sum   'La20 Sb8 Os4'
_cell_volume   1005.20704972
_cell_formula_units_Z   4
loop_
 _symmetry_equiv_pos_site_id
 _symmetry_equiv_pos_as_xyz
  1  'x, y, z'
loop_
 _atom_site_type_symbol
 _atom_site_label
 _atom_site_symmetry_multiplicity
 _atom_site_fract_x
 _atom_site_fract_y
 _atom_site_fract_z
 _atom_site_occupancy
  La  La0  1  0.151375  0.750000  0.206057  1
  La  La1  1  0.651375  0.250000  0.293943  1
  La  La2  1  0.848625  0.250000  0.793943  1
  La  La3  1  0.348625  0.750000  0.706057  1
  La  La4  1  0.446658  0.750000  0.996926  1
  La  La5  1  0.946658  0.250000  0.503074  1
  La  La6  1  0.553342  0.250000  0.003074  1
  La  La7  1  0.053342  0.750000  0.496926  1
  La  La8  1  0.626211  0.750000  0.302814  1
  La  La9  1  0.126211  0.250000  0.197186  1
  La  La10  1  0.373789  0.250000  0.697186  1
  La  La11  1  0.873789  0.750000  0.802814  1
  La  La12  1  0.818671  0.964557  0.065151  1
  La  La13  1  0.318671  0.035443  0.434849  1
  La  La14  1  0.181329  0.464557  0.934849  1
  La  La15  1  0.681329  0.535443  0.565151  1
  La  La16  1  0.181329  0.035443  0.934849  1
  La  La17  1  0.681329  0.964557  0.565151  1
  La  La18  1  0.818671  0.535443  0.065151  1
  La  La19  1  0.318671  0.464557  0.434849  1
  Sb  Sb20  1  0.926417  0.994167  0.328436  1
  Sb  Sb21  1  0.426417  0.005833  0.171564  1
  Sb  Sb22  1  0.073583  0.494167  0.671564  1
  Sb  Sb23  1  0.573583  0.505833  0.828436  1
  Sb  Sb24  1  0.073583  0.005833  0.671564  1
  Sb  Sb25  1  0.573583  0.994167  0.828436  1
  Sb  Sb26  1  0.926417  0.505833  0.328436  1
  Sb  Sb27  1  0.426417  0.494167  0.171564  1
  Os  Os28  1  0.421404  0.750000  0.486695  1
  Os  Os29  1  0.921404  0.250000  0.013305  1
  Os  Os30  1  0.578596  0.250000  0.513305  1
  Os  Os31  1  0.078596  0.750000  0.986695  1
