# generated using pymatgen
data_Y6Cd15SiAg8
_symmetry_space_group_name_H-M   'P 1'
_cell_length_a   9.86969419
_cell_length_b   9.86969437
_cell_length_c   9.87793400
_cell_angle_alpha   60.02758815
_cell_angle_beta   60.02758755
_cell_angle_gamma   60.00000274
_symmetry_Int_Tables_number   1
_chemical_formula_structural   Y6Cd15SiAg8
_chemical_formula_sum   'Y6 Cd15 Si1 Ag8'
_cell_volume   680.67453347
_cell_formula_units_Z   1
loop_
 _symmetry_equiv_pos_site_id
 _symmetry_equiv_pos_as_xyz
  1  'x, y, z'
loop_
 _atom_site_type_symbol
 _atom_site_label
 _atom_site_symmetry_multiplicity
 _atom_site_fract_x
 _atom_site_fract_y
 _atom_site_fract_z
 _atom_site_occupancy
  Y  Y0  1  0.799440  0.799440  0.204971  1
  Y  Y1  1  0.196147  0.799440  0.204971  1
  Y  Y2  1  0.799440  0.196147  0.204971  1
  Y  Y3  1  0.203085  0.203085  0.797319  1
  Y  Y4  1  0.796512  0.203085  0.797319  1
  Y  Y5  1  0.203085  0.796512  0.797319  1
  Cd  Cd6  1  0.834073  0.497719  0.834136  1
  Cd  Cd7  1  0.497719  0.834073  0.834136  1
  Cd  Cd8  1  0.834073  0.834073  0.834136  1
  Cd  Cd9  1  0.166165  0.166165  0.501506  1
  Cd  Cd10  1  0.166369  0.501905  0.165357  1
  Cd  Cd11  1  0.501905  0.166369  0.165357  1
  Cd  Cd12  1  0.166369  0.166369  0.165357  1
  Cd  Cd13  1  0.619182  0.619182  0.142454  1
  Cd  Cd14  1  0.623324  0.135774  0.617580  1
  Cd  Cd15  1  0.135774  0.623324  0.617580  1
  Cd  Cd16  1  0.623324  0.623324  0.617580  1
  Cd  Cd17  1  0.379240  0.379240  0.862277  1
  Cd  Cd18  1  0.381712  0.858248  0.378328  1
  Cd  Cd19  1  0.858248  0.381712  0.378328  1
  Cd  Cd20  1  0.381712  0.381712  0.378328  1
  Si  Si21  1  0.000844  0.000844  0.997470  1
  Ag  Ag22  1  0.832329  0.832329  0.503013  1
  Ag  Ag23  1  0.000060  0.000060  0.498705  1
  Ag  Ag24  1  0.501177  0.000060  0.498705  1
  Ag  Ag25  1  0.000060  0.501177  0.498705  1
  Ag  Ag26  1  0.500349  0.500349  0.999679  1
  Ag  Ag27  1  0.999622  0.500349  0.999679  1
  Ag  Ag28  1  0.500349  0.999622  0.999679  1
  Ag  Ag29  1  0.498316  0.498316  0.505051  1
