# generated using pymatgen
data_La12TcIrI17
_symmetry_space_group_name_H-M   'P 1'
_cell_length_a   10.13596206
_cell_length_b   12.16640280
_cell_length_c   12.20955600
_cell_angle_alpha   93.59661318
_cell_angle_beta   104.70833431
_cell_angle_gamma   114.36814620
_symmetry_Int_Tables_number   1
_chemical_formula_structural   La12TcIrI17
_chemical_formula_sum   'La12 Tc1 Ir1 I17'
_cell_volume   1302.39175003
_cell_formula_units_Z   1
loop_
 _symmetry_equiv_pos_site_id
 _symmetry_equiv_pos_as_xyz
  1  'x, y, z'
loop_
 _atom_site_type_symbol
 _atom_site_label
 _atom_site_symmetry_multiplicity
 _atom_site_fract_x
 _atom_site_fract_y
 _atom_site_fract_z
 _atom_site_occupancy
  La  La0  1  0.059613  0.515148  0.323605  1
  La  La1  1  0.985445  0.809790  0.578069  1
  La  La2  1  0.639317  0.239598  0.285631  1
  La  La3  1  0.014119  0.189219  0.422014  1
  La  La4  1  0.225205  0.668352  0.994896  1
  La  La5  1  0.265293  0.994546  0.895737  1
  La  La6  1  0.353629  0.759801  0.716461  1
  La  La7  1  0.937718  0.481282  0.673971  1
  La  La8  1  0.736625  0.009813  0.105255  1
  La  La9  1  0.157371  0.288921  0.148561  1
  La  La10  1  0.774532  0.331092  0.007049  1
  La  La11  1  0.851330  0.713239  0.849725  1
  Tc  Tc12  1  0.104432  0.738172  0.786221  1
  Ir  Ir13  1  0.896674  0.261599  0.214911  1
  I  I14  1  0.781008  0.528237  0.417115  1
  I  I15  1  0.637568  0.417037  0.758316  1
  I  I16  1  0.842973  0.893813  0.323874  1
  I  I17  1  0.327856  0.210014  0.369835  1
  I  I18  1  0.157609  0.107001  0.673319  1
  I  I19  1  0.589219  0.052992  0.840824  1
  I  I20  1  0.752233  0.178240  0.538516  1
  I  I21  1  0.551116  0.708562  0.955316  1
  I  I22  1  0.365000  0.583245  0.244148  1
  I  I23  1  0.218105  0.471810  0.581990  1
  I  I24  1  0.054346  0.365122  0.895401  1
  I  I25  1  0.450365  0.298069  0.046858  1
  I  I26  1  0.000396  0.999842  0.000875  1
  I  I27  1  0.244912  0.816904  0.460068  1
  I  I28  1  0.410605  0.946895  0.158601  1
  I  I29  1  0.672830  0.787529  0.629144  1
  I  I30  1  0.942556  0.634115  0.103697  1
