# generated using pymatgen
data_DyTm7(Si3Pt)4
_symmetry_space_group_name_H-M   'P 1'
_cell_length_a   8.14463100
_cell_length_b   8.15596155
_cell_length_c   7.78043200
_cell_angle_alpha   90.00000000
_cell_angle_beta   90.00000000
_cell_angle_gamma   119.95405105
_symmetry_Int_Tables_number   1
_chemical_formula_structural   DyTm7(Si3Pt)4
_chemical_formula_sum   'Dy1 Tm7 Si12 Pt4'
_cell_volume   447.79766336
_cell_formula_units_Z   1
loop_
 _symmetry_equiv_pos_site_id
 _symmetry_equiv_pos_as_xyz
  1  'x, y, z'
loop_
 _atom_site_type_symbol
 _atom_site_label
 _atom_site_symmetry_multiplicity
 _atom_site_fract_x
 _atom_site_fract_y
 _atom_site_fract_z
 _atom_site_occupancy
  Dy  Dy0  1  0.512655  0.025309  0.250000  1
  Tm  Tm1  1  0.487833  0.975668  0.750000  1
  Tm  Tm2  1  0.975847  0.487899  0.250000  1
  Tm  Tm3  1  0.024976  0.512122  0.750000  1
  Tm  Tm4  1  0.512053  0.487899  0.250000  1
  Tm  Tm5  1  0.487145  0.512122  0.750000  1
  Tm  Tm6  1  0.000153  0.000307  0.250000  1
  Tm  Tm7  1  0.000170  0.000340  0.750000  1
  Si  Si8  1  0.164886  0.329771  0.002759  1
  Si  Si9  1  0.834879  0.669760  0.997092  1
  Si  Si10  1  0.669647  0.834756  0.002625  1
  Si  Si11  1  0.834879  0.669760  0.502908  1
  Si  Si12  1  0.330277  0.165298  0.996293  1
  Si  Si13  1  0.164886  0.329771  0.497241  1
  Si  Si14  1  0.165110  0.834756  0.002625  1
  Si  Si15  1  0.330277  0.165298  0.503707  1
  Si  Si16  1  0.835021  0.165298  0.996293  1
  Si  Si17  1  0.669647  0.834756  0.497375  1
  Si  Si18  1  0.835021  0.165298  0.503707  1
  Si  Si19  1  0.165110  0.834756  0.497375  1
  Pt  Pt20  1  0.332541  0.665084  0.040342  1
  Pt  Pt21  1  0.667222  0.334444  0.956409  1
  Pt  Pt22  1  0.667222  0.334444  0.543591  1
  Pt  Pt23  1  0.332541  0.665084  0.459658  1
