# generated using pymatgen
data_Nd3Th(Ni7As4)2
_symmetry_space_group_name_H-M   'P 1'
_cell_length_a   3.92264100
_cell_length_b   9.48473601
_cell_length_c   10.66405601
_cell_angle_alpha   89.99510745
_cell_angle_beta   90.00000000
_cell_angle_gamma   90.00000000
_symmetry_Int_Tables_number   1
_chemical_formula_structural   Nd3Th(Ni7As4)2
_chemical_formula_sum   'Nd3 Th1 Ni14 As8'
_cell_volume   396.75848815
_cell_formula_units_Z   1
loop_
 _symmetry_equiv_pos_site_id
 _symmetry_equiv_pos_as_xyz
  1  'x, y, z'
loop_
 _atom_site_type_symbol
 _atom_site_label
 _atom_site_symmetry_multiplicity
 _atom_site_fract_x
 _atom_site_fract_y
 _atom_site_fract_z
 _atom_site_occupancy
  Nd  Nd0  1  0.500000  0.056461  0.281345  1
  Nd  Nd1  1  0.000000  0.943611  0.780822  1
  Nd  Nd2  1  0.000000  0.559884  0.007725  1
  Th  Th3  1  0.500000  0.442552  0.507516  1
  Ni  Ni4  1  0.500000  0.307267  0.060053  1
  Ni  Ni5  1  0.500000  0.730567  0.400920  1
  Ni  Ni6  1  0.500000  0.424247  0.818280  1
  Ni  Ni7  1  0.500000  0.056568  0.981801  1
  Ni  Ni8  1  0.500000  0.684060  0.764297  1
  Ni  Ni9  1  0.000000  0.280521  0.668806  1
  Ni  Ni10  1  0.000000  0.267360  0.898740  1
  Ni  Ni11  1  0.000000  0.688408  0.557146  1
  Ni  Ni12  1  0.500000  0.102121  0.579662  1
  Ni  Ni13  1  0.000000  0.317126  0.265118  1
  Ni  Ni14  1  0.000000  0.573302  0.325311  1
  Ni  Ni15  1  0.000000  0.899035  0.079239  1
  Ni  Ni16  1  0.000000  0.940568  0.480950  1
  Ni  Ni17  1  0.500000  0.725445  0.171134  1
  As  As18  1  0.000000  0.813780  0.287372  1
  As  As19  1  0.000000  0.189133  0.464984  1
  As  As20  1  0.500000  0.184761  0.788369  1
  As  As21  1  0.000000  0.155635  0.088509  1
  As  As22  1  0.500000  0.472175  0.219502  1
  As  As23  1  0.500000  0.809061  0.965057  1
  As  As24  1  0.500000  0.845614  0.588986  1
  As  As25  1  0.000000  0.530738  0.723758  1
