# generated using pymatgen
data_K2Mg2TeO6
_symmetry_space_group_name_H-M   'P 1'
_cell_length_a   5.36838794
_cell_length_b   5.36838825
_cell_length_c   6.60750819
_cell_angle_alpha   99.06811511
_cell_angle_beta   99.06811167
_cell_angle_gamma   119.21334817
_symmetry_Int_Tables_number   1
_chemical_formula_structural   K2Mg2TeO6
_chemical_formula_sum   'K2 Mg2 Te1 O6'
_cell_volume   157.93467981
_cell_formula_units_Z   1
loop_
 _symmetry_equiv_pos_site_id
 _symmetry_equiv_pos_as_xyz
  1  'x, y, z'
loop_
 _atom_site_type_symbol
 _atom_site_label
 _atom_site_symmetry_multiplicity
 _atom_site_fract_x
 _atom_site_fract_y
 _atom_site_fract_z
 _atom_site_occupancy
  K  K0  1  0.825790  0.174208  0.499999  1
  K  K1  1  0.174208  0.825790  0.499999  1
  Mg  Mg2  1  0.665071  0.334929  0.000000  1
  Mg  Mg3  1  0.334929  0.665071  0.000000  1
  Te  Te4  1  0.000000  0.000000  0.000000  1
  O  O5  1  0.756725  0.756725  0.167432  1
  O  O6  1  0.371259  0.059582  0.169783  1
  O  O7  1  0.059582  0.371259  0.169783  1
  O  O8  1  0.940418  0.628742  0.830218  1
  O  O9  1  0.628742  0.940418  0.830218  1
  O  O10  1  0.243275  0.243275  0.832569  1
