# generated using pymatgen
data_Ca10Pr9NdSn16
_symmetry_space_group_name_H-M   'P 1'
_cell_length_a   8.01913001
_cell_length_b   8.56085271
_cell_length_c   16.15250822
_cell_angle_alpha   89.99462125
_cell_angle_beta   89.98655663
_cell_angle_gamma   90.03672577
_symmetry_Int_Tables_number   1
_chemical_formula_structural   Ca10Pr9NdSn16
_chemical_formula_sum   'Ca10 Pr9 Nd1 Sn16'
_cell_volume   1108.87896967
_cell_formula_units_Z   1
loop_
 _symmetry_equiv_pos_site_id
 _symmetry_equiv_pos_as_xyz
  1  'x, y, z'
loop_
 _atom_site_type_symbol
 _atom_site_label
 _atom_site_symmetry_multiplicity
 _atom_site_fract_x
 _atom_site_fract_y
 _atom_site_fract_z
 _atom_site_occupancy
  Ca  Ca0  1  0.831414  0.671705  0.622304  1
  Ca  Ca1  1  0.668357  0.172089  0.376587  1
  Ca  Ca2  1  0.169529  0.327845  0.124202  1
  Ca  Ca3  1  0.668232  0.172855  0.124313  1
  Ca  Ca4  1  0.168127  0.327882  0.376637  1
  Ca  Ca5  1  0.331097  0.827753  0.622222  1
  Ca  Ca6  1  0.161442  0.498967  0.748040  1
  Ca  Ca7  1  0.660777  0.000400  0.747758  1
  Ca  Ca8  1  0.838922  0.497645  0.250260  1
  Ca  Ca9  1  0.338256  0.003287  0.250626  1
  Pr  Pr10  1  0.833525  0.675066  0.875829  1
  Pr  Pr11  1  0.492278  0.313185  0.905347  1
  Pr  Pr12  1  0.992202  0.186225  0.594796  1
  Pr  Pr13  1  0.507006  0.687396  0.403488  1
  Pr  Pr14  1  0.008776  0.813891  0.098271  1
  Pr  Pr15  1  0.508106  0.685870  0.098053  1
  Pr  Pr16  1  0.006715  0.812868  0.403132  1
  Pr  Pr17  1  0.492099  0.313703  0.593741  1
  Pr  Pr18  1  0.992531  0.184593  0.904358  1
  Nd  Nd19  1  0.332153  0.825789  0.876776  1
  Sn  Sn20  1  0.328221  0.035049  0.039013  1
  Sn  Sn21  1  0.829253  0.466021  0.461020  1
  Sn  Sn22  1  0.670385  0.966234  0.538548  1
  Sn  Sn23  1  0.171417  0.532729  0.960919  1
  Sn  Sn24  1  0.671403  0.965800  0.961704  1
  Sn  Sn25  1  0.169634  0.533203  0.538691  1
  Sn  Sn26  1  0.329037  0.034052  0.461198  1
  Sn  Sn27  1  0.828599  0.465081  0.038815  1
  Sn  Sn28  1  0.532132  0.602646  0.751021  1
  Sn  Sn29  1  0.033885  0.898530  0.750578  1
  Sn  Sn30  1  0.467199  0.398408  0.250736  1
  Sn  Sn31  1  0.966675  0.102510  0.250183  1
  Sn  Sn32  1  0.288215  0.141661  0.750382  1
  Sn  Sn33  1  0.786427  0.358198  0.751026  1
  Sn  Sn34  1  0.712618  0.858202  0.249539  1
  Sn  Sn35  1  0.213354  0.642662  0.249887  1
