# generated using pymatgen
data_Sm2Sc3Ga3Sn
_symmetry_space_group_name_H-M   'P 1'
_cell_length_a   7.41053900
_cell_length_b   7.74662900
_cell_length_c   14.79077400
_cell_angle_alpha   90.00000000
_cell_angle_beta   90.00000000
_cell_angle_gamma   90.00000000
_symmetry_Int_Tables_number   1
_chemical_formula_structural   Sm2Sc3Ga3Sn
_chemical_formula_sum   'Sm8 Sc12 Ga12 Sn4'
_cell_volume   849.08947140
_cell_formula_units_Z   4
loop_
 _symmetry_equiv_pos_site_id
 _symmetry_equiv_pos_as_xyz
  1  'x, y, z'
loop_
 _atom_site_type_symbol
 _atom_site_label
 _atom_site_symmetry_multiplicity
 _atom_site_fract_x
 _atom_site_fract_y
 _atom_site_fract_z
 _atom_site_occupancy
  Sm  Sm0  1  0.490470  0.324727  0.903562  1
  Sm  Sm1  1  0.990470  0.175273  0.596438  1
  Sm  Sm2  1  0.509530  0.675273  0.403562  1
  Sm  Sm3  1  0.009530  0.824727  0.096438  1
  Sm  Sm4  1  0.493072  0.679625  0.099336  1
  Sm  Sm5  1  0.993072  0.820375  0.400664  1
  Sm  Sm6  1  0.506928  0.320375  0.599336  1
  Sm  Sm7  1  0.006928  0.179625  0.900664  1
  Sc  Sc8  1  0.328989  0.827420  0.873463  1
  Sc  Sc9  1  0.828989  0.672580  0.626537  1
  Sc  Sc10  1  0.671011  0.172580  0.373463  1
  Sc  Sc11  1  0.171011  0.327420  0.126537  1
  Sc  Sc12  1  0.652725  0.168719  0.131220  1
  Sc  Sc13  1  0.152725  0.331281  0.368780  1
  Sc  Sc14  1  0.347275  0.831281  0.631220  1
  Sc  Sc15  1  0.847275  0.668719  0.868780  1
  Sc  Sc16  1  0.175775  0.498245  0.751093  1
  Sc  Sc17  1  0.675775  0.001755  0.748907  1
  Sc  Sc18  1  0.824225  0.501755  0.251093  1
  Sc  Sc19  1  0.324225  0.998245  0.248907  1
  Ga  Ga20  1  0.331003  0.041942  0.040692  1
  Ga  Ga21  1  0.831003  0.458058  0.459308  1
  Ga  Ga22  1  0.668997  0.958058  0.540692  1
  Ga  Ga23  1  0.168997  0.541942  0.959308  1
  Ga  Ga24  1  0.539934  0.618239  0.754101  1
  Ga  Ga25  1  0.039934  0.881761  0.745899  1
  Ga  Ga26  1  0.460066  0.381761  0.254101  1
  Ga  Ga27  1  0.960066  0.118239  0.245899  1
  Ga  Ga28  1  0.296089  0.124982  0.749400  1
  Ga  Ga29  1  0.796089  0.375018  0.750600  1
  Ga  Ga30  1  0.703911  0.875018  0.249400  1
  Ga  Ga31  1  0.203911  0.624982  0.250600  1
  Sn  Sn32  1  0.670537  0.960063  0.960699  1
  Sn  Sn33  1  0.170537  0.539937  0.539301  1
  Sn  Sn34  1  0.329463  0.039937  0.460699  1
  Sn  Sn35  1  0.829463  0.460063  0.039301  1
