# generated using pymatgen
data_Tb2PaIr2
_symmetry_space_group_name_H-M   'P 1'
_cell_length_a   6.08781847
_cell_length_b   6.08781797
_cell_length_c   6.08782000
_cell_angle_alpha   143.29956684
_cell_angle_beta   115.29585732
_cell_angle_gamma   76.75804885
_symmetry_Int_Tables_number   1
_chemical_formula_structural   Tb2PaIr2
_chemical_formula_sum   'Tb2 Pa1 Ir2'
_cell_volume   119.18929043
_cell_formula_units_Z   1
loop_
 _symmetry_equiv_pos_site_id
 _symmetry_equiv_pos_as_xyz
  1  'x, y, z'
loop_
 _atom_site_type_symbol
 _atom_site_label
 _atom_site_symmetry_multiplicity
 _atom_site_fract_x
 _atom_site_fract_y
 _atom_site_fract_z
 _atom_site_occupancy
  Tb  Tb0  1  0.304932  0.804932  0.500000  1
  Tb  Tb1  1  0.695068  0.195068  0.500000  1
  Pa  Pa2  1  0.000000  0.000000  0.000000  1
  Ir  Ir3  1  0.286973  0.500000  0.786973  1
  Ir  Ir4  1  0.713027  0.500000  0.213027  1
