# generated using pymatgen
data_Tb8Ti8Nb4Si15As
_symmetry_space_group_name_H-M   'P 1'
_cell_length_a   7.07612718
_cell_length_b   7.07643820
_cell_length_c   13.02001694
_cell_angle_alpha   90.00024810
_cell_angle_beta   89.90386312
_cell_angle_gamma   89.95770558
_symmetry_Int_Tables_number   1
_chemical_formula_structural   Tb8Ti8Nb4Si15As
_chemical_formula_sum   'Tb8 Ti8 Nb4 Si15 As1'
_cell_volume   651.96032491
_cell_formula_units_Z   1
loop_
 _symmetry_equiv_pos_site_id
 _symmetry_equiv_pos_as_xyz
  1  'x, y, z'
loop_
 _atom_site_type_symbol
 _atom_site_label
 _atom_site_symmetry_multiplicity
 _atom_site_fract_x
 _atom_site_fract_y
 _atom_site_fract_z
 _atom_site_occupancy
  Tb  Tb0  1  0.340815  0.001422  0.466268  1
  Tb  Tb1  1  0.497748  0.841252  0.717475  1
  Tb  Tb2  1  0.502051  0.159504  0.216739  1
  Tb  Tb3  1  0.840110  0.497586  0.282959  1
  Tb  Tb4  1  0.159555  0.501000  0.783077  1
  Tb  Tb5  1  0.660902  0.995999  0.967669  1
  Tb  Tb6  1  0.999708  0.342460  0.531959  1
  Tb  Tb7  1  0.998084  0.659795  0.033295  1
  Ti  Ti8  1  0.154712  0.010013  0.875574  1
  Ti  Ti9  1  0.490578  0.653259  0.125594  1
  Ti  Ti10  1  0.510174  0.346829  0.626610  1
  Ti  Ti11  1  0.655052  0.493346  0.874808  1
  Ti  Ti12  1  0.346440  0.509064  0.374364  1
  Ti  Ti13  1  0.846653  0.990935  0.375630  1
  Ti  Ti14  1  0.009228  0.152947  0.124380  1
  Ti  Ti15  1  0.988282  0.842812  0.623265  1
  Nb  Nb16  1  0.325772  0.326509  0.999812  1
  Nb  Nb17  1  0.173169  0.827132  0.250007  1
  Nb  Nb18  1  0.823724  0.173861  0.749933  1
  Nb  Nb19  1  0.673358  0.673217  0.500157  1
  Si  Si20  1  0.370520  0.703121  0.934678  1
  Si  Si21  1  0.628207  0.297438  0.435222  1
  Si  Si22  1  0.702807  0.371044  0.065280  1
  Si  Si23  1  0.297201  0.629116  0.565126  1
  Si  Si24  1  0.797369  0.871047  0.185132  1
  Si  Si25  1  0.128913  0.202760  0.315215  1
  Si  Si26  1  0.871421  0.797266  0.814780  1
  Si  Si27  1  0.291628  0.953027  0.063948  1
  Si  Si28  1  0.547069  0.791361  0.313823  1
  Si  Si29  1  0.461200  0.210345  0.818514  1
  Si  Si30  1  0.791322  0.547079  0.685997  1
  Si  Si31  1  0.208421  0.452800  0.186131  1
  Si  Si32  1  0.708190  0.046766  0.563729  1
  Si  Si33  1  0.953067  0.291569  0.936117  1
  Si  Si34  1  0.046840  0.708718  0.435580  1
  As  As35  1  0.199710  0.127600  0.681151  1
