# generated using pymatgen
data_Na3PSeO3
_symmetry_space_group_name_H-M   'P 1'
_cell_length_a   6.42907010
_cell_length_b   6.42906989
_cell_length_c   6.42906886
_cell_angle_alpha   84.46599019
_cell_angle_beta   84.46599629
_cell_angle_gamma   84.46599276
_symmetry_Int_Tables_number   1
_chemical_formula_structural   Na3PSeO3
_chemical_formula_sum   'Na6 P2 Se2 O6'
_cell_volume   262.24074201
_cell_formula_units_Z   2
loop_
 _symmetry_equiv_pos_site_id
 _symmetry_equiv_pos_as_xyz
  1  'x, y, z'
loop_
 _atom_site_type_symbol
 _atom_site_label
 _atom_site_symmetry_multiplicity
 _atom_site_fract_x
 _atom_site_fract_y
 _atom_site_fract_z
 _atom_site_occupancy
  Na  Na0  1  0.509949  0.879326  0.189011  1
  Na  Na1  1  0.189011  0.509949  0.879326  1
  Na  Na2  1  0.879326  0.189011  0.509949  1
  Na  Na3  1  0.379326  0.009949  0.689011  1
  Na  Na4  1  0.689011  0.379326  0.009949  1
  Na  Na5  1  0.009949  0.689011  0.379326  1
  P  P6  1  0.902751  0.902751  0.902751  1
  P  P7  1  0.402751  0.402751  0.402751  1
  Se  Se8  1  0.590267  0.590267  0.590267  1
  Se  Se9  1  0.090267  0.090267  0.090267  1
  O  O10  1  0.863524  0.696153  0.039888  1
  O  O11  1  0.039888  0.863524  0.696153  1
  O  O12  1  0.696153  0.039888  0.863524  1
  O  O13  1  0.196153  0.363524  0.539888  1
  O  O14  1  0.539888  0.196153  0.363524  1
  O  O15  1  0.363524  0.539888  0.196153  1
