# generated using pymatgen
data_Hf2AlV2Os
_symmetry_space_group_name_H-M   'P 1'
_cell_length_a   5.23291992
_cell_length_b   5.23063460
_cell_length_c   8.36311200
_cell_angle_alpha   90.00000000
_cell_angle_beta   90.00000000
_cell_angle_gamma   60.17627929
_symmetry_Int_Tables_number   1
_chemical_formula_structural   Hf2AlV2Os
_chemical_formula_sum   'Hf4 Al2 V4 Os2'
_cell_volume   198.59381502
_cell_formula_units_Z   2
loop_
 _symmetry_equiv_pos_site_id
 _symmetry_equiv_pos_as_xyz
  1  'x, y, z'
loop_
 _atom_site_type_symbol
 _atom_site_label
 _atom_site_symmetry_multiplicity
 _atom_site_fract_x
 _atom_site_fract_y
 _atom_site_fract_z
 _atom_site_occupancy
  Hf  Hf0  1  0.330385  0.330437  0.556455  1
  Hf  Hf1  1  0.665316  0.665304  0.433555  1
  Hf  Hf2  1  0.665316  0.665304  0.066445  1
  Hf  Hf3  1  0.330385  0.330437  0.943545  1
  Al  Al4  1  0.839388  0.347953  0.750000  1
  Al  Al5  1  0.347959  0.839373  0.750000  1
  V  V6  1  0.842857  0.842855  0.750000  1
  V  V7  1  0.165721  0.652838  0.250000  1
  V  V8  1  0.652809  0.165784  0.250000  1
  V  V9  1  0.166667  0.166732  0.250000  1
  Os  Os10  1  0.996600  0.996492  0.498498  1
  Os  Os11  1  0.996600  0.996492  0.001502  1
