# generated using pymatgen
data_Ho10Zn3Fe
_symmetry_space_group_name_H-M   'P 1'
_cell_length_a   9.34627400
_cell_length_b   9.34627511
_cell_length_c   9.49227200
_cell_angle_alpha   90.00000000
_cell_angle_beta   90.00000000
_cell_angle_gamma   119.99999606
_symmetry_Int_Tables_number   1
_chemical_formula_structural   Ho10Zn3Fe
_chemical_formula_sum   'Ho20 Zn6 Fe2'
_cell_volume   718.08836955
_cell_formula_units_Z   2
loop_
 _symmetry_equiv_pos_site_id
 _symmetry_equiv_pos_as_xyz
  1  'x, y, z'
loop_
 _atom_site_type_symbol
 _atom_site_label
 _atom_site_symmetry_multiplicity
 _atom_site_fract_x
 _atom_site_fract_y
 _atom_site_fract_z
 _atom_site_occupancy
  Ho  Ho0  1  0.000000  0.000000  0.500000  1
  Ho  Ho1  1  0.000000  0.000000  0.000000  1
  Ho  Ho2  1  0.542089  0.457911  0.250000  1
  Ho  Ho3  1  0.542089  0.084179  0.250000  1
  Ho  Ho4  1  0.915821  0.457911  0.250000  1
  Ho  Ho5  1  0.457911  0.542089  0.750000  1
  Ho  Ho6  1  0.457911  0.915821  0.750000  1
  Ho  Ho7  1  0.084179  0.542089  0.750000  1
  Ho  Ho8  1  0.209574  0.790426  0.436849  1
  Ho  Ho9  1  0.209574  0.419148  0.436849  1
  Ho  Ho10  1  0.580852  0.790426  0.436849  1
  Ho  Ho11  1  0.790426  0.209574  0.563151  1
  Ho  Ho12  1  0.790426  0.580852  0.563151  1
  Ho  Ho13  1  0.419148  0.209574  0.563151  1
  Ho  Ho14  1  0.790426  0.209574  0.936849  1
  Ho  Ho15  1  0.790426  0.580852  0.936849  1
  Ho  Ho16  1  0.419148  0.209574  0.936849  1
  Ho  Ho17  1  0.209574  0.790426  0.063151  1
  Ho  Ho18  1  0.209574  0.419148  0.063151  1
  Ho  Ho19  1  0.580852  0.790426  0.063151  1
  Zn  Zn20  1  0.885333  0.114667  0.250000  1
  Zn  Zn21  1  0.885333  0.770667  0.250000  1
  Zn  Zn22  1  0.229333  0.114667  0.250000  1
  Zn  Zn23  1  0.114667  0.885333  0.750000  1
  Zn  Zn24  1  0.114667  0.229333  0.750000  1
  Zn  Zn25  1  0.770667  0.885333  0.750000  1
  Fe  Fe26  1  0.333333  0.666667  0.250000  1
  Fe  Fe27  1  0.666667  0.333333  0.750000  1
