# generated using pymatgen
data_Tb16In4Ir3Os
_symmetry_space_group_name_H-M   'P 1'
_cell_length_a   9.73008196
_cell_length_b   9.73008109
_cell_length_c   9.73008251
_cell_angle_alpha   59.84996133
_cell_angle_beta   59.84996360
_cell_angle_gamma   59.84996066
_symmetry_Int_Tables_number   1
_chemical_formula_structural   Tb16In4Ir3Os
_chemical_formula_sum   'Tb16 In4 Ir3 Os1'
_cell_volume   649.16218741
_cell_formula_units_Z   1
loop_
 _symmetry_equiv_pos_site_id
 _symmetry_equiv_pos_as_xyz
  1  'x, y, z'
loop_
 _atom_site_type_symbol
 _atom_site_label
 _atom_site_symmetry_multiplicity
 _atom_site_fract_x
 _atom_site_fract_y
 _atom_site_fract_z
 _atom_site_occupancy
  Tb  Tb0  1  0.099341  0.704993  0.099341  1
  Tb  Tb1  1  0.939625  0.939625  0.560872  1
  Tb  Tb2  1  0.939625  0.560872  0.939625  1
  Tb  Tb3  1  0.311696  0.687962  0.311696  1
  Tb  Tb4  1  0.937455  0.558291  0.558291  1
  Tb  Tb5  1  0.311696  0.311696  0.687962  1
  Tb  Tb6  1  0.097479  0.097479  0.097479  1
  Tb  Tb7  1  0.558291  0.558291  0.937455  1
  Tb  Tb8  1  0.099341  0.099341  0.704993  1
  Tb  Tb9  1  0.691903  0.306071  0.691903  1
  Tb  Tb10  1  0.691903  0.691903  0.306071  1
  Tb  Tb11  1  0.687962  0.311696  0.311696  1
  Tb  Tb12  1  0.306071  0.691903  0.691903  1
  Tb  Tb13  1  0.558291  0.937455  0.558291  1
  Tb  Tb14  1  0.704993  0.099341  0.099341  1
  Tb  Tb15  1  0.560872  0.939625  0.939625  1
  In  In16  1  0.332592  0.332592  0.332592  1
  In  In17  1  0.002470  0.332215  0.332215  1
  In  In18  1  0.332215  0.002470  0.332215  1
  In  In19  1  0.332215  0.332215  0.002470  1
  Ir  Ir20  1  0.891715  0.891715  0.328583  1
  Ir  Ir21  1  0.328583  0.891715  0.891715  1
  Ir  Ir22  1  0.891715  0.328583  0.891715  1
  Os  Os23  1  0.891950  0.891950  0.891950  1
