# generated using pymatgen
data_Th8CrRe3C8
_symmetry_space_group_name_H-M   'P 1'
_cell_length_a   5.34670600
_cell_length_b   6.67041643
_cell_length_c   10.12900023
_cell_angle_alpha   90.21175742
_cell_angle_beta   90.00000000
_cell_angle_gamma   90.00000000
_symmetry_Int_Tables_number   1
_chemical_formula_structural   Th8CrRe3C8
_chemical_formula_sum   'Th8 Cr1 Re3 C8'
_cell_volume   361.24585004
_cell_formula_units_Z   1
loop_
 _symmetry_equiv_pos_site_id
 _symmetry_equiv_pos_as_xyz
  1  'x, y, z'
loop_
 _atom_site_type_symbol
 _atom_site_label
 _atom_site_symmetry_multiplicity
 _atom_site_fract_x
 _atom_site_fract_y
 _atom_site_fract_z
 _atom_site_occupancy
  Th  Th0  1  0.250000  0.473662  0.777066  1
  Th  Th1  1  0.750000  0.024860  0.277998  1
  Th  Th2  1  0.250000  0.973807  0.722257  1
  Th  Th3  1  0.750000  0.526622  0.221670  1
  Th  Th4  1  0.250000  0.811939  0.049886  1
  Th  Th5  1  0.750000  0.691051  0.548212  1
  Th  Th6  1  0.250000  0.305363  0.447560  1
  Th  Th7  1  0.750000  0.192831  0.952635  1
  Cr  Cr8  1  0.250000  0.266532  0.139920  1
  Re  Re9  1  0.750000  0.228560  0.637908  1
  Re  Re10  1  0.250000  0.767212  0.360258  1
  Re  Re11  1  0.750000  0.729154  0.862852  1
  C  C12  1  0.250000  0.174779  0.957914  1
  C  C13  1  0.750000  0.836151  0.052887  1
  C  C14  1  0.250000  0.668232  0.550279  1
  C  C15  1  0.750000  0.333969  0.446734  1
  C  C16  1  0.250000  0.033945  0.255053  1
  C  C17  1  0.750000  0.470091  0.755655  1
  C  C18  1  0.250000  0.521376  0.238977  1
  C  C19  1  0.750000  0.969865  0.744279  1
