# generated using pymatgen
data_Er8Ga13Ag3
_symmetry_space_group_name_H-M   'P 1'
_cell_length_a   6.96050800
_cell_length_b   9.00946923
_cell_length_c   9.00946900
_cell_angle_alpha   120.00000284
_cell_angle_beta   90.00000000
_cell_angle_gamma   90.00000000
_symmetry_Int_Tables_number   1
_chemical_formula_structural   Er8Ga13Ag3
_chemical_formula_sum   'Er8 Ga13 Ag3'
_cell_volume   489.29407595
_cell_formula_units_Z   1
loop_
 _symmetry_equiv_pos_site_id
 _symmetry_equiv_pos_as_xyz
  1  'x, y, z'
loop_
 _atom_site_type_symbol
 _atom_site_label
 _atom_site_symmetry_multiplicity
 _atom_site_fract_x
 _atom_site_fract_y
 _atom_site_fract_z
 _atom_site_occupancy
  Er  Er0  1  0.750783  0.000000  0.000000  1
  Er  Er1  1  0.253077  0.000000  0.000000  1
  Er  Er2  1  0.752643  0.489472  0.510528  1
  Er  Er3  1  0.251667  0.514058  0.485942  1
  Er  Er4  1  0.752643  0.021055  0.510528  1
  Er  Er5  1  0.251667  0.971884  0.485942  1
  Er  Er6  1  0.752643  0.489472  0.978945  1
  Er  Er7  1  0.251667  0.514058  0.028116  1
  Ga  Ga8  1  0.964557  0.835671  0.164329  1
  Ga  Ga9  1  0.035690  0.165502  0.834498  1
  Ga  Ga10  1  0.964557  0.328658  0.164329  1
  Ga  Ga11  1  0.463589  0.164943  0.835057  1
  Ga  Ga12  1  0.035690  0.668994  0.834498  1
  Ga  Ga13  1  0.539816  0.833152  0.166848  1
  Ga  Ga14  1  0.964557  0.835671  0.671342  1
  Ga  Ga15  1  0.463589  0.670114  0.835057  1
  Ga  Ga16  1  0.035690  0.165502  0.331006  1
  Ga  Ga17  1  0.539816  0.333699  0.166848  1
  Ga  Ga18  1  0.463589  0.164943  0.329886  1
  Ga  Ga19  1  0.539816  0.833152  0.666301  1
  Ga  Ga20  1  0.505740  0.666667  0.333333  1
  Ag  Ag21  1  0.961695  0.666667  0.333333  1
  Ag  Ag22  1  0.032840  0.333333  0.666667  1
  Ag  Ag23  1  0.471984  0.333333  0.666667  1
