# generated using pymatgen
data_TbHo19Si15Os
_symmetry_space_group_name_H-M   'P 1'
_cell_length_a   7.36956620
_cell_length_b   7.72387804
_cell_length_c   14.51104093
_cell_angle_alpha   89.96599470
_cell_angle_beta   90.02303851
_cell_angle_gamma   90.04485767
_symmetry_Int_Tables_number   1
_chemical_formula_structural   TbHo19Si15Os
_chemical_formula_sum   'Tb1 Ho19 Si15 Os1'
_cell_volume   825.99164556
_cell_formula_units_Z   1
loop_
 _symmetry_equiv_pos_site_id
 _symmetry_equiv_pos_as_xyz
  1  'x, y, z'
loop_
 _atom_site_type_symbol
 _atom_site_label
 _atom_site_symmetry_multiplicity
 _atom_site_fract_x
 _atom_site_fract_y
 _atom_site_fract_z
 _atom_site_occupancy
  Tb  Tb0  1  0.025799  0.818017  0.596054  1
  Ho  Ho1  1  0.671281  0.185638  0.625404  1
  Ho  Ho2  1  0.191519  0.324433  0.873871  1
  Ho  Ho3  1  0.318885  0.819121  0.123851  1
  Ho  Ho4  1  0.817149  0.677828  0.376405  1
  Ho  Ho5  1  0.319165  0.818995  0.376073  1
  Ho  Ho6  1  0.817405  0.678237  0.123396  1
  Ho  Ho7  1  0.671183  0.185570  0.874810  1
  Ho  Ho8  1  0.191740  0.324598  0.626284  1
  Ho  Ho9  1  0.522629  0.672289  0.596745  1
  Ho  Ho10  1  0.026784  0.816900  0.903165  1
  Ho  Ho11  1  0.473056  0.316015  0.097121  1
  Ho  Ho12  1  0.973273  0.183252  0.402460  1
  Ho  Ho13  1  0.473305  0.316130  0.402855  1
  Ho  Ho14  1  0.973375  0.183171  0.097276  1
  Ho  Ho15  1  0.522659  0.672514  0.903398  1
  Ho  Ho16  1  0.841488  0.512304  0.750132  1
  Ho  Ho17  1  0.354953  0.986771  0.750089  1
  Ho  Ho18  1  0.150041  0.485212  0.249994  1
  Ho  Ho19  1  0.649865  0.013598  0.249981  1
  Si  Si20  1  0.647419  0.971367  0.460243  1
  Si  Si21  1  0.149775  0.528411  0.039876  1
  Si  Si22  1  0.348078  0.025051  0.961090  1
  Si  Si23  1  0.855621  0.470394  0.538906  1
  Si  Si24  1  0.349141  0.025601  0.538789  1
  Si  Si25  1  0.855940  0.471326  0.960836  1
  Si  Si26  1  0.646890  0.971512  0.039816  1
  Si  Si27  1  0.149713  0.527728  0.459921  1
  Si  Si28  1  0.979776  0.101621  0.750344  1
  Si  Si29  1  0.522518  0.604156  0.249967  1
  Si  Si30  1  0.019837  0.894137  0.249955  1
  Si  Si31  1  0.740261  0.876176  0.750437  1
  Si  Si32  1  0.230235  0.633634  0.750412  1
  Si  Si33  1  0.268038  0.128926  0.249992  1
  Si  Si34  1  0.770026  0.371173  0.249975  1
  Os  Os35  1  0.481177  0.408194  0.750076  1
