# generated using pymatgen
data_YbMnP2O7
_symmetry_space_group_name_H-M   'P 1'
_cell_length_a   6.56147948
_cell_length_b   6.63200124
_cell_length_c   6.76966724
_cell_angle_alpha   65.86508750
_cell_angle_beta   86.63618220
_cell_angle_gamma   82.89696696
_symmetry_Int_Tables_number   1
_chemical_formula_structural   YbMnP2O7
_chemical_formula_sum   'Yb2 Mn2 P4 O14'
_cell_volume   266.76188645
_cell_formula_units_Z   2
loop_
 _symmetry_equiv_pos_site_id
 _symmetry_equiv_pos_as_xyz
  1  'x, y, z'
loop_
 _atom_site_type_symbol
 _atom_site_label
 _atom_site_symmetry_multiplicity
 _atom_site_fract_x
 _atom_site_fract_y
 _atom_site_fract_z
 _atom_site_occupancy
  Yb  Yb0  1  0.864451  0.267940  0.168622  1
  Yb  Yb1  1  0.135549  0.732060  0.831378  1
  Mn  Mn2  1  0.652848  0.105336  0.761790  1
  Mn  Mn3  1  0.347152  0.894664  0.238210  1
  P  P4  1  0.149245  0.233854  0.745438  1
  P  P5  1  0.850755  0.766146  0.254562  1
  P  P6  1  0.635758  0.638129  0.680893  1
  P  P7  1  0.364242  0.361871  0.319107  1
  O  O8  1  0.764929  0.600856  0.482121  1
  O  O9  1  0.235071  0.399144  0.517879  1
  O  O10  1  0.982816  0.108650  0.708887  1
  O  O11  1  0.017184  0.891350  0.291113  1
  O  O12  1  0.581306  0.257581  0.406480  1
  O  O13  1  0.418694  0.742419  0.593520  1
  O  O14  1  0.360749  0.600242  0.145584  1
  O  O15  1  0.639251  0.399758  0.854416  1
  O  O16  1  0.926490  0.614785  0.141711  1
  O  O17  1  0.073510  0.385215  0.858289  1
  O  O18  1  0.672098  0.945857  0.138459  1
  O  O19  1  0.327902  0.054143  0.861541  1
  O  O20  1  0.246808  0.210027  0.260133  1
  O  O21  1  0.753192  0.789973  0.739867  1
