# generated using pymatgen
data_YbTmGa9Ru5
_symmetry_space_group_name_H-M   'P 1'
_cell_length_a   7.99709068
_cell_length_b   7.99709004
_cell_length_c   7.99708952
_cell_angle_alpha   134.73301833
_cell_angle_beta   134.55288877
_cell_angle_gamma   66.08559093
_symmetry_Int_Tables_number   1
_chemical_formula_structural   YbTmGa9Ru5
_chemical_formula_sum   'Yb1 Tm1 Ga9 Ru5'
_cell_volume   254.92894043
_cell_formula_units_Z   1
loop_
 _symmetry_equiv_pos_site_id
 _symmetry_equiv_pos_as_xyz
  1  'x, y, z'
loop_
 _atom_site_type_symbol
 _atom_site_label
 _atom_site_symmetry_multiplicity
 _atom_site_fract_x
 _atom_site_fract_y
 _atom_site_fract_z
 _atom_site_occupancy
  Yb  Yb0  1  0.500000  0.000000  0.500000  1
  Tm  Tm1  1  0.000000  0.500000  0.500000  1
  Ga  Ga2  1  0.436057  0.858727  0.001864  1
  Ga  Ga3  1  0.143138  0.141273  0.577330  1
  Ga  Ga4  1  0.856862  0.434192  0.998136  1
  Ga  Ga5  1  0.856862  0.858727  0.422670  1
  Ga  Ga6  1  0.563943  0.141273  0.998136  1
  Ga  Ga7  1  0.143138  0.565808  0.001864  1
  Ga  Ga8  1  0.563943  0.565808  0.422670  1
  Ga  Ga9  1  0.000000  0.000000  0.000000  1
  Ga  Ga10  1  0.436057  0.434192  0.577330  1
  Ru  Ru11  1  0.182219  0.182219  0.000000  1
  Ru  Ru12  1  0.817781  0.817781  0.000000  1
  Ru  Ru13  1  0.249104  0.749104  0.500000  1
  Ru  Ru14  1  0.750896  0.250896  0.500000  1
  Ru  Ru15  1  0.500000  0.500000  0.000000  1
