# generated using pymatgen
data_Dy5IrOs
_symmetry_space_group_name_H-M   'P 1'
_cell_length_a   6.44726206
_cell_length_b   7.29435673
_cell_length_c   8.47229810
_cell_angle_alpha   96.81447726
_cell_angle_beta   112.36409213
_cell_angle_gamma   89.99999233
_symmetry_Int_Tables_number   1
_chemical_formula_structural   Dy5IrOs
_chemical_formula_sum   'Dy10 Ir2 Os2'
_cell_volume   365.42620466
_cell_formula_units_Z   2
loop_
 _symmetry_equiv_pos_site_id
 _symmetry_equiv_pos_as_xyz
  1  'x, y, z'
loop_
 _atom_site_type_symbol
 _atom_site_label
 _atom_site_symmetry_multiplicity
 _atom_site_fract_x
 _atom_site_fract_y
 _atom_site_fract_z
 _atom_site_occupancy
  Dy  Dy0  1  0.791874  0.084713  0.818123  1
  Dy  Dy1  1  0.973751  0.415287  0.181877  1
  Dy  Dy2  1  0.208350  0.917560  0.185083  1
  Dy  Dy3  1  0.023267  0.582440  0.814917  1
  Dy  Dy4  1  0.211080  0.184902  0.561579  1
  Dy  Dy5  1  0.649501  0.315098  0.438421  1
  Dy  Dy6  1  0.789069  0.817100  0.436664  1
  Dy  Dy7  1  0.352406  0.682900  0.563336  1
  Dy  Dy8  1  0.426479  0.250000  0.000000  1
  Dy  Dy9  1  0.575719  0.750000  0.000000  1
  Ir  Ir10  1  0.395452  0.576032  0.221264  1
  Ir  Ir11  1  0.174188  0.923968  0.778736  1
  Os  Os12  1  0.605115  0.425913  0.781364  1
  Os  Os13  1  0.823751  0.074087  0.218636  1
