# generated using pymatgen
data_Sr15Ca5Si11Ge
_symmetry_space_group_name_H-M   'P 1'
_cell_length_a   7.93406899
_cell_length_b   7.94182961
_cell_length_c   15.95798800
_cell_angle_alpha   89.92382280
_cell_angle_beta   90.11857691
_cell_angle_gamma   89.92094335
_symmetry_Int_Tables_number   1
_chemical_formula_structural   Sr15Ca5Si11Ge
_chemical_formula_sum   'Sr15 Ca5 Si11 Ge1'
_cell_volume   1005.52516235
_cell_formula_units_Z   1
loop_
 _symmetry_equiv_pos_site_id
 _symmetry_equiv_pos_as_xyz
  1  'x, y, z'
loop_
 _atom_site_type_symbol
 _atom_site_label
 _atom_site_symmetry_multiplicity
 _atom_site_fract_x
 _atom_site_fract_y
 _atom_site_fract_z
 _atom_site_occupancy
  Sr  Sr0  1  0.173157  0.190034  0.110365  1
  Sr  Sr1  1  0.327347  0.689916  0.389020  1
  Sr  Sr2  1  0.670564  0.689915  0.890188  1
  Sr  Sr3  1  0.189491  0.172937  0.388545  1
  Sr  Sr4  1  0.672706  0.311121  0.387764  1
  Sr  Sr5  1  0.171522  0.810820  0.609939  1
  Sr  Sr6  1  0.328974  0.309663  0.890123  1
  Sr  Sr7  1  0.192118  0.826155  0.892170  1
  Sr  Sr8  1  0.827501  0.189935  0.610079  1
  Sr  Sr9  1  0.309821  0.328293  0.610089  1
  Sr  Sr10  1  0.810326  0.827443  0.388937  1
  Sr  Sr11  1  0.811279  0.169923  0.889678  1
  Sr  Sr12  1  0.828026  0.810514  0.110446  1
  Sr  Sr13  1  0.685836  0.328148  0.110364  1
  Sr  Sr14  1  0.689252  0.672370  0.610177  1
  Ca  Ca15  1  0.310203  0.674734  0.116850  1
  Ca  Ca16  1  0.499293  0.999725  0.730625  1
  Ca  Ca17  1  0.499398  0.998409  0.229568  1
  Ca  Ca18  1  0.000787  0.500977  0.265976  1
  Ca  Ca19  1  0.000382  0.500830  0.768618  1
  Si  Si20  1  0.110581  0.109716  0.750452  1
  Si  Si21  1  0.389413  0.610427  0.749633  1
  Si  Si22  1  0.607996  0.612664  0.248484  1
  Si  Si23  1  0.498648  0.992660  0.013688  1
  Si  Si24  1  0.112148  0.888228  0.249053  1
  Si  Si25  1  0.610719  0.389772  0.751022  1
  Si  Si26  1  0.890085  0.889295  0.750448  1
  Si  Si27  1  0.387233  0.392972  0.247519  1
  Si  Si28  1  0.890332  0.109886  0.249507  1
  Si  Si29  1  0.499980  0.001659  0.510975  1
  Si  Si30  1  0.999091  0.500636  0.488118  1
  Ge  Ge31  1  0.005791  0.500222  0.991579  1
