# generated using pymatgen
data_Dy16In4NiIr3
_symmetry_space_group_name_H-M   'P 1'
_cell_length_a   9.62320607
_cell_length_b   9.62319916
_cell_length_c   9.62319278
_cell_angle_alpha   60.46282211
_cell_angle_beta   60.46250609
_cell_angle_gamma   60.46286070
_symmetry_Int_Tables_number   1
_chemical_formula_structural   Dy16In4NiIr3
_chemical_formula_sum   'Dy16 In4 Ni1 Ir3'
_cell_volume   636.74076148
_cell_formula_units_Z   1
loop_
 _symmetry_equiv_pos_site_id
 _symmetry_equiv_pos_as_xyz
  1  'x, y, z'
loop_
 _atom_site_type_symbol
 _atom_site_label
 _atom_site_symmetry_multiplicity
 _atom_site_fract_x
 _atom_site_fract_y
 _atom_site_fract_z
 _atom_site_occupancy
  Dy  Dy0  1  0.597522  0.597520  0.597522  1
  Dy  Dy1  1  0.599500  0.599500  0.201538  1
  Dy  Dy2  1  0.599500  0.201538  0.599500  1
  Dy  Dy3  1  0.201539  0.599500  0.599500  1
  Dy  Dy4  1  0.059820  0.440318  0.440317  1
  Dy  Dy5  1  0.441598  0.059114  0.059114  1
  Dy  Dy6  1  0.440318  0.059822  0.440317  1
  Dy  Dy7  1  0.059114  0.441598  0.059114  1
  Dy  Dy8  1  0.440317  0.440318  0.059820  1
  Dy  Dy9  1  0.059114  0.059114  0.441598  1
  Dy  Dy10  1  0.190288  0.810473  0.810471  1
  Dy  Dy11  1  0.813670  0.189463  0.189462  1
  Dy  Dy12  1  0.810474  0.190287  0.810473  1
  Dy  Dy13  1  0.189463  0.813669  0.189463  1
  Dy  Dy14  1  0.810472  0.810473  0.190288  1
  Dy  Dy15  1  0.189463  0.189463  0.813670  1
  In  In16  1  0.832520  0.832520  0.832521  1
  In  In17  1  0.832929  0.832929  0.501954  1
  In  In18  1  0.832928  0.501955  0.832928  1
  In  In19  1  0.501954  0.832929  0.832929  1
  Ni  Ni20  1  0.391422  0.391422  0.391426  1
  Ir  Ir21  1  0.390436  0.390435  0.825203  1
  Ir  Ir22  1  0.390436  0.825205  0.390436  1
  Ir  Ir23  1  0.825204  0.390435  0.390435  1
