# generated using pymatgen
data_Tb4Dy6CuAsPb6
_symmetry_space_group_name_H-M   'P 1'
_cell_length_a   9.23502000
_cell_length_b   9.23501957
_cell_length_c   6.73848500
_cell_angle_alpha   90.00000000
_cell_angle_beta   90.00000000
_cell_angle_gamma   119.99999439
_symmetry_Int_Tables_number   1
_chemical_formula_structural   Tb4Dy6CuAsPb6
_chemical_formula_sum   'Tb4 Dy6 Cu1 As1 Pb6'
_cell_volume   497.70107912
_cell_formula_units_Z   1
loop_
 _symmetry_equiv_pos_site_id
 _symmetry_equiv_pos_as_xyz
  1  'x, y, z'
loop_
 _atom_site_type_symbol
 _atom_site_label
 _atom_site_symmetry_multiplicity
 _atom_site_fract_x
 _atom_site_fract_y
 _atom_site_fract_z
 _atom_site_occupancy
  Tb  Tb0  1  0.333333  0.666667  0.000000  1
  Tb  Tb1  1  0.666667  0.333333  0.000000  1
  Tb  Tb2  1  0.666667  0.333333  0.500000  1
  Tb  Tb3  1  0.333333  0.666667  0.500000  1
  Dy  Dy4  1  0.250723  0.000000  0.242401  1
  Dy  Dy5  1  0.749277  0.000000  0.757599  1
  Dy  Dy6  1  0.000000  0.250723  0.242401  1
  Dy  Dy7  1  0.000000  0.749277  0.757599  1
  Dy  Dy8  1  0.749277  0.749277  0.242401  1
  Dy  Dy9  1  0.250723  0.250723  0.757599  1
  Cu  Cu10  1  0.000000  0.000000  0.500000  1
  As  As11  1  0.000000  0.000000  0.000000  1
  Pb  Pb12  1  0.607371  0.000000  0.249859  1
  Pb  Pb13  1  0.392629  0.000000  0.750141  1
  Pb  Pb14  1  0.000000  0.607371  0.249859  1
  Pb  Pb15  1  0.000000  0.392629  0.750141  1
  Pb  Pb16  1  0.392629  0.392629  0.249859  1
  Pb  Pb17  1  0.607371  0.607371  0.750141  1
