# generated using pymatgen
data_TePtPbO6
_symmetry_space_group_name_H-M   'P 1'
_cell_length_a   5.30292600
_cell_length_b   5.30292632
_cell_length_c   5.45270700
_cell_angle_alpha   90.00000000
_cell_angle_beta   90.00000000
_cell_angle_gamma   119.99999800
_symmetry_Int_Tables_number   1
_chemical_formula_structural   TePtPbO6
_chemical_formula_sum   'Te1 Pt1 Pb1 O6'
_cell_volume   132.79262678
_cell_formula_units_Z   1
loop_
 _symmetry_equiv_pos_site_id
 _symmetry_equiv_pos_as_xyz
  1  'x, y, z'
loop_
 _atom_site_type_symbol
 _atom_site_label
 _atom_site_symmetry_multiplicity
 _atom_site_fract_x
 _atom_site_fract_y
 _atom_site_fract_z
 _atom_site_occupancy
  Te  Te0  1  0.666666  0.333334  0.500000  1
  Pt  Pt1  1  0.333334  0.666668  0.500000  1
  Pb  Pb2  1  0.000000  0.000000  0.000000  1
  O  O3  1  0.634672  0.007963  0.298403  1
  O  O4  1  0.373291  0.365328  0.298403  1
  O  O5  1  0.992038  0.626708  0.298403  1
  O  O6  1  0.373292  0.007963  0.701598  1
  O  O7  1  0.992038  0.365328  0.701598  1
  O  O8  1  0.634671  0.626708  0.701598  1
