# generated using pymatgen
data_UZn(P2O7)2
_symmetry_space_group_name_H-M   'P 1'
_cell_length_a   8.57171718
_cell_length_b   5.15146776
_cell_length_c   7.20715647
_cell_angle_alpha   73.19809285
_cell_angle_beta   88.77493900
_cell_angle_gamma   90.31074866
_symmetry_Int_Tables_number   1
_chemical_formula_structural   UZn(P2O7)2
_chemical_formula_sum   'U1 Zn1 P4 O14'
_cell_volume   304.56788633
_cell_formula_units_Z   1
loop_
 _symmetry_equiv_pos_site_id
 _symmetry_equiv_pos_as_xyz
  1  'x, y, z'
loop_
 _atom_site_type_symbol
 _atom_site_label
 _atom_site_symmetry_multiplicity
 _atom_site_fract_x
 _atom_site_fract_y
 _atom_site_fract_z
 _atom_site_occupancy
  U  U0  1  0.051619  0.792501  0.725584  1
  Zn  Zn1  1  0.547872  0.210523  0.269582  1
  P  P2  1  0.383629  0.607160  0.502158  1
  P  P3  1  0.299537  0.249270  0.895316  1
  P  P4  1  0.850215  0.385081  0.483279  1
  P  P5  1  0.769962  0.756907  0.115605  1
  O  O6  1  0.158265  0.441476  0.907312  1
  O  O7  1  0.222755  0.019774  0.821933  1
  O  O8  1  0.735527  0.013516  0.164517  1
  O  O9  1  0.383596  0.142109  0.077984  1
  O  O10  1  0.978420  0.159123  0.523853  1
  O  O11  1  0.687959  0.277504  0.500050  1
  O  O12  1  0.372238  0.428392  0.372680  1
  O  O13  1  0.644377  0.571905  0.085435  1
  O  O14  1  0.494163  0.841021  0.467997  1
  O  O15  1  0.411963  0.420188  0.726574  1
  O  O16  1  0.896267  0.579212  0.273716  1
  O  O17  1  0.885664  0.555695  0.627319  1
  O  O18  1  0.207202  0.716620  0.529830  1
  O  O19  1  0.890864  0.832026  0.929276  1
