# generated using pymatgen
data_Ho2Pu(ZnPd)3
_symmetry_space_group_name_H-M   'P 1'
_cell_length_a   7.22420803
_cell_length_b   7.24223723
_cell_length_c   3.92403700
_cell_angle_alpha   90.00000000
_cell_angle_beta   90.00000000
_cell_angle_gamma   119.46839335
_symmetry_Int_Tables_number   1
_chemical_formula_structural   Ho2Pu(ZnPd)3
_chemical_formula_sum   'Ho2 Pu1 Zn3 Pd3'
_cell_volume   178.74270133
_cell_formula_units_Z   1
loop_
 _symmetry_equiv_pos_site_id
 _symmetry_equiv_pos_as_xyz
  1  'x, y, z'
loop_
 _atom_site_type_symbol
 _atom_site_label
 _atom_site_symmetry_multiplicity
 _atom_site_fract_x
 _atom_site_fract_y
 _atom_site_fract_z
 _atom_site_occupancy
  Ho  Ho0  1  0.593379  0.996163  0.000000  1
  Ho  Ho1  1  0.996246  0.593364  0.000000  1
  Pu  Pu2  1  0.411836  0.411705  0.000000  1
  Zn  Zn3  1  0.754691  0.754585  0.500000  1
  Zn  Zn4  1  0.249989  0.996714  0.500000  1
  Zn  Zn5  1  0.996744  0.250263  0.500000  1
  Pd  Pd6  1  0.002944  0.003129  0.000000  1
  Pd  Pd7  1  0.663954  0.330077  0.500000  1
  Pd  Pd8  1  0.330217  0.664000  0.500000  1
