# generated using pymatgen
data_PrSi4(PdRh)3
_symmetry_space_group_name_H-M   'P 1'
_cell_length_a   7.15445800
_cell_length_b   7.15445717
_cell_length_c   3.83428600
_cell_angle_alpha   90.00000000
_cell_angle_beta   90.00000000
_cell_angle_gamma   119.99999458
_symmetry_Int_Tables_number   1
_chemical_formula_structural   PrSi4(PdRh)3
_chemical_formula_sum   'Pr1 Si4 Pd3 Rh3'
_cell_volume   169.96855649
_cell_formula_units_Z   1
loop_
 _symmetry_equiv_pos_site_id
 _symmetry_equiv_pos_as_xyz
  1  'x, y, z'
loop_
 _atom_site_type_symbol
 _atom_site_label
 _atom_site_symmetry_multiplicity
 _atom_site_fract_x
 _atom_site_fract_y
 _atom_site_fract_z
 _atom_site_occupancy
  Pr  Pr0  1  0.000000  0.000000  0.000000  1
  Si  Si1  1  0.333333  0.666667  0.000000  1
  Si  Si2  1  0.796444  0.203556  0.500000  1
  Si  Si3  1  0.796444  0.592887  0.500000  1
  Si  Si4  1  0.407113  0.203556  0.500000  1
  Pd  Pd5  1  0.198684  0.801316  0.500000  1
  Pd  Pd6  1  0.198684  0.397368  0.500000  1
  Pd  Pd7  1  0.602632  0.801316  0.500000  1
  Rh  Rh8  1  0.534121  0.465879  0.000000  1
  Rh  Rh9  1  0.534121  0.068241  0.000000  1
  Rh  Rh10  1  0.931759  0.465879  0.000000  1
