# generated using pymatgen
data_NaGd3Te4
_symmetry_space_group_name_H-M   'P 1'
_cell_length_a   8.90102561
_cell_length_b   8.86282608
_cell_length_c   8.86282500
_cell_angle_alpha   59.78162979
_cell_angle_beta   59.85731257
_cell_angle_gamma   59.85732086
_symmetry_Int_Tables_number   1
_chemical_formula_structural   NaGd3Te4
_chemical_formula_sum   'Na2 Gd6 Te8'
_cell_volume   492.50505373
_cell_formula_units_Z   2
loop_
 _symmetry_equiv_pos_site_id
 _symmetry_equiv_pos_as_xyz
  1  'x, y, z'
loop_
 _atom_site_type_symbol
 _atom_site_label
 _atom_site_symmetry_multiplicity
 _atom_site_fract_x
 _atom_site_fract_y
 _atom_site_fract_z
 _atom_site_occupancy
  Na  Na0  1  0.625000  0.625000  0.625000  1
  Na  Na1  1  0.125000  0.625000  0.625000  1
  Gd  Gd2  1  0.125000  0.625000  0.125000  1
  Gd  Gd3  1  0.125000  0.125000  0.625000  1
  Gd  Gd4  1  0.625000  0.125000  0.125000  1
  Gd  Gd5  1  0.125000  0.125000  0.125000  1
  Gd  Gd6  1  0.625000  0.125000  0.625000  1
  Gd  Gd7  1  0.625000  0.625000  0.125000  1
  Te  Te8  1  0.375023  0.876572  0.373381  1
  Te  Te9  1  0.874977  0.373428  0.876619  1
  Te  Te10  1  0.874977  0.876619  0.373428  1
  Te  Te11  1  0.874332  0.875582  0.875582  1
  Te  Te12  1  0.875493  0.374418  0.374418  1
  Te  Te13  1  0.375023  0.373381  0.876572  1
  Te  Te14  1  0.375668  0.374418  0.374418  1
  Te  Te15  1  0.374507  0.875582  0.875582  1
