# generated using pymatgen
data_Er17Tm3(Ir3Rh)3
_symmetry_space_group_name_H-M   'P 1'
_cell_length_a   10.76802000
_cell_length_b   10.76723200
_cell_length_c   6.33348900
_cell_angle_alpha   90.00000000
_cell_angle_beta   90.00000000
_cell_angle_gamma   90.00000000
_symmetry_Int_Tables_number   1
_chemical_formula_structural   Er17Tm3(Ir3Rh)3
_chemical_formula_sum   'Er17 Tm3 Ir9 Rh3'
_cell_volume   734.31592190
_cell_formula_units_Z   1
loop_
 _symmetry_equiv_pos_site_id
 _symmetry_equiv_pos_as_xyz
  1  'x, y, z'
loop_
 _atom_site_type_symbol
 _atom_site_label
 _atom_site_symmetry_multiplicity
 _atom_site_fract_x
 _atom_site_fract_y
 _atom_site_fract_z
 _atom_site_occupancy
  Er  Er0  1  0.290414  0.088078  0.377784  1
  Er  Er1  1  0.290321  0.911707  0.877625  1
  Er  Er2  1  0.709679  0.088293  0.877625  1
  Er  Er3  1  0.709586  0.911922  0.377784  1
  Er  Er4  1  0.588245  0.790251  0.877633  1
  Er  Er5  1  0.588027  0.209673  0.377856  1
  Er  Er6  1  0.411973  0.790327  0.377856  1
  Er  Er7  1  0.411755  0.209749  0.877633  1
  Er  Er8  1  0.209068  0.411995  0.621171  1
  Er  Er9  1  0.209334  0.588230  0.123478  1
  Er  Er10  1  0.790666  0.411770  0.123478  1
  Er  Er11  1  0.790932  0.588005  0.621171  1
  Er  Er12  1  0.911756  0.709272  0.123470  1
  Er  Er13  1  0.911928  0.291042  0.621188  1
  Er  Er14  1  0.088072  0.708958  0.621188  1
  Er  Er15  1  0.088244  0.290728  0.123470  1
  Er  Er16  1  0.000000  0.000000  0.500326  1
  Tm  Tm17  1  0.000000  0.000000  0.000136  1
  Tm  Tm18  1  0.500000  0.500000  0.000159  1
  Tm  Tm19  1  0.500000  0.500000  0.500323  1
  Ir  Ir20  1  0.845719  0.153293  0.249546  1
  Ir  Ir21  1  0.845864  0.846464  0.750149  1
  Ir  Ir22  1  0.154136  0.153536  0.750149  1
  Ir  Ir23  1  0.154281  0.846707  0.249546  1
  Ir  Ir24  1  0.653398  0.345996  0.749961  1
  Ir  Ir25  1  0.653161  0.654146  0.249735  1
  Ir  Ir26  1  0.346839  0.345854  0.249735  1
  Ir  Ir27  1  0.346602  0.654004  0.749961  1
  Ir  Ir28  1  0.000000  0.500000  0.376850  1
  Rh  Rh29  1  0.500000  0.000000  0.122711  1
  Rh  Rh30  1  0.500000  0.000000  0.622789  1
  Rh  Rh31  1  0.000000  0.500000  0.877514  1
