# generated using pymatgen
data_YbSn6Ir3Ru
_symmetry_space_group_name_H-M   'P 1'
_cell_length_a   7.00528634
_cell_length_b   7.00528755
_cell_length_c   6.99623944
_cell_angle_alpha   120.35363147
_cell_angle_beta   120.38314532
_cell_angle_gamma   89.43791920
_symmetry_Int_Tables_number   1
_chemical_formula_structural   YbSn6Ir3Ru
_chemical_formula_sum   'Yb1 Sn6 Ir3 Ru1'
_cell_volume   241.24931728
_cell_formula_units_Z   1
loop_
 _symmetry_equiv_pos_site_id
 _symmetry_equiv_pos_as_xyz
  1  'x, y, z'
loop_
 _atom_site_type_symbol
 _atom_site_label
 _atom_site_symmetry_multiplicity
 _atom_site_fract_x
 _atom_site_fract_y
 _atom_site_fract_z
 _atom_site_occupancy
  Yb  Yb0  1  0.001515  0.000317  0.001833  1
  Sn  Sn1  1  0.465343  0.460744  0.589200  1
  Sn  Sn2  1  0.128457  0.123857  0.589200  1
  Sn  Sn3  1  0.873540  0.534517  0.408056  1
  Sn  Sn4  1  0.537685  0.877708  0.415393  1
  Sn  Sn5  1  0.995092  0.493671  0.993811  1
  Sn  Sn6  1  0.500139  0.998718  0.993811  1
  Ir  Ir7  1  0.396228  0.398284  0.157334  1
  Ir  Ir8  1  0.759049  0.761106  0.157334  1
  Ir  Ir9  1  0.246268  0.601029  0.847298  1
  Ru  Ru10  1  0.596682  0.250050  0.846734  1
