# generated using pymatgen
data_LaDyGa2(Co3B)2
_symmetry_space_group_name_H-M   'P 1'
_cell_length_a   5.22438000
_cell_length_b   5.22374922
_cell_length_c   6.68668500
_cell_angle_alpha   90.00000000
_cell_angle_beta   90.00000000
_cell_angle_gamma   120.00398187
_symmetry_Int_Tables_number   1
_chemical_formula_structural   LaDyGa2(Co3B)2
_chemical_formula_sum   'La1 Dy1 Ga2 Co6 B2'
_cell_volume   158.03058469
_cell_formula_units_Z   1
loop_
 _symmetry_equiv_pos_site_id
 _symmetry_equiv_pos_as_xyz
  1  'x, y, z'
loop_
 _atom_site_type_symbol
 _atom_site_label
 _atom_site_symmetry_multiplicity
 _atom_site_fract_x
 _atom_site_fract_y
 _atom_site_fract_z
 _atom_site_occupancy
  La  La0  1  0.999984  0.000000  0.000000  1
  Dy  Dy1  1  0.999985  0.000000  0.500000  1
  Ga  Ga2  1  0.333309  0.666647  0.000000  1
  Ga  Ga3  1  0.666661  0.333353  0.000000  1
  Co  Co4  1  0.499985  0.000000  0.298507  1
  Co  Co5  1  0.499982  0.499999  0.298518  1
  Co  Co6  1  0.999983  0.500001  0.298518  1
  Co  Co7  1  0.499985  0.000000  0.701493  1
  Co  Co8  1  0.499982  0.499999  0.701482  1
  Co  Co9  1  0.999983  0.500001  0.701482  1
  B  B10  1  0.333340  0.666720  0.500000  1
  B  B11  1  0.666621  0.333280  0.500000  1
