# generated using pymatgen
data_DyY5B14MoOs
_symmetry_space_group_name_H-M   'P 1'
_cell_length_a   8.12870208
_cell_length_b   8.12870077
_cell_length_c   9.41466203
_cell_angle_alpha   90.00951128
_cell_angle_beta   89.99048931
_cell_angle_gamma   155.03982103
_symmetry_Int_Tables_number   1
_chemical_formula_structural   DyY5B14MoOs
_chemical_formula_sum   'Dy1 Y5 B14 Mo1 Os1'
_cell_volume   262.51096532
_cell_formula_units_Z   1
loop_
 _symmetry_equiv_pos_site_id
 _symmetry_equiv_pos_as_xyz
  1  'x, y, z'
loop_
 _atom_site_type_symbol
 _atom_site_label
 _atom_site_symmetry_multiplicity
 _atom_site_fract_x
 _atom_site_fract_y
 _atom_site_fract_z
 _atom_site_occupancy
  Dy  Dy0  1  0.605733  0.394267  0.438071  1
  Y  Y1  1  0.256412  0.743588  0.250075  1
  Y  Y2  1  0.744617  0.255383  0.750043  1
  Y  Y3  1  0.605887  0.394113  0.062290  1
  Y  Y4  1  0.393209  0.606791  0.940564  1
  Y  Y5  1  0.393236  0.606764  0.559437  1
  B  B6  1  0.978722  0.021278  0.096686  1
  B  B7  1  0.019701  0.980299  0.908466  1
  B  B8  1  0.019828  0.980172  0.591376  1
  B  B9  1  0.978857  0.021143  0.403240  1
  B  B10  1  0.773480  0.226520  0.034995  1
  B  B11  1  0.227988  0.772012  0.967895  1
  B  B12  1  0.227890  0.772110  0.531992  1
  B  B13  1  0.773413  0.226587  0.464967  1
  B  B14  1  0.868374  0.131626  0.151094  1
  B  B15  1  0.134498  0.865502  0.852557  1
  B  B16  1  0.134479  0.865521  0.647225  1
  B  B17  1  0.868370  0.131630  0.348925  1
  B  B18  1  0.041460  0.958540  0.250177  1
  B  B19  1  0.955316  0.044684  0.749991  1
  Mo  Mo20  1  0.552772  0.447228  0.749870  1
  Os  Os21  1  0.445758  0.554242  0.250065  1
