# generated using pymatgen
data_Li(CaPt)2
_symmetry_space_group_name_H-M   'P 1'
_cell_length_a   5.67872755
_cell_length_b   5.67872812
_cell_length_c   7.91532477
_cell_angle_alpha   77.97209216
_cell_angle_beta   77.97209234
_cell_angle_gamma   58.88673722
_symmetry_Int_Tables_number   1
_chemical_formula_structural   Li(CaPt)2
_chemical_formula_sum   'Li2 Ca4 Pt4'
_cell_volume   212.18512093
_cell_formula_units_Z   2
loop_
 _symmetry_equiv_pos_site_id
 _symmetry_equiv_pos_as_xyz
  1  'x, y, z'
loop_
 _atom_site_type_symbol
 _atom_site_label
 _atom_site_symmetry_multiplicity
 _atom_site_fract_x
 _atom_site_fract_y
 _atom_site_fract_z
 _atom_site_occupancy
  Li  Li0  1  0.122826  0.877174  0.750000  1
  Li  Li1  1  0.877174  0.122826  0.250000  1
  Ca  Ca2  1  0.788748  0.514197  0.847660  1
  Ca  Ca3  1  0.485803  0.211252  0.652340  1
  Ca  Ca4  1  0.211252  0.485803  0.152340  1
  Ca  Ca5  1  0.514197  0.788748  0.347660  1
  Pt  Pt6  1  0.004074  0.737690  0.503259  1
  Pt  Pt7  1  0.262310  0.995926  0.996741  1
  Pt  Pt8  1  0.995926  0.262310  0.496741  1
  Pt  Pt9  1  0.737690  0.004074  0.003259  1
