# generated using pymatgen
data_LiHf4Tl(AsO4)6
_symmetry_space_group_name_H-M   'P 1'
_cell_length_a   9.23268071
_cell_length_b   9.23268099
_cell_length_c   9.64603306
_cell_angle_alpha   61.40770271
_cell_angle_beta   61.40769545
_cell_angle_gamma   59.99999468
_symmetry_Int_Tables_number   1
_chemical_formula_structural   LiHf4Tl(AsO4)6
_chemical_formula_sum   'Li1 Hf4 Tl1 As6 O24'
_cell_volume   593.48466398
_cell_formula_units_Z   1
loop_
 _symmetry_equiv_pos_site_id
 _symmetry_equiv_pos_as_xyz
  1  'x, y, z'
loop_
 _atom_site_type_symbol
 _atom_site_label
 _atom_site_symmetry_multiplicity
 _atom_site_fract_x
 _atom_site_fract_y
 _atom_site_fract_z
 _atom_site_occupancy
  Li  Li0  1  0.000000  0.000000  0.000000  1
  Hf  Hf1  1  0.646074  0.646074  0.061780  1
  Hf  Hf2  1  0.145095  0.145095  0.564717  1
  Hf  Hf3  1  0.353926  0.353926  0.938220  1
  Hf  Hf4  1  0.854905  0.854905  0.435283  1
  Tl  Tl5  1  0.500000  0.500000  0.500000  1
  As  As6  1  0.460779  0.032619  0.752080  1
  As  As7  1  0.032619  0.754522  0.752080  1
  As  As8  1  0.754522  0.460779  0.752080  1
  As  As9  1  0.967381  0.245478  0.247920  1
  As  As10  1  0.245478  0.539221  0.247920  1
  As  As11  1  0.539221  0.967381  0.247920  1
  O  O12  1  0.491228  0.851462  0.921191  1
  O  O13  1  0.851462  0.736118  0.921191  1
  O  O14  1  0.736118  0.491228  0.921191  1
  O  O15  1  0.994758  0.215419  0.424532  1
  O  O16  1  0.215419  0.365289  0.424532  1
  O  O17  1  0.365289  0.994758  0.424532  1
  O  O18  1  0.508772  0.148538  0.078809  1
  O  O19  1  0.148538  0.263882  0.078809  1
  O  O20  1  0.263882  0.508772  0.078809  1
  O  O21  1  0.005242  0.784581  0.575468  1
  O  O22  1  0.784581  0.634711  0.575468  1
  O  O23  1  0.634711  0.005242  0.575468  1
  O  O24  1  0.560568  0.787590  0.219978  1
  O  O25  1  0.787590  0.431862  0.219978  1
  O  O26  1  0.431862  0.560568  0.219978  1
  O  O27  1  0.065814  0.928901  0.736309  1
  O  O28  1  0.928901  0.268974  0.736309  1
  O  O29  1  0.268974  0.065814  0.736309  1
  O  O30  1  0.439432  0.212410  0.780022  1
  O  O31  1  0.212410  0.568138  0.780022  1
  O  O32  1  0.568138  0.439432  0.780022  1
  O  O33  1  0.934186  0.071099  0.263691  1
  O  O34  1  0.071099  0.731026  0.263691  1
  O  O35  1  0.731026  0.934186  0.263691  1
