# generated using pymatgen
data_YbSi2(AsRh3)2
_symmetry_space_group_name_H-M   'P 1'
_cell_length_a   7.17178800
_cell_length_b   7.19334965
_cell_length_c   3.75451000
_cell_angle_alpha   90.00000000
_cell_angle_beta   90.00000000
_cell_angle_gamma   119.90088564
_symmetry_Int_Tables_number   1
_chemical_formula_structural   YbSi2(AsRh3)2
_chemical_formula_sum   'Yb1 Si2 As2 Rh6'
_cell_volume   167.90954837
_cell_formula_units_Z   1
loop_
 _symmetry_equiv_pos_site_id
 _symmetry_equiv_pos_as_xyz
  1  'x, y, z'
loop_
 _atom_site_type_symbol
 _atom_site_label
 _atom_site_symmetry_multiplicity
 _atom_site_fract_x
 _atom_site_fract_y
 _atom_site_fract_z
 _atom_site_occupancy
  Yb  Yb0  1  0.996372  0.992743  0.000000  1
  Si  Si1  1  0.803952  0.607902  0.500000  1
  Si  Si2  1  0.334217  0.668435  0.000000  1
  As  As3  1  0.380350  0.191619  0.500000  1
  As  As4  1  0.811270  0.191619  0.500000  1
  Rh  Rh5  1  0.531766  0.063531  0.000000  1
  Rh  Rh6  1  0.602611  0.796745  0.500000  1
  Rh  Rh7  1  0.204343  0.408685  0.500000  1
  Rh  Rh8  1  0.541593  0.474320  0.000000  1
  Rh  Rh9  1  0.194134  0.796745  0.500000  1
  Rh  Rh10  1  0.932727  0.474320  0.000000  1
