# generated using pymatgen
data_TbSmTc5(PRh)7
_symmetry_space_group_name_H-M   'P 1'
_cell_length_a   3.94682701
_cell_length_b   9.48257949
_cell_length_c   9.50984607
_cell_angle_alpha   119.67815541
_cell_angle_beta   89.99946417
_cell_angle_gamma   89.99976936
_symmetry_Int_Tables_number   1
_chemical_formula_structural   TbSmTc5(PRh)7
_chemical_formula_sum   'Tb1 Sm1 Tc5 P7 Rh7'
_cell_volume   309.22746120
_cell_formula_units_Z   1
loop_
 _symmetry_equiv_pos_site_id
 _symmetry_equiv_pos_as_xyz
  1  'x, y, z'
loop_
 _atom_site_type_symbol
 _atom_site_label
 _atom_site_symmetry_multiplicity
 _atom_site_fract_x
 _atom_site_fract_y
 _atom_site_fract_z
 _atom_site_occupancy
  Tb  Tb0  1  0.761987  0.333329  0.666505  1
  Sm  Sm1  1  0.261953  0.668351  0.333239  1
  Tc  Tc2  1  0.761908  0.093739  0.871316  1
  Tc  Tc3  1  0.761858  0.126841  0.218603  1
  Tc  Tc4  1  0.761895  0.781364  0.906994  1
  Tc  Tc5  1  0.261889  0.886344  0.159662  1
  Tc  Tc6  1  0.261917  0.841150  0.726883  1
  P  P7  1  0.261690  0.996675  0.997624  1
  P  P8  1  0.761929  0.882813  0.600863  1
  P  P9  1  0.761866  0.400869  0.286918  1
  P  P10  1  0.761879  0.718971  0.119235  1
  P  P11  1  0.261991  0.114937  0.410531  1
  P  P12  1  0.261958  0.587963  0.703590  1
  P  P13  1  0.261929  0.295255  0.882147  1
  Rh  Rh14  1  0.261844  0.271914  0.112010  1
  Rh  Rh15  1  0.761950  0.607778  0.558554  1
  Rh  Rh16  1  0.761858  0.441592  0.053336  1
  Rh  Rh17  1  0.761940  0.949312  0.392588  1
  Rh  Rh18  1  0.261901  0.367535  0.435087  1
  Rh  Rh19  1  0.261908  0.562800  0.931609  1
  Rh  Rh20  1  0.261949  0.070468  0.632709  1
