# generated using pymatgen
data_Er3Tm9Co4BiOs
_symmetry_space_group_name_H-M   'P 1'
_cell_length_a   8.22473067
_cell_length_b   8.22499088
_cell_length_c   8.22305360
_cell_angle_alpha   110.55385518
_cell_angle_beta   111.54438884
_cell_angle_gamma   106.37083386
_symmetry_Int_Tables_number   1
_chemical_formula_structural   Er3Tm9Co4BiOs
_chemical_formula_sum   'Er3 Tm9 Co4 Bi1 Os1'
_cell_volume   427.19936089
_cell_formula_units_Z   1
loop_
 _symmetry_equiv_pos_site_id
 _symmetry_equiv_pos_as_xyz
  1  'x, y, z'
loop_
 _atom_site_type_symbol
 _atom_site_label
 _atom_site_symmetry_multiplicity
 _atom_site_fract_x
 _atom_site_fract_y
 _atom_site_fract_z
 _atom_site_occupancy
  Er  Er0  1  0.279191  0.181318  0.460543  1
  Er  Er1  1  0.720810  0.818895  0.539731  1
  Er  Er2  1  0.279126  0.818483  0.097703  1
  Tm  Tm3  1  0.721219  0.180917  0.902128  1
  Tm  Tm4  1  0.620519  0.311401  0.308800  1
  Tm  Tm5  1  0.379666  0.688771  0.691122  1
  Tm  Tm6  1  0.002352  0.311501  0.691130  1
  Tm  Tm7  1  0.997396  0.688277  0.308784  1
  Tm  Tm8  1  0.215974  0.413454  0.197100  1
  Tm  Tm9  1  0.783705  0.586345  0.802808  1
  Tm  Tm10  1  0.216487  0.019108  0.802822  1
  Tm  Tm11  1  0.783633  0.981121  0.197084  1
  Co  Co12  1  0.999918  0.375149  0.375035  1
  Co  Co13  1  0.999949  0.624796  0.624739  1
  Co  Co14  1  0.388753  0.888719  0.500341  1
  Co  Co15  1  0.611639  0.111612  0.500358  1
  Bi  Bi16  1  0.500002  0.500013  0.999999  1
  Os  Os17  1  0.999660  0.000120  0.999775  1
