# generated using pymatgen
data_Tm2Mn(Fe3P2)3
_symmetry_space_group_name_H-M   'P 1'
_cell_length_a   3.65230400
_cell_length_b   10.23587600
_cell_length_c   11.80176600
_cell_angle_alpha   90.00000000
_cell_angle_beta   90.00000000
_cell_angle_gamma   90.00000000
_symmetry_Int_Tables_number   1
_chemical_formula_structural   Tm2Mn(Fe3P2)3
_chemical_formula_sum   'Tm4 Mn2 Fe18 P12'
_cell_volume   441.20348521
_cell_formula_units_Z   2
loop_
 _symmetry_equiv_pos_site_id
 _symmetry_equiv_pos_as_xyz
  1  'x, y, z'
loop_
 _atom_site_type_symbol
 _atom_site_label
 _atom_site_symmetry_multiplicity
 _atom_site_fract_x
 _atom_site_fract_y
 _atom_site_fract_z
 _atom_site_occupancy
  Tm  Tm0  1  0.250000  0.581471  0.704079  1
  Tm  Tm1  1  0.250000  0.918529  0.204079  1
  Tm  Tm2  1  0.750000  0.422534  0.295456  1
  Tm  Tm3  1  0.750000  0.077466  0.795456  1
  Mn  Mn4  1  0.250000  0.702029  0.990091  1
  Mn  Mn5  1  0.250000  0.797971  0.490091  1
  Fe  Fe6  1  0.750000  0.291283  0.011078  1
  Fe  Fe7  1  0.750000  0.208717  0.511078  1
  Fe  Fe8  1  0.250000  0.406723  0.489169  1
  Fe  Fe9  1  0.250000  0.093277  0.989169  1
  Fe  Fe10  1  0.750000  0.597975  0.512191  1
  Fe  Fe11  1  0.750000  0.902025  0.012191  1
  Fe  Fe12  1  0.250000  0.219332  0.175605  1
  Fe  Fe13  1  0.250000  0.280668  0.675605  1
  Fe  Fe14  1  0.750000  0.778694  0.828576  1
  Fe  Fe15  1  0.750000  0.721306  0.328576  1
  Fe  Fe16  1  0.250000  0.877779  0.700199  1
  Fe  Fe17  1  0.250000  0.622221  0.200199  1
  Fe  Fe18  1  0.750000  0.127245  0.297681  1
  Fe  Fe19  1  0.750000  0.372755  0.797681  1
  Fe  Fe20  1  0.250000  0.460810  0.931359  1
  Fe  Fe21  1  0.250000  0.039190  0.431359  1
  Fe  Fe22  1  0.750000  0.534384  0.064811  1
  Fe  Fe23  1  0.750000  0.965616  0.564811  1
  P  P24  1  0.250000  0.423422  0.113308  1
  P  P25  1  0.250000  0.076578  0.613308  1
  P  P26  1  0.750000  0.575517  0.883962  1
  P  P27  1  0.750000  0.924483  0.383962  1
  P  P28  1  0.250000  0.261876  0.870821  1
  P  P29  1  0.250000  0.238124  0.370821  1
  P  P30  1  0.750000  0.731051  0.137256  1
  P  P31  1  0.750000  0.768949  0.637256  1
  P  P32  1  0.250000  0.600004  0.391522  1
  P  P33  1  0.250000  0.899996  0.891522  1
  P  P34  1  0.750000  0.401197  0.602834  1
  P  P35  1  0.750000  0.098803  0.102834  1
