# generated using pymatgen
data_Ho5ErRh2
_symmetry_space_group_name_H-M   'P 1'
_cell_length_a   6.28240800
_cell_length_b   7.14782707
_cell_length_c   9.37996909
_cell_angle_alpha   90.01577150
_cell_angle_beta   90.00000000
_cell_angle_gamma   90.00000000
_symmetry_Int_Tables_number   1
_chemical_formula_structural   Ho5ErRh2
_chemical_formula_sum   'Ho10 Er2 Rh4'
_cell_volume   421.21280460
_cell_formula_units_Z   2
loop_
 _symmetry_equiv_pos_site_id
 _symmetry_equiv_pos_as_xyz
  1  'x, y, z'
loop_
 _atom_site_type_symbol
 _atom_site_label
 _atom_site_symmetry_multiplicity
 _atom_site_fract_x
 _atom_site_fract_y
 _atom_site_fract_z
 _atom_site_occupancy
  Ho  Ho0  1  0.672554  0.178356  0.063186  1
  Ho  Ho1  1  0.172554  0.321644  0.936814  1
  Ho  Ho2  1  0.827619  0.678158  0.437165  1
  Ho  Ho3  1  0.327619  0.821842  0.562835  1
  Ho  Ho4  1  0.327637  0.821728  0.937022  1
  Ho  Ho5  1  0.827637  0.678272  0.062978  1
  Ho  Ho6  1  0.866140  0.965819  0.749805  1
  Ho  Ho7  1  0.366140  0.534181  0.250195  1
  Ho  Ho8  1  0.633964  0.465483  0.749746  1
  Ho  Ho9  1  0.133964  0.034517  0.250254  1
  Er  Er10  1  0.172560  0.321695  0.563042  1
  Er  Er11  1  0.672560  0.178305  0.436958  1
  Rh  Rh12  1  0.053958  0.615755  0.749487  1
  Rh  Rh13  1  0.553958  0.884245  0.250513  1
  Rh  Rh14  1  0.445568  0.116644  0.749119  1
  Rh  Rh15  1  0.945568  0.383356  0.250881  1
