# generated using pymatgen
data_Tc2As7W
_symmetry_space_group_name_H-M   'P 1'
_cell_length_a   7.66769884
_cell_length_b   7.66769890
_cell_length_c   7.66287310
_cell_angle_alpha   109.62943615
_cell_angle_beta   109.62943986
_cell_angle_gamma   109.18089534
_symmetry_Int_Tables_number   1
_chemical_formula_structural   Tc2As7W
_chemical_formula_sum   'Tc4 As14 W2'
_cell_volume   346.69946803
_cell_formula_units_Z   2
loop_
 _symmetry_equiv_pos_site_id
 _symmetry_equiv_pos_as_xyz
  1  'x, y, z'
loop_
 _atom_site_type_symbol
 _atom_site_label
 _atom_site_symmetry_multiplicity
 _atom_site_fract_x
 _atom_site_fract_y
 _atom_site_fract_z
 _atom_site_occupancy
  Tc  Tc0  1  0.000254  0.662068  0.662322  1
  Tc  Tc1  1  0.341555  0.341555  0.000624  1
  Tc  Tc2  1  0.659069  0.659069  0.000624  1
  Tc  Tc3  1  0.662068  0.000254  0.662322  1
  As  As4  1  0.750041  0.499458  0.249498  1
  As  As5  1  0.499458  0.750041  0.249498  1
  As  As6  1  0.499653  0.251686  0.751339  1
  As  As7  1  0.749420  0.249420  0.498841  1
  As  As8  1  0.249420  0.749420  0.498841  1
  As  As9  1  0.251686  0.499653  0.751339  1
  As  As10  1  0.998693  0.998693  0.330002  1
  As  As11  1  0.667803  0.998630  0.998583  1
  As  As12  1  0.998630  0.667803  0.998583  1
  As  As13  1  0.331309  0.331309  0.330002  1
  As  As14  1  0.999953  0.330779  0.998583  1
  As  As15  1  0.668900  0.668900  0.668684  1
  As  As16  1  0.330779  0.999953  0.998583  1
  As  As17  1  0.999783  0.999783  0.668684  1
  W  W18  1  0.341193  0.000331  0.341524  1
  W  W19  1  0.000331  0.341193  0.341524  1
