# generated using pymatgen
data_Li2V(IO3)6
_symmetry_space_group_name_H-M   'P 1'
_cell_length_a   5.29625112
_cell_length_b   9.43442751
_cell_length_c   9.40266806
_cell_angle_alpha   59.92404437
_cell_angle_beta   90.03894802
_cell_angle_gamma   89.96278200
_symmetry_Int_Tables_number   1
_chemical_formula_structural   Li2V(IO3)6
_chemical_formula_sum   'Li2 V1 I6 O18'
_cell_volume   406.56740963
_cell_formula_units_Z   1
loop_
 _symmetry_equiv_pos_site_id
 _symmetry_equiv_pos_as_xyz
  1  'x, y, z'
loop_
 _atom_site_type_symbol
 _atom_site_label
 _atom_site_symmetry_multiplicity
 _atom_site_fract_x
 _atom_site_fract_y
 _atom_site_fract_z
 _atom_site_occupancy
  Li  Li0  1  0.738411  0.335011  0.331848  1
  Li  Li1  1  0.216819  0.665786  0.667305  1
  V  V2  1  0.666444  0.001297  0.997250  1
  I  I3  1  0.780152  0.966735  0.669314  1
  I  I4  1  0.788268  0.362398  0.966420  1
  I  I5  1  0.788639  0.671485  0.361352  1
  I  I6  1  0.300426  0.024633  0.310889  1
  I  I7  1  0.300424  0.663555  0.025863  1
  I  I8  1  0.298932  0.311866  0.663945  1
  O  O9  1  0.498806  0.239157  0.556191  1
  O  O10  1  0.496478  0.205641  0.240613  1
  O  O11  1  0.500778  0.554073  0.206352  1
  O  O12  1  0.003475  0.757950  0.449499  1
  O  O13  1  0.994457  0.792648  0.757701  1
  O  O14  1  0.005186  0.447476  0.792297  1
  O  O15  1  0.879345  0.045444  0.816017  1
  O  O16  1  0.879439  0.138725  0.052023  1
  O  O17  1  0.885108  0.812642  0.139060  1
  O  O18  1  0.449286  0.933121  0.190647  1
  O  O19  1  0.448563  0.875402  0.928866  1
  O  O20  1  0.452976  0.195269  0.875753  1
  O  O21  1  0.960331  0.113438  0.491322  1
  O  O22  1  0.963598  0.396596  0.113294  1
  O  O23  1  0.963935  0.490199  0.397070  1
  O  O24  1  0.451804  0.883752  0.505574  1
  O  O25  1  0.446728  0.610410  0.884001  1
  O  O26  1  0.449792  0.505292  0.609535  1
