# generated using pymatgen
data_La2Al9RePt2
_symmetry_space_group_name_H-M   'P 1'
_cell_length_a   7.71908791
_cell_length_b   7.71908874
_cell_length_c   9.72500000
_cell_angle_alpha   90.00000000
_cell_angle_beta   90.00000000
_cell_angle_gamma   118.79658099
_symmetry_Int_Tables_number   1
_chemical_formula_structural   La2Al9RePt2
_chemical_formula_sum   'La4 Al18 Re2 Pt4'
_cell_volume   507.79918464
_cell_formula_units_Z   2
loop_
 _symmetry_equiv_pos_site_id
 _symmetry_equiv_pos_as_xyz
  1  'x, y, z'
loop_
 _atom_site_type_symbol
 _atom_site_label
 _atom_site_symmetry_multiplicity
 _atom_site_fract_x
 _atom_site_fract_y
 _atom_site_fract_z
 _atom_site_occupancy
  La  La0  1  0.994342  0.676567  0.750000  1
  La  La1  1  0.005658  0.323433  0.250000  1
  La  La2  1  0.676567  0.994342  0.750000  1
  La  La3  1  0.323433  0.005658  0.250000  1
  Al  Al4  1  0.134040  0.134040  0.750000  1
  Al  Al5  1  0.865960  0.865960  0.250000  1
  Al  Al6  1  0.004837  0.333978  0.573724  1
  Al  Al7  1  0.995163  0.666022  0.426276  1
  Al  Al8  1  0.995163  0.666022  0.073724  1
  Al  Al9  1  0.333978  0.004837  0.926276  1
  Al  Al10  1  0.004837  0.333978  0.926276  1
  Al  Al11  1  0.666022  0.995163  0.073724  1
  Al  Al12  1  0.666022  0.995163  0.426276  1
  Al  Al13  1  0.333978  0.004837  0.573724  1
  Al  Al14  1  0.330771  0.330771  0.042502  1
  Al  Al15  1  0.669229  0.669229  0.957498  1
  Al  Al16  1  0.669229  0.669229  0.542502  1
  Al  Al17  1  0.330771  0.330771  0.457498  1
  Al  Al18  1  0.342739  0.546006  0.750000  1
  Al  Al19  1  0.657261  0.453994  0.250000  1
  Al  Al20  1  0.546006  0.342739  0.750000  1
  Al  Al21  1  0.453994  0.657261  0.250000  1
  Re  Re22  1  0.000000  0.000000  0.500000  1
  Re  Re23  1  0.000000  0.000000  0.000000  1
  Pt  Pt24  1  0.670671  0.329329  0.500000  1
  Pt  Pt25  1  0.329329  0.670671  0.500000  1
  Pt  Pt26  1  0.329329  0.670671  0.000000  1
  Pt  Pt27  1  0.670671  0.329329  0.000000  1
