# generated using pymatgen
data_Nd2Er2Zn10SiSn
_symmetry_space_group_name_H-M   'P 1'
_cell_length_a   8.33319339
_cell_length_b   8.33319333
_cell_length_c   8.87744500
_cell_angle_alpha   90.00000000
_cell_angle_beta   90.00000000
_cell_angle_gamma   149.71713220
_symmetry_Int_Tables_number   1
_chemical_formula_structural   Nd2Er2Zn10SiSn
_chemical_formula_sum   'Nd2 Er2 Zn10 Si1 Sn1'
_cell_volume   310.86623513
_cell_formula_units_Z   1
loop_
 _symmetry_equiv_pos_site_id
 _symmetry_equiv_pos_as_xyz
  1  'x, y, z'
loop_
 _atom_site_type_symbol
 _atom_site_label
 _atom_site_symmetry_multiplicity
 _atom_site_fract_x
 _atom_site_fract_y
 _atom_site_fract_z
 _atom_site_occupancy
  Nd  Nd0  1  0.000863  0.999137  0.486242  1
  Nd  Nd1  1  0.000863  0.999137  0.013758  1
  Er  Er2  1  0.200882  0.799118  0.250000  1
  Er  Er3  1  0.795810  0.204190  0.750000  1
  Zn  Zn4  1  0.811015  0.188985  0.390911  1
  Zn  Zn5  1  0.187696  0.812304  0.606594  1
  Zn  Zn6  1  0.811015  0.188985  0.109089  1
  Zn  Zn7  1  0.187696  0.812304  0.893406  1
  Zn  Zn8  1  0.651581  0.348419  0.472298  1
  Zn  Zn9  1  0.342991  0.657009  0.516460  1
  Zn  Zn10  1  0.651581  0.348419  0.027702  1
  Zn  Zn11  1  0.342991  0.657009  0.983540  1
  Zn  Zn12  1  0.403331  0.596669  0.250000  1
  Zn  Zn13  1  0.607938  0.392062  0.750000  1
  Si  Si14  1  0.558424  0.441576  0.250000  1
  Sn  Sn15  1  0.445320  0.554680  0.750000  1
