# generated using pymatgen
data_Ho12Ni5Sn
_symmetry_space_group_name_H-M   'P 1'
_cell_length_a   8.27301292
_cell_length_b   8.27301246
_cell_length_c   8.27301253
_cell_angle_alpha   107.20040922
_cell_angle_beta   109.78727406
_cell_angle_gamma   111.45413061
_symmetry_Int_Tables_number   1
_chemical_formula_structural   Ho12Ni5Sn
_chemical_formula_sum   'Ho12 Ni5 Sn1'
_cell_volume   435.27512221
_cell_formula_units_Z   1
loop_
 _symmetry_equiv_pos_site_id
 _symmetry_equiv_pos_as_xyz
  1  'x, y, z'
loop_
 _atom_site_type_symbol
 _atom_site_label
 _atom_site_symmetry_multiplicity
 _atom_site_fract_x
 _atom_site_fract_y
 _atom_site_fract_z
 _atom_site_occupancy
  Ho  Ho0  1  0.475851  0.293728  0.182123  1
  Ho  Ho1  1  0.111606  0.293728  0.817877  1
  Ho  Ho2  1  0.888394  0.706272  0.182123  1
  Ho  Ho3  1  0.524149  0.706272  0.817877  1
  Ho  Ho4  1  0.305097  0.625668  0.320572  1
  Ho  Ho5  1  0.305097  0.984526  0.679428  1
  Ho  Ho6  1  0.694903  0.374332  0.679428  1
  Ho  Ho7  1  0.694903  0.015474  0.320572  1
  Ho  Ho8  1  0.191668  0.211552  0.403220  1
  Ho  Ho9  1  0.808332  0.788448  0.596780  1
  Ho  Ho10  1  0.191668  0.788448  0.980115  1
  Ho  Ho11  1  0.808332  0.211552  0.019885  1
  Ni  Ni12  1  0.500000  0.624085  0.124085  1
  Ni  Ni13  1  0.500000  0.375915  0.875915  1
  Ni  Ni14  1  0.365415  0.000000  0.365415  1
  Ni  Ni15  1  0.634585  0.000000  0.634585  1
  Ni  Ni16  1  0.000000  0.000000  0.000000  1
  Sn  Sn17  1  0.000000  0.500000  0.500000  1
