# generated using pymatgen
data_Hf6FeCuN2
_symmetry_space_group_name_H-M   'P 1'
_cell_length_a   5.81098151
_cell_length_b   5.81098187
_cell_length_c   8.68637500
_cell_angle_alpha   90.00000000
_cell_angle_beta   90.00000000
_cell_angle_gamma   147.40403885
_symmetry_Int_Tables_number   1
_chemical_formula_structural   Hf6FeCuN2
_chemical_formula_sum   'Hf6 Fe1 Cu1 N2'
_cell_volume   158.01333999
_cell_formula_units_Z   1
loop_
 _symmetry_equiv_pos_site_id
 _symmetry_equiv_pos_as_xyz
  1  'x, y, z'
loop_
 _atom_site_type_symbol
 _atom_site_label
 _atom_site_symmetry_multiplicity
 _atom_site_fract_x
 _atom_site_fract_y
 _atom_site_fract_z
 _atom_site_occupancy
  Hf  Hf0  1  0.869684  0.130318  0.054913  1
  Hf  Hf1  1  0.556242  0.443760  0.250000  1
  Hf  Hf2  1  0.869684  0.130318  0.445088  1
  Hf  Hf3  1  0.135496  0.864506  0.564773  1
  Hf  Hf4  1  0.436736  0.563266  0.750000  1
  Hf  Hf5  1  0.135496  0.864506  0.935228  1
  Fe  Fe6  1  0.752062  0.247940  0.750000  1
  Cu  Cu7  1  0.247019  0.752983  0.250000  1
  N  N8  1  0.498796  0.501206  0.001632  1
  N  N9  1  0.498796  0.501206  0.498368  1
