# generated using pymatgen
data_Er6Al6Zn17S
_symmetry_space_group_name_H-M   'P 1'
_cell_length_a   9.04587924
_cell_length_b   9.04587893
_cell_length_c   9.04587900
_cell_angle_alpha   59.99999608
_cell_angle_beta   59.99999721
_cell_angle_gamma   59.99999912
_symmetry_Int_Tables_number   1
_chemical_formula_structural   Er6Al6Zn17S
_chemical_formula_sum   'Er6 Al6 Zn17 S1'
_cell_volume   523.40432609
_cell_formula_units_Z   1
loop_
 _symmetry_equiv_pos_site_id
 _symmetry_equiv_pos_as_xyz
  1  'x, y, z'
loop_
 _atom_site_type_symbol
 _atom_site_label
 _atom_site_symmetry_multiplicity
 _atom_site_fract_x
 _atom_site_fract_y
 _atom_site_fract_z
 _atom_site_occupancy
  Er  Er0  1  0.710599  0.289401  0.289401  1
  Er  Er1  1  0.710599  0.289401  0.710599  1
  Er  Er2  1  0.710599  0.710599  0.289401  1
  Er  Er3  1  0.289401  0.710599  0.710599  1
  Er  Er4  1  0.289401  0.710599  0.289401  1
  Er  Er5  1  0.289401  0.289401  0.710599  1
  Al  Al6  1  0.500000  0.000000  0.000000  1
  Al  Al7  1  0.500000  0.000000  0.500000  1
  Al  Al8  1  0.500000  0.500000  0.000000  1
  Al  Al9  1  0.000000  0.500000  0.500000  1
  Al  Al10  1  0.000000  0.500000  0.000000  1
  Al  Al11  1  0.000000  0.000000  0.500000  1
  Zn  Zn12  1  0.634240  0.121921  0.121921  1
  Zn  Zn13  1  0.121921  0.634240  0.121921  1
  Zn  Zn14  1  0.121921  0.121921  0.634240  1
  Zn  Zn15  1  0.121921  0.121921  0.121921  1
  Zn  Zn16  1  0.365760  0.878079  0.878079  1
  Zn  Zn17  1  0.878079  0.365760  0.878079  1
  Zn  Zn18  1  0.878079  0.878079  0.365760  1
  Zn  Zn19  1  0.878079  0.878079  0.878079  1
  Zn  Zn20  1  0.000000  0.000000  0.000000  1
  Zn  Zn21  1  0.008300  0.330566  0.330566  1
  Zn  Zn22  1  0.330566  0.008300  0.330566  1
  Zn  Zn23  1  0.330566  0.330566  0.008300  1
  Zn  Zn24  1  0.330566  0.330566  0.330566  1
  Zn  Zn25  1  0.991700  0.669434  0.669434  1
  Zn  Zn26  1  0.669434  0.991700  0.669434  1
  Zn  Zn27  1  0.669434  0.669434  0.991700  1
  Zn  Zn28  1  0.669434  0.669434  0.669434  1
  S  S29  1  0.500000  0.500000  0.500000  1
