# generated using pymatgen
data_Ta3Ti9(MnP4)2
_symmetry_space_group_name_H-M   'P 1'
_cell_length_a   7.34184968
_cell_length_b   7.34184840
_cell_length_c   13.51450234
_cell_angle_alpha   76.69705429
_cell_angle_beta   76.69705672
_cell_angle_gamma   26.78621068
_symmetry_Int_Tables_number   1
_chemical_formula_structural   Ta3Ti9(MnP4)2
_chemical_formula_sum   'Ta3 Ti9 Mn2 P8'
_cell_volume   318.97792029
_cell_formula_units_Z   1
loop_
 _symmetry_equiv_pos_site_id
 _symmetry_equiv_pos_as_xyz
  1  'x, y, z'
loop_
 _atom_site_type_symbol
 _atom_site_label
 _atom_site_symmetry_multiplicity
 _atom_site_fract_x
 _atom_site_fract_y
 _atom_site_fract_z
 _atom_site_occupancy
  Ta  Ta0  1  0.500000  0.500000  0.500000  1
  Ta  Ta1  1  0.424283  0.424283  0.179156  1
  Ta  Ta2  1  0.575717  0.575717  0.820844  1
  Ti  Ti3  1  0.000000  0.000000  0.000000  1
  Ti  Ti4  1  0.210105  0.210105  0.211043  1
  Ti  Ti5  1  0.789895  0.789895  0.788957  1
  Ti  Ti6  1  0.339532  0.339532  0.968778  1
  Ti  Ti7  1  0.660468  0.660468  0.031222  1
  Ti  Ti8  1  0.002112  0.002112  0.335812  1
  Ti  Ti9  1  0.997888  0.997888  0.664188  1
  Ti  Ti10  1  0.177811  0.177811  0.462984  1
  Ti  Ti11  1  0.822189  0.822189  0.537016  1
  Mn  Mn12  1  0.197120  0.197120  0.686905  1
  Mn  Mn13  1  0.802880  0.802880  0.313095  1
  P  P14  1  0.179975  0.179975  0.890469  1
  P  P15  1  0.820025  0.820025  0.109531  1
  P  P16  1  0.367734  0.367734  0.390411  1
  P  P17  1  0.632266  0.632266  0.609589  1
  P  P18  1  0.364296  0.364296  0.658941  1
  P  P19  1  0.635704  0.635704  0.341059  1
  P  P20  1  0.063245  0.063245  0.152338  1
  P  P21  1  0.936755  0.936755  0.847662  1
