# generated using pymatgen
data_Dy16CdIn3(RuRh)2
_symmetry_space_group_name_H-M   'P 1'
_cell_length_a   9.64713709
_cell_length_b   9.63949017
_cell_length_c   9.67983200
_cell_angle_alpha   59.86146943
_cell_angle_beta   59.88783357
_cell_angle_gamma   59.74851026
_symmetry_Int_Tables_number   1
_chemical_formula_structural   Dy16CdIn3(RuRh)2
_chemical_formula_sum   'Dy16 Cd1 In3 Ru2 Rh2'
_cell_volume   634.08976668
_cell_formula_units_Z   1
loop_
 _symmetry_equiv_pos_site_id
 _symmetry_equiv_pos_as_xyz
  1  'x, y, z'
loop_
 _atom_site_type_symbol
 _atom_site_label
 _atom_site_symmetry_multiplicity
 _atom_site_fract_x
 _atom_site_fract_y
 _atom_site_fract_z
 _atom_site_occupancy
  Dy  Dy0  1  0.559945  0.556661  0.941697  1
  Dy  Dy1  1  0.152032  0.545455  0.151256  1
  Dy  Dy2  1  0.688791  0.310746  0.309109  1
  Dy  Dy3  1  0.941148  0.559950  0.562117  1
  Dy  Dy4  1  0.941148  0.559950  0.936785  1
  Dy  Dy5  1  0.692513  0.693529  0.306979  1
  Dy  Dy6  1  0.561653  0.940478  0.936958  1
  Dy  Dy7  1  0.151760  0.151202  0.151398  1
  Dy  Dy8  1  0.309124  0.690542  0.306990  1
  Dy  Dy9  1  0.544198  0.151238  0.152283  1
  Dy  Dy10  1  0.310525  0.309642  0.689917  1
  Dy  Dy11  1  0.309124  0.690542  0.693344  1
  Dy  Dy12  1  0.151760  0.151202  0.545641  1
  Dy  Dy13  1  0.688791  0.310746  0.691355  1
  Dy  Dy14  1  0.937424  0.935964  0.563306  1
  Dy  Dy15  1  0.561653  0.940478  0.560911  1
  Cd  Cd16  1  0.918607  0.246236  0.917578  1
  In  In17  1  0.917651  0.919924  0.916574  1
  In  In18  1  0.247426  0.919602  0.916486  1
  In  In19  1  0.917651  0.919924  0.245850  1
  Ru  Ru20  1  0.358320  0.358273  0.921264  1
  Ru  Ru21  1  0.358320  0.358273  0.362144  1
  Rh  Rh22  1  0.922522  0.357611  0.359933  1
  Rh  Rh23  1  0.357914  0.921833  0.360126  1
