# generated using pymatgen
data_La2Ga3H3Pd14
_symmetry_space_group_name_H-M   'P 1'
_cell_length_a   6.99360415
_cell_length_b   6.99360258
_cell_length_c   6.99360331
_cell_angle_alpha   83.03142283
_cell_angle_beta   83.03142321
_cell_angle_gamma   83.03144142
_symmetry_Int_Tables_number   1
_chemical_formula_structural   La2Ga3H3Pd14
_chemical_formula_sum   'La2 Ga3 H3 Pd14'
_cell_volume   335.04696764
_cell_formula_units_Z   1
loop_
 _symmetry_equiv_pos_site_id
 _symmetry_equiv_pos_as_xyz
  1  'x, y, z'
loop_
 _atom_site_type_symbol
 _atom_site_label
 _atom_site_symmetry_multiplicity
 _atom_site_fract_x
 _atom_site_fract_y
 _atom_site_fract_z
 _atom_site_occupancy
  La  La0  1  0.656313  0.656313  0.656313  1
  La  La1  1  0.343687  0.343687  0.343687  1
  Ga  Ga2  1  0.000000  0.000000  0.500000  1
  Ga  Ga3  1  0.500000  0.000000  0.000000  1
  Ga  Ga4  1  0.000000  0.500000  0.000000  1
  H  H5  1  0.500000  0.500000  0.000000  1
  H  H6  1  0.000000  0.500000  0.500000  1
  H  H7  1  0.500000  0.000000  0.500000  1
  Pd  Pd8  1  0.705344  0.294656  0.000000  1
  Pd  Pd9  1  0.000000  0.705344  0.294656  1
  Pd  Pd10  1  0.294656  0.000000  0.705344  1
  Pd  Pd11  1  0.000000  0.294656  0.705344  1
  Pd  Pd12  1  0.705344  0.000000  0.294656  1
  Pd  Pd13  1  0.294656  0.705344  0.000000  1
  Pd  Pd14  1  0.345385  0.345385  0.861711  1
  Pd  Pd15  1  0.861711  0.345385  0.345385  1
  Pd  Pd16  1  0.345385  0.861711  0.345385  1
  Pd  Pd17  1  0.654615  0.654615  0.138289  1
  Pd  Pd18  1  0.138289  0.654615  0.654615  1
  Pd  Pd19  1  0.654615  0.138289  0.654615  1
  Pd  Pd20  1  0.898167  0.898167  0.898167  1
  Pd  Pd21  1  0.101833  0.101833  0.101833  1
