# generated using pymatgen
data_Y13Th3Mg3InIr4
_symmetry_space_group_name_H-M   'P 1'
_cell_length_a   9.80106055
_cell_length_b   9.82763855
_cell_length_c   9.82763867
_cell_angle_alpha   59.97036040
_cell_angle_beta   59.87220662
_cell_angle_gamma   59.87220978
_symmetry_Int_Tables_number   1
_chemical_formula_structural   Y13Th3Mg3InIr4
_chemical_formula_sum   'Y13 Th3 Mg3 In1 Ir4'
_cell_volume   667.90985748
_cell_formula_units_Z   1
loop_
 _symmetry_equiv_pos_site_id
 _symmetry_equiv_pos_as_xyz
  1  'x, y, z'
loop_
 _atom_site_type_symbol
 _atom_site_label
 _atom_site_symmetry_multiplicity
 _atom_site_fract_x
 _atom_site_fract_y
 _atom_site_fract_z
 _atom_site_occupancy
  Y  Y0  1  0.202529  0.600343  0.600343  1
  Y  Y1  1  0.061173  0.438792  0.438792  1
  Y  Y2  1  0.436419  0.062507  0.062507  1
  Y  Y3  1  0.436418  0.062239  0.437846  1
  Y  Y4  1  0.060888  0.438273  0.060146  1
  Y  Y5  1  0.436418  0.437846  0.062239  1
  Y  Y6  1  0.060888  0.060146  0.438273  1
  Y  Y7  1  0.185885  0.814905  0.814905  1
  Y  Y8  1  0.813693  0.186871  0.186871  1
  Y  Y9  1  0.814872  0.185902  0.815735  1
  Y  Y10  1  0.187602  0.813590  0.186016  1
  Y  Y11  1  0.814872  0.815735  0.185902  1
  Y  Y12  1  0.187602  0.186016  0.813590  1
  Th  Th13  1  0.595133  0.596348  0.596348  1
  Th  Th14  1  0.597056  0.600047  0.205360  1
  Th  Th15  1  0.597056  0.205360  0.600047  1
  Mg  Mg16  1  0.830050  0.829110  0.511105  1
  Mg  Mg17  1  0.830050  0.511105  0.829110  1
  Mg  Mg18  1  0.510647  0.828914  0.828914  1
  In  In19  1  0.834623  0.831220  0.831220  1
  Ir  Ir20  1  0.395304  0.391347  0.391347  1
  Ir  Ir21  1  0.395907  0.389246  0.821446  1
  Ir  Ir22  1  0.395907  0.821446  0.389246  1
  Ir  Ir23  1  0.819009  0.392696  0.392696  1
