# generated using pymatgen
data_Gd2Ge5Os3
_symmetry_space_group_name_H-M   'P 1'
_cell_length_a   5.80522926
_cell_length_b   8.49089666
_cell_length_c   8.49089700
_cell_angle_alpha   94.91633404
_cell_angle_beta   109.98964066
_cell_angle_gamma   109.98963836
_symmetry_Int_Tables_number   1
_chemical_formula_structural   Gd2Ge5Os3
_chemical_formula_sum   'Gd4 Ge10 Os6'
_cell_volume   359.76581708
_cell_formula_units_Z   2
loop_
 _symmetry_equiv_pos_site_id
 _symmetry_equiv_pos_as_xyz
  1  'x, y, z'
loop_
 _atom_site_type_symbol
 _atom_site_label
 _atom_site_symmetry_multiplicity
 _atom_site_fract_x
 _atom_site_fract_y
 _atom_site_fract_z
 _atom_site_occupancy
  Gd  Gd0  1  0.769218  0.409073  0.129365  1
  Gd  Gd1  1  0.269219  0.129365  0.409073  1
  Gd  Gd2  1  0.730781  0.870635  0.590927  1
  Gd  Gd3  1  0.230782  0.590927  0.870635  1
  Ge  Ge4  1  0.174711  0.261832  0.087591  1
  Ge  Ge5  1  0.250000  0.792315  0.207686  1
  Ge  Ge6  1  0.750001  0.792315  0.207686  1
  Ge  Ge7  1  0.674710  0.087591  0.261832  1
  Ge  Ge8  1  0.250000  0.500000  0.500000  1
  Ge  Ge9  1  0.750001  0.500000  0.500000  1
  Ge  Ge10  1  0.325289  0.912408  0.738167  1
  Ge  Ge11  1  0.250000  0.207686  0.792315  1
  Ge  Ge12  1  0.750001  0.207686  0.792315  1
  Ge  Ge13  1  0.825289  0.738167  0.912408  1
  Os  Os14  1  0.250000  0.000000  0.000000  1
  Os  Os15  1  0.750000  0.000000  0.000000  1
  Os  Os16  1  0.405254  0.553503  0.257005  1
  Os  Os17  1  0.094746  0.742994  0.446496  1
  Os  Os18  1  0.905254  0.257005  0.553503  1
  Os  Os19  1  0.594745  0.446496  0.742994  1
