# generated using pymatgen
data_NdLu4Th3(ReB6)4
_symmetry_space_group_name_H-M   'P 1'
_cell_length_a   3.72748100
_cell_length_b   9.19802482
_cell_length_c   11.64706330
_cell_angle_alpha   89.92794015
_cell_angle_beta   90.00000000
_cell_angle_gamma   90.00000000
_symmetry_Int_Tables_number   1
_chemical_formula_structural   NdLu4Th3(ReB6)4
_chemical_formula_sum   'Nd1 Lu4 Th3 Re4 B24'
_cell_volume   399.32463919
_cell_formula_units_Z   1
loop_
 _symmetry_equiv_pos_site_id
 _symmetry_equiv_pos_as_xyz
  1  'x, y, z'
loop_
 _atom_site_type_symbol
 _atom_site_label
 _atom_site_symmetry_multiplicity
 _atom_site_fract_x
 _atom_site_fract_y
 _atom_site_fract_z
 _atom_site_occupancy
  Nd  Nd0  1  0.000000  0.322491  0.413693  1
  Lu  Lu1  1  0.000000  0.945089  0.371327  1
  Lu  Lu2  1  0.000000  0.056691  0.627974  1
  Lu  Lu3  1  0.000000  0.444243  0.128855  1
  Lu  Lu4  1  0.000000  0.554776  0.872522  1
  Th  Th5  1  0.000000  0.676233  0.585299  1
  Th  Th6  1  0.000000  0.821559  0.085832  1
  Th  Th7  1  0.000000  0.178430  0.914666  1
  Re  Re8  1  0.000000  0.641496  0.318771  1
  Re  Re9  1  0.000000  0.359918  0.682001  1
  Re  Re10  1  0.000000  0.138822  0.180483  1
  Re  Re11  1  0.000000  0.859946  0.818538  1
  B  B12  1  0.500000  0.556297  0.429831  1
  B  B13  1  0.500000  0.443579  0.570003  1
  B  B14  1  0.500000  0.056373  0.070664  1
  B  B15  1  0.500000  0.943309  0.929072  1
  B  B16  1  0.500000  0.750937  0.416299  1
  B  B17  1  0.500000  0.249156  0.583501  1
  B  B18  1  0.500000  0.251678  0.083888  1
  B  B19  1  0.500000  0.748373  0.916399  1
  B  B20  1  0.500000  0.792147  0.266339  1
  B  B21  1  0.500000  0.208053  0.733664  1
  B  B22  1  0.500000  0.292481  0.233893  1
  B  B23  1  0.500000  0.707704  0.766150  1
  B  B24  1  0.500000  0.629761  0.185891  1
  B  B25  1  0.500000  0.370017  0.814424  1
  B  B26  1  0.500000  0.130058  0.314604  1
  B  B27  1  0.500000  0.870103  0.685385  1
  B  B28  1  0.500000  0.984700  0.214642  1
  B  B29  1  0.500000  0.015375  0.785336  1
  B  B30  1  0.500000  0.484203  0.285457  1
  B  B31  1  0.500000  0.515194  0.714303  1
  B  B32  1  0.500000  0.599790  0.027189  1
  B  B33  1  0.500000  0.400306  0.973400  1
  B  B34  1  0.500000  0.098112  0.473014  1
  B  B35  1  0.500000  0.902599  0.526691  1
