# generated using pymatgen
data_Yb4TiGaIr4
_symmetry_space_group_name_H-M   'P 1'
_cell_length_a   5.72869984
_cell_length_b   5.72869926
_cell_length_c   7.56809046
_cell_angle_alpha   100.78622710
_cell_angle_beta   100.78622297
_cell_angle_gamma   59.83100443
_symmetry_Int_Tables_number   1
_chemical_formula_structural   Yb4TiGaIr4
_chemical_formula_sum   'Yb4 Ti1 Ga1 Ir4'
_cell_volume   209.66229151
_cell_formula_units_Z   1
loop_
 _symmetry_equiv_pos_site_id
 _symmetry_equiv_pos_as_xyz
  1  'x, y, z'
loop_
 _atom_site_type_symbol
 _atom_site_label
 _atom_site_symmetry_multiplicity
 _atom_site_fract_x
 _atom_site_fract_y
 _atom_site_fract_z
 _atom_site_occupancy
  Yb  Yb0  1  0.782346  0.511881  0.139746  1
  Yb  Yb1  1  0.488119  0.217654  0.360253  1
  Yb  Yb2  1  0.508308  0.783880  0.646404  1
  Yb  Yb3  1  0.216120  0.491692  0.853596  1
  Ti  Ti4  1  0.086785  0.913215  0.249999  1
  Ga  Ga5  1  0.905639  0.094361  0.750000  1
  Ir  Ir6  1  0.282867  0.990919  0.011310  1
  Ir  Ir7  1  0.009080  0.717133  0.488690  1
  Ir  Ir8  1  0.995524  0.274788  0.504142  1
  Ir  Ir9  1  0.725211  0.004475  0.995859  1
