# generated using pymatgen
data_Cs(Cu2P)4
_symmetry_space_group_name_H-M   'P 1'
_cell_length_a   7.63259969
_cell_length_b   7.63259970
_cell_length_c   7.63259926
_cell_angle_alpha   93.46311703
_cell_angle_beta   93.46312182
_cell_angle_gamma   151.54455436
_symmetry_Int_Tables_number   1
_chemical_formula_structural   Cs(Cu2P)4
_chemical_formula_sum   'Cs1 Cu8 P4'
_cell_volume   205.36568197
_cell_formula_units_Z   1
loop_
 _symmetry_equiv_pos_site_id
 _symmetry_equiv_pos_as_xyz
  1  'x, y, z'
loop_
 _atom_site_type_symbol
 _atom_site_label
 _atom_site_symmetry_multiplicity
 _atom_site_fract_x
 _atom_site_fract_y
 _atom_site_fract_z
 _atom_site_occupancy
  Cs  Cs0  1  0.000000  0.000000  0.000000  1
  Cu  Cu1  1  0.771654  0.340426  0.112080  1
  Cu  Cu2  1  0.340426  0.228346  0.568772  1
  Cu  Cu3  1  0.009489  0.369246  0.378735  1
  Cu  Cu4  1  0.990511  0.630754  0.621265  1
  Cu  Cu5  1  0.630754  0.009489  0.640244  1
  Cu  Cu6  1  0.659574  0.771654  0.431228  1
  Cu  Cu7  1  0.369246  0.990511  0.359756  1
  Cu  Cu8  1  0.228346  0.659574  0.887920  1
  P  P9  1  0.582202  0.227361  0.809564  1
  P  P10  1  0.417798  0.772639  0.190436  1
  P  P11  1  0.772639  0.582202  0.354841  1
  P  P12  1  0.227361  0.417798  0.645159  1
