# generated using pymatgen
data_Dy2Th2Re15Si8Ru
_symmetry_space_group_name_H-M   'P 1'
_cell_length_a   4.14123000
_cell_length_b   7.30321036
_cell_length_c   15.47961592
_cell_angle_alpha   90.61796108
_cell_angle_beta   90.00000000
_cell_angle_gamma   90.00000000
_symmetry_Int_Tables_number   1
_chemical_formula_structural   Dy2Th2Re15Si8Ru
_chemical_formula_sum   'Dy2 Th2 Re15 Si8 Ru1'
_cell_volume   468.14251289
_cell_formula_units_Z   1
loop_
 _symmetry_equiv_pos_site_id
 _symmetry_equiv_pos_as_xyz
  1  'x, y, z'
loop_
 _atom_site_type_symbol
 _atom_site_label
 _atom_site_symmetry_multiplicity
 _atom_site_fract_x
 _atom_site_fract_y
 _atom_site_fract_z
 _atom_site_occupancy
  Dy  Dy0  1  0.000000  0.582919  0.116457  1
  Dy  Dy1  1  0.000000  0.417064  0.883658  1
  Th  Th2  1  0.500000  0.081990  0.378779  1
  Th  Th3  1  0.500000  0.917349  0.621265  1
  Re  Re4  1  0.000000  0.144417  0.051395  1
  Re  Re5  1  0.000000  0.855631  0.949300  1
  Re  Re6  1  0.500000  0.360145  0.549324  1
  Re  Re7  1  0.000000  0.732813  0.319939  1
  Re  Re8  1  0.000000  0.263677  0.679322  1
  Re  Re9  1  0.500000  0.241808  0.176382  1
  Re  Re10  1  0.500000  0.760313  0.824052  1
  Re  Re11  1  0.000000  0.429333  0.417967  1
  Re  Re12  1  0.000000  0.569143  0.580362  1
  Re  Re13  1  0.500000  0.931318  0.081517  1
  Re  Re14  1  0.500000  0.068823  0.918747  1
  Re  Re15  1  0.000000  0.989300  0.204442  1
  Re  Re16  1  0.000000  0.009132  0.796041  1
  Re  Re17  1  0.500000  0.495527  0.293899  1
  Re  Re18  1  0.500000  0.504307  0.707526  1
  Si  Si19  1  0.000000  0.827215  0.474960  1
  Si  Si20  1  0.000000  0.169796  0.523752  1
  Si  Si21  1  0.500000  0.335334  0.022589  1
  Si  Si22  1  0.500000  0.664409  0.977560  1
  Si  Si23  1  0.000000  0.299068  0.268862  1
  Si  Si24  1  0.000000  0.697150  0.731075  1
  Si  Si25  1  0.500000  0.790035  0.223218  1
  Si  Si26  1  0.500000  0.209658  0.777041  1
  Ru  Ru27  1  0.500000  0.652326  0.450568  1
