# generated using pymatgen
data_La2CuNi(Sn2Au)2
_symmetry_space_group_name_H-M   'P 1'
_cell_length_a   4.65014800
_cell_length_b   4.65014800
_cell_length_c   10.53497400
_cell_angle_alpha   90.00000000
_cell_angle_beta   90.00000000
_cell_angle_gamma   90.00000000
_symmetry_Int_Tables_number   1
_chemical_formula_structural   La2CuNi(Sn2Au)2
_chemical_formula_sum   'La2 Cu1 Ni1 Sn4 Au2'
_cell_volume   227.80697588
_cell_formula_units_Z   1
loop_
 _symmetry_equiv_pos_site_id
 _symmetry_equiv_pos_as_xyz
  1  'x, y, z'
loop_
 _atom_site_type_symbol
 _atom_site_label
 _atom_site_symmetry_multiplicity
 _atom_site_fract_x
 _atom_site_fract_y
 _atom_site_fract_z
 _atom_site_occupancy
  La  La0  1  0.000000  0.500000  0.248300  1
  La  La1  1  0.500000  0.000000  0.744596  1
  Cu  Cu2  1  0.000000  0.500000  0.619043  1
  Ni  Ni3  1  0.500000  0.000000  0.387559  1
  Sn  Sn4  1  0.000000  0.000000  0.494746  1
  Sn  Sn5  1  0.500000  0.500000  0.494746  1
  Sn  Sn6  1  0.000000  0.500000  0.857405  1
  Sn  Sn7  1  0.500000  0.000000  0.150780  1
  Au  Au8  1  0.000000  0.000000  0.001412  1
  Au  Au9  1  0.500000  0.500000  0.001412  1
