# generated using pymatgen
data_Tb2Ce(SnIr)3
_symmetry_space_group_name_H-M   'P 1'
_cell_length_a   7.45975222
_cell_length_b   7.52494156
_cell_length_c   4.03504400
_cell_angle_alpha   90.00000000
_cell_angle_beta   90.00000000
_cell_angle_gamma   120.28949362
_symmetry_Int_Tables_number   1
_chemical_formula_structural   Tb2Ce(SnIr)3
_chemical_formula_sum   'Tb2 Ce1 Sn3 Ir3'
_cell_volume   195.58346743
_cell_formula_units_Z   1
loop_
 _symmetry_equiv_pos_site_id
 _symmetry_equiv_pos_as_xyz
  1  'x, y, z'
loop_
 _atom_site_type_symbol
 _atom_site_label
 _atom_site_symmetry_multiplicity
 _atom_site_fract_x
 _atom_site_fract_y
 _atom_site_fract_z
 _atom_site_occupancy
  Tb  Tb0  1  0.407084  0.406848  0.000000  1
  Tb  Tb1  1  0.592916  0.999764  0.000000  1
  Ce  Ce2  1  0.000000  0.586551  0.000000  1
  Sn  Sn3  1  0.000000  0.250394  0.500000  1
  Sn  Sn4  1  0.738245  0.744750  0.500000  1
  Sn  Sn5  1  0.261755  0.006505  0.500000  1
  Ir  Ir6  1  0.000000  0.996741  0.000000  1
  Ir  Ir7  1  0.678350  0.343398  0.500000  1
  Ir  Ir8  1  0.321650  0.665049  0.500000  1
