# generated using pymatgen
data_Tb2Y6Hf11Si16Pd
_symmetry_space_group_name_H-M   'P 1'
_cell_length_a   7.28373343
_cell_length_b   7.28310711
_cell_length_c   13.26893831
_cell_angle_alpha   89.81960589
_cell_angle_beta   90.17934375
_cell_angle_gamma   89.87344359
_symmetry_Int_Tables_number   1
_chemical_formula_structural   Tb2Y6Hf11Si16Pd
_chemical_formula_sum   'Tb2 Y6 Hf11 Si16 Pd1'
_cell_volume   703.88476656
_cell_formula_units_Z   1
loop_
 _symmetry_equiv_pos_site_id
 _symmetry_equiv_pos_as_xyz
  1  'x, y, z'
loop_
 _atom_site_type_symbol
 _atom_site_label
 _atom_site_symmetry_multiplicity
 _atom_site_fract_x
 _atom_site_fract_y
 _atom_site_fract_z
 _atom_site_occupancy
  Tb  Tb0  1  0.345081  0.998148  0.789334  1
  Tb  Tb1  1  0.654406  0.004949  0.283107  1
  Y  Y2  1  0.998070  0.345166  0.210761  1
  Y  Y3  1  0.004895  0.654282  0.716931  1
  Y  Y4  1  0.155673  0.495093  0.464542  1
  Y  Y5  1  0.499644  0.848240  0.032952  1
  Y  Y6  1  0.848282  0.499602  0.966961  1
  Y  Y7  1  0.495007  0.155726  0.535466  1
  Hf  Hf8  1  0.824750  0.824732  0.499973  1
  Hf  Hf9  1  0.322605  0.676587  0.248683  1
  Hf  Hf10  1  0.676614  0.322678  0.751302  1
  Hf  Hf11  1  0.146183  0.996205  0.373336  1
  Hf  Hf12  1  0.855578  0.003454  0.878570  1
  Hf  Hf13  1  0.503455  0.646698  0.626159  1
  Hf  Hf14  1  0.354328  0.493298  0.877835  1
  Hf  Hf15  1  0.493307  0.354292  0.122145  1
  Hf  Hf16  1  0.646716  0.503441  0.373899  1
  Hf  Hf17  1  0.996303  0.146141  0.626760  1
  Hf  Hf18  1  0.003386  0.855660  0.121401  1
  Si  Si19  1  0.359717  0.295772  0.315493  1
  Si  Si20  1  0.639162  0.704798  0.819420  1
  Si  Si21  1  0.206831  0.861631  0.568343  1
  Si  Si22  1  0.133529  0.781777  0.929581  1
  Si  Si23  1  0.782068  0.133600  0.070379  1
  Si  Si24  1  0.861633  0.206875  0.431779  1
  Si  Si25  1  0.295702  0.359882  0.684481  1
  Si  Si26  1  0.704892  0.639002  0.180550  1
  Si  Si27  1  0.292664  0.054804  0.185383  1
  Si  Si28  1  0.704780  0.950144  0.686732  1
  Si  Si29  1  0.450225  0.795836  0.435152  1
  Si  Si30  1  0.209359  0.560590  0.063671  1
  Si  Si31  1  0.560748  0.209396  0.936312  1
  Si  Si32  1  0.795905  0.450384  0.564852  1
  Si  Si33  1  0.054735  0.292913  0.814531  1
  Si  Si34  1  0.950221  0.704729  0.313191  1
  Pd  Pd35  1  0.173542  0.173471  0.000032  1
