# generated using pymatgen
data_HfMnGa6Fe5
_symmetry_space_group_name_H-M   'P 1'
_cell_length_a   4.99831262
_cell_length_b   6.53200710
_cell_length_c   6.53200775
_cell_angle_alpha   79.98466792
_cell_angle_beta   67.50508373
_cell_angle_gamma   67.50508709
_symmetry_Int_Tables_number   1
_chemical_formula_structural   HfMnGa6Fe5
_chemical_formula_sum   'Hf1 Mn1 Ga6 Fe5'
_cell_volume   181.95057534
_cell_formula_units_Z   1
loop_
 _symmetry_equiv_pos_site_id
 _symmetry_equiv_pos_as_xyz
  1  'x, y, z'
loop_
 _atom_site_type_symbol
 _atom_site_label
 _atom_site_symmetry_multiplicity
 _atom_site_fract_x
 _atom_site_fract_y
 _atom_site_fract_z
 _atom_site_occupancy
  Hf  Hf0  1  0.000000  0.001128  0.998872  1
  Mn  Mn1  1  0.500000  0.241453  0.758547  1
  Ga  Ga2  1  0.000000  0.670034  0.329966  1
  Ga  Ga3  1  0.000000  0.330870  0.669130  1
  Ga  Ga4  1  0.340718  0.659201  0.659363  1
  Ga  Ga5  1  0.659282  0.340637  0.340799  1
  Ga  Ga6  1  0.324474  0.175272  0.175781  1
  Ga  Ga7  1  0.675526  0.824219  0.824728  1
  Fe  Fe8  1  0.500000  0.756768  0.243232  1
  Fe  Fe9  1  0.998715  0.501194  0.000985  1
  Fe  Fe10  1  0.499105  0.501194  0.000985  1
  Fe  Fe11  1  0.001285  0.999015  0.498806  1
  Fe  Fe12  1  0.500895  0.999015  0.498806  1
