# generated using pymatgen
data_Lu8Nb12Si15P
_symmetry_space_group_name_H-M   'P 1'
_cell_length_a   6.80783718
_cell_length_b   7.00757495
_cell_length_c   13.28262746
_cell_angle_alpha   90.04121904
_cell_angle_beta   90.13151764
_cell_angle_gamma   90.10467304
_symmetry_Int_Tables_number   1
_chemical_formula_structural   Lu8Nb12Si15P
_chemical_formula_sum   'Lu8 Nb12 Si15 P1'
_cell_volume   633.66383516
_cell_formula_units_Z   1
loop_
 _symmetry_equiv_pos_site_id
 _symmetry_equiv_pos_as_xyz
  1  'x, y, z'
loop_
 _atom_site_type_symbol
 _atom_site_label
 _atom_site_symmetry_multiplicity
 _atom_site_fract_x
 _atom_site_fract_y
 _atom_site_fract_z
 _atom_site_occupancy
  Lu  Lu0  1  0.502246  0.676975  0.594014  1
  Lu  Lu1  1  0.002821  0.827318  0.904097  1
  Lu  Lu2  1  0.497737  0.327112  0.095523  1
  Lu  Lu3  1  0.996578  0.172097  0.404688  1
  Lu  Lu4  1  0.498480  0.323528  0.405146  1
  Lu  Lu5  1  0.997954  0.172289  0.095846  1
  Lu  Lu6  1  0.502974  0.672371  0.904636  1
  Lu  Lu7  1  0.000347  0.826360  0.595970  1
  Nb  Nb8  1  0.662155  0.170439  0.623362  1
  Nb  Nb9  1  0.163670  0.325685  0.874208  1
  Nb  Nb10  1  0.337633  0.825504  0.125989  1
  Nb  Nb11  1  0.835277  0.677219  0.375898  1
  Nb  Nb12  1  0.341934  0.827810  0.376081  1
  Nb  Nb13  1  0.837339  0.674605  0.125760  1
  Nb  Nb14  1  0.662090  0.174408  0.874402  1
  Nb  Nb15  1  0.160373  0.326310  0.624639  1
  Nb  Nb16  1  0.838642  0.493414  0.749442  1
  Nb  Nb17  1  0.337011  0.005463  0.749302  1
  Nb  Nb18  1  0.162164  0.506954  0.250785  1
  Nb  Nb19  1  0.663646  0.994049  0.251249  1
  Si  Si20  1  0.164970  0.535490  0.040488  1
  Si  Si21  1  0.335155  0.035213  0.959311  1
  Si  Si22  1  0.833524  0.464649  0.540694  1
  Si  Si23  1  0.326487  0.037698  0.541678  1
  Si  Si24  1  0.835845  0.464552  0.959335  1
  Si  Si25  1  0.664819  0.964741  0.041157  1
  Si  Si26  1  0.165549  0.536061  0.458949  1
  Si  Si27  1  0.459890  0.379172  0.748708  1
  Si  Si28  1  0.958787  0.119286  0.749713  1
  Si  Si29  1  0.540248  0.619237  0.250303  1
  Si  Si30  1  0.042300  0.879172  0.250670  1
  Si  Si31  1  0.704703  0.867647  0.750173  1
  Si  Si32  1  0.205909  0.631298  0.749884  1
  Si  Si33  1  0.294974  0.132394  0.250070  1
  Si  Si34  1  0.796189  0.369519  0.250172  1
  P  P35  1  0.669583  0.963962  0.457659  1
