# generated using pymatgen
data_Hf4In2CuRh9
_symmetry_space_group_name_H-M   'P 1'
_cell_length_a   4.18648800
_cell_length_b   5.55557798
_cell_length_c   11.09076310
_cell_angle_alpha   88.67594524
_cell_angle_beta   90.00000000
_cell_angle_gamma   90.00000000
_symmetry_Int_Tables_number   1
_chemical_formula_structural   Hf4In2CuRh9
_chemical_formula_sum   'Hf4 In2 Cu1 Rh9'
_cell_volume   257.88409241
_cell_formula_units_Z   1
loop_
 _symmetry_equiv_pos_site_id
 _symmetry_equiv_pos_as_xyz
  1  'x, y, z'
loop_
 _atom_site_type_symbol
 _atom_site_label
 _atom_site_symmetry_multiplicity
 _atom_site_fract_x
 _atom_site_fract_y
 _atom_site_fract_z
 _atom_site_occupancy
  Hf  Hf0  1  0.500000  0.169109  0.636476  1
  Hf  Hf1  1  0.500000  0.808655  0.358700  1
  Hf  Hf2  1  0.500000  0.703098  0.864913  1
  Hf  Hf3  1  0.500000  0.316178  0.140271  1
  In  In4  1  0.000000  0.493328  0.500415  1
  In  In5  1  0.000000  0.013884  0.999194  1
  Cu  Cu6  1  0.000000  0.442148  0.754381  1
  Rh  Rh7  1  0.500000  0.223505  0.876948  1
  Rh  Rh8  1  0.500000  0.797905  0.116481  1
  Rh  Rh9  1  0.500000  0.687056  0.622448  1
  Rh  Rh10  1  0.500000  0.289359  0.383200  1
  Rh  Rh11  1  0.000000  0.554945  0.247935  1
  Rh  Rh12  1  0.000000  0.992296  0.501404  1
  Rh  Rh13  1  0.000000  0.513751  0.995762  1
  Rh  Rh14  1  0.000000  0.055016  0.250359  1
  Rh  Rh15  1  0.000000  0.939768  0.751110  1
