# generated using pymatgen
data_Sm2Zr3P7Rh9
_symmetry_space_group_name_H-M   'P 1'
_cell_length_a   3.88972900
_cell_length_b   9.85870598
_cell_length_c   9.85412900
_cell_angle_alpha   120.00713386
_cell_angle_beta   90.00135516
_cell_angle_gamma   89.99661402
_symmetry_Int_Tables_number   1
_chemical_formula_structural   Sm2Zr3P7Rh9
_chemical_formula_sum   'Sm2 Zr3 P7 Rh9'
_cell_volume   327.23286143
_cell_formula_units_Z   1
loop_
 _symmetry_equiv_pos_site_id
 _symmetry_equiv_pos_as_xyz
  1  'x, y, z'
loop_
 _atom_site_type_symbol
 _atom_site_label
 _atom_site_symmetry_multiplicity
 _atom_site_fract_x
 _atom_site_fract_y
 _atom_site_fract_z
 _atom_site_occupancy
  Sm  Sm0  1  0.261698  0.666643  0.333283  1
  Sm  Sm1  1  0.762018  0.333283  0.666687  1
  Zr  Zr2  1  0.761992  0.104756  0.876097  1
  Zr  Zr3  1  0.761983  0.123882  0.228589  1
  Zr  Zr4  1  0.761950  0.771494  0.895248  1
  P  P5  1  0.262282  0.000023  0.999982  1
  P  P6  1  0.761638  0.865357  0.581292  1
  P  P7  1  0.761701  0.418637  0.284122  1
  P  P8  1  0.761707  0.715877  0.134436  1
  P  P9  1  0.261948  0.111258  0.422078  1
  P  P10  1  0.261927  0.577900  0.689270  1
  P  P11  1  0.261937  0.310867  0.888781  1
  Rh  Rh12  1  0.261690  0.879106  0.163379  1
  Rh  Rh13  1  0.261595  0.836551  0.715555  1
  Rh  Rh14  1  0.261665  0.284398  0.120987  1
  Rh  Rh15  1  0.761856  0.605208  0.553177  1
  Rh  Rh16  1  0.761871  0.446830  0.052072  1
  Rh  Rh17  1  0.761924  0.947932  0.394774  1
  Rh  Rh18  1  0.262192  0.360241  0.435826  1
  Rh  Rh19  1  0.262136  0.564275  0.924628  1
  Rh  Rh20  1  0.262287  0.075482  0.639738  1
