# generated using pymatgen
data_YErPa3(AlGa4)3
_symmetry_space_group_name_H-M   'P 1'
_cell_length_a   12.57562654
_cell_length_b   12.57562653
_cell_length_c   12.57562676
_cell_angle_alpha   28.18278050
_cell_angle_beta   28.18277862
_cell_angle_gamma   28.18278799
_symmetry_Int_Tables_number   1
_chemical_formula_structural   YErPa3(AlGa4)3
_chemical_formula_sum   'Y1 Er1 Pa3 Al3 Ga12'
_cell_volume   391.91250061
_cell_formula_units_Z   1
loop_
 _symmetry_equiv_pos_site_id
 _symmetry_equiv_pos_as_xyz
  1  'x, y, z'
loop_
 _atom_site_type_symbol
 _atom_site_label
 _atom_site_symmetry_multiplicity
 _atom_site_fract_x
 _atom_site_fract_y
 _atom_site_fract_z
 _atom_site_occupancy
  Y  Y0  1  0.999416  0.999416  0.999416  1
  Er  Er1  1  0.598686  0.598686  0.598686  1
  Pa  Pa2  1  0.130611  0.130611  0.130611  1
  Pa  Pa3  1  0.869773  0.869773  0.869773  1
  Pa  Pa4  1  0.401690  0.401690  0.401690  1
  Al  Al5  1  0.497641  0.497641  0.003178  1
  Al  Al6  1  0.497641  0.003178  0.497641  1
  Al  Al7  1  0.003178  0.497641  0.497641  1
  Ga  Ga8  1  0.131204  0.636294  0.636294  1
  Ga  Ga9  1  0.636294  0.636294  0.131204  1
  Ga  Ga10  1  0.636294  0.131204  0.636294  1
  Ga  Ga11  1  0.364281  0.872337  0.364281  1
  Ga  Ga12  1  0.364281  0.364281  0.872337  1
  Ga  Ga13  1  0.872337  0.364281  0.364281  1
  Ga  Ga14  1  0.430432  0.882009  0.882009  1
  Ga  Ga15  1  0.882009  0.882009  0.430432  1
  Ga  Ga16  1  0.882009  0.430432  0.882009  1
  Ga  Ga17  1  0.117732  0.566756  0.117732  1
  Ga  Ga18  1  0.117732  0.117732  0.566756  1
  Ga  Ga19  1  0.566756  0.117732  0.117732  1
