# generated using pymatgen
data_NbCu3SeS3
_symmetry_space_group_name_H-M   'P 1'
_cell_length_a   5.56817049
_cell_length_b   5.56817049
_cell_length_c   5.56817049
_cell_angle_alpha   89.40978309
_cell_angle_beta   89.40978309
_cell_angle_gamma   90.59021691
_symmetry_Int_Tables_number   1
_chemical_formula_structural   NbCu3SeS3
_chemical_formula_sum   'Nb1 Cu3 Se1 S3'
_cell_volume   172.61079827
_cell_formula_units_Z   1
loop_
 _symmetry_equiv_pos_site_id
 _symmetry_equiv_pos_as_xyz
  1  'x, y, z'
loop_
 _atom_site_type_symbol
 _atom_site_label
 _atom_site_symmetry_multiplicity
 _atom_site_fract_x
 _atom_site_fract_y
 _atom_site_fract_z
 _atom_site_occupancy
  Nb  Nb0  1  0.999121  0.999121  0.000879  1
  Cu  Cu1  1  0.007294  0.007294  0.503087  1
  Cu  Cu2  1  0.007294  0.496913  0.992706  1
  Cu  Cu3  1  0.496913  0.007294  0.992706  1
  Se  Se4  1  0.741705  0.741705  0.258295  1
  S  S5  1  0.762733  0.242470  0.757530  1
  S  S6  1  0.242470  0.762733  0.757530  1
  S  S7  1  0.242470  0.242470  0.237267  1
