# generated using pymatgen
data_Zr4Fe2P4PtRh
_symmetry_space_group_name_H-M   'P 1'
_cell_length_a   3.78076000
_cell_length_b   6.48254931
_cell_length_c   7.34413340
_cell_angle_alpha   88.81370531
_cell_angle_beta   90.00000000
_cell_angle_gamma   90.00000000
_symmetry_Int_Tables_number   1
_chemical_formula_structural   Zr4Fe2P4PtRh
_chemical_formula_sum   'Zr4 Fe2 P4 Pt1 Rh1'
_cell_volume   179.95851518
_cell_formula_units_Z   1
loop_
 _symmetry_equiv_pos_site_id
 _symmetry_equiv_pos_as_xyz
  1  'x, y, z'
loop_
 _atom_site_type_symbol
 _atom_site_label
 _atom_site_symmetry_multiplicity
 _atom_site_fract_x
 _atom_site_fract_y
 _atom_site_fract_z
 _atom_site_occupancy
  Zr  Zr0  1  0.250000  0.524303  0.686898  1
  Zr  Zr1  1  0.750000  0.473800  0.313641  1
  Zr  Zr2  1  0.250000  0.021571  0.824433  1
  Zr  Zr3  1  0.750000  0.983256  0.175137  1
  Fe  Fe4  1  0.750000  0.362366  0.942576  1
  Fe  Fe5  1  0.250000  0.638136  0.056234  1
  P  P6  1  0.250000  0.283813  0.101192  1
  P  P7  1  0.750000  0.715743  0.904997  1
  P  P8  1  0.250000  0.757838  0.355121  1
  P  P9  1  0.750000  0.245409  0.637123  1
  Pt  Pt10  1  0.750000  0.846452  0.566383  1
  Rh  Rh11  1  0.250000  0.147313  0.436264  1
