# generated using pymatgen
data_BaMn(NbS2)8
_symmetry_space_group_name_H-M   'P 1'
_cell_length_a   6.75381900
_cell_length_b   6.75381940
_cell_length_c   14.17854300
_cell_angle_alpha   90.00000000
_cell_angle_beta   90.00000000
_cell_angle_gamma   120.00000294
_symmetry_Int_Tables_number   1
_chemical_formula_structural   BaMn(NbS2)8
_chemical_formula_sum   'Ba1 Mn1 Nb8 S16'
_cell_volume   560.09421141
_cell_formula_units_Z   1
loop_
 _symmetry_equiv_pos_site_id
 _symmetry_equiv_pos_as_xyz
  1  'x, y, z'
loop_
 _atom_site_type_symbol
 _atom_site_label
 _atom_site_symmetry_multiplicity
 _atom_site_fract_x
 _atom_site_fract_y
 _atom_site_fract_z
 _atom_site_occupancy
  Ba  Ba0  1  0.000000  0.000000  0.000000  1
  Mn  Mn1  1  0.000000  0.000000  0.500000  1
  Nb  Nb2  1  0.990788  0.495394  0.283337  1
  Nb  Nb3  1  0.009212  0.504606  0.716663  1
  Nb  Nb4  1  0.495394  0.504606  0.716663  1
  Nb  Nb5  1  0.504606  0.009212  0.283337  1
  Nb  Nb6  1  0.000000  0.000000  0.717750  1
  Nb  Nb7  1  0.000000  0.000000  0.282250  1
  Nb  Nb8  1  0.504606  0.495394  0.283337  1
  Nb  Nb9  1  0.495394  0.990788  0.716663  1
  S  S10  1  0.333333  0.666667  0.606126  1
  S  S11  1  0.666667  0.333333  0.169720  1
  S  S12  1  0.666667  0.333333  0.393874  1
  S  S13  1  0.333333  0.666667  0.830280  1
  S  S14  1  0.167323  0.334647  0.391922  1
  S  S15  1  0.831734  0.168266  0.826766  1
  S  S16  1  0.336535  0.168266  0.826766  1
  S  S17  1  0.665353  0.832677  0.391922  1
  S  S18  1  0.167323  0.832677  0.391922  1
  S  S19  1  0.831734  0.663465  0.826766  1
  S  S20  1  0.168266  0.336535  0.173234  1
  S  S21  1  0.832677  0.167323  0.608078  1
  S  S22  1  0.334647  0.167323  0.608078  1
  S  S23  1  0.663465  0.831734  0.173234  1
  S  S24  1  0.168266  0.831734  0.173234  1
  S  S25  1  0.832677  0.665353  0.608078  1
