# generated using pymatgen
data_CeTh3(MgSi2)2
_symmetry_space_group_name_H-M   'P 1'
_cell_length_a   7.32077090
_cell_length_b   7.32077090
_cell_length_c   4.41353200
_cell_angle_alpha   90.00000000
_cell_angle_beta   90.00000000
_cell_angle_gamma   90.08258490
_symmetry_Int_Tables_number   1
_chemical_formula_structural   CeTh3(MgSi2)2
_chemical_formula_sum   'Ce1 Th3 Mg2 Si4'
_cell_volume   236.53720504
_cell_formula_units_Z   1
loop_
 _symmetry_equiv_pos_site_id
 _symmetry_equiv_pos_as_xyz
  1  'x, y, z'
loop_
 _atom_site_type_symbol
 _atom_site_label
 _atom_site_symmetry_multiplicity
 _atom_site_fract_x
 _atom_site_fract_y
 _atom_site_fract_z
 _atom_site_occupancy
  Ce  Ce0  1  0.319792  0.819792  0.500000  1
  Th  Th1  1  0.679431  0.179431  0.500000  1
  Th  Th2  1  0.179524  0.320916  0.500000  1
  Th  Th3  1  0.820916  0.679524  0.500000  1
  Mg  Mg4  1  0.001149  0.999244  0.000000  1
  Mg  Mg5  1  0.499244  0.501149  0.000000  1
  Si  Si6  1  0.883106  0.383106  0.000000  1
  Si  Si7  1  0.382708  0.115757  0.000000  1
  Si  Si8  1  0.615757  0.882708  0.000000  1
  Si  Si9  1  0.118373  0.618373  0.000000  1
