# generated using pymatgen
data_Tb2Ho10Ir3Pd
_symmetry_space_group_name_H-M   'P 1'
_cell_length_a   6.38865722
_cell_length_b   7.17656949
_cell_length_c   9.29857900
_cell_angle_alpha   90.00000000
_cell_angle_beta   90.00000000
_cell_angle_gamma   90.12625914
_symmetry_Int_Tables_number   1
_chemical_formula_structural   Tb2Ho10Ir3Pd
_chemical_formula_sum   'Tb2 Ho10 Ir3 Pd1'
_cell_volume   426.32618935
_cell_formula_units_Z   1
loop_
 _symmetry_equiv_pos_site_id
 _symmetry_equiv_pos_as_xyz
  1  'x, y, z'
loop_
 _atom_site_type_symbol
 _atom_site_label
 _atom_site_symmetry_multiplicity
 _atom_site_fract_x
 _atom_site_fract_y
 _atom_site_fract_z
 _atom_site_occupancy
  Tb  Tb0  1  0.865412  0.524891  0.250000  1
  Tb  Tb1  1  0.625128  0.036514  0.250000  1
  Ho  Ho2  1  0.333764  0.675230  0.059316  1
  Ho  Ho3  1  0.173296  0.183622  0.440973  1
  Ho  Ho4  1  0.674501  0.320731  0.563842  1
  Ho  Ho5  1  0.824385  0.821843  0.934255  1
  Ho  Ho6  1  0.674501  0.320731  0.936158  1
  Ho  Ho7  1  0.824385  0.821843  0.565745  1
  Ho  Ho8  1  0.333764  0.675230  0.440684  1
  Ho  Ho9  1  0.173296  0.183622  0.059027  1
  Ho  Ho10  1  0.129918  0.466916  0.750000  1
  Ho  Ho11  1  0.368874  0.965565  0.750000  1
  Ir  Ir12  1  0.446582  0.384681  0.250000  1
  Ir  Ir13  1  0.954006  0.116643  0.750000  1
  Ir  Ir14  1  0.545001  0.615760  0.750000  1
  Pd  Pd15  1  0.053185  0.886179  0.250000  1
