# generated using pymatgen
data_Dy9Ho3Tc3Ru
_symmetry_space_group_name_H-M   'P 1'
_cell_length_a   6.28290021
_cell_length_b   7.38645751
_cell_length_c   9.14571505
_cell_angle_alpha   90.00156872
_cell_angle_beta   90.01178604
_cell_angle_gamma   89.99235579
_symmetry_Int_Tables_number   1
_chemical_formula_structural   Dy9Ho3Tc3Ru
_chemical_formula_sum   'Dy9 Ho3 Tc3 Ru1'
_cell_volume   424.43776459
_cell_formula_units_Z   1
loop_
 _symmetry_equiv_pos_site_id
 _symmetry_equiv_pos_as_xyz
  1  'x, y, z'
loop_
 _atom_site_type_symbol
 _atom_site_label
 _atom_site_symmetry_multiplicity
 _atom_site_fract_x
 _atom_site_fract_y
 _atom_site_fract_z
 _atom_site_occupancy
  Dy  Dy0  1  0.335158  0.676480  0.063492  1
  Dy  Dy1  1  0.162312  0.175541  0.437246  1
  Dy  Dy2  1  0.662574  0.324517  0.562869  1
  Dy  Dy3  1  0.836437  0.824185  0.937347  1
  Dy  Dy4  1  0.662509  0.324378  0.937111  1
  Dy  Dy5  1  0.873728  0.540714  0.250112  1
  Dy  Dy6  1  0.626085  0.039407  0.250014  1
  Dy  Dy7  1  0.130977  0.458595  0.749939  1
  Dy  Dy8  1  0.373308  0.957539  0.749942  1
  Ho  Ho9  1  0.836369  0.824112  0.562600  1
  Ho  Ho10  1  0.335301  0.676420  0.436581  1
  Ho  Ho11  1  0.162392  0.175599  0.062667  1
  Tc  Tc12  1  0.039881  0.884640  0.250258  1
  Tc  Tc13  1  0.461685  0.386690  0.249980  1
  Tc  Tc14  1  0.961880  0.115207  0.750173  1
  Ru  Ru15  1  0.539404  0.615977  0.749669  1
