# generated using pymatgen
data_LiYb6Y2(Si4Pd)3
_symmetry_space_group_name_H-M   'P 1'
_cell_length_a   8.27647700
_cell_length_b   8.27647596
_cell_length_c   8.11593600
_cell_angle_alpha   90.00000000
_cell_angle_beta   90.00000000
_cell_angle_gamma   119.99999217
_symmetry_Int_Tables_number   1
_chemical_formula_structural   LiYb6Y2(Si4Pd)3
_chemical_formula_sum   'Li1 Yb6 Y2 Si12 Pd3'
_cell_volume   481.46004269
_cell_formula_units_Z   1
loop_
 _symmetry_equiv_pos_site_id
 _symmetry_equiv_pos_as_xyz
  1  'x, y, z'
loop_
 _atom_site_type_symbol
 _atom_site_label
 _atom_site_symmetry_multiplicity
 _atom_site_fract_x
 _atom_site_fract_y
 _atom_site_fract_z
 _atom_site_occupancy
  Li  Li0  1  0.333333  0.666667  0.998629  1
  Yb  Yb1  1  0.503029  0.006057  0.253231  1
  Yb  Yb2  1  0.503348  0.006696  0.746743  1
  Yb  Yb3  1  0.993943  0.496971  0.253231  1
  Yb  Yb4  1  0.993304  0.496652  0.746743  1
  Yb  Yb5  1  0.503029  0.496971  0.253231  1
  Yb  Yb6  1  0.503348  0.496652  0.746743  1
  Y  Y7  1  0.000000  0.000000  0.250191  1
  Y  Y8  1  0.000000  0.000000  0.749925  1
  Si  Si9  1  0.161457  0.322914  0.000196  1
  Si  Si10  1  0.835257  0.670514  0.999965  1
  Si  Si11  1  0.677086  0.838543  0.000196  1
  Si  Si12  1  0.836710  0.673420  0.499770  1
  Si  Si13  1  0.329486  0.164743  0.999965  1
  Si  Si14  1  0.165089  0.330179  0.500344  1
  Si  Si15  1  0.161457  0.838543  0.000196  1
  Si  Si16  1  0.326580  0.163290  0.499770  1
  Si  Si17  1  0.835257  0.164743  0.999965  1
  Si  Si18  1  0.669821  0.834911  0.500344  1
  Si  Si19  1  0.836710  0.163290  0.499770  1
  Si  Si20  1  0.165089  0.834911  0.500344  1
  Pd  Pd21  1  0.666667  0.333333  0.999873  1
  Pd  Pd22  1  0.666667  0.333333  0.499851  1
  Pd  Pd23  1  0.333333  0.666667  0.500785  1
