# generated using pymatgen
data_Y10Tm10(Ir3Os)3
_symmetry_space_group_name_H-M   'P 1'
_cell_length_a   10.83181635
_cell_length_b   10.82648205
_cell_length_c   6.38602698
_cell_angle_alpha   90.00675561
_cell_angle_beta   90.08982657
_cell_angle_gamma   90.00832521
_symmetry_Int_Tables_number   1
_chemical_formula_structural   Y10Tm10(Ir3Os)3
_chemical_formula_sum   'Y10 Tm10 Ir9 Os3'
_cell_volume   748.89142124
_cell_formula_units_Z   1
loop_
 _symmetry_equiv_pos_site_id
 _symmetry_equiv_pos_as_xyz
  1  'x, y, z'
loop_
 _atom_site_type_symbol
 _atom_site_label
 _atom_site_symmetry_multiplicity
 _atom_site_fract_x
 _atom_site_fract_y
 _atom_site_fract_z
 _atom_site_occupancy
  Y  Y0  1  0.291749  0.086981  0.375165  1
  Y  Y1  1  0.291797  0.913273  0.875379  1
  Y  Y2  1  0.708271  0.086738  0.875857  1
  Y  Y3  1  0.708303  0.912972  0.375685  1
  Y  Y4  1  0.586817  0.791761  0.876088  1
  Y  Y5  1  0.587157  0.208299  0.375881  1
  Y  Y6  1  0.413638  0.792404  0.375400  1
  Y  Y7  1  0.413992  0.207527  0.875720  1
  Y  Y8  1  0.207880  0.413648  0.625776  1
  Y  Y9  1  0.207259  0.586663  0.121722  1
  Tm  Tm10  1  0.793432  0.414005  0.120383  1
  Tm  Tm11  1  0.792774  0.585661  0.624576  1
  Tm  Tm12  1  0.913589  0.706644  0.120282  1
  Tm  Tm13  1  0.913868  0.292706  0.624654  1
  Tm  Tm14  1  0.084546  0.707425  0.624714  1
  Tm  Tm15  1  0.084758  0.293198  0.120301  1
  Tm  Tm16  1  0.999746  0.000191  0.501239  1
  Tm  Tm17  1  0.999735  0.999774  0.001348  1
  Tm  Tm18  1  0.500800  0.499842  0.000851  1
  Tm  Tm19  1  0.500777  0.500173  0.500589  1
  Ir  Ir20  1  0.851810  0.154381  0.251503  1
  Ir  Ir21  1  0.851466  0.845922  0.750769  1
  Ir  Ir22  1  0.148331  0.152449  0.752280  1
  Ir  Ir23  1  0.147997  0.847208  0.252927  1
  Ir  Ir24  1  0.654435  0.351637  0.750782  1
  Ir  Ir25  1  0.654834  0.648062  0.251413  1
  Ir  Ir26  1  0.347268  0.350240  0.249067  1
  Ir  Ir27  1  0.347657  0.650152  0.748557  1
  Ir  Ir28  1  0.997296  0.500015  0.377621  1
  Os  Os29  1  0.500212  0.000167  0.124179  1
  Os  Os30  1  0.500194  0.999862  0.623722  1
  Os  Os31  1  0.997613  0.500020  0.875571  1
