# generated using pymatgen
data_Mg2Zr(AsPd)3
_symmetry_space_group_name_H-M   'P 1'
_cell_length_a   6.89875141
_cell_length_b   6.93439479
_cell_length_c   3.81994900
_cell_angle_alpha   90.00000000
_cell_angle_beta   90.00000000
_cell_angle_gamma   120.17105439
_symmetry_Int_Tables_number   1
_chemical_formula_structural   Mg2Zr(AsPd)3
_chemical_formula_sum   'Mg2 Zr1 As3 Pd3'
_cell_volume   157.98508814
_cell_formula_units_Z   1
loop_
 _symmetry_equiv_pos_site_id
 _symmetry_equiv_pos_as_xyz
  1  'x, y, z'
loop_
 _atom_site_type_symbol
 _atom_site_label
 _atom_site_symmetry_multiplicity
 _atom_site_fract_x
 _atom_site_fract_y
 _atom_site_fract_z
 _atom_site_occupancy
  Mg  Mg0  1  0.401292  0.408037  0.500000  1
  Mg  Mg1  1  0.598708  0.006746  0.500000  1
  Zr  Zr2  1  0.000000  0.595017  0.500000  1
  As  As3  1  0.682064  0.347186  0.000000  1
  As  As4  1  0.317936  0.665122  0.000000  1
  As  As5  1  0.000000  0.985613  0.500000  1
  Pd  Pd6  1  0.281810  0.019276  0.000000  1
  Pd  Pd7  1  0.718190  0.737466  0.000000  1
  Pd  Pd8  1  0.000000  0.235537  0.000000  1
