# generated using pymatgen
data_Ho5Co16(Si4Ru)3
_symmetry_space_group_name_H-M   'P 1'
_cell_length_a   12.21220600
_cell_length_b   12.21220768
_cell_length_c   3.77813600
_cell_angle_alpha   90.00000000
_cell_angle_beta   90.00000000
_cell_angle_gamma   120.00000085
_symmetry_Int_Tables_number   1
_chemical_formula_structural   Ho5Co16(Si4Ru)3
_chemical_formula_sum   'Ho5 Co16 Si12 Ru3'
_cell_volume   487.97381478
_cell_formula_units_Z   1
loop_
 _symmetry_equiv_pos_site_id
 _symmetry_equiv_pos_as_xyz
  1  'x, y, z'
loop_
 _atom_site_type_symbol
 _atom_site_label
 _atom_site_symmetry_multiplicity
 _atom_site_fract_x
 _atom_site_fract_y
 _atom_site_fract_z
 _atom_site_occupancy
  Ho  Ho0  1  0.666667  0.333333  0.000000  1
  Ho  Ho1  1  0.333333  0.666667  0.000000  1
  Ho  Ho2  1  0.815135  0.815135  0.500000  1
  Ho  Ho3  1  0.184865  0.000000  0.500000  1
  Ho  Ho4  1  0.000000  0.184865  0.500000  1
  Co  Co5  1  0.876491  0.355317  0.500000  1
  Co  Co6  1  0.644683  0.521173  0.500000  1
  Co  Co7  1  0.478827  0.123509  0.500000  1
  Co  Co8  1  0.355317  0.876491  0.500000  1
  Co  Co9  1  0.521173  0.644683  0.500000  1
  Co  Co10  1  0.123509  0.478827  0.500000  1
  Co  Co11  1  0.803963  0.180880  0.000000  1
  Co  Co12  1  0.819120  0.623080  0.000000  1
  Co  Co13  1  0.376920  0.196037  0.000000  1
  Co  Co14  1  0.180880  0.803963  0.000000  1
  Co  Co15  1  0.623080  0.819120  0.000000  1
  Co  Co16  1  0.196037  0.376920  0.000000  1
  Co  Co17  1  0.279582  0.279582  0.500000  1
  Co  Co18  1  0.720418  0.000000  0.500000  1
  Co  Co19  1  0.000000  0.720418  0.500000  1
  Co  Co20  1  0.000000  0.000000  0.000000  1
  Si  Si21  1  0.684281  0.161696  0.500000  1
  Si  Si22  1  0.838304  0.522584  0.500000  1
  Si  Si23  1  0.477416  0.315719  0.500000  1
  Si  Si24  1  0.161696  0.684281  0.500000  1
  Si  Si25  1  0.522584  0.838304  0.500000  1
  Si  Si26  1  0.315719  0.477416  0.500000  1
  Si  Si27  1  0.184243  0.184243  0.000000  1
  Si  Si28  1  0.815757  0.000000  0.000000  1
  Si  Si29  1  0.000000  0.815757  0.000000  1
  Si  Si30  1  0.632208  0.632208  0.000000  1
  Si  Si31  1  0.367792  0.000000  0.000000  1
  Si  Si32  1  0.000000  0.367792  0.000000  1
  Ru  Ru33  1  0.440328  0.440328  0.000000  1
  Ru  Ru34  1  0.559672  0.000000  0.000000  1
  Ru  Ru35  1  0.000000  0.559672  0.000000  1
