# generated using pymatgen
data_Tb9Nd(CoTe)4
_symmetry_space_group_name_H-M   'P 1'
_cell_length_a   7.85083206
_cell_length_b   7.85083237
_cell_length_c   15.17979200
_cell_angle_alpha   90.00000000
_cell_angle_beta   90.00000000
_cell_angle_gamma   150.39999458
_symmetry_Int_Tables_number   1
_chemical_formula_structural   Tb9Nd(CoTe)4
_chemical_formula_sum   'Tb9 Nd1 Co4 Te4'
_cell_volume   462.13953538
_cell_formula_units_Z   1
loop_
 _symmetry_equiv_pos_site_id
 _symmetry_equiv_pos_as_xyz
  1  'x, y, z'
loop_
 _atom_site_type_symbol
 _atom_site_label
 _atom_site_symmetry_multiplicity
 _atom_site_fract_x
 _atom_site_fract_y
 _atom_site_fract_z
 _atom_site_occupancy
  Tb  Tb0  1  0.960270  0.039730  0.126942  1
  Tb  Tb1  1  0.040842  0.959158  0.874455  1
  Tb  Tb2  1  0.040842  0.959158  0.625545  1
  Tb  Tb3  1  0.960270  0.039730  0.373058  1
  Tb  Tb4  1  0.741007  0.258993  0.630037  1
  Tb  Tb5  1  0.258144  0.741856  0.368448  1
  Tb  Tb6  1  0.258144  0.741856  0.131552  1
  Tb  Tb7  1  0.741007  0.258993  0.869963  1
  Tb  Tb8  1  0.605103  0.394897  0.250000  1
  Nd  Nd9  1  0.394683  0.605317  0.750000  1
  Co  Co10  1  0.411309  0.588691  0.250000  1
  Co  Co11  1  0.589563  0.410437  0.750000  1
  Co  Co12  1  0.820723  0.179277  0.250000  1
  Co  Co13  1  0.178296  0.821704  0.750000  1
  Te  Te14  1  0.617874  0.382126  0.039075  1
  Te  Te15  1  0.382024  0.617976  0.963783  1
  Te  Te16  1  0.382024  0.617976  0.536217  1
  Te  Te17  1  0.617874  0.382126  0.460925  1
