# generated using pymatgen
data_Nd2ThSe5
_symmetry_space_group_name_H-M   'P 1'
_cell_length_a   7.94051300
_cell_length_b   8.57341800
_cell_length_c   12.66161900
_cell_angle_alpha   90.00000000
_cell_angle_beta   90.00000000
_cell_angle_gamma   90.00000000
_symmetry_Int_Tables_number   1
_chemical_formula_structural   Nd2ThSe5
_chemical_formula_sum   'Nd8 Th4 Se20'
_cell_volume   861.96930469
_cell_formula_units_Z   4
loop_
 _symmetry_equiv_pos_site_id
 _symmetry_equiv_pos_as_xyz
  1  'x, y, z'
loop_
 _atom_site_type_symbol
 _atom_site_label
 _atom_site_symmetry_multiplicity
 _atom_site_fract_x
 _atom_site_fract_y
 _atom_site_fract_z
 _atom_site_occupancy
  Nd  Nd0  1  0.518540  0.498284  0.320978  1
  Nd  Nd1  1  0.981460  0.001716  0.820978  1
  Nd  Nd2  1  0.481460  0.998284  0.679022  1
  Nd  Nd3  1  0.018540  0.501716  0.179022  1
  Nd  Nd4  1  0.481460  0.501716  0.679022  1
  Nd  Nd5  1  0.018540  0.998284  0.179022  1
  Nd  Nd6  1  0.518540  0.001716  0.320978  1
  Nd  Nd7  1  0.981460  0.498284  0.820978  1
  Th  Th8  1  0.077609  0.750000  0.491116  1
  Th  Th9  1  0.422391  0.750000  0.991116  1
  Th  Th10  1  0.922391  0.250000  0.508884  1
  Th  Th11  1  0.577609  0.250000  0.008884  1
  Se  Se12  1  0.837439  0.955745  0.600649  1
  Se  Se13  1  0.662561  0.544255  0.100649  1
  Se  Se14  1  0.162561  0.455745  0.399351  1
  Se  Se15  1  0.337439  0.044255  0.899351  1
  Se  Se16  1  0.162561  0.044255  0.399351  1
  Se  Se17  1  0.337439  0.455745  0.899351  1
  Se  Se18  1  0.837439  0.544255  0.600649  1
  Se  Se19  1  0.662561  0.955745  0.100649  1
  Se  Se20  1  0.825516  0.750000  0.315306  1
  Se  Se21  1  0.674484  0.750000  0.815306  1
  Se  Se22  1  0.174484  0.250000  0.684694  1
  Se  Se23  1  0.325516  0.250000  0.184694  1
  Se  Se24  1  0.460021  0.750000  0.499445  1
  Se  Se25  1  0.039979  0.750000  0.999445  1
  Se  Se26  1  0.539979  0.250000  0.500555  1
  Se  Se27  1  0.960021  0.250000  0.000555  1
  Se  Se28  1  0.200970  0.750000  0.716027  1
  Se  Se29  1  0.299030  0.750000  0.216027  1
  Se  Se30  1  0.799030  0.250000  0.283973  1
  Se  Se31  1  0.700970  0.250000  0.783973  1
