# generated using pymatgen
data_Pu2(ReB2)3
_symmetry_space_group_name_H-M   'P 1'
_cell_length_a   6.24998159
_cell_length_b   6.24998240
_cell_length_c   7.44789268
_cell_angle_alpha   89.63920716
_cell_angle_beta   89.63921488
_cell_angle_gamma   114.25475181
_symmetry_Int_Tables_number   1
_chemical_formula_structural   Pu2(ReB2)3
_chemical_formula_sum   'Pu4 Re6 B12'
_cell_volume   265.23265685
_cell_formula_units_Z   2
loop_
 _symmetry_equiv_pos_site_id
 _symmetry_equiv_pos_as_xyz
  1  'x, y, z'
loop_
 _atom_site_type_symbol
 _atom_site_label
 _atom_site_symmetry_multiplicity
 _atom_site_fract_x
 _atom_site_fract_y
 _atom_site_fract_z
 _atom_site_occupancy
  Pu  Pu0  1  0.900774  0.548107  0.332031  1
  Pu  Pu1  1  0.451893  0.099226  0.167969  1
  Pu  Pu2  1  0.099226  0.451893  0.667969  1
  Pu  Pu3  1  0.548107  0.900774  0.832031  1
  Re  Re4  1  0.409917  0.590083  0.250000  1
  Re  Re5  1  0.590083  0.409917  0.750000  1
  Re  Re6  1  0.010734  0.193369  0.088167  1
  Re  Re7  1  0.806631  0.989266  0.411833  1
  Re  Re8  1  0.989266  0.806631  0.911833  1
  Re  Re9  1  0.193369  0.010734  0.588167  1
  B  B10  1  0.753418  0.843124  0.133929  1
  B  B11  1  0.156876  0.246582  0.366071  1
  B  B12  1  0.246582  0.156876  0.866071  1
  B  B13  1  0.843124  0.753418  0.633929  1
  B  B14  1  0.412116  0.840259  0.480573  1
  B  B15  1  0.159741  0.587884  0.019427  1
  B  B16  1  0.587884  0.159741  0.519427  1
  B  B17  1  0.840259  0.412116  0.980573  1
  B  B18  1  0.553914  0.649918  0.537413  1
  B  B19  1  0.350082  0.446086  0.962587  1
  B  B20  1  0.446086  0.350082  0.462587  1
  B  B21  1  0.649918  0.553914  0.037413  1
