# generated using pymatgen
data_Y9Th(AsPb3)2
_symmetry_space_group_name_H-M   'P 1'
_cell_length_a   9.29838500
_cell_length_b   9.31733166
_cell_length_c   6.89555000
_cell_angle_alpha   90.00000000
_cell_angle_beta   90.00000000
_cell_angle_gamma   120.06743807
_symmetry_Int_Tables_number   1
_chemical_formula_structural   Y9Th(AsPb3)2
_chemical_formula_sum   'Y9 Th1 As2 Pb6'
_cell_volume   517.01494409
_cell_formula_units_Z   1
loop_
 _symmetry_equiv_pos_site_id
 _symmetry_equiv_pos_as_xyz
  1  'x, y, z'
loop_
 _atom_site_type_symbol
 _atom_site_label
 _atom_site_symmetry_multiplicity
 _atom_site_fract_x
 _atom_site_fract_y
 _atom_site_fract_z
 _atom_site_occupancy
  Y  Y0  1  0.754583  0.755866  0.750000  1
  Y  Y1  1  0.245417  0.001283  0.750000  1
  Y  Y2  1  0.000000  0.245179  0.750000  1
  Y  Y3  1  0.244490  0.243565  0.250000  1
  Y  Y4  1  0.755510  0.999076  0.250000  1
  Y  Y5  1  0.666279  0.332954  0.999323  1
  Y  Y6  1  0.333721  0.666674  0.999323  1
  Y  Y7  1  0.333721  0.666674  0.500677  1
  Y  Y8  1  0.666279  0.332954  0.500677  1
  Th  Th9  1  0.000000  0.754972  0.250000  1
  As  As10  1  0.000000  0.002221  0.997450  1
  As  As11  1  0.000000  0.002221  0.502550  1
  Pb  Pb12  1  0.398712  0.398656  0.750000  1
  Pb  Pb13  1  0.601288  0.999944  0.750000  1
  Pb  Pb14  1  0.000000  0.601959  0.750000  1
  Pb  Pb15  1  0.596483  0.598520  0.250000  1
  Pb  Pb16  1  0.403517  0.002037  0.250000  1
  Pb  Pb17  1  0.000000  0.395245  0.250000  1
