# generated using pymatgen
data_Cs4Ba2ZrP4
_symmetry_space_group_name_H-M   'P 1'
_cell_length_a   11.00677123
_cell_length_b   11.00677192
_cell_length_c   8.08388602
_cell_angle_alpha   87.60409115
_cell_angle_beta   87.60408424
_cell_angle_gamma   119.42670262
_symmetry_Int_Tables_number   1
_chemical_formula_structural   Cs4Ba2ZrP4
_chemical_formula_sum   'Cs8 Ba4 Zr2 P8'
_cell_volume   850.06779282
_cell_formula_units_Z   2
loop_
 _symmetry_equiv_pos_site_id
 _symmetry_equiv_pos_as_xyz
  1  'x, y, z'
loop_
 _atom_site_type_symbol
 _atom_site_label
 _atom_site_symmetry_multiplicity
 _atom_site_fract_x
 _atom_site_fract_y
 _atom_site_fract_z
 _atom_site_occupancy
  Cs  Cs0  1  0.473783  0.939050  0.389892  1
  Cs  Cs1  1  0.939050  0.473783  0.889892  1
  Cs  Cs2  1  0.869572  0.724861  0.158374  1
  Cs  Cs3  1  0.259228  0.123940  0.241806  1
  Cs  Cs4  1  0.858243  0.142808  0.191386  1
  Cs  Cs5  1  0.123940  0.259228  0.741806  1
  Cs  Cs6  1  0.724861  0.869572  0.658374  1
  Cs  Cs7  1  0.142808  0.858243  0.691386  1
  Ba  Ba8  1  0.076550  0.535065  0.401244  1
  Ba  Ba9  1  0.475447  0.532661  0.376990  1
  Ba  Ba10  1  0.535065  0.076550  0.901244  1
  Ba  Ba11  1  0.532661  0.475447  0.876990  1
  Zr  Zr12  1  0.663217  0.336526  0.488110  1
  Zr  Zr13  1  0.336526  0.663217  0.988110  1
  P  P14  1  0.630462  0.327074  0.171431  1
  P  P15  1  0.327074  0.630462  0.671431  1
  P  P16  1  0.218724  0.418717  0.138687  1
  P  P17  1  0.589554  0.787303  0.068307  1
  P  P18  1  0.219488  0.797537  0.091440  1
  P  P19  1  0.787303  0.589554  0.568307  1
  P  P20  1  0.418717  0.218724  0.638687  1
  P  P21  1  0.797537  0.219488  0.591440  1
