# generated using pymatgen
data_Ho4Al4OsPd3
_symmetry_space_group_name_H-M   'P 1'
_cell_length_a   4.32728900
_cell_length_b   6.88631021
_cell_length_c   7.89631421
_cell_angle_alpha   89.97279940
_cell_angle_beta   90.00000000
_cell_angle_gamma   90.00000000
_symmetry_Int_Tables_number   1
_chemical_formula_structural   Ho4Al4OsPd3
_chemical_formula_sum   'Ho4 Al4 Os1 Pd3'
_cell_volume   235.30267020
_cell_formula_units_Z   1
loop_
 _symmetry_equiv_pos_site_id
 _symmetry_equiv_pos_as_xyz
  1  'x, y, z'
loop_
 _atom_site_type_symbol
 _atom_site_label
 _atom_site_symmetry_multiplicity
 _atom_site_fract_x
 _atom_site_fract_y
 _atom_site_fract_z
 _atom_site_occupancy
  Ho  Ho0  1  0.250000  0.034649  0.678363  1
  Ho  Ho1  1  0.250000  0.530471  0.819077  1
  Ho  Ho2  1  0.750000  0.980834  0.321132  1
  Ho  Ho3  1  0.750000  0.464323  0.186053  1
  Al  Al4  1  0.250000  0.145389  0.064253  1
  Al  Al5  1  0.250000  0.637609  0.437785  1
  Al  Al6  1  0.750000  0.856770  0.939159  1
  Al  Al7  1  0.750000  0.353844  0.558288  1
  Os  Os8  1  0.250000  0.266552  0.378353  1
  Pd  Pd9  1  0.250000  0.772251  0.117600  1
  Pd  Pd10  1  0.750000  0.728459  0.620585  1
  Pd  Pd11  1  0.750000  0.228850  0.879352  1
