# generated using pymatgen
data_EuDy(Si7Rh3)2
_symmetry_space_group_name_H-M   'P 1'
_cell_length_a   7.95533577
_cell_length_b   7.95533588
_cell_length_c   7.95533757
_cell_angle_alpha   57.09641036
_cell_angle_beta   57.09640698
_cell_angle_gamma   57.09640092
_symmetry_Int_Tables_number   1
_chemical_formula_structural   EuDy(Si7Rh3)2
_chemical_formula_sum   'Eu1 Dy1 Si14 Rh6'
_cell_volume   332.18528803
_cell_formula_units_Z   1
loop_
 _symmetry_equiv_pos_site_id
 _symmetry_equiv_pos_as_xyz
  1  'x, y, z'
loop_
 _atom_site_type_symbol
 _atom_site_label
 _atom_site_symmetry_multiplicity
 _atom_site_fract_x
 _atom_site_fract_y
 _atom_site_fract_z
 _atom_site_occupancy
  Eu  Eu0  1  0.500000  0.500000  0.500000  1
  Dy  Dy1  1  0.000000  0.000000  0.000000  1
  Si  Si2  1  0.749671  0.749671  0.749671  1
  Si  Si3  1  0.250329  0.250329  0.250329  1
  Si  Si4  1  0.850934  0.065978  0.671871  1
  Si  Si5  1  0.671871  0.850934  0.065978  1
  Si  Si6  1  0.065978  0.671871  0.850934  1
  Si  Si7  1  0.648676  0.828268  0.433349  1
  Si  Si8  1  0.433349  0.648676  0.828268  1
  Si  Si9  1  0.828268  0.433349  0.648676  1
  Si  Si10  1  0.171732  0.566651  0.351324  1
  Si  Si11  1  0.566651  0.351324  0.171732  1
  Si  Si12  1  0.351324  0.171732  0.566651  1
  Si  Si13  1  0.934022  0.328129  0.149066  1
  Si  Si14  1  0.328129  0.149066  0.934022  1
  Si  Si15  1  0.149066  0.934022  0.328129  1
  Rh  Rh16  1  0.067049  0.428695  0.752308  1
  Rh  Rh17  1  0.247692  0.932951  0.571305  1
  Rh  Rh18  1  0.571305  0.247692  0.932951  1
  Rh  Rh19  1  0.932951  0.571305  0.247692  1
  Rh  Rh20  1  0.428695  0.752308  0.067049  1
  Rh  Rh21  1  0.752308  0.067049  0.428695  1
