# generated using pymatgen
data_Ce4YHo3(ReC2)4
_symmetry_space_group_name_H-M   'P 1'
_cell_length_a   5.21150800
_cell_length_b   6.53881612
_cell_length_c   9.87631918
_cell_angle_alpha   90.02207476
_cell_angle_beta   90.00000000
_cell_angle_gamma   90.00000000
_symmetry_Int_Tables_number   1
_chemical_formula_structural   Ce4YHo3(ReC2)4
_chemical_formula_sum   'Ce4 Y1 Ho3 Re4 C8'
_cell_volume   336.55621765
_cell_formula_units_Z   1
loop_
 _symmetry_equiv_pos_site_id
 _symmetry_equiv_pos_as_xyz
  1  'x, y, z'
loop_
 _atom_site_type_symbol
 _atom_site_label
 _atom_site_symmetry_multiplicity
 _atom_site_fract_x
 _atom_site_fract_y
 _atom_site_fract_z
 _atom_site_occupancy
  Ce  Ce0  1  0.250000  0.469140  0.782353  1
  Ce  Ce1  1  0.750000  0.030790  0.282486  1
  Ce  Ce2  1  0.250000  0.969282  0.717312  1
  Ce  Ce3  1  0.750000  0.530660  0.217636  1
  Y  Y4  1  0.250000  0.819999  0.052125  1
  Ho  Ho5  1  0.750000  0.678830  0.552592  1
  Ho  Ho6  1  0.250000  0.321119  0.447442  1
  Ho  Ho7  1  0.750000  0.178970  0.947325  1
  Re  Re8  1  0.250000  0.278904  0.134430  1
  Re  Re9  1  0.750000  0.221151  0.634230  1
  Re  Re10  1  0.250000  0.778900  0.365920  1
  Re  Re11  1  0.750000  0.721114  0.865421  1
  C  C12  1  0.250000  0.175355  0.947330  1
  C  C13  1  0.750000  0.825768  0.052266  1
  C  C14  1  0.250000  0.674086  0.552542  1
  C  C15  1  0.750000  0.325775  0.447521  1
  C  C16  1  0.250000  0.046662  0.260049  1
  C  C17  1  0.750000  0.453865  0.759414  1
  C  C18  1  0.250000  0.545660  0.241098  1
  C  C19  1  0.750000  0.953972  0.740507  1
