# generated using pymatgen
data_Ce2NiB8Ir
_symmetry_space_group_name_H-M   'P 1'
_cell_length_a   6.97450183
_cell_length_b   6.97450064
_cell_length_c   6.97450224
_cell_angle_alpha   111.41824968
_cell_angle_beta   113.29823384
_cell_angle_gamma   103.84578668
_symmetry_Int_Tables_number   1
_chemical_formula_structural   Ce2NiB8Ir
_chemical_formula_sum   'Ce4 Ni2 B16 Ir2'
_cell_volume   259.22572681
_cell_formula_units_Z   2
loop_
 _symmetry_equiv_pos_site_id
 _symmetry_equiv_pos_as_xyz
  1  'x, y, z'
loop_
 _atom_site_type_symbol
 _atom_site_label
 _atom_site_symmetry_multiplicity
 _atom_site_fract_x
 _atom_site_fract_y
 _atom_site_fract_z
 _atom_site_occupancy
  Ce  Ce0  1  0.794966  0.794966  0.000000  1
  Ce  Ce1  1  0.205034  0.205034  0.000000  1
  Ce  Ce2  1  0.753693  0.253693  0.500000  1
  Ce  Ce3  1  0.246307  0.746307  0.500000  1
  Ni  Ni4  1  0.500000  0.742404  0.242404  1
  Ni  Ni5  1  0.500000  0.257596  0.757596  1
  B  B6  1  0.271438  0.108129  0.379567  1
  B  B7  1  0.728562  0.891871  0.620433  1
  B  B8  1  0.271438  0.891871  0.163309  1
  B  B9  1  0.728562  0.108129  0.836691  1
  B  B10  1  0.110597  0.731763  0.842360  1
  B  B11  1  0.889403  0.268237  0.157640  1
  B  B12  1  0.110597  0.268237  0.378833  1
  B  B13  1  0.889403  0.731763  0.621167  1
  B  B14  1  0.114695  0.109450  0.528737  1
  B  B15  1  0.580713  0.585958  0.471263  1
  B  B16  1  0.114695  0.585958  0.005245  1
  B  B17  1  0.580713  0.109450  0.994755  1
  B  B18  1  0.885305  0.890550  0.471263  1
  B  B19  1  0.419287  0.414042  0.528737  1
  B  B20  1  0.885305  0.414042  0.994755  1
  B  B21  1  0.419287  0.890550  0.005245  1
  Ir  Ir22  1  0.276728  0.500000  0.776728  1
  Ir  Ir23  1  0.723272  0.500000  0.223272  1
