# generated using pymatgen
data_Zr8Tl3CdPd8
_symmetry_space_group_name_H-M   'P 1'
_cell_length_a   7.59486800
_cell_length_b   7.59486800
_cell_length_c   6.98975100
_cell_angle_alpha   90.00000000
_cell_angle_beta   90.00000000
_cell_angle_gamma   90.00000000
_symmetry_Int_Tables_number   1
_chemical_formula_structural   Zr8Tl3CdPd8
_chemical_formula_sum   'Zr8 Tl3 Cd1 Pd8'
_cell_volume   403.18295654
_cell_formula_units_Z   1
loop_
 _symmetry_equiv_pos_site_id
 _symmetry_equiv_pos_as_xyz
  1  'x, y, z'
loop_
 _atom_site_type_symbol
 _atom_site_label
 _atom_site_symmetry_multiplicity
 _atom_site_fract_x
 _atom_site_fract_y
 _atom_site_fract_z
 _atom_site_occupancy
  Zr  Zr0  1  0.655832  0.650658  0.498310  1
  Zr  Zr1  1  0.814561  0.188642  0.499319  1
  Zr  Zr2  1  0.688642  0.685439  0.000681  1
  Zr  Zr3  1  0.849342  0.155832  0.001690  1
  Zr  Zr4  1  0.185439  0.811358  0.499319  1
  Zr  Zr5  1  0.311358  0.314561  0.000681  1
  Zr  Zr6  1  0.150658  0.844168  0.001690  1
  Zr  Zr7  1  0.344168  0.349342  0.498310  1
  Tl  Tl8  1  0.500000  0.000000  0.750000  1
  Tl  Tl9  1  0.500000  0.000000  0.250000  1
  Tl  Tl10  1  0.000000  0.500000  0.750000  1
  Cd  Cd11  1  0.000000  0.500000  0.250000  1
  Pd  Pd12  1  0.629770  0.373043  0.216687  1
  Pd  Pd13  1  0.372380  0.628382  0.785330  1
  Pd  Pd14  1  0.871618  0.872380  0.714670  1
  Pd  Pd15  1  0.627620  0.371618  0.785330  1
  Pd  Pd16  1  0.370230  0.626957  0.216687  1
  Pd  Pd17  1  0.126957  0.129770  0.283313  1
  Pd  Pd18  1  0.873043  0.870230  0.283313  1
  Pd  Pd19  1  0.128382  0.127620  0.714670  1
