# generated using pymatgen
data_Ta3Co(BRu2)2
_symmetry_space_group_name_H-M   'P 1'
_cell_length_a   9.25673500
_cell_length_b   9.25673500
_cell_length_c   3.04361100
_cell_angle_alpha   90.00000000
_cell_angle_beta   90.00000000
_cell_angle_gamma   90.00000000
_symmetry_Int_Tables_number   1
_chemical_formula_structural   Ta3Co(BRu2)2
_chemical_formula_sum   'Ta6 Co2 B4 Ru8'
_cell_volume   260.79833057
_cell_formula_units_Z   2
loop_
 _symmetry_equiv_pos_site_id
 _symmetry_equiv_pos_as_xyz
  1  'x, y, z'
loop_
 _atom_site_type_symbol
 _atom_site_label
 _atom_site_symmetry_multiplicity
 _atom_site_fract_x
 _atom_site_fract_y
 _atom_site_fract_z
 _atom_site_occupancy
  Ta  Ta0  1  0.826137  0.673863  0.000000  1
  Ta  Ta1  1  0.173863  0.326137  0.000000  1
  Ta  Ta2  1  0.326137  0.826137  0.000000  1
  Ta  Ta3  1  0.673863  0.173863  0.000000  1
  Ta  Ta4  1  0.500000  0.500000  0.000000  1
  Ta  Ta5  1  0.000000  0.000000  0.000000  1
  Co  Co6  1  0.500000  0.000000  0.500000  1
  Co  Co7  1  0.000000  0.500000  0.500000  1
  B  B8  1  0.606294  0.893706  0.000000  1
  B  B9  1  0.393706  0.106294  0.000000  1
  B  B10  1  0.106294  0.606294  0.000000  1
  B  B11  1  0.893706  0.393706  0.000000  1
  Ru  Ru12  1  0.566671  0.724226  0.500000  1
  Ru  Ru13  1  0.433329  0.275774  0.500000  1
  Ru  Ru14  1  0.066671  0.775774  0.500000  1
  Ru  Ru15  1  0.933329  0.224226  0.500000  1
  Ru  Ru16  1  0.275774  0.566671  0.500000  1
  Ru  Ru17  1  0.724226  0.433329  0.500000  1
  Ru  Ru18  1  0.224226  0.066671  0.500000  1
  Ru  Ru19  1  0.775774  0.933329  0.500000  1
