# generated using pymatgen
data_Er4Lu4Os3WC8
_symmetry_space_group_name_H-M   'P 1'
_cell_length_a   5.02506600
_cell_length_b   6.47844319
_cell_length_c   9.68358849
_cell_angle_alpha   89.64905155
_cell_angle_beta   90.00000000
_cell_angle_gamma   90.00000000
_symmetry_Int_Tables_number   1
_chemical_formula_structural   Er4Lu4Os3WC8
_chemical_formula_sum   'Er4 Lu4 Os3 W1 C8'
_cell_volume   315.23948085
_cell_formula_units_Z   1
loop_
 _symmetry_equiv_pos_site_id
 _symmetry_equiv_pos_as_xyz
  1  'x, y, z'
loop_
 _atom_site_type_symbol
 _atom_site_label
 _atom_site_symmetry_multiplicity
 _atom_site_fract_x
 _atom_site_fract_y
 _atom_site_fract_z
 _atom_site_occupancy
  Er  Er0  1  0.250000  0.533083  0.214337  1
  Er  Er1  1  0.750000  0.465709  0.780735  1
  Er  Er2  1  0.750000  0.968970  0.715423  1
  Er  Er3  1  0.250000  0.031224  0.285287  1
  Lu  Lu4  1  0.250000  0.675228  0.556289  1
  Lu  Lu5  1  0.750000  0.325752  0.443462  1
  Lu  Lu6  1  0.750000  0.826223  0.056826  1
  Lu  Lu7  1  0.250000  0.177113  0.941385  1
  Os  Os8  1  0.750000  0.281463  0.132790  1
  Os  Os9  1  0.750000  0.780060  0.366246  1
  Os  Os10  1  0.250000  0.220752  0.629858  1
  W  W11  1  0.250000  0.717967  0.870274  1
  C  C12  1  0.250000  0.449411  0.760226  1
  C  C13  1  0.750000  0.546084  0.241942  1
  C  C14  1  0.750000  0.047390  0.259542  1
  C  C15  1  0.250000  0.954053  0.739655  1
  C  C16  1  0.250000  0.829866  0.059979  1
  C  C17  1  0.750000  0.170958  0.947973  1
  C  C18  1  0.750000  0.669897  0.553356  1
  C  C19  1  0.250000  0.328795  0.444416  1
