# generated using pymatgen
data_Tb5Nd3Cd2RuPt
_symmetry_space_group_name_H-M   'P 1'
_cell_length_a   9.78856403
_cell_length_b   9.78856360
_cell_length_c   9.80284500
_cell_angle_alpha   59.95172194
_cell_angle_beta   59.95172338
_cell_angle_gamma   60.07359592
_symmetry_Int_Tables_number   1
_chemical_formula_structural   Tb5Nd3Cd2RuPt
_chemical_formula_sum   'Tb10 Nd6 Cd4 Ru2 Pt2'
_cell_volume   664.04638179
_cell_formula_units_Z   2
loop_
 _symmetry_equiv_pos_site_id
 _symmetry_equiv_pos_as_xyz
  1  'x, y, z'
loop_
 _atom_site_type_symbol
 _atom_site_label
 _atom_site_symmetry_multiplicity
 _atom_site_fract_x
 _atom_site_fract_y
 _atom_site_fract_z
 _atom_site_occupancy
  Tb  Tb0  1  0.347922  0.347922  0.352814  1
  Tb  Tb1  1  0.347922  0.347922  0.951344  1
  Tb  Tb2  1  0.344194  0.958641  0.348582  1
  Tb  Tb3  1  0.958641  0.344194  0.348582  1
  Tb  Tb4  1  0.816819  0.186940  0.188382  1
  Tb  Tb5  1  0.186940  0.816819  0.807859  1
  Tb  Tb6  1  0.186940  0.816819  0.188382  1
  Tb  Tb7  1  0.816819  0.186940  0.807859  1
  Tb  Tb8  1  0.186710  0.186710  0.813290  1
  Tb  Tb9  1  0.810194  0.810194  0.189806  1
  Nd  Nd10  1  0.938881  0.556733  0.563613  1
  Nd  Nd11  1  0.556733  0.938881  0.940773  1
  Nd  Nd12  1  0.556733  0.938881  0.563613  1
  Nd  Nd13  1  0.938881  0.556733  0.940773  1
  Nd  Nd14  1  0.560718  0.560718  0.939282  1
  Nd  Nd15  1  0.939090  0.939090  0.560910  1
  Cd  Cd16  1  0.579407  0.579407  0.579441  1
  Cd  Cd17  1  0.579407  0.579407  0.261746  1
  Cd  Cd18  1  0.580320  0.259953  0.579863  1
  Cd  Cd19  1  0.259953  0.580320  0.579863  1
  Ru  Ru20  1  0.143615  0.143615  0.136935  1
  Ru  Ru21  1  0.143615  0.143615  0.575836  1
  Pt  Pt22  1  0.145418  0.574132  0.140225  1
  Pt  Pt23  1  0.574132  0.145418  0.140225  1
