# generated using pymatgen
data_Ho2ZnBRh5
_symmetry_space_group_name_H-M   'P 1'
_cell_length_a   5.92536062
_cell_length_b   5.78339063
_cell_length_c   5.78338995
_cell_angle_alpha   61.63083402
_cell_angle_beta   59.18458955
_cell_angle_gamma   59.18459215
_symmetry_Int_Tables_number   1
_chemical_formula_structural   Ho2ZnBRh5
_chemical_formula_sum   'Ho2 Zn1 B1 Rh5'
_cell_volume   139.96770521
_cell_formula_units_Z   1
loop_
 _symmetry_equiv_pos_site_id
 _symmetry_equiv_pos_as_xyz
  1  'x, y, z'
loop_
 _atom_site_type_symbol
 _atom_site_label
 _atom_site_symmetry_multiplicity
 _atom_site_fract_x
 _atom_site_fract_y
 _atom_site_fract_z
 _atom_site_occupancy
  Ho  Ho0  1  0.251111  0.248889  0.248889  1
  Ho  Ho1  1  0.751111  0.748889  0.748889  1
  Zn  Zn2  1  0.716926  0.283075  0.283075  1
  B  B3  1  0.010148  0.989852  0.989852  1
  Rh  Rh4  1  0.252033  0.747968  0.250253  1
  Rh  Rh5  1  0.749746  0.747966  0.250255  1
  Rh  Rh6  1  0.252033  0.250253  0.747968  1
  Rh  Rh7  1  0.749746  0.250255  0.747966  1
  Rh  Rh8  1  0.267146  0.732855  0.732855  1
