# generated using pymatgen
data_Tb6Ho9Tm(CdPd)4
_symmetry_space_group_name_H-M   'P 1'
_cell_length_a   9.67045484
_cell_length_b   9.67045496
_cell_length_c   9.62466600
_cell_angle_alpha   60.15650712
_cell_angle_beta   60.15650672
_cell_angle_gamma   60.17031763
_symmetry_Int_Tables_number   1
_chemical_formula_structural   Tb6Ho9Tm(CdPd)4
_chemical_formula_sum   'Tb6 Ho9 Tm1 Cd4 Pd4'
_cell_volume   638.77268735
_cell_formula_units_Z   1
loop_
 _symmetry_equiv_pos_site_id
 _symmetry_equiv_pos_as_xyz
  1  'x, y, z'
loop_
 _atom_site_type_symbol
 _atom_site_label
 _atom_site_symmetry_multiplicity
 _atom_site_fract_x
 _atom_site_fract_y
 _atom_site_fract_z
 _atom_site_occupancy
  Tb  Tb0  1  0.935357  0.565704  0.564099  1
  Tb  Tb1  1  0.565704  0.935357  0.934840  1
  Tb  Tb2  1  0.565704  0.935357  0.564099  1
  Tb  Tb3  1  0.935357  0.565704  0.934840  1
  Tb  Tb4  1  0.566758  0.566758  0.933242  1
  Tb  Tb5  1  0.936823  0.936823  0.563177  1
  Ho  Ho6  1  0.352612  0.352612  0.350131  1
  Ho  Ho7  1  0.352612  0.352612  0.944644  1
  Ho  Ho8  1  0.357224  0.935458  0.353660  1
  Ho  Ho9  1  0.935458  0.357224  0.353660  1
  Ho  Ho10  1  0.811838  0.188836  0.188653  1
  Ho  Ho11  1  0.188836  0.811838  0.810673  1
  Ho  Ho12  1  0.188836  0.811838  0.188653  1
  Ho  Ho13  1  0.811838  0.188836  0.810673  1
  Ho  Ho14  1  0.190267  0.190267  0.809733  1
  Tm  Tm15  1  0.811764  0.811764  0.188236  1
  Cd  Cd16  1  0.580497  0.580497  0.582833  1
  Cd  Cd17  1  0.580497  0.580497  0.256172  1
  Cd  Cd18  1  0.579919  0.255180  0.582451  1
  Cd  Cd19  1  0.255180  0.579919  0.582451  1
  Pd  Pd20  1  0.143515  0.143515  0.147449  1
  Pd  Pd21  1  0.143515  0.143515  0.565522  1
  Pd  Pd22  1  0.139833  0.570059  0.145055  1
  Pd  Pd23  1  0.570059  0.139833  0.145055  1
