# generated using pymatgen
data_PrGd2OsO7
_symmetry_space_group_name_H-M   'P 1'
_cell_length_a   6.54715770
_cell_length_b   6.54715764
_cell_length_c   7.59609100
_cell_angle_alpha   90.00000000
_cell_angle_beta   90.00000000
_cell_angle_gamma   110.24509953
_symmetry_Int_Tables_number   1
_chemical_formula_structural   PrGd2OsO7
_chemical_formula_sum   'Pr2 Gd4 Os2 O14'
_cell_volume   305.49272919
_cell_formula_units_Z   2
loop_
 _symmetry_equiv_pos_site_id
 _symmetry_equiv_pos_as_xyz
  1  'x, y, z'
loop_
 _atom_site_type_symbol
 _atom_site_label
 _atom_site_symmetry_multiplicity
 _atom_site_fract_x
 _atom_site_fract_y
 _atom_site_fract_z
 _atom_site_occupancy
  Pr  Pr0  1  0.000000  0.000000  0.000000  1
  Pr  Pr1  1  0.000000  0.000000  0.500000  1
  Gd  Gd2  1  0.068159  0.519280  0.250000  1
  Gd  Gd3  1  0.931841  0.480720  0.750000  1
  Gd  Gd4  1  0.519280  0.068159  0.250000  1
  Gd  Gd5  1  0.480720  0.931841  0.750000  1
  Os  Os6  1  0.500000  0.500000  0.500000  1
  Os  Os7  1  0.500000  0.500000  0.000000  1
  O  O8  1  0.561285  0.816047  0.035573  1
  O  O9  1  0.438715  0.183953  0.964427  1
  O  O10  1  0.584862  0.584862  0.750000  1
  O  O11  1  0.561285  0.816047  0.464427  1
  O  O12  1  0.183953  0.438715  0.964427  1
  O  O13  1  0.415138  0.415138  0.250000  1
  O  O14  1  0.838954  0.115116  0.750000  1
  O  O15  1  0.816047  0.561285  0.035573  1
  O  O16  1  0.884884  0.161046  0.250000  1
  O  O17  1  0.115116  0.838954  0.750000  1
  O  O18  1  0.438715  0.183953  0.535573  1
  O  O19  1  0.183953  0.438715  0.535573  1
  O  O20  1  0.816047  0.561285  0.464427  1
  O  O21  1  0.161046  0.884884  0.250000  1
