# generated using pymatgen
data_NdY3(Si5Os3)2
_symmetry_space_group_name_H-M   'P 1'
_cell_length_a   8.15070297
_cell_length_b   8.16277299
_cell_length_c   5.82539558
_cell_angle_alpha   70.43906065
_cell_angle_beta   70.47265993
_cell_angle_gamma   93.84816246
_symmetry_Int_Tables_number   1
_chemical_formula_structural   NdY3(Si5Os3)2
_chemical_formula_sum   'Nd1 Y3 Si10 Os6'
_cell_volume   337.13640093
_cell_formula_units_Z   1
loop_
 _symmetry_equiv_pos_site_id
 _symmetry_equiv_pos_as_xyz
  1  'x, y, z'
loop_
 _atom_site_type_symbol
 _atom_site_label
 _atom_site_symmetry_multiplicity
 _atom_site_fract_x
 _atom_site_fract_y
 _atom_site_fract_z
 _atom_site_occupancy
  Nd  Nd0  1  0.600918  0.868517  0.255178  1
  Y  Y1  1  0.868814  0.602302  0.752273  1
  Y  Y2  1  0.398063  0.132521  0.745398  1
  Y  Y3  1  0.131947  0.397362  0.246969  1
  Si  Si4  1  0.066604  0.260275  0.834887  1
  Si  Si5  1  0.738602  0.933421  0.666191  1
  Si  Si6  1  0.934927  0.738624  0.164456  1
  Si  Si7  1  0.261933  0.067461  0.333754  1
  Si  Si8  1  0.207246  0.793145  0.747770  1
  Si  Si9  1  0.794281  0.208340  0.250763  1
  Si  Si10  1  0.512570  0.486837  0.750457  1
  Si  Si11  1  0.486168  0.510506  0.251352  1
  Si  Si12  1  0.773762  0.227648  0.747508  1
  Si  Si13  1  0.224281  0.773559  0.251416  1
  Os  Os14  1  0.254572  0.541527  0.632951  1
  Os  Os15  1  0.454517  0.742523  0.871789  1
  Os  Os16  1  0.744503  0.457320  0.367134  1
  Os  Os17  1  0.544429  0.258052  0.130483  1
  Os  Os18  1  0.003408  0.997731  0.749149  1
  Os  Os19  1  0.998459  0.002328  0.250119  1
