# generated using pymatgen
data_Ti2Nb(GaIr)3
_symmetry_space_group_name_H-M   'P 1'
_cell_length_a   7.34377000
_cell_length_b   7.39660107
_cell_length_c   2.95289600
_cell_angle_alpha   90.00000000
_cell_angle_beta   90.00000000
_cell_angle_gamma   119.76400413
_symmetry_Int_Tables_number   1
_chemical_formula_structural   Ti2Nb(GaIr)3
_chemical_formula_sum   'Ti2 Nb1 Ga3 Ir3'
_cell_volume   139.23804483
_cell_formula_units_Z   1
loop_
 _symmetry_equiv_pos_site_id
 _symmetry_equiv_pos_as_xyz
  1  'x, y, z'
loop_
 _atom_site_type_symbol
 _atom_site_label
 _atom_site_symmetry_multiplicity
 _atom_site_fract_x
 _atom_site_fract_y
 _atom_site_fract_z
 _atom_site_occupancy
  Ti  Ti0  1  0.998817  0.375811  0.500000  1
  Ti  Ti1  1  0.623006  0.624189  0.500000  1
  Nb  Nb2  1  0.372668  0.000000  0.500000  1
  Ga  Ga3  1  0.709145  0.000000  0.000000  1
  Ga  Ga4  1  0.291279  0.292201  0.000000  1
  Ga  Ga5  1  0.999078  0.707799  0.000000  1
  Ir  Ir6  1  0.673307  0.340409  0.000000  1
  Ir  Ir7  1  0.332898  0.659591  0.000000  1
  Ir  Ir8  1  0.999802  0.000000  0.500000  1
