# generated using pymatgen
data_YEr3(ScRh)4
_symmetry_space_group_name_H-M   'P 1'
_cell_length_a   4.20186300
_cell_length_b   7.19831557
_cell_length_c   8.71132283
_cell_angle_alpha   89.81236492
_cell_angle_beta   90.00000000
_cell_angle_gamma   90.00000000
_symmetry_Int_Tables_number   1
_chemical_formula_structural   YEr3(ScRh)4
_chemical_formula_sum   'Y1 Er3 Sc4 Rh4'
_cell_volume   263.48418330
_cell_formula_units_Z   1
loop_
 _symmetry_equiv_pos_site_id
 _symmetry_equiv_pos_as_xyz
  1  'x, y, z'
loop_
 _atom_site_type_symbol
 _atom_site_label
 _atom_site_symmetry_multiplicity
 _atom_site_fract_x
 _atom_site_fract_y
 _atom_site_fract_z
 _atom_site_occupancy
  Y  Y0  1  0.250000  0.982508  0.325508  1
  Er  Er1  1  0.250000  0.481177  0.172596  1
  Er  Er2  1  0.750000  0.017915  0.672971  1
  Er  Er3  1  0.750000  0.518702  0.826608  1
  Sc  Sc4  1  0.250000  0.360368  0.568446  1
  Sc  Sc5  1  0.250000  0.859202  0.932093  1
  Sc  Sc6  1  0.750000  0.640152  0.432734  1
  Sc  Sc7  1  0.750000  0.139405  0.065516  1
  Rh  Rh8  1  0.250000  0.244434  0.899460  1
  Rh  Rh9  1  0.250000  0.742532  0.603939  1
  Rh  Rh10  1  0.750000  0.753458  0.099586  1
  Rh  Rh11  1  0.750000  0.260151  0.400544  1
