# generated using pymatgen
data_Mg4AlZnPd10
_symmetry_space_group_name_H-M   'P 1'
_cell_length_a   4.18802500
_cell_length_b   5.51112093
_cell_length_c   10.71105763
_cell_angle_alpha   89.86317107
_cell_angle_beta   90.00000000
_cell_angle_gamma   90.00000000
_symmetry_Int_Tables_number   1
_chemical_formula_structural   Mg4AlZnPd10
_chemical_formula_sum   'Mg4 Al1 Zn1 Pd10'
_cell_volume   247.21813399
_cell_formula_units_Z   1
loop_
 _symmetry_equiv_pos_site_id
 _symmetry_equiv_pos_as_xyz
  1  'x, y, z'
loop_
 _atom_site_type_symbol
 _atom_site_label
 _atom_site_symmetry_multiplicity
 _atom_site_fract_x
 _atom_site_fract_y
 _atom_site_fract_z
 _atom_site_occupancy
  Mg  Mg0  1  0.500000  0.163636  0.359163  1
  Mg  Mg1  1  0.500000  0.836364  0.640837  1
  Mg  Mg2  1  0.500000  0.668791  0.139176  1
  Mg  Mg3  1  0.500000  0.331209  0.860824  1
  Al  Al4  1  0.000000  0.500000  0.500000  1
  Zn  Zn5  1  0.000000  0.000000  0.000000  1
  Pd  Pd6  1  0.500000  0.180939  0.108138  1
  Pd  Pd7  1  0.500000  0.819061  0.891862  1
  Pd  Pd8  1  0.500000  0.675853  0.395054  1
  Pd  Pd9  1  0.500000  0.324147  0.604946  1
  Pd  Pd10  1  0.000000  0.000000  0.500000  1
  Pd  Pd11  1  0.000000  0.500000  0.000000  1
  Pd  Pd12  1  0.000000  0.909238  0.240933  1
  Pd  Pd13  1  0.000000  0.090762  0.759067  1
  Pd  Pd14  1  0.000000  0.410601  0.263162  1
  Pd  Pd15  1  0.000000  0.589399  0.736838  1
