# generated using pymatgen
data_PrZr3(Al3Rh)6
_symmetry_space_group_name_H-M   'P 1'
_cell_length_a   7.50436891
_cell_length_b   7.49214223
_cell_length_c   9.36631300
_cell_angle_alpha   90.00000000
_cell_angle_beta   90.00000000
_cell_angle_gamma   119.62068472
_symmetry_Int_Tables_number   1
_chemical_formula_structural   PrZr3(Al3Rh)6
_chemical_formula_sum   'Pr1 Zr3 Al18 Rh6'
_cell_volume   457.79052932
_cell_formula_units_Z   1
loop_
 _symmetry_equiv_pos_site_id
 _symmetry_equiv_pos_as_xyz
  1  'x, y, z'
loop_
 _atom_site_type_symbol
 _atom_site_label
 _atom_site_symmetry_multiplicity
 _atom_site_fract_x
 _atom_site_fract_y
 _atom_site_fract_z
 _atom_site_occupancy
  Pr  Pr0  1  0.329524  0.007280  0.250000  1
  Zr  Zr1  1  0.993348  0.671413  0.750000  1
  Zr  Zr2  1  0.005832  0.329404  0.250000  1
  Zr  Zr3  1  0.671956  0.994191  0.750000  1
  Al  Al4  1  0.120759  0.122927  0.750000  1
  Al  Al5  1  0.868855  0.875252  0.250000  1
  Al  Al6  1  0.996562  0.334693  0.577560  1
  Al  Al7  1  0.998415  0.660833  0.429485  1
  Al  Al8  1  0.998415  0.660833  0.070515  1
  Al  Al9  1  0.335180  0.997389  0.916648  1
  Al  Al10  1  0.996562  0.334693  0.922440  1
  Al  Al11  1  0.669699  0.002265  0.070675  1
  Al  Al12  1  0.669699  0.002265  0.429325  1
  Al  Al13  1  0.335180  0.997389  0.583352  1
  Al  Al14  1  0.331240  0.335038  0.048788  1
  Al  Al15  1  0.668839  0.668850  0.940187  1
  Al  Al16  1  0.668839  0.668850  0.559813  1
  Al  Al17  1  0.331240  0.335038  0.451212  1
  Al  Al18  1  0.338104  0.554037  0.750000  1
  Al  Al19  1  0.669800  0.454858  0.250000  1
  Al  Al20  1  0.556077  0.340380  0.750000  1
  Al  Al21  1  0.445610  0.652674  0.250000  1
  Rh  Rh22  1  0.673964  0.328834  0.502789  1
  Rh  Rh23  1  0.328201  0.672904  0.503579  1
  Rh  Rh24  1  0.328201  0.672904  0.996421  1
  Rh  Rh25  1  0.673964  0.328834  0.997211  1
  Rh  Rh26  1  0.997967  0.997985  0.503012  1
  Rh  Rh27  1  0.997967  0.997985  0.996988  1
