# generated using pymatgen
data_Rb2MnGeO4
_symmetry_space_group_name_H-M   'P 1'
_cell_length_a   5.99519400
_cell_length_b   5.96636267
_cell_length_c   10.19964680
_cell_angle_alpha   54.08045789
_cell_angle_beta   90.00000000
_cell_angle_gamma   90.00000000
_symmetry_Int_Tables_number   1
_chemical_formula_structural   Rb2MnGeO4
_chemical_formula_sum   'Rb4 Mn2 Ge2 O8'
_cell_volume   295.45959832
_cell_formula_units_Z   2
loop_
 _symmetry_equiv_pos_site_id
 _symmetry_equiv_pos_as_xyz
  1  'x, y, z'
loop_
 _atom_site_type_symbol
 _atom_site_label
 _atom_site_symmetry_multiplicity
 _atom_site_fract_x
 _atom_site_fract_y
 _atom_site_fract_z
 _atom_site_occupancy
  Rb  Rb0  1  0.193942  0.493868  0.997651  1
  Rb  Rb1  1  0.690469  0.238045  0.252317  1
  Rb  Rb2  1  0.806058  0.493868  0.497651  1
  Rb  Rb3  1  0.309531  0.238045  0.752317  1
  Mn  Mn4  1  0.794679  0.001716  0.001389  1
  Mn  Mn5  1  0.205321  0.001716  0.501389  1
  Ge  Ge6  1  0.296467  0.756868  0.249186  1
  Ge  Ge7  1  0.703533  0.756868  0.749186  1
  O  O8  1  0.739984  0.982816  0.808841  1
  O  O9  1  0.260016  0.982816  0.308841  1
  O  O10  1  0.237058  0.410622  0.418260  1
  O  O11  1  0.762942  0.410622  0.918260  1
  O  O12  1  0.121697  0.876470  0.077790  1
  O  O13  1  0.418372  0.765595  0.694568  1
  O  O14  1  0.581628  0.765595  0.194568  1
  O  O15  1  0.878303  0.876470  0.577790  1
