# generated using pymatgen
data_Be5Ni
_symmetry_space_group_name_H-M   'P 1'
_cell_length_a   4.10963002
_cell_length_b   4.10963095
_cell_length_c   4.10963100
_cell_angle_alpha   60.00000761
_cell_angle_beta   60.00000014
_cell_angle_gamma   60.00000757
_symmetry_Int_Tables_number   1
_chemical_formula_structural   Be5Ni
_chemical_formula_sum   'Be5 Ni1'
_cell_volume   49.07874277
_cell_formula_units_Z   1
loop_
 _symmetry_equiv_pos_site_id
 _symmetry_equiv_pos_as_xyz
  1  'x, y, z'
loop_
 _atom_site_type_symbol
 _atom_site_label
 _atom_site_symmetry_multiplicity
 _atom_site_fract_x
 _atom_site_fract_y
 _atom_site_fract_z
 _atom_site_occupancy
  Be  Be0  1  0.624683  0.624683  0.125949  1
  Be  Be1  1  0.624683  0.125949  0.624683  1
  Be  Be2  1  0.125949  0.624683  0.624683  1
  Be  Be3  1  0.624683  0.624683  0.624683  1
  Be  Be4  1  0.000000  0.000000  0.000000  1
  Ni  Ni5  1  0.250000  0.250000  0.250000  1
