# generated using pymatgen
data_Sr4Fe(IrO6)2
_symmetry_space_group_name_H-M   'P 1'
_cell_length_a   5.59160275
_cell_length_b   5.59157084
_cell_length_c   9.54800919
_cell_angle_alpha   72.96207920
_cell_angle_beta   107.03605599
_cell_angle_gamma   120.08567541
_symmetry_Int_Tables_number   1
_chemical_formula_structural   Sr4Fe(IrO6)2
_chemical_formula_sum   'Sr4 Fe1 Ir2 O12'
_cell_volume   243.09000633
_cell_formula_units_Z   1
loop_
 _symmetry_equiv_pos_site_id
 _symmetry_equiv_pos_as_xyz
  1  'x, y, z'
loop_
 _atom_site_type_symbol
 _atom_site_label
 _atom_site_symmetry_multiplicity
 _atom_site_fract_x
 _atom_site_fract_y
 _atom_site_fract_z
 _atom_site_occupancy
  Sr  Sr0  1  0.709899  0.290156  0.130377  1
  Sr  Sr1  1  0.132067  0.867907  0.396305  1
  Sr  Sr2  1  0.867932  0.132091  0.603695  1
  Sr  Sr3  1  0.290100  0.709843  0.869624  1
  Fe  Fe4  1  0.000000  0.000000  0.000000  1
  Ir  Ir5  1  0.420035  0.579812  0.260741  1
  Ir  Ir6  1  0.579966  0.420187  0.739259  1
  O  O7  1  0.211781  0.295748  0.127745  1
  O  O8  1  0.703998  0.788158  0.127700  1
  O  O9  1  0.212187  0.787889  0.127841  1
  O  O10  1  0.127465  0.377168  0.372764  1
  O  O11  1  0.622429  0.377841  0.372906  1
  O  O12  1  0.622993  0.872547  0.372691  1
  O  O13  1  0.377008  0.127455  0.627309  1
  O  O14  1  0.872536  0.622832  0.627236  1
  O  O15  1  0.377572  0.622161  0.627094  1
  O  O16  1  0.787812  0.212110  0.872158  1
  O  O17  1  0.296000  0.211841  0.872299  1
  O  O18  1  0.788218  0.704251  0.872254  1
