# generated using pymatgen
data_Sr3Hf(Al8Pt3)3
_symmetry_space_group_name_H-M   'P 1'
_cell_length_a   7.51243567
_cell_length_b   7.58116221
_cell_length_c   13.46545267
_cell_angle_alpha   84.62132098
_cell_angle_beta   79.32358999
_cell_angle_gamma   59.90741265
_symmetry_Int_Tables_number   1
_chemical_formula_structural   Sr3Hf(Al8Pt3)3
_chemical_formula_sum   'Sr3 Hf1 Al24 Pt9'
_cell_volume   652.04587544
_cell_formula_units_Z   1
loop_
 _symmetry_equiv_pos_site_id
 _symmetry_equiv_pos_as_xyz
  1  'x, y, z'
loop_
 _atom_site_type_symbol
 _atom_site_label
 _atom_site_symmetry_multiplicity
 _atom_site_fract_x
 _atom_site_fract_y
 _atom_site_fract_z
 _atom_site_occupancy
  Sr  Sr0  1  0.607279  0.831106  0.190467  1
  Sr  Sr1  1  0.733160  0.499135  0.807966  1
  Sr  Sr2  1  0.266349  0.502400  0.190297  1
  Hf  Hf3  1  0.394061  0.169108  0.807881  1
  Al  Al4  1  0.681791  0.838659  0.941108  1
  Al  Al5  1  0.313794  0.166017  0.045821  1
  Al  Al6  1  0.146688  0.831133  0.562046  1
  Al  Al7  1  0.851562  0.168109  0.444480  1
  Al  Al8  1  0.478360  0.166082  0.560932  1
  Al  Al9  1  0.518304  0.835331  0.445612  1
  Al  Al10  1  0.212292  0.164514  0.337040  1
  Al  Al11  1  0.779415  0.838783  0.673087  1
  Al  Al12  1  0.435886  0.503637  0.672786  1
  Al  Al13  1  0.561837  0.491337  0.336669  1
  Al  Al14  1  0.112406  0.158799  0.671344  1
  Al  Al15  1  0.887373  0.842326  0.338533  1
  Al  Al16  1  0.353361  0.495347  0.941460  1
  Al  Al17  1  0.654952  0.494128  0.048385  1
  Al  Al18  1  0.022812  0.167527  0.947551  1
  Al  Al19  1  0.987841  0.837393  0.035356  1
  Al  Al20  1  0.186333  0.499545  0.445213  1
  Al  Al21  1  0.813553  0.500859  0.559094  1
  Al  Al22  1  0.737162  0.164700  0.183003  1
  Al  Al23  1  0.261360  0.850926  0.815631  1
  Al  Al24  1  0.076126  0.621186  0.814052  1
  Al  Al25  1  0.939800  0.364658  0.183222  1
  Al  Al26  1  0.846257  0.035518  0.814602  1
  Al  Al27  1  0.140791  0.963535  0.183067  1
  Pt  Pt28  1  0.121378  0.492260  0.637958  1
  Pt  Pt29  1  0.877946  0.505034  0.366525  1
  Pt  Pt30  1  0.659817  0.169834  0.996449  1
  Pt  Pt31  1  0.342983  0.828272  0.996879  1
  Pt  Pt32  1  0.538549  0.167411  0.366465  1
  Pt  Pt33  1  0.460969  0.833582  0.638287  1
  Pt  Pt34  1  0.779788  0.173145  0.636748  1
  Pt  Pt35  1  0.216597  0.827884  0.367990  1
  Pt  Pt36  1  0.001066  0.500784  0.995995  1
