# generated using pymatgen
data_HoLuFe3Re14C3
_symmetry_space_group_name_H-M   'P 1'
_cell_length_a   6.91931064
_cell_length_b   6.91931153
_cell_length_c   6.91931020
_cell_angle_alpha   82.42623816
_cell_angle_beta   82.42623825
_cell_angle_gamma   82.42623590
_symmetry_Int_Tables_number   1
_chemical_formula_structural   HoLuFe3Re14C3
_chemical_formula_sum   'Ho1 Lu1 Fe3 Re14 C3'
_cell_volume   323.30522079
_cell_formula_units_Z   1
loop_
 _symmetry_equiv_pos_site_id
 _symmetry_equiv_pos_as_xyz
  1  'x, y, z'
loop_
 _atom_site_type_symbol
 _atom_site_label
 _atom_site_symmetry_multiplicity
 _atom_site_fract_x
 _atom_site_fract_y
 _atom_site_fract_z
 _atom_site_occupancy
  Ho  Ho0  1  0.351157  0.351157  0.351157  1
  Lu  Lu1  1  0.649103  0.649103  0.649103  1
  Fe  Fe2  1  0.000332  0.000332  0.499757  1
  Fe  Fe3  1  0.000332  0.499757  0.000332  1
  Fe  Fe4  1  0.499757  0.000332  0.000332  1
  Re  Re5  1  0.102383  0.102383  0.102383  1
  Re  Re6  1  0.897292  0.897292  0.897292  1
  Re  Re7  1  0.722255  0.277900  0.999912  1
  Re  Re8  1  0.277900  0.999912  0.722255  1
  Re  Re9  1  0.999912  0.722255  0.277900  1
  Re  Re10  1  0.277900  0.722255  0.999912  1
  Re  Re11  1  0.722255  0.999912  0.277900  1
  Re  Re12  1  0.999912  0.277900  0.722255  1
  Re  Re13  1  0.139000  0.653402  0.653402  1
  Re  Re14  1  0.653402  0.653402  0.139000  1
  Re  Re15  1  0.653402  0.139000  0.653402  1
  Re  Re16  1  0.347276  0.859427  0.347276  1
  Re  Re17  1  0.347276  0.347276  0.859427  1
  Re  Re18  1  0.859427  0.347276  0.347276  1
  C  C19  1  0.501542  0.501542  0.996644  1
  C  C20  1  0.501542  0.996644  0.501542  1
  C  C21  1  0.996644  0.501542  0.501542  1
