# generated using pymatgen
data_Tm7Sn23Os6
_symmetry_space_group_name_H-M   'P 1'
_cell_length_a   9.82696700
_cell_length_b   9.82696719
_cell_length_c   10.08969500
_cell_angle_alpha   90.00000000
_cell_angle_beta   90.00000000
_cell_angle_gamma   120.00000271
_symmetry_Int_Tables_number   1
_chemical_formula_structural   Tm7Sn23Os6
_chemical_formula_sum   'Tm7 Sn23 Os6'
_cell_volume   843.81581723
_cell_formula_units_Z   1
loop_
 _symmetry_equiv_pos_site_id
 _symmetry_equiv_pos_as_xyz
  1  'x, y, z'
loop_
 _atom_site_type_symbol
 _atom_site_label
 _atom_site_symmetry_multiplicity
 _atom_site_fract_x
 _atom_site_fract_y
 _atom_site_fract_z
 _atom_site_occupancy
  Tm  Tm0  1  0.486928  0.513072  0.301008  1
  Tm  Tm1  1  0.513072  0.486928  0.698992  1
  Tm  Tm2  1  0.486928  0.973857  0.301008  1
  Tm  Tm3  1  0.513072  0.026143  0.698992  1
  Tm  Tm4  1  0.026143  0.513072  0.301008  1
  Tm  Tm5  1  0.973857  0.486928  0.698992  1
  Tm  Tm6  1  0.000000  0.000000  0.000000  1
  Sn  Sn7  1  0.117958  0.882042  0.277208  1
  Sn  Sn8  1  0.882042  0.117958  0.722792  1
  Sn  Sn9  1  0.117958  0.235915  0.277208  1
  Sn  Sn10  1  0.882042  0.764085  0.722792  1
  Sn  Sn11  1  0.764085  0.882042  0.277208  1
  Sn  Sn12  1  0.235915  0.117958  0.722792  1
  Sn  Sn13  1  0.779115  0.220885  0.464296  1
  Sn  Sn14  1  0.220885  0.779115  0.535704  1
  Sn  Sn15  1  0.779115  0.558230  0.464296  1
  Sn  Sn16  1  0.220885  0.441770  0.535704  1
  Sn  Sn17  1  0.441770  0.220885  0.464296  1
  Sn  Sn18  1  0.558230  0.779115  0.535704  1
  Sn  Sn19  1  0.349896  0.000000  0.000000  1
  Sn  Sn20  1  0.650104  0.000000  0.000000  1
  Sn  Sn21  1  0.000000  0.349896  0.000000  1
  Sn  Sn22  1  0.000000  0.650104  0.000000  1
  Sn  Sn23  1  0.650104  0.650104  0.000000  1
  Sn  Sn24  1  0.349896  0.349896  0.000000  1
  Sn  Sn25  1  0.333333  0.666667  0.134269  1
  Sn  Sn26  1  0.666667  0.333333  0.865731  1
  Sn  Sn27  1  0.333333  0.666667  0.828105  1
  Sn  Sn28  1  0.666667  0.333333  0.171895  1
  Sn  Sn29  1  0.000000  0.000000  0.500000  1
  Os  Os30  1  0.829369  0.170631  0.202550  1
  Os  Os31  1  0.170631  0.829369  0.797450  1
  Os  Os32  1  0.829369  0.658741  0.202550  1
  Os  Os33  1  0.170631  0.341259  0.797450  1
  Os  Os34  1  0.341259  0.170631  0.202550  1
  Os  Os35  1  0.658741  0.829369  0.797450  1
