# generated using pymatgen
data_Tb3Sc2Sn2Sb
_symmetry_space_group_name_H-M   'P 1'
_cell_length_a   8.83161611
_cell_length_b   8.83405334
_cell_length_c   6.23763100
_cell_angle_alpha   90.00000000
_cell_angle_beta   90.00000000
_cell_angle_gamma   120.00912299
_symmetry_Int_Tables_number   1
_chemical_formula_structural   Tb3Sc2Sn2Sb
_chemical_formula_sum   'Tb6 Sc4 Sn4 Sb2'
_cell_volume   421.41557248
_cell_formula_units_Z   2
loop_
 _symmetry_equiv_pos_site_id
 _symmetry_equiv_pos_as_xyz
  1  'x, y, z'
loop_
 _atom_site_type_symbol
 _atom_site_label
 _atom_site_symmetry_multiplicity
 _atom_site_fract_x
 _atom_site_fract_y
 _atom_site_fract_z
 _atom_site_occupancy
  Tb  Tb0  1  0.760268  0.000382  0.750000  1
  Tb  Tb1  1  0.760268  0.759886  0.250000  1
  Tb  Tb2  1  0.240864  0.999206  0.250000  1
  Tb  Tb3  1  0.240864  0.241658  0.750000  1
  Tb  Tb4  1  0.999557  0.759237  0.750000  1
  Tb  Tb5  1  0.999557  0.240320  0.250000  1
  Sc  Sc6  1  0.332801  0.666401  0.500000  1
  Sc  Sc7  1  0.666632  0.333316  0.000000  1
  Sc  Sc8  1  0.666632  0.333316  0.500000  1
  Sc  Sc9  1  0.332801  0.666401  0.000000  1
  Sn  Sn10  1  0.000093  0.598984  0.250000  1
  Sn  Sn11  1  0.000093  0.401109  0.750000  1
  Sn  Sn12  1  0.599841  0.600006  0.750000  1
  Sn  Sn13  1  0.599841  0.999835  0.250000  1
  Sb  Sb14  1  0.399945  0.000047  0.750000  1
  Sb  Sb15  1  0.399945  0.399898  0.250000  1
