# generated using pymatgen
data_Ta9Si2B4Mo
_symmetry_space_group_name_H-M   'P 1'
_cell_length_a   7.27666049
_cell_length_b   7.27666094
_cell_length_c   7.27665979
_cell_angle_alpha   129.40244855
_cell_angle_beta   129.40244528
_cell_angle_gamma   74.36387523
_symmetry_Int_Tables_number   1
_chemical_formula_structural   Ta9Si2B4Mo
_chemical_formula_sum   'Ta9 Si2 B4 Mo1'
_cell_volume   224.23657633
_cell_formula_units_Z   1
loop_
 _symmetry_equiv_pos_site_id
 _symmetry_equiv_pos_as_xyz
  1  'x, y, z'
loop_
 _atom_site_type_symbol
 _atom_site_label
 _atom_site_symmetry_multiplicity
 _atom_site_fract_x
 _atom_site_fract_y
 _atom_site_fract_z
 _atom_site_occupancy
  Ta  Ta0  1  0.808017  0.973805  0.504226  1
  Ta  Ta1  1  0.303790  0.808017  0.834211  1
  Ta  Ta2  1  0.191983  0.026195  0.495774  1
  Ta  Ta3  1  0.530421  0.696210  0.504226  1
  Ta  Ta4  1  0.026195  0.530421  0.834211  1
  Ta  Ta5  1  0.696210  0.191983  0.165789  1
  Ta  Ta6  1  0.973805  0.469579  0.165789  1
  Ta  Ta7  1  0.500000  0.500000  0.000000  1
  Ta  Ta8  1  0.469579  0.303790  0.495774  1
  Si  Si9  1  0.747097  0.747097  0.000000  1
  Si  Si10  1  0.252903  0.252903  0.000000  1
  B  B11  1  0.381572  0.881108  0.262681  1
  B  B12  1  0.881108  0.618428  0.499535  1
  B  B13  1  0.618428  0.118892  0.737319  1
  B  B14  1  0.118892  0.381572  0.500465  1
  Mo  Mo15  1  0.000000  0.000000  0.000000  1
