# generated using pymatgen
data_Ti3P2Ru
_symmetry_space_group_name_H-M   'P 1'
_cell_length_a   3.64960800
_cell_length_b   6.23768400
_cell_length_c   7.55658000
_cell_angle_alpha   90.00000000
_cell_angle_beta   90.00000000
_cell_angle_gamma   90.00000000
_symmetry_Int_Tables_number   1
_chemical_formula_structural   Ti3P2Ru
_chemical_formula_sum   'Ti6 P4 Ru2'
_cell_volume   172.02631015
_cell_formula_units_Z   2
loop_
 _symmetry_equiv_pos_site_id
 _symmetry_equiv_pos_as_xyz
  1  'x, y, z'
loop_
 _atom_site_type_symbol
 _atom_site_label
 _atom_site_symmetry_multiplicity
 _atom_site_fract_x
 _atom_site_fract_y
 _atom_site_fract_z
 _atom_site_occupancy
  Ti  Ti0  1  0.750000  0.530879  0.326117  1
  Ti  Ti1  1  0.250000  0.970316  0.830125  1
  Ti  Ti2  1  0.750000  0.030879  0.173883  1
  Ti  Ti3  1  0.250000  0.470316  0.669875  1
  Ti  Ti4  1  0.250000  0.354452  0.056013  1
  Ti  Ti5  1  0.250000  0.854452  0.443987  1
  P  P6  1  0.250000  0.746892  0.130750  1
  P  P7  1  0.250000  0.246892  0.369250  1
  P  P8  1  0.750000  0.259034  0.852474  1
  P  P9  1  0.750000  0.759034  0.647526  1
  Ru  Ru10  1  0.750000  0.138426  0.555827  1
  Ru  Ru11  1  0.750000  0.638426  0.944173  1
