# generated using pymatgen
data_Ba3La(PPt3)8
_symmetry_space_group_name_H-M   'P 1'
_cell_length_a   8.63605248
_cell_length_b   8.63605248
_cell_length_c   8.63605248
_cell_angle_alpha   90.08252980
_cell_angle_beta   90.08252980
_cell_angle_gamma   90.08252980
_symmetry_Int_Tables_number   1
_chemical_formula_structural   Ba3La(PPt3)8
_chemical_formula_sum   'Ba3 La1 P8 Pt24'
_cell_volume   644.08689964
_cell_formula_units_Z   1
loop_
 _symmetry_equiv_pos_site_id
 _symmetry_equiv_pos_as_xyz
  1  'x, y, z'
loop_
 _atom_site_type_symbol
 _atom_site_label
 _atom_site_symmetry_multiplicity
 _atom_site_fract_x
 _atom_site_fract_y
 _atom_site_fract_z
 _atom_site_occupancy
  Ba  Ba0  1  0.500000  0.500000  0.000000  1
  Ba  Ba1  1  0.500000  0.000000  0.500000  1
  Ba  Ba2  1  0.000000  0.500000  0.500000  1
  La  La3  1  0.000000  0.000000  0.000000  1
  P  P4  1  0.807026  0.305880  0.196141  1
  P  P5  1  0.196141  0.807026  0.305880  1
  P  P6  1  0.694538  0.694538  0.694538  1
  P  P7  1  0.305880  0.196141  0.807026  1
  P  P8  1  0.192974  0.694120  0.803859  1
  P  P9  1  0.803859  0.192974  0.694120  1
  P  P10  1  0.305462  0.305462  0.305462  1
  P  P11  1  0.694120  0.803859  0.192974  1
  Pt  Pt12  1  0.423114  0.843344  0.155502  1
  Pt  Pt13  1  0.578146  0.342484  0.344487  1
  Pt  Pt14  1  0.079466  0.152857  0.661775  1
  Pt  Pt15  1  0.921586  0.662200  0.848755  1
  Pt  Pt16  1  0.155502  0.423114  0.843344  1
  Pt  Pt17  1  0.344487  0.578146  0.342484  1
  Pt  Pt18  1  0.661775  0.079466  0.152857  1
  Pt  Pt19  1  0.848755  0.921586  0.662200  1
  Pt  Pt20  1  0.843344  0.155502  0.423114  1
  Pt  Pt21  1  0.342484  0.344487  0.578146  1
  Pt  Pt22  1  0.152857  0.661775  0.079466  1
  Pt  Pt23  1  0.662200  0.848755  0.921586  1
  Pt  Pt24  1  0.576886  0.156656  0.844498  1
  Pt  Pt25  1  0.421854  0.657516  0.655513  1
  Pt  Pt26  1  0.920534  0.847143  0.338225  1
  Pt  Pt27  1  0.078414  0.337800  0.151245  1
  Pt  Pt28  1  0.844498  0.576886  0.156656  1
  Pt  Pt29  1  0.655513  0.421854  0.657516  1
  Pt  Pt30  1  0.338225  0.920534  0.847143  1
  Pt  Pt31  1  0.151245  0.078414  0.337800  1
  Pt  Pt32  1  0.156656  0.844498  0.576886  1
  Pt  Pt33  1  0.657516  0.655513  0.421854  1
  Pt  Pt34  1  0.847143  0.338225  0.920534  1
  Pt  Pt35  1  0.337800  0.151245  0.078414  1
