# generated using pymatgen
data_Er6Tm10In6CoNi
_symmetry_space_group_name_H-M   'P 1'
_cell_length_a   10.30403201
_cell_length_b   10.30403209
_cell_length_c   6.89010400
_cell_angle_alpha   90.00027615
_cell_angle_beta   89.99972518
_cell_angle_gamma   119.99502937
_symmetry_Int_Tables_number   1
_chemical_formula_structural   Er6Tm10In6CoNi
_chemical_formula_sum   'Er6 Tm10 In6 Co1 Ni1'
_cell_volume   633.56701844
_cell_formula_units_Z   1
loop_
 _symmetry_equiv_pos_site_id
 _symmetry_equiv_pos_as_xyz
  1  'x, y, z'
loop_
 _atom_site_type_symbol
 _atom_site_label
 _atom_site_symmetry_multiplicity
 _atom_site_fract_x
 _atom_site_fract_y
 _atom_site_fract_z
 _atom_site_occupancy
  Er  Er0  1  0.532734  0.065458  0.516000  1
  Er  Er1  1  0.934542  0.467266  0.516000  1
  Er  Er2  1  0.532730  0.467270  0.516007  1
  Er  Er3  1  0.464969  0.929952  0.014701  1
  Er  Er4  1  0.070048  0.535031  0.014701  1
  Er  Er5  1  0.464976  0.535024  0.014708  1
  Tm  Tm6  1  0.178721  0.357420  0.721338  1
  Tm  Tm7  1  0.642580  0.821279  0.721338  1
  Tm  Tm8  1  0.178719  0.821281  0.721340  1
  Tm  Tm9  1  0.822347  0.644698  0.220218  1
  Tm  Tm10  1  0.355302  0.177653  0.220218  1
  Tm  Tm11  1  0.822339  0.177661  0.220218  1
  Tm  Tm12  1  0.666661  0.333339  0.901826  1
  Tm  Tm13  1  0.333336  0.666664  0.405080  1
  Tm  Tm14  1  0.999996  0.000004  0.499174  1
  Tm  Tm15  1  0.000001  0.999999  0.000413  1
  In  In16  1  0.837529  0.675122  0.759171  1
  In  In17  1  0.324878  0.162471  0.759171  1
  In  In18  1  0.837571  0.162429  0.759171  1
  In  In19  1  0.162268  0.324517  0.259974  1
  In  In20  1  0.675483  0.837732  0.259974  1
  In  In21  1  0.162265  0.837735  0.259970  1
  Co  Co22  1  0.333338  0.666662  0.789777  1
  Ni  Ni23  1  0.666667  0.333333  0.287514  1
