# generated using pymatgen
data_CePrHgRh2
_symmetry_space_group_name_H-M   'P 1'
_cell_length_a   7.74409520
_cell_length_b   7.74409507
_cell_length_c   3.76024300
_cell_angle_alpha   90.00000000
_cell_angle_beta   90.00000000
_cell_angle_gamma   93.77305019
_symmetry_Int_Tables_number   1
_chemical_formula_structural   CePrHgRh2
_chemical_formula_sum   'Ce2 Pr2 Hg2 Rh4'
_cell_volume   225.01679239
_cell_formula_units_Z   2
loop_
 _symmetry_equiv_pos_site_id
 _symmetry_equiv_pos_as_xyz
  1  'x, y, z'
loop_
 _atom_site_type_symbol
 _atom_site_label
 _atom_site_symmetry_multiplicity
 _atom_site_fract_x
 _atom_site_fract_y
 _atom_site_fract_z
 _atom_site_occupancy
  Ce  Ce0  1  0.668815  0.168815  0.500000  1
  Ce  Ce1  1  0.331185  0.831185  0.500000  1
  Pr  Pr2  1  0.169099  0.330901  0.500000  1
  Pr  Pr3  1  0.830901  0.669099  0.500000  1
  Hg  Hg4  1  0.000000  0.000000  0.000000  1
  Hg  Hg5  1  0.500000  0.500000  0.000000  1
  Rh  Rh6  1  0.147383  0.647383  0.000000  1
  Rh  Rh7  1  0.852617  0.352617  0.000000  1
  Rh  Rh8  1  0.625184  0.874816  0.000000  1
  Rh  Rh9  1  0.374816  0.125184  0.000000  1
