# generated using pymatgen
data_Cs6K3GaBi3Sb
_symmetry_space_group_name_H-M   'P 1'
_cell_length_a   11.34687900
_cell_length_b   11.36551857
_cell_length_c   11.87316400
_cell_angle_alpha   90.00000000
_cell_angle_beta   90.00000000
_cell_angle_gamma   119.94576079
_symmetry_Int_Tables_number   1
_chemical_formula_structural   Cs6K3GaBi3Sb
_chemical_formula_sum   'Cs12 K6 Ga2 Bi6 Sb2'
_cell_volume   1326.78295139
_cell_formula_units_Z   2
loop_
 _symmetry_equiv_pos_site_id
 _symmetry_equiv_pos_as_xyz
  1  'x, y, z'
loop_
 _atom_site_type_symbol
 _atom_site_label
 _atom_site_symmetry_multiplicity
 _atom_site_fract_x
 _atom_site_fract_y
 _atom_site_fract_z
 _atom_site_occupancy
  Cs  Cs0  1  0.418641  0.209508  0.040994  1
  Cs  Cs1  1  0.790865  0.209508  0.040994  1
  Cs  Cs2  1  0.790626  0.581252  0.040673  1
  Cs  Cs3  1  0.790626  0.581252  0.459327  1
  Cs  Cs4  1  0.418641  0.209508  0.459006  1
  Cs  Cs5  1  0.790865  0.209508  0.459006  1
  Cs  Cs6  1  0.208746  0.790207  0.541912  1
  Cs  Cs7  1  0.581462  0.790207  0.541912  1
  Cs  Cs8  1  0.209370  0.418740  0.542322  1
  Cs  Cs9  1  0.209370  0.418740  0.957678  1
  Cs  Cs10  1  0.208746  0.790207  0.958088  1
  Cs  Cs11  1  0.581462  0.790207  0.958088  1
  K  K12  1  0.119055  0.238111  0.250000  1
  K  K13  1  0.119069  0.880933  0.250000  1
  K  K14  1  0.761865  0.880933  0.250000  1
  K  K15  1  0.239215  0.120276  0.750000  1
  K  K16  1  0.881062  0.120276  0.750000  1
  K  K17  1  0.880008  0.760015  0.750000  1
  Ga  Ga18  1  0.333491  0.666981  0.250000  1
  Ga  Ga19  1  0.668841  0.337684  0.750000  1
  Bi  Bi20  1  0.000014  0.000027  0.999934  1
  Bi  Bi21  1  0.050690  0.525323  0.250000  1
  Bi  Bi22  1  0.474634  0.525323  0.250000  1
  Bi  Bi23  1  0.474534  0.949070  0.250000  1
  Bi  Bi24  1  0.000014  0.000027  0.500066  1
  Bi  Bi25  1  0.526236  0.052472  0.750000  1
  Sb  Sb26  1  0.528413  0.471856  0.750000  1
  Sb  Sb27  1  0.943443  0.471856  0.750000  1
