# generated using pymatgen
data_LaNd6Tc4C9
_symmetry_space_group_name_H-M   'P 1'
_cell_length_a   6.54147348
_cell_length_b   6.54147424
_cell_length_c   12.05442879
_cell_angle_alpha   71.32188812
_cell_angle_beta   71.32188674
_cell_angle_gamma   47.84961394
_symmetry_Int_Tables_number   1
_chemical_formula_structural   LaNd6Tc4C9
_chemical_formula_sum   'La1 Nd6 Tc4 C9'
_cell_volume   358.18253957
_cell_formula_units_Z   1
loop_
 _symmetry_equiv_pos_site_id
 _symmetry_equiv_pos_as_xyz
  1  'x, y, z'
loop_
 _atom_site_type_symbol
 _atom_site_label
 _atom_site_symmetry_multiplicity
 _atom_site_fract_x
 _atom_site_fract_y
 _atom_site_fract_z
 _atom_site_occupancy
  La  La0  1  0.628910  0.628910  0.155874  1
  Nd  Nd1  1  0.376014  0.376014  0.839802  1
  Nd  Nd2  1  0.144031  0.144031  0.686191  1
  Nd  Nd3  1  0.856174  0.856174  0.314726  1
  Nd  Nd4  1  0.137522  0.137522  0.379539  1
  Nd  Nd5  1  0.862141  0.862141  0.621458  1
  Nd  Nd6  1  0.999870  0.999870  0.999676  1
  Tc  Tc7  1  0.355450  0.355450  0.139754  1
  Tc  Tc8  1  0.568234  0.568234  0.569338  1
  Tc  Tc9  1  0.430733  0.430733  0.431703  1
  Tc  Tc10  1  0.643962  0.643962  0.860175  1
  C  C11  1  0.378798  0.378798  0.291508  1
  C  C12  1  0.927119  0.927119  0.816981  1
  C  C13  1  0.392770  0.392770  0.613016  1
  C  C14  1  0.191105  0.191105  0.143261  1
  C  C15  1  0.808995  0.808995  0.857670  1
  C  C16  1  0.498422  0.498422  0.998440  1
  C  C17  1  0.072967  0.072967  0.183431  1
  C  C18  1  0.620615  0.620615  0.708907  1
  C  C19  1  0.606168  0.606168  0.388551  1
