# generated using pymatgen
data_HfSc7Ti4(Si2Mo)8
_symmetry_space_group_name_H-M   'P 1'
_cell_length_a   6.58875926
_cell_length_b   6.78134587
_cell_length_c   12.78475747
_cell_angle_alpha   89.96636288
_cell_angle_beta   89.94175447
_cell_angle_gamma   90.06549625
_symmetry_Int_Tables_number   1
_chemical_formula_structural   HfSc7Ti4(Si2Mo)8
_chemical_formula_sum   'Hf1 Sc7 Ti4 Si16 Mo8'
_cell_volume   571.23057492
_cell_formula_units_Z   1
loop_
 _symmetry_equiv_pos_site_id
 _symmetry_equiv_pos_as_xyz
  1  'x, y, z'
loop_
 _atom_site_type_symbol
 _atom_site_label
 _atom_site_symmetry_multiplicity
 _atom_site_fract_x
 _atom_site_fract_y
 _atom_site_fract_z
 _atom_site_occupancy
  Hf  Hf0  1  0.499845  0.674072  0.597102  1
  Sc  Sc1  1  0.999974  0.172284  0.095102  1
  Sc  Sc2  1  0.001159  0.827905  0.905475  1
  Sc  Sc3  1  0.501450  0.671823  0.905524  1
  Sc  Sc4  1  0.001535  0.827449  0.594198  1
  Sc  Sc5  1  0.499512  0.327118  0.094726  1
  Sc  Sc6  1  0.999536  0.172341  0.405016  1
  Sc  Sc7  1  0.499328  0.328119  0.405541  1
  Ti  Ti8  1  0.161210  0.493685  0.749482  1
  Ti  Ti9  1  0.839475  0.506473  0.250237  1
  Ti  Ti10  1  0.339560  0.992931  0.250206  1
  Ti  Ti11  1  0.660146  0.005162  0.748852  1
  Si  Si12  1  0.037716  0.120760  0.749463  1
  Si  Si13  1  0.961440  0.879695  0.250034  1
  Si  Si14  1  0.461189  0.619906  0.249491  1
  Si  Si15  1  0.538434  0.379406  0.749961  1
  Si  Si16  1  0.295091  0.863913  0.750590  1
  Si  Si17  1  0.703959  0.136268  0.250057  1
  Si  Si18  1  0.203662  0.363253  0.250176  1
  Si  Si19  1  0.797784  0.637083  0.750858  1
  Si  Si20  1  0.167133  0.463544  0.541174  1
  Si  Si21  1  0.832978  0.535839  0.458498  1
  Si  Si22  1  0.333647  0.964129  0.458654  1
  Si  Si23  1  0.833987  0.535174  0.041834  1
  Si  Si24  1  0.667236  0.037231  0.541118  1
  Si  Si25  1  0.165917  0.463931  0.958211  1
  Si  Si26  1  0.666234  0.035857  0.958058  1
  Si  Si27  1  0.333688  0.964357  0.041601  1
  Mo  Mo28  1  0.335037  0.171849  0.623057  1
  Mo  Mo29  1  0.663832  0.825795  0.377078  1
  Mo  Mo30  1  0.165560  0.672855  0.376630  1
  Mo  Mo31  1  0.664883  0.827038  0.123587  1
  Mo  Mo32  1  0.833727  0.329753  0.623253  1
  Mo  Mo33  1  0.334739  0.172192  0.875759  1
  Mo  Mo34  1  0.834327  0.328266  0.875752  1
  Mo  Mo35  1  0.165072  0.672545  0.123647  1
