# generated using pymatgen
data_Yb2Sm2Si10PdPt5
_symmetry_space_group_name_H-M   'P 1'
_cell_length_a   8.23643845
_cell_length_b   8.25397471
_cell_length_c   8.25397350
_cell_angle_alpha   137.52607658
_cell_angle_beta   104.61480320
_cell_angle_gamma   90.61046832
_symmetry_Int_Tables_number   1
_chemical_formula_structural   Yb2Sm2Si10PdPt5
_chemical_formula_sum   'Yb2 Sm2 Si10 Pd1 Pt5'
_cell_volume   349.62871209
_cell_formula_units_Z   1
loop_
 _symmetry_equiv_pos_site_id
 _symmetry_equiv_pos_as_xyz
  1  'x, y, z'
loop_
 _atom_site_type_symbol
 _atom_site_label
 _atom_site_symmetry_multiplicity
 _atom_site_fract_x
 _atom_site_fract_y
 _atom_site_fract_z
 _atom_site_occupancy
  Yb  Yb0  1  0.637430  0.870938  0.767401  1
  Yb  Yb1  1  0.362570  0.129971  0.233508  1
  Sm  Sm2  1  0.105418  0.371764  0.731766  1
  Sm  Sm3  1  0.894582  0.626348  0.266346  1
  Si  Si4  1  0.273212  0.022841  0.753229  1
  Si  Si5  1  0.726624  0.977190  0.247135  1
  Si  Si6  1  0.726788  0.480018  0.749629  1
  Si  Si7  1  0.273376  0.520511  0.250566  1
  Si  Si8  1  0.461340  0.613489  0.848888  1
  Si  Si9  1  0.538660  0.387548  0.152149  1
  Si  Si10  1  0.761325  0.111130  0.649464  1
  Si  Si11  1  0.238675  0.888138  0.349804  1
  Si  Si12  1  0.000000  0.751690  0.751690  1
  Si  Si13  1  0.000000  0.248482  0.248482  1
  Pd  Pd14  1  0.500000  0.251569  0.751569  1
  Pt  Pt15  1  0.250447  0.637529  0.613649  1
  Pt  Pt16  1  0.749553  0.363201  0.387080  1
  Pt  Pt17  1  0.022431  0.136274  0.885477  1
  Pt  Pt18  1  0.977569  0.863046  0.113843  1
  Pt  Pt19  1  0.500000  0.748323  0.248323  1
