# generated using pymatgen
data_Ba8ReIr2RuO20
_symmetry_space_group_name_H-M   'P 1'
_cell_length_a   5.77930000
_cell_length_b   7.49711875
_cell_length_c   11.72965700
_cell_angle_alpha   89.64643100
_cell_angle_beta   90.00000000
_cell_angle_gamma   90.00000000
_symmetry_Int_Tables_number   1
_chemical_formula_structural   Ba8ReIr2RuO20
_chemical_formula_sum   'Ba8 Re1 Ir2 Ru1 O20'
_cell_volume   508.21405569
_cell_formula_units_Z   1
loop_
 _symmetry_equiv_pos_site_id
 _symmetry_equiv_pos_as_xyz
  1  'x, y, z'
loop_
 _atom_site_type_symbol
 _atom_site_label
 _atom_site_symmetry_multiplicity
 _atom_site_fract_x
 _atom_site_fract_y
 _atom_site_fract_z
 _atom_site_occupancy
  Ba  Ba0  1  0.750000  0.486074  0.279147  1
  Ba  Ba1  1  0.250000  0.527611  0.716666  1
  Ba  Ba2  1  0.750000  0.976739  0.205293  1
  Ba  Ba3  1  0.250000  0.022020  0.796727  1
  Ba  Ba4  1  0.750000  0.156239  0.588277  1
  Ba  Ba5  1  0.250000  0.824365  0.415750  1
  Ba  Ba6  1  0.750000  0.662702  0.923887  1
  Ba  Ba7  1  0.250000  0.332025  0.074348  1
  Re  Re8  1  0.250000  0.327077  0.437905  1
  Ir  Ir9  1  0.750000  0.168019  0.938701  1
  Ir  Ir10  1  0.750000  0.669374  0.558881  1
  Ru  Ru11  1  0.250000  0.827838  0.065756  1
  O  O12  1  0.483343  0.180380  0.389603  1
  O  O13  1  0.991800  0.822692  0.610993  1
  O  O14  1  0.008763  0.678306  0.118782  1
  O  O15  1  0.509287  0.321483  0.882501  1
  O  O16  1  0.508200  0.822692  0.610993  1
  O  O17  1  0.016657  0.180380  0.389603  1
  O  O18  1  0.990713  0.321483  0.882501  1
  O  O19  1  0.491237  0.678306  0.118782  1
  O  O20  1  0.493800  0.498229  0.496782  1
  O  O21  1  0.006200  0.498229  0.496782  1
  O  O22  1  0.996891  0.003544  0.001182  1
  O  O23  1  0.503109  0.003544  0.001182  1
  O  O24  1  0.750000  0.291483  0.090430  1
  O  O25  1  0.250000  0.713285  0.911471  1
  O  O26  1  0.750000  0.784366  0.405397  1
  O  O27  1  0.250000  0.227147  0.589223  1
  O  O28  1  0.750000  0.027526  0.801447  1
  O  O29  1  0.250000  0.971975  0.199893  1
  O  O30  1  0.750000  0.527395  0.694119  1
  O  O31  1  0.250000  0.467469  0.306992  1
