# generated using pymatgen
data_TbYb2SmNi13C4
_symmetry_space_group_name_H-M   'P 1'
_cell_length_a   8.35325267
_cell_length_b   8.35325208
_cell_length_c   3.88010500
_cell_angle_alpha   90.00000000
_cell_angle_beta   90.00000000
_cell_angle_gamma   90.75125078
_symmetry_Int_Tables_number   1
_chemical_formula_structural   TbYb2SmNi13C4
_chemical_formula_sum   'Tb1 Yb2 Sm1 Ni13 C4'
_cell_volume   270.71813592
_cell_formula_units_Z   1
loop_
 _symmetry_equiv_pos_site_id
 _symmetry_equiv_pos_as_xyz
  1  'x, y, z'
loop_
 _atom_site_type_symbol
 _atom_site_label
 _atom_site_symmetry_multiplicity
 _atom_site_fract_x
 _atom_site_fract_y
 _atom_site_fract_z
 _atom_site_occupancy
  Tb  Tb0  1  0.653840  0.653840  0.500000  1
  Yb  Yb1  1  0.808314  0.191688  0.500000  1
  Yb  Yb2  1  0.191688  0.808314  0.500000  1
  Sm  Sm3  1  0.345877  0.345877  0.500000  1
  Ni  Ni4  1  0.999064  0.999064  0.000000  1
  Ni  Ni5  1  0.215240  0.571868  0.000000  1
  Ni  Ni6  1  0.786205  0.429796  0.000000  1
  Ni  Ni7  1  0.429796  0.786205  0.000000  1
  Ni  Ni8  1  0.571868  0.215240  0.000000  1
  Ni  Ni9  1  0.997115  0.502383  0.500000  1
  Ni  Ni10  1  0.502383  0.997115  0.500000  1
  Ni  Ni11  1  0.070859  0.287877  0.000000  1
  Ni  Ni12  1  0.926920  0.710799  0.000000  1
  Ni  Ni13  1  0.710799  0.926920  0.000000  1
  Ni  Ni14  1  0.287877  0.070859  0.000000  1
  Ni  Ni15  1  0.115648  0.115648  0.500000  1
  Ni  Ni16  1  0.881832  0.881832  0.500000  1
  C  C17  1  0.001349  0.499917  0.000000  1
  C  C18  1  0.499917  0.001349  0.000000  1
  C  C19  1  0.444374  0.559035  0.000000  1
  C  C20  1  0.559035  0.444374  0.000000  1
