# generated using pymatgen
data_NdDy(Er2Rh9)2
_symmetry_space_group_name_H-M   'P 1'
_cell_length_a   5.26533900
_cell_length_b   5.26558476
_cell_length_c   17.53055900
_cell_angle_alpha   90.00000000
_cell_angle_beta   90.00000000
_cell_angle_gamma   120.00138570
_symmetry_Int_Tables_number   1
_chemical_formula_structural   NdDy(Er2Rh9)2
_chemical_formula_sum   'Nd1 Dy1 Er4 Rh18'
_cell_volume   420.91391011
_cell_formula_units_Z   1
loop_
 _symmetry_equiv_pos_site_id
 _symmetry_equiv_pos_as_xyz
  1  'x, y, z'
loop_
 _atom_site_type_symbol
 _atom_site_label
 _atom_site_symmetry_multiplicity
 _atom_site_fract_x
 _atom_site_fract_y
 _atom_site_fract_z
 _atom_site_occupancy
  Nd  Nd0  1  0.666668  0.333333  0.250000  1
  Dy  Dy1  1  0.333336  0.666668  0.750000  1
  Er  Er2  1  0.333332  0.666664  0.542001  1
  Er  Er3  1  0.666665  0.333337  0.041215  1
  Er  Er4  1  0.666665  0.333337  0.458785  1
  Er  Er5  1  0.333332  0.666664  0.957999  1
  Rh  Rh6  1  0.167358  0.334710  0.124570  1
  Rh  Rh7  1  0.832616  0.665230  0.625378  1
  Rh  Rh8  1  0.665291  0.832649  0.124570  1
  Rh  Rh9  1  0.167350  0.832647  0.124576  1
  Rh  Rh10  1  0.832616  0.167381  0.625380  1
  Rh  Rh11  1  0.334770  0.167382  0.625376  1
  Rh  Rh12  1  0.832616  0.665230  0.874622  1
  Rh  Rh13  1  0.832616  0.167381  0.874620  1
  Rh  Rh14  1  0.334770  0.167382  0.874624  1
  Rh  Rh15  1  0.665291  0.832649  0.375430  1
  Rh  Rh16  1  0.167350  0.832647  0.375424  1
  Rh  Rh17  1  0.167358  0.334710  0.375430  1
  Rh  Rh18  1  0.000012  0.000018  0.250000  1
  Rh  Rh19  1  0.999991  0.999992  0.750000  1
  Rh  Rh20  1  0.333326  0.666666  0.250000  1
  Rh  Rh21  1  0.666667  0.333323  0.750000  1
  Rh  Rh22  1  0.000001  0.999998  0.999688  1
  Rh  Rh23  1  0.000001  0.999998  0.500312  1
