# generated using pymatgen
data_Sm8Lu12Si15Ru
_symmetry_space_group_name_H-M   'P 1'
_cell_length_a   7.33498044
_cell_length_b   7.72636415
_cell_length_c   14.43550200
_cell_angle_alpha   90.00000000
_cell_angle_beta   90.00000000
_cell_angle_gamma   90.07399133
_symmetry_Int_Tables_number   1
_chemical_formula_structural   Sm8Lu12Si15Ru
_chemical_formula_sum   'Sm8 Lu12 Si15 Ru1'
_cell_volume   818.09862401
_cell_formula_units_Z   1
loop_
 _symmetry_equiv_pos_site_id
 _symmetry_equiv_pos_as_xyz
  1  'x, y, z'
loop_
 _atom_site_type_symbol
 _atom_site_label
 _atom_site_symmetry_multiplicity
 _atom_site_fract_x
 _atom_site_fract_y
 _atom_site_fract_z
 _atom_site_occupancy
  Sm  Sm0  1  0.017373  0.182011  0.097148  1
  Sm  Sm1  1  0.985039  0.826671  0.903692  1
  Sm  Sm2  1  0.483481  0.676926  0.903867  1
  Sm  Sm3  1  0.985039  0.826671  0.596308  1
  Sm  Sm4  1  0.516517  0.322096  0.096491  1
  Sm  Sm5  1  0.017373  0.182011  0.402852  1
  Sm  Sm6  1  0.516517  0.322096  0.403509  1
  Sm  Sm7  1  0.483481  0.676926  0.596133  1
  Lu  Lu8  1  0.152953  0.507069  0.750000  1
  Lu  Lu9  1  0.842867  0.490734  0.250000  1
  Lu  Lu10  1  0.343080  0.012100  0.250000  1
  Lu  Lu11  1  0.665212  0.992185  0.750000  1
  Lu  Lu12  1  0.309876  0.171783  0.627304  1
  Lu  Lu13  1  0.678159  0.826403  0.374590  1
  Lu  Lu14  1  0.177510  0.678662  0.374829  1
  Lu  Lu15  1  0.678159  0.826403  0.125410  1
  Lu  Lu16  1  0.833978  0.314751  0.626712  1
  Lu  Lu17  1  0.309876  0.171783  0.872696  1
  Lu  Lu18  1  0.833978  0.314751  0.873288  1
  Lu  Lu19  1  0.177510  0.678662  0.125171  1
  Si  Si20  1  0.974360  0.887948  0.250000  1
  Si  Si21  1  0.475182  0.612880  0.250000  1
  Si  Si22  1  0.525380  0.390625  0.750000  1
  Si  Si23  1  0.278704  0.868267  0.750000  1
  Si  Si24  1  0.718915  0.130246  0.250000  1
  Si  Si25  1  0.220582  0.372634  0.250000  1
  Si  Si26  1  0.770821  0.622388  0.750000  1
  Si  Si27  1  0.154885  0.472208  0.537650  1
  Si  Si28  1  0.849528  0.534264  0.461913  1
  Si  Si29  1  0.349075  0.967580  0.460251  1
  Si  Si30  1  0.849528  0.534264  0.038087  1
  Si  Si31  1  0.648079  0.032292  0.538347  1
  Si  Si32  1  0.154885  0.472208  0.962350  1
  Si  Si33  1  0.648079  0.032292  0.961653  1
  Si  Si34  1  0.349075  0.967580  0.039749  1
  Ru  Ru35  1  0.024942  0.101629  0.750000  1
