# generated using pymatgen
data_Yb2Y3Tm15Pt16
_symmetry_space_group_name_H-M   'P 1'
_cell_length_a   7.41998641
_cell_length_b   7.50704940
_cell_length_c   14.61997300
_cell_angle_alpha   90.00146539
_cell_angle_beta   90.03531187
_cell_angle_gamma   89.98125426
_symmetry_Int_Tables_number   1
_chemical_formula_structural   Yb2Y3Tm15Pt16
_chemical_formula_sum   'Yb2 Y3 Tm15 Pt16'
_cell_volume   814.36452808
_cell_formula_units_Z   1
loop_
 _symmetry_equiv_pos_site_id
 _symmetry_equiv_pos_as_xyz
  1  'x, y, z'
loop_
 _atom_site_type_symbol
 _atom_site_label
 _atom_site_symmetry_multiplicity
 _atom_site_fract_x
 _atom_site_fract_y
 _atom_site_fract_z
 _atom_site_occupancy
  Yb  Yb0  1  0.001541  0.178941  0.406922  1
  Yb  Yb1  1  0.501607  0.321885  0.407516  1
  Y  Y2  1  0.000866  0.179729  0.093870  1
  Y  Y3  1  0.500276  0.680973  0.907232  1
  Y  Y4  1  0.000873  0.818701  0.592362  1
  Tm  Tm5  1  0.654223  0.168361  0.622163  1
  Tm  Tm6  1  0.154214  0.333332  0.877134  1
  Tm  Tm7  1  0.345607  0.833594  0.122396  1
  Tm  Tm8  1  0.845316  0.664123  0.376919  1
  Tm  Tm9  1  0.346169  0.834713  0.377188  1
  Tm  Tm10  1  0.845867  0.667094  0.121645  1
  Tm  Tm11  1  0.654078  0.167047  0.877444  1
  Tm  Tm12  1  0.154570  0.331935  0.621837  1
  Tm  Tm13  1  0.501601  0.682599  0.593068  1
  Tm  Tm14  1  0.001453  0.817450  0.906112  1
  Tm  Tm15  1  0.500061  0.318599  0.094397  1
  Tm  Tm16  1  0.818005  0.509682  0.750016  1
  Tm  Tm17  1  0.317969  0.990268  0.750150  1
  Tm  Tm18  1  0.182545  0.489689  0.250970  1
  Tm  Tm19  1  0.682672  0.010314  0.251066  1
  Pt  Pt20  1  0.679677  0.954995  0.459807  1
  Pt  Pt21  1  0.185731  0.532690  0.042152  1
  Pt  Pt22  1  0.314447  0.033127  0.957896  1
  Pt  Pt23  1  0.817040  0.472332  0.546174  1
  Pt  Pt24  1  0.321145  0.027351  0.546399  1
  Pt  Pt25  1  0.817698  0.467318  0.957751  1
  Pt  Pt26  1  0.682249  0.968133  0.042411  1
  Pt  Pt27  1  0.180607  0.544433  0.459733  1
  Pt  Pt28  1  0.451974  0.384554  0.749037  1
  Pt  Pt29  1  0.951924  0.115672  0.750097  1
  Pt  Pt30  1  0.545766  0.618297  0.248489  1
  Pt  Pt31  1  0.046407  0.880926  0.249302  1
  Pt  Pt32  1  0.682012  0.858391  0.748802  1
  Pt  Pt33  1  0.182082  0.641696  0.750321  1
  Pt  Pt34  1  0.317219  0.139954  0.245381  1
  Pt  Pt35  1  0.814510  0.361112  0.245841  1
