# generated using pymatgen
data_PrNdOs2I
_symmetry_space_group_name_H-M   'P 1'
_cell_length_a   4.31752000
_cell_length_b   4.31752000
_cell_length_c   17.81372300
_cell_angle_alpha   90.00000000
_cell_angle_beta   90.00000000
_cell_angle_gamma   120.00000001
_symmetry_Int_Tables_number   1
_chemical_formula_structural   PrNdOs2I
_chemical_formula_sum   'Pr2 Nd2 Os4 I2'
_cell_volume   287.57692953
_cell_formula_units_Z   2
loop_
 _symmetry_equiv_pos_site_id
 _symmetry_equiv_pos_as_xyz
  1  'x, y, z'
loop_
 _atom_site_type_symbol
 _atom_site_label
 _atom_site_symmetry_multiplicity
 _atom_site_fract_x
 _atom_site_fract_y
 _atom_site_fract_z
 _atom_site_occupancy
  Pr  Pr0  1  0.000000  0.000000  0.108077  1
  Pr  Pr1  1  0.000000  0.000000  0.891923  1
  Nd  Nd2  1  0.000000  0.000000  0.606950  1
  Nd  Nd3  1  0.000000  0.000000  0.393050  1
  Os  Os4  1  0.666667  0.333333  0.503895  1
  Os  Os5  1  0.333333  0.666667  0.003410  1
  Os  Os6  1  0.666667  0.333333  0.996590  1
  Os  Os7  1  0.333333  0.666667  0.496105  1
  I  I8  1  0.666667  0.333333  0.251748  1
  I  I9  1  0.333333  0.666667  0.748252  1
