# generated using pymatgen
data_DyErP7Ru12
_symmetry_space_group_name_H-M   'P 1'
_cell_length_a   9.40390200
_cell_length_b   9.40390098
_cell_length_c   3.95453500
_cell_angle_alpha   90.00000000
_cell_angle_beta   90.00000000
_cell_angle_gamma   119.99998953
_symmetry_Int_Tables_number   1
_chemical_formula_structural   DyErP7Ru12
_chemical_formula_sum   'Dy1 Er1 P7 Ru12'
_cell_volume   302.86022673
_cell_formula_units_Z   1
loop_
 _symmetry_equiv_pos_site_id
 _symmetry_equiv_pos_as_xyz
  1  'x, y, z'
loop_
 _atom_site_type_symbol
 _atom_site_label
 _atom_site_symmetry_multiplicity
 _atom_site_fract_x
 _atom_site_fract_y
 _atom_site_fract_z
 _atom_site_occupancy
  Dy  Dy0  1  0.333333  0.666667  0.000000  1
  Er  Er1  1  0.666667  0.333333  0.500000  1
  P  P2  1  0.600799  0.718552  0.500000  1
  P  P3  1  0.000000  0.000000  0.000000  1
  P  P4  1  0.281448  0.882247  0.500000  1
  P  P5  1  0.117753  0.399201  0.500000  1
  P  P6  1  0.884992  0.573482  0.000000  1
  P  P7  1  0.426518  0.311510  0.000000  1
  P  P8  1  0.688490  0.115008  0.000000  1
  Ru  Ru9  1  0.556526  0.950230  0.500000  1
  Ru  Ru10  1  0.393706  0.443474  0.500000  1
  Ru  Ru11  1  0.914631  0.121721  0.500000  1
  Ru  Ru12  1  0.207091  0.085369  0.500000  1
  Ru  Ru13  1  0.878279  0.792909  0.500000  1
  Ru  Ru14  1  0.727734  0.892285  0.000000  1
  Ru  Ru15  1  0.107715  0.835448  0.000000  1
  Ru  Ru16  1  0.164552  0.272266  0.000000  1
  Ru  Ru17  1  0.423863  0.066937  0.000000  1
  Ru  Ru18  1  0.933063  0.356925  0.000000  1
  Ru  Ru19  1  0.643075  0.576137  0.000000  1
  Ru  Ru20  1  0.049770  0.606294  0.500000  1
