# generated using pymatgen
data_Pr5Er3(Si3Ir)4
_symmetry_space_group_name_H-M   'P 1'
_cell_length_a   8.24192300
_cell_length_b   8.24192351
_cell_length_c   8.22557900
_cell_angle_alpha   90.00000000
_cell_angle_beta   90.00000000
_cell_angle_gamma   120.00000195
_symmetry_Int_Tables_number   1
_chemical_formula_structural   Pr5Er3(Si3Ir)4
_chemical_formula_sum   'Pr5 Er3 Si12 Ir4'
_cell_volume   483.89845303
_cell_formula_units_Z   1
loop_
 _symmetry_equiv_pos_site_id
 _symmetry_equiv_pos_as_xyz
  1  'x, y, z'
loop_
 _atom_site_type_symbol
 _atom_site_label
 _atom_site_symmetry_multiplicity
 _atom_site_fract_x
 _atom_site_fract_y
 _atom_site_fract_z
 _atom_site_occupancy
  Pr  Pr0  1  0.000000  0.000000  0.250000  1
  Pr  Pr1  1  0.000000  0.000000  0.750000  1
  Pr  Pr2  1  0.499079  0.500921  0.250000  1
  Pr  Pr3  1  0.499079  0.998157  0.250000  1
  Pr  Pr4  1  0.001843  0.500921  0.250000  1
  Er  Er5  1  0.505344  0.494656  0.750000  1
  Er  Er6  1  0.989311  0.494656  0.750000  1
  Er  Er7  1  0.505344  0.010689  0.750000  1
  Si  Si8  1  0.833448  0.166552  0.506231  1
  Si  Si9  1  0.833448  0.666897  0.506231  1
  Si  Si10  1  0.333103  0.166552  0.506231  1
  Si  Si11  1  0.833448  0.166552  0.993769  1
  Si  Si12  1  0.833448  0.666897  0.993769  1
  Si  Si13  1  0.333103  0.166552  0.993769  1
  Si  Si14  1  0.168792  0.831208  0.993543  1
  Si  Si15  1  0.662418  0.831208  0.993543  1
  Si  Si16  1  0.168792  0.337582  0.993543  1
  Si  Si17  1  0.168792  0.831208  0.506457  1
  Si  Si18  1  0.662418  0.831208  0.506457  1
  Si  Si19  1  0.168792  0.337582  0.506457  1
  Ir  Ir20  1  0.666667  0.333333  0.515730  1
  Ir  Ir21  1  0.666667  0.333333  0.984270  1
  Ir  Ir22  1  0.333333  0.666667  0.953613  1
  Ir  Ir23  1  0.333333  0.666667  0.546387  1
