# generated using pymatgen
data_ErSc7Ta4(TiSi2)8
_symmetry_space_group_name_H-M   'P 1'
_cell_length_a   6.89596209
_cell_length_b   6.89949630
_cell_length_c   12.66460357
_cell_angle_alpha   89.91351394
_cell_angle_beta   89.99457755
_cell_angle_gamma   89.95807594
_symmetry_Int_Tables_number   1
_chemical_formula_structural   ErSc7Ta4(TiSi2)8
_chemical_formula_sum   'Er1 Sc7 Ta4 Ti8 Si16'
_cell_volume   602.56407916
_cell_formula_units_Z   1
loop_
 _symmetry_equiv_pos_site_id
 _symmetry_equiv_pos_as_xyz
  1  'x, y, z'
loop_
 _atom_site_type_symbol
 _atom_site_label
 _atom_site_symmetry_multiplicity
 _atom_site_fract_x
 _atom_site_fract_y
 _atom_site_fract_z
 _atom_site_occupancy
  Er  Er0  1  0.995854  0.660499  0.032454  1
  Sc  Sc1  1  0.341605  0.999758  0.467377  1
  Sc  Sc2  1  0.500214  0.841877  0.716201  1
  Sc  Sc3  1  0.498813  0.158645  0.218114  1
  Sc  Sc4  1  0.841971  0.500823  0.283706  1
  Sc  Sc5  1  0.158607  0.498919  0.782711  1
  Sc  Sc6  1  0.656656  0.001391  0.965764  1
  Sc  Sc7  1  0.999579  0.341827  0.532908  1
  Ta  Ta8  1  0.328275  0.326735  0.999698  1
  Ta  Ta9  1  0.173036  0.828595  0.251075  1
  Ta  Ta10  1  0.827528  0.172030  0.748980  1
  Ta  Ta11  1  0.672454  0.672416  0.500091  1
  Ti  Ti12  1  0.152079  0.006236  0.872599  1
  Ti  Ti13  1  0.493701  0.650456  0.124523  1
  Ti  Ti14  1  0.507706  0.349902  0.623588  1
  Ti  Ti15  1  0.650390  0.490509  0.874865  1
  Ti  Ti16  1  0.350129  0.507459  0.376985  1
  Ti  Ti17  1  0.850001  0.992912  0.375309  1
  Ti  Ti18  1  0.008411  0.151117  0.126536  1
  Ti  Ti19  1  0.992627  0.850156  0.625351  1
  Si  Si20  1  0.205629  0.135938  0.678435  1
  Si  Si21  1  0.368323  0.705874  0.928254  1
  Si  Si22  1  0.636030  0.294587  0.429183  1
  Si  Si23  1  0.702634  0.360513  0.070441  1
  Si  Si24  1  0.294326  0.635983  0.571145  1
  Si  Si25  1  0.791352  0.869266  0.182583  1
  Si  Si26  1  0.135773  0.205510  0.321744  1
  Si  Si27  1  0.863327  0.795490  0.818614  1
  Si  Si28  1  0.300358  0.955653  0.063927  1
  Si  Si29  1  0.544849  0.798679  0.314672  1
  Si  Si30  1  0.453793  0.201726  0.812742  1
  Si  Si31  1  0.798476  0.545659  0.685856  1
  Si  Si32  1  0.204550  0.452689  0.188170  1
  Si  Si33  1  0.701394  0.045968  0.563548  1
  Si  Si34  1  0.953616  0.292601  0.935212  1
  Si  Si35  1  0.045936  0.701603  0.436638  1
