# generated using pymatgen
data_Lu3Zn3Cu2Ru
_symmetry_space_group_name_H-M   'P 1'
_cell_length_a   6.94559900
_cell_length_b   6.94559946
_cell_length_c   3.89397400
_cell_angle_alpha   90.00000000
_cell_angle_beta   90.00000000
_cell_angle_gamma   120.00000129
_symmetry_Int_Tables_number   1
_chemical_formula_structural   Lu3Zn3Cu2Ru
_chemical_formula_sum   'Lu3 Zn3 Cu2 Ru1'
_cell_volume   162.68335276
_cell_formula_units_Z   1
loop_
 _symmetry_equiv_pos_site_id
 _symmetry_equiv_pos_as_xyz
  1  'x, y, z'
loop_
 _atom_site_type_symbol
 _atom_site_label
 _atom_site_symmetry_multiplicity
 _atom_site_fract_x
 _atom_site_fract_y
 _atom_site_fract_z
 _atom_site_occupancy
  Lu  Lu0  1  0.416737  0.013032  0.000000  1
  Lu  Lu1  1  0.986968  0.403705  0.000000  1
  Lu  Lu2  1  0.596295  0.583263  0.000000  1
  Zn  Zn3  1  0.754685  0.997636  0.499999  1
  Zn  Zn4  1  0.242950  0.245314  0.499999  1
  Zn  Zn5  1  0.002364  0.757050  0.499999  1
  Cu  Cu6  1  0.000000  0.000000  0.000000  1
  Cu  Cu7  1  0.333333  0.666666  0.499999  1
  Ru  Ru8  1  0.666666  0.333333  0.499999  1
