# generated using pymatgen
data_Yb2Zn13Cu4
_symmetry_space_group_name_H-M   'P 1'
_cell_length_a   6.70750697
_cell_length_b   6.71112907
_cell_length_c   6.71112809
_cell_angle_alpha   83.17804156
_cell_angle_beta   83.05820901
_cell_angle_gamma   83.05820736
_symmetry_Int_Tables_number   1
_chemical_formula_structural   Yb2Zn13Cu4
_chemical_formula_sum   'Yb2 Zn13 Cu4'
_cell_volume   296.01985254
_cell_formula_units_Z   1
loop_
 _symmetry_equiv_pos_site_id
 _symmetry_equiv_pos_as_xyz
  1  'x, y, z'
loop_
 _atom_site_type_symbol
 _atom_site_label
 _atom_site_symmetry_multiplicity
 _atom_site_fract_x
 _atom_site_fract_y
 _atom_site_fract_z
 _atom_site_occupancy
  Yb  Yb0  1  0.658949  0.658297  0.658297  1
  Yb  Yb1  1  0.341119  0.345478  0.345478  1
  Zn  Zn2  1  0.652898  0.653346  0.153236  1
  Zn  Zn3  1  0.652899  0.153237  0.653345  1
  Zn  Zn4  1  0.898968  0.891455  0.891455  1
  Zn  Zn5  1  0.106705  0.106092  0.106092  1
  Zn  Zn6  1  0.700326  0.999105  0.298944  1
  Zn  Zn7  1  0.002246  0.305243  0.698129  1
  Zn  Zn8  1  0.296352  0.701558  0.995894  1
  Zn  Zn9  1  0.296354  0.995895  0.701560  1
  Zn  Zn10  1  0.002245  0.698128  0.305243  1
  Zn  Zn11  1  0.700325  0.298942  0.999105  1
  Zn  Zn12  1  0.345659  0.841545  0.350333  1
  Zn  Zn13  1  0.345658  0.350333  0.841545  1
  Zn  Zn14  1  0.847697  0.345905  0.345904  1
  Cu  Cu15  1  0.999696  0.501125  0.999583  1
  Cu  Cu16  1  0.497746  0.001028  0.001027  1
  Cu  Cu17  1  0.999695  0.999583  0.501126  1
  Cu  Cu18  1  0.154460  0.653701  0.653699  1
