# generated using pymatgen
data_Ir2RuSe8
_symmetry_space_group_name_H-M   'P 1'
_cell_length_a   6.05301456
_cell_length_b   6.03079907
_cell_length_c   6.02514374
_cell_angle_alpha   89.92542003
_cell_angle_beta   89.94044612
_cell_angle_gamma   89.88781041
_symmetry_Int_Tables_number   1
_chemical_formula_structural   Ir2RuSe8
_chemical_formula_sum   'Ir2 Ru1 Se8'
_cell_volume   219.94422129
_cell_formula_units_Z   1
loop_
 _symmetry_equiv_pos_site_id
 _symmetry_equiv_pos_as_xyz
  1  'x, y, z'
loop_
 _atom_site_type_symbol
 _atom_site_label
 _atom_site_symmetry_multiplicity
 _atom_site_fract_x
 _atom_site_fract_y
 _atom_site_fract_z
 _atom_site_occupancy
  Ir  Ir0  1  0.500000  0.500000  0.000000  1
  Ir  Ir1  1  0.500001  0.000000  0.500000  1
  Ru  Ru2  1  0.000000  0.500001  0.500000  1
  Se  Se3  1  0.381161  0.882322  0.116919  1
  Se  Se4  1  0.884899  0.617397  0.119382  1
  Se  Se5  1  0.374114  0.379799  0.379711  1
  Se  Se6  1  0.882893  0.119570  0.384496  1
  Se  Se7  1  0.117107  0.880430  0.615504  1
  Se  Se8  1  0.625886  0.620201  0.620289  1
  Se  Se9  1  0.115101  0.382603  0.880618  1
  Se  Se10  1  0.618839  0.117678  0.883081  1
