# generated using pymatgen
data_Tb3SmMo4F28
_symmetry_space_group_name_H-M   'P 1'
_cell_length_a   5.75160525
_cell_length_b   9.11149890
_cell_length_c   12.23102700
_cell_angle_alpha   62.26181718
_cell_angle_beta   89.98314480
_cell_angle_gamma   90.01347236
_symmetry_Int_Tables_number   1
_chemical_formula_structural   Tb3SmMo4F28
_chemical_formula_sum   'Tb3 Sm1 Mo4 F28'
_cell_volume   567.31737513
_cell_formula_units_Z   1
loop_
 _symmetry_equiv_pos_site_id
 _symmetry_equiv_pos_as_xyz
  1  'x, y, z'
loop_
 _atom_site_type_symbol
 _atom_site_label
 _atom_site_symmetry_multiplicity
 _atom_site_fract_x
 _atom_site_fract_y
 _atom_site_fract_z
 _atom_site_occupancy
  Tb  Tb0  1  0.747892  0.814248  0.268108  1
  Tb  Tb1  1  0.247952  0.186594  0.231982  1
  Tb  Tb2  1  0.252784  0.188926  0.731555  1
  Sm  Sm3  1  0.752494  0.813982  0.767911  1
  Mo  Mo4  1  0.744474  0.274783  0.453793  1
  Mo  Mo5  1  0.245177  0.726454  0.047339  1
  Mo  Mo6  1  0.254452  0.726518  0.543132  1
  Mo  Mo7  1  0.754915  0.271195  0.955803  1
  F  F8  1  0.466164  0.707758  0.923726  1
  F  F9  1  0.968836  0.291966  0.576640  1
  F  F10  1  0.530591  0.290577  0.077405  1
  F  F11  1  0.031063  0.707487  0.421826  1
  F  F12  1  0.463066  0.282712  0.547010  1
  F  F13  1  0.965391  0.716140  0.955097  1
  F  F14  1  0.538782  0.718176  0.451303  1
  F  F15  1  0.036979  0.280732  0.048543  1
  F  F16  1  0.769623  0.515604  0.859686  1
  F  F17  1  0.267418  0.481230  0.639752  1
  F  F18  1  0.231693  0.481198  0.142227  1
  F  F19  1  0.731428  0.519503  0.358199  1
  F  F20  1  0.760345  0.027409  0.052887  1
  F  F21  1  0.261306  0.970690  0.446861  1
  F  F22  1  0.238063  0.969856  0.948638  1
  F  F23  1  0.737752  0.030874  0.550663  1
  F  F24  1  0.982606  0.733643  0.640941  1
  F  F25  1  0.483313  0.265257  0.857188  1
  F  F26  1  0.014219  0.265268  0.355686  1
  F  F27  1  0.514925  0.735323  0.144998  1
  F  F28  1  0.029102  0.746770  0.173007  1
  F  F29  1  0.526856  0.254498  0.328845  1
  F  F30  1  0.972199  0.251984  0.830529  1
  F  F31  1  0.468210  0.745085  0.668698  1
  F  F32  1  0.432041  0.973352  0.235226  1
  F  F33  1  0.932264  0.027142  0.265048  1
  F  F34  1  0.569413  0.033032  0.765116  1
  F  F35  1  0.076215  0.974032  0.734628  1
