# generated using pymatgen
data_TbCu4
_symmetry_space_group_name_H-M   'P 1'
_cell_length_a   5.01468709
_cell_length_b   5.01468637
_cell_length_c   10.57487946
_cell_angle_alpha   94.82213202
_cell_angle_beta   94.82213484
_cell_angle_gamma   119.55963013
_symmetry_Int_Tables_number   1
_chemical_formula_structural   TbCu4
_chemical_formula_sum   'Tb3 Cu12'
_cell_volume   228.06602034
_cell_formula_units_Z   3
loop_
 _symmetry_equiv_pos_site_id
 _symmetry_equiv_pos_as_xyz
  1  'x, y, z'
loop_
 _atom_site_type_symbol
 _atom_site_label
 _atom_site_symmetry_multiplicity
 _atom_site_fract_x
 _atom_site_fract_y
 _atom_site_fract_z
 _atom_site_occupancy
  Tb  Tb0  1  0.000000  0.000000  0.000000  1
  Tb  Tb1  1  0.133111  0.133111  0.357875  1
  Tb  Tb2  1  0.866889  0.866889  0.642125  1
  Cu  Cu3  1  0.663794  0.336207  0.000000  1
  Cu  Cu4  1  0.336207  0.663794  0.000000  1
  Cu  Cu5  1  0.568366  0.066821  0.196147  1
  Cu  Cu6  1  0.066821  0.568366  0.196147  1
  Cu  Cu7  1  0.569586  0.569586  0.201503  1
  Cu  Cu8  1  0.807457  0.471221  0.405591  1
  Cu  Cu9  1  0.471221  0.807457  0.405591  1
  Cu  Cu10  1  0.528781  0.192544  0.594409  1
  Cu  Cu11  1  0.192544  0.528781  0.594409  1
  Cu  Cu12  1  0.430413  0.430413  0.798497  1
  Cu  Cu13  1  0.933178  0.431633  0.803854  1
  Cu  Cu14  1  0.431633  0.933178  0.803854  1
