# generated using pymatgen
data_DyScFeB6
_symmetry_space_group_name_H-M   'P 1'
_cell_length_a   3.44007300
_cell_length_b   8.91862800
_cell_length_c   11.28837600
_cell_angle_alpha   90.00000000
_cell_angle_beta   90.00000000
_cell_angle_gamma   90.00000000
_symmetry_Int_Tables_number   1
_chemical_formula_structural   DyScFeB6
_chemical_formula_sum   'Dy4 Sc4 Fe4 B24'
_cell_volume   346.33563177
_cell_formula_units_Z   4
loop_
 _symmetry_equiv_pos_site_id
 _symmetry_equiv_pos_as_xyz
  1  'x, y, z'
loop_
 _atom_site_type_symbol
 _atom_site_label
 _atom_site_symmetry_multiplicity
 _atom_site_fract_x
 _atom_site_fract_y
 _atom_site_fract_z
 _atom_site_occupancy
  Dy  Dy0  1  0.000000  0.822152  0.085330  1
  Dy  Dy1  1  0.000000  0.177848  0.914670  1
  Dy  Dy2  1  0.000000  0.322152  0.414670  1
  Dy  Dy3  1  0.000000  0.677848  0.585330  1
  Sc  Sc4  1  0.000000  0.444338  0.128604  1
  Sc  Sc5  1  0.000000  0.555662  0.871396  1
  Sc  Sc6  1  0.000000  0.944338  0.371396  1
  Sc  Sc7  1  0.000000  0.055662  0.628604  1
  Fe  Fe8  1  0.000000  0.141101  0.181920  1
  Fe  Fe9  1  0.000000  0.858899  0.818080  1
  Fe  Fe10  1  0.000000  0.641101  0.318080  1
  Fe  Fe11  1  0.000000  0.358899  0.681920  1
  B  B12  1  0.500000  0.056072  0.069081  1
  B  B13  1  0.500000  0.943928  0.930919  1
  B  B14  1  0.500000  0.556072  0.430919  1
  B  B15  1  0.500000  0.443928  0.569081  1
  B  B16  1  0.500000  0.251556  0.083066  1
  B  B17  1  0.500000  0.748444  0.916934  1
  B  B18  1  0.500000  0.751556  0.416934  1
  B  B19  1  0.500000  0.248444  0.583066  1
  B  B20  1  0.500000  0.292260  0.234500  1
  B  B21  1  0.500000  0.707740  0.765500  1
  B  B22  1  0.500000  0.792260  0.265500  1
  B  B23  1  0.500000  0.207740  0.734500  1
  B  B24  1  0.500000  0.129711  0.316348  1
  B  B25  1  0.500000  0.870289  0.683652  1
  B  B26  1  0.500000  0.629711  0.183652  1
  B  B27  1  0.500000  0.370289  0.816348  1
  B  B28  1  0.500000  0.484765  0.286154  1
  B  B29  1  0.500000  0.515235  0.713846  1
  B  B30  1  0.500000  0.984765  0.213846  1
  B  B31  1  0.500000  0.015235  0.786154  1
  B  B32  1  0.500000  0.099837  0.473303  1
  B  B33  1  0.500000  0.900163  0.526697  1
  B  B34  1  0.500000  0.599837  0.026697  1
  B  B35  1  0.500000  0.400163  0.973303  1
