# generated using pymatgen
data_Dy5TcWC7
_symmetry_space_group_name_H-M   'P 1'
_cell_length_a   8.38365236
_cell_length_b   8.38365357
_cell_length_c   3.43247600
_cell_angle_alpha   90.00000000
_cell_angle_beta   90.00000000
_cell_angle_gamma   122.68281835
_symmetry_Int_Tables_number   1
_chemical_formula_structural   Dy5TcWC7
_chemical_formula_sum   'Dy5 Tc1 W1 C7'
_cell_volume   203.05671742
_cell_formula_units_Z   1
loop_
 _symmetry_equiv_pos_site_id
 _symmetry_equiv_pos_as_xyz
  1  'x, y, z'
loop_
 _atom_site_type_symbol
 _atom_site_label
 _atom_site_symmetry_multiplicity
 _atom_site_fract_x
 _atom_site_fract_y
 _atom_site_fract_z
 _atom_site_occupancy
  Dy  Dy0  1  0.501478  0.498522  0.000000  1
  Dy  Dy1  1  0.072957  0.332305  0.500000  1
  Dy  Dy2  1  0.923800  0.664073  0.500000  1
  Dy  Dy3  1  0.667695  0.927043  0.500000  1
  Dy  Dy4  1  0.335927  0.076200  0.500000  1
  Tc  Tc5  1  0.712549  0.287451  0.000000  1
  W  W6  1  0.286404  0.713596  0.000000  1
  C  C7  1  0.626618  0.373382  0.500000  1
  C  C8  1  0.375089  0.624911  0.500000  1
  C  C9  1  0.999847  0.000153  0.000000  1
  C  C10  1  0.167764  0.168982  0.000000  1
  C  C11  1  0.831018  0.832236  0.000000  1
  C  C12  1  0.000073  0.501220  0.000000  1
  C  C13  1  0.498780  0.999927  0.000000  1
