# generated using pymatgen
data_Dy5Ho3Re2(B12Ir)2
_symmetry_space_group_name_H-M   'P 1'
_cell_length_a   3.66816800
_cell_length_b   9.15624623
_cell_length_c   11.54335100
_cell_angle_alpha   90.33558158
_cell_angle_beta   90.00000000
_cell_angle_gamma   90.00000000
_symmetry_Int_Tables_number   1
_chemical_formula_structural   Dy5Ho3Re2(B12Ir)2
_chemical_formula_sum   'Dy5 Ho3 Re2 B24 Ir2'
_cell_volume   387.69583308
_cell_formula_units_Z   1
loop_
 _symmetry_equiv_pos_site_id
 _symmetry_equiv_pos_as_xyz
  1  'x, y, z'
loop_
 _atom_site_type_symbol
 _atom_site_label
 _atom_site_symmetry_multiplicity
 _atom_site_fract_x
 _atom_site_fract_y
 _atom_site_fract_z
 _atom_site_occupancy
  Dy  Dy0  1  0.000000  0.317369  0.409932  1
  Dy  Dy1  1  0.000000  0.682702  0.590160  1
  Dy  Dy2  1  0.000000  0.826493  0.082281  1
  Dy  Dy3  1  0.000000  0.173512  0.917643  1
  Dy  Dy4  1  0.000000  0.946117  0.372253  1
  Ho  Ho5  1  0.000000  0.053868  0.627932  1
  Ho  Ho6  1  0.000000  0.441742  0.125852  1
  Ho  Ho7  1  0.000000  0.558265  0.874106  1
  Re  Re8  1  0.000000  0.138677  0.179655  1
  Re  Re9  1  0.000000  0.861581  0.820204  1
  B  B10  1  0.500000  0.554200  0.433786  1
  B  B11  1  0.500000  0.445721  0.566242  1
  B  B12  1  0.500000  0.053471  0.067298  1
  B  B13  1  0.500000  0.946556  0.932634  1
  B  B14  1  0.500000  0.749111  0.421052  1
  B  B15  1  0.500000  0.250636  0.579009  1
  B  B16  1  0.500000  0.247867  0.080831  1
  B  B17  1  0.500000  0.752156  0.919149  1
  B  B18  1  0.500000  0.790563  0.266035  1
  B  B19  1  0.500000  0.209198  0.733886  1
  B  B20  1  0.500000  0.292234  0.234116  1
  B  B21  1  0.500000  0.707854  0.765858  1
  B  B22  1  0.500000  0.631659  0.184057  1
  B  B23  1  0.500000  0.368307  0.815907  1
  B  B24  1  0.500000  0.131855  0.314465  1
  B  B25  1  0.500000  0.868363  0.685444  1
  B  B26  1  0.500000  0.983344  0.212834  1
  B  B27  1  0.500000  0.016809  0.786951  1
  B  B28  1  0.500000  0.482687  0.287202  1
  B  B29  1  0.500000  0.517273  0.712790  1
  B  B30  1  0.500000  0.606890  0.029924  1
  B  B31  1  0.500000  0.393106  0.970054  1
  B  B32  1  0.500000  0.107953  0.470933  1
  B  B33  1  0.500000  0.892225  0.529516  1
  Ir  Ir34  1  0.000000  0.636291  0.322035  1
  Ir  Ir35  1  0.000000  0.363345  0.677977  1
