# generated using pymatgen
data_LiDy9Y7Cd3Pt4
_symmetry_space_group_name_H-M   'P 1'
_cell_length_a   9.69513882
_cell_length_b   9.69513928
_cell_length_c   9.69613107
_cell_angle_alpha   59.95745334
_cell_angle_beta   59.95744904
_cell_angle_gamma   60.02205004
_symmetry_Int_Tables_number   1
_chemical_formula_structural   LiDy9Y7Cd3Pt4
_chemical_formula_sum   'Li1 Dy9 Y7 Cd3 Pt4'
_cell_volume   644.14580877
_cell_formula_units_Z   1
loop_
 _symmetry_equiv_pos_site_id
 _symmetry_equiv_pos_as_xyz
  1  'x, y, z'
loop_
 _atom_site_type_symbol
 _atom_site_label
 _atom_site_symmetry_multiplicity
 _atom_site_fract_x
 _atom_site_fract_y
 _atom_site_fract_z
 _atom_site_occupancy
  Li  Li0  1  0.572067  0.572067  0.571704  1
  Dy  Dy1  1  0.350729  0.350729  0.350844  1
  Dy  Dy2  1  0.352531  0.352531  0.943772  1
  Dy  Dy3  1  0.352537  0.944025  0.352465  1
  Dy  Dy4  1  0.944025  0.352537  0.352465  1
  Dy  Dy5  1  0.809760  0.192053  0.192033  1
  Dy  Dy6  1  0.188114  0.812509  0.812687  1
  Dy  Dy7  1  0.192053  0.809760  0.192033  1
  Dy  Dy8  1  0.812509  0.188114  0.812687  1
  Dy  Dy9  1  0.192025  0.192025  0.809867  1
  Y  Y10  1  0.812314  0.812314  0.188124  1
  Y  Y11  1  0.936582  0.564600  0.565033  1
  Y  Y12  1  0.562990  0.936523  0.936382  1
  Y  Y13  1  0.564600  0.936582  0.565033  1
  Y  Y14  1  0.936523  0.562990  0.936382  1
  Y  Y15  1  0.564556  0.564556  0.936902  1
  Y  Y16  1  0.936501  0.936501  0.563140  1
  Cd  Cd17  1  0.582210  0.582210  0.254027  1
  Cd  Cd18  1  0.582071  0.254096  0.582058  1
  Cd  Cd19  1  0.254096  0.582071  0.582058  1
  Pt  Pt20  1  0.144228  0.144228  0.144361  1
  Pt  Pt21  1  0.142643  0.142643  0.571062  1
  Pt  Pt22  1  0.143845  0.570495  0.142441  1
  Pt  Pt23  1  0.570495  0.143845  0.142441  1
