# generated using pymatgen
data_Li4Tb4Sn3Bi
_symmetry_space_group_name_H-M   'P 1'
_cell_length_a   9.45616249
_cell_length_b   9.45354640
_cell_length_c   7.32589167
_cell_angle_alpha   90.09672312
_cell_angle_beta   89.80660699
_cell_angle_gamma   120.00915461
_symmetry_Int_Tables_number   1
_chemical_formula_structural   Li4Tb4Sn3Bi
_chemical_formula_sum   'Li8 Tb8 Sn6 Bi2'
_cell_volume   567.09819663
_cell_formula_units_Z   2
loop_
 _symmetry_equiv_pos_site_id
 _symmetry_equiv_pos_as_xyz
  1  'x, y, z'
loop_
 _atom_site_type_symbol
 _atom_site_label
 _atom_site_symmetry_multiplicity
 _atom_site_fract_x
 _atom_site_fract_y
 _atom_site_fract_z
 _atom_site_occupancy
  Li  Li0  1  0.164444  0.828819  0.196048  1
  Li  Li1  1  0.335623  0.171181  0.696048  1
  Li  Li2  1  0.829506  0.663635  0.692367  1
  Li  Li3  1  0.165872  0.336365  0.192367  1
  Li  Li4  1  0.665549  0.831901  0.196525  1
  Li  Li5  1  0.833647  0.168099  0.696525  1
  Li  Li6  1  0.334451  0.664206  0.814280  1
  Li  Li7  1  0.670245  0.335794  0.314280  1
  Tb  Tb8  1  0.515276  0.492296  0.989276  1
  Tb  Tb9  1  0.022980  0.507704  0.489276  1
  Tb  Tb10  1  0.495375  0.975634  0.491366  1
  Tb  Tb11  1  0.519741  0.024366  0.991366  1
  Tb  Tb12  1  0.972040  0.482496  0.993114  1
  Tb  Tb13  1  0.489544  0.517504  0.493114  1
  Tb  Tb14  1  0.993055  0.000309  0.985505  1
  Tb  Tb15  1  0.992746  0.999691  0.485505  1
  Sn  Sn16  1  0.833427  0.667059  0.254789  1
  Sn  Sn17  1  0.166367  0.332941  0.754789  1
  Sn  Sn18  1  0.666988  0.833884  0.754743  1
  Sn  Sn19  1  0.833103  0.166116  0.254743  1
  Sn  Sn20  1  0.333601  0.667429  0.223719  1
  Sn  Sn21  1  0.666172  0.332571  0.723719  1
  Bi  Bi22  1  0.167149  0.834047  0.753271  1
  Bi  Bi23  1  0.333101  0.165953  0.253271  1
