# generated using pymatgen
data_Tb5Nd3Cd2TcNi
_symmetry_space_group_name_H-M   'P 1'
_cell_length_a   9.73291629
_cell_length_b   9.73291588
_cell_length_c   9.87414000
_cell_angle_alpha   59.51883580
_cell_angle_beta   59.51883723
_cell_angle_gamma   59.28531220
_symmetry_Int_Tables_number   1
_chemical_formula_structural   Tb5Nd3Cd2TcNi
_chemical_formula_sum   'Tb10 Nd6 Cd4 Tc2 Ni2'
_cell_volume   652.99019085
_cell_formula_units_Z   2
loop_
 _symmetry_equiv_pos_site_id
 _symmetry_equiv_pos_as_xyz
  1  'x, y, z'
loop_
 _atom_site_type_symbol
 _atom_site_label
 _atom_site_symmetry_multiplicity
 _atom_site_fract_x
 _atom_site_fract_y
 _atom_site_fract_z
 _atom_site_occupancy
  Tb  Tb0  1  0.599074  0.599074  0.592082  1
  Tb  Tb1  1  0.599074  0.599074  0.209769  1
  Tb  Tb2  1  0.599077  0.212994  0.593965  1
  Tb  Tb3  1  0.212994  0.599077  0.593965  1
  Tb  Tb4  1  0.062190  0.435550  0.438779  1
  Tb  Tb5  1  0.435550  0.062190  0.063481  1
  Tb  Tb6  1  0.435550  0.062190  0.438779  1
  Tb  Tb7  1  0.062190  0.435550  0.063481  1
  Tb  Tb8  1  0.437550  0.437550  0.062450  1
  Tb  Tb9  1  0.059827  0.059827  0.440173  1
  Nd  Nd10  1  0.189829  0.803437  0.814322  1
  Nd  Nd11  1  0.803437  0.189829  0.192411  1
  Nd  Nd12  1  0.803437  0.189829  0.814322  1
  Nd  Nd13  1  0.189829  0.803437  0.192411  1
  Nd  Nd14  1  0.812662  0.812662  0.187338  1
  Nd  Nd15  1  0.194377  0.194377  0.805623  1
  Cd  Cd16  1  0.828403  0.828403  0.830554  1
  Cd  Cd17  1  0.828403  0.828403  0.512640  1
  Cd  Cd18  1  0.828414  0.510850  0.830368  1
  Cd  Cd19  1  0.510850  0.828414  0.830368  1
  Tc  Tc20  1  0.392083  0.392083  0.386301  1
  Tc  Tc21  1  0.392083  0.392083  0.829532  1
  Ni  Ni22  1  0.394164  0.828952  0.388442  1
  Ni  Ni23  1  0.828952  0.394164  0.388442  1
