# generated using pymatgen
data_NbInOF4
_symmetry_space_group_name_H-M   'P 1'
_cell_length_a   8.25401300
_cell_length_b   8.25401300
_cell_length_c   4.01882700
_cell_angle_alpha   90.00000000
_cell_angle_beta   90.00000000
_cell_angle_gamma   90.00000000
_symmetry_Int_Tables_number   1
_chemical_formula_structural   NbInOF4
_chemical_formula_sum   'Nb2 In2 O2 F8'
_cell_volume   273.79758203
_cell_formula_units_Z   2
loop_
 _symmetry_equiv_pos_site_id
 _symmetry_equiv_pos_as_xyz
  1  'x, y, z'
loop_
 _atom_site_type_symbol
 _atom_site_label
 _atom_site_symmetry_multiplicity
 _atom_site_fract_x
 _atom_site_fract_y
 _atom_site_fract_z
 _atom_site_occupancy
  Nb  Nb0  1  0.000000  0.500000  0.957636  1
  Nb  Nb1  1  0.500000  0.000000  0.042364  1
  In  In2  1  0.000000  0.000000  0.500000  1
  In  In3  1  0.500000  0.500000  0.500000  1
  O  O4  1  0.000000  0.500000  0.509157  1
  O  O5  1  0.500000  0.000000  0.490843  1
  F  F6  1  0.762412  0.500000  0.017207  1
  F  F7  1  0.237588  0.500000  0.017207  1
  F  F8  1  0.000000  0.262412  0.017207  1
  F  F9  1  0.000000  0.737588  0.017207  1
  F  F10  1  0.737588  0.000000  0.982793  1
  F  F11  1  0.262412  0.000000  0.982793  1
  F  F12  1  0.500000  0.237588  0.982793  1
  F  F13  1  0.500000  0.762412  0.982793  1
