# generated using pymatgen
data_Ca2La6GePd24
_symmetry_space_group_name_H-M   'P 1'
_cell_length_a   8.52050407
_cell_length_b   8.52050407
_cell_length_c   8.52050407
_cell_angle_alpha   90.01018038
_cell_angle_beta   90.01018038
_cell_angle_gamma   90.01018038
_symmetry_Int_Tables_number   1
_chemical_formula_structural   Ca2La6GePd24
_chemical_formula_sum   'Ca2 La6 Ge1 Pd24'
_cell_volume   618.57995653
_cell_formula_units_Z   1
loop_
 _symmetry_equiv_pos_site_id
 _symmetry_equiv_pos_as_xyz
  1  'x, y, z'
loop_
 _atom_site_type_symbol
 _atom_site_label
 _atom_site_symmetry_multiplicity
 _atom_site_fract_x
 _atom_site_fract_y
 _atom_site_fract_z
 _atom_site_occupancy
  Ca  Ca0  1  0.251769  0.251769  0.251769  1
  Ca  Ca1  1  0.748231  0.748231  0.748231  1
  La  La2  1  0.747132  0.747132  0.252830  1
  La  La3  1  0.747132  0.252830  0.747132  1
  La  La4  1  0.252868  0.252868  0.747170  1
  La  La5  1  0.252868  0.747170  0.252868  1
  La  La6  1  0.252830  0.747132  0.747132  1
  La  La7  1  0.747170  0.252868  0.252868  1
  Ge  Ge8  1  0.000000  0.000000  0.000000  1
  Pd  Pd9  1  0.261566  0.499258  0.000877  1
  Pd  Pd10  1  0.738434  0.500742  0.999123  1
  Pd  Pd11  1  0.000877  0.261566  0.499258  1
  Pd  Pd12  1  0.499258  0.261566  0.000877  1
  Pd  Pd13  1  0.999123  0.738434  0.500742  1
  Pd  Pd14  1  0.500742  0.738434  0.999123  1
  Pd  Pd15  1  0.499258  0.000877  0.261566  1
  Pd  Pd16  1  0.261566  0.000877  0.499258  1
  Pd  Pd17  1  0.500742  0.999123  0.738434  1
  Pd  Pd18  1  0.738434  0.999123  0.500742  1
  Pd  Pd19  1  0.000877  0.499258  0.261566  1
  Pd  Pd20  1  0.999123  0.500742  0.738434  1
  Pd  Pd21  1  0.253794  0.499109  0.499109  1
  Pd  Pd22  1  0.746206  0.500891  0.500891  1
  Pd  Pd23  1  0.499109  0.253794  0.499109  1
  Pd  Pd24  1  0.500891  0.746206  0.500891  1
  Pd  Pd25  1  0.499109  0.499109  0.253794  1
  Pd  Pd26  1  0.500891  0.500891  0.746206  1
  Pd  Pd27  1  0.294069  0.001064  0.001064  1
  Pd  Pd28  1  0.705931  0.998936  0.998936  1
  Pd  Pd29  1  0.001064  0.294069  0.001064  1
  Pd  Pd30  1  0.998936  0.705931  0.998936  1
  Pd  Pd31  1  0.001064  0.001064  0.294069  1
  Pd  Pd32  1  0.998936  0.998936  0.705931  1
