# generated using pymatgen
data_U2Fe2CoSi
_symmetry_space_group_name_H-M   'P 1'
_cell_length_a   5.06972866
_cell_length_b   5.20928690
_cell_length_c   7.46901100
_cell_angle_alpha   90.00000000
_cell_angle_beta   90.00000000
_cell_angle_gamma   120.91489876
_symmetry_Int_Tables_number   1
_chemical_formula_structural   U2Fe2CoSi
_chemical_formula_sum   'U4 Fe4 Co2 Si2'
_cell_volume   169.23049484
_cell_formula_units_Z   2
loop_
 _symmetry_equiv_pos_site_id
 _symmetry_equiv_pos_as_xyz
  1  'x, y, z'
loop_
 _atom_site_type_symbol
 _atom_site_label
 _atom_site_symmetry_multiplicity
 _atom_site_fract_x
 _atom_site_fract_y
 _atom_site_fract_z
 _atom_site_occupancy
  U  U0  1  0.317429  0.658715  0.434627  1
  U  U1  1  0.682571  0.341285  0.934627  1
  U  U2  1  0.682571  0.341285  0.565373  1
  U  U3  1  0.317429  0.658715  0.065373  1
  Fe  Fe4  1  0.173306  0.335178  0.750000  1
  Fe  Fe5  1  0.826694  0.161871  0.250000  1
  Fe  Fe6  1  0.826694  0.664822  0.250000  1
  Fe  Fe7  1  0.173306  0.838129  0.750000  1
  Co  Co8  1  0.668134  0.834067  0.750000  1
  Co  Co9  1  0.331866  0.165933  0.250000  1
  Si  Si10  1  0.000000  0.000000  0.500000  1
  Si  Si11  1  0.000000  0.000000  0.000000  1
