# generated using pymatgen
data_Nd6CdNi2Sn11
_symmetry_space_group_name_H-M   'P 1'
_cell_length_a   8.73504386
_cell_length_b   8.73504551
_cell_length_c   13.37882172
_cell_angle_alpha   89.81597655
_cell_angle_beta   90.18402358
_cell_angle_gamma   149.32691768
_symmetry_Int_Tables_number   1
_chemical_formula_structural   Nd6CdNi2Sn11
_chemical_formula_sum   'Nd6 Cd1 Ni2 Sn11'
_cell_volume   520.75585639
_cell_formula_units_Z   1
loop_
 _symmetry_equiv_pos_site_id
 _symmetry_equiv_pos_as_xyz
  1  'x, y, z'
loop_
 _atom_site_type_symbol
 _atom_site_label
 _atom_site_symmetry_multiplicity
 _atom_site_fract_x
 _atom_site_fract_y
 _atom_site_fract_z
 _atom_site_occupancy
  Nd  Nd0  1  0.898667  0.101333  0.090882  1
  Nd  Nd1  1  0.097972  0.902028  0.589563  1
  Nd  Nd2  1  0.897259  0.102741  0.753387  1
  Nd  Nd3  1  0.101672  0.898328  0.909081  1
  Nd  Nd4  1  0.103597  0.896403  0.249608  1
  Nd  Nd5  1  0.902181  0.097819  0.404656  1
  Cd  Cd6  1  0.753096  0.246904  0.570660  1
  Ni  Ni7  1  0.305260  0.694740  0.250574  1
  Ni  Ni8  1  0.695403  0.304597  0.755637  1
  Sn  Sn9  1  0.426229  0.573771  0.575218  1
  Sn  Sn10  1  0.565685  0.434315  0.423836  1
  Sn  Sn11  1  0.738775  0.261225  0.254402  1
  Sn  Sn12  1  0.260343  0.739657  0.741310  1
  Sn  Sn13  1  0.245878  0.754122  0.073464  1
  Sn  Sn14  1  0.250765  0.749235  0.431806  1
  Sn  Sn15  1  0.568870  0.431130  0.076238  1
  Sn  Sn16  1  0.456879  0.543121  0.248045  1
  Sn  Sn17  1  0.544079  0.455921  0.748822  1
  Sn  Sn18  1  0.754707  0.245293  0.929634  1
  Sn  Sn19  1  0.432680  0.567320  0.923178  1
