# generated using pymatgen
data_Ce(YCo)2
_symmetry_space_group_name_H-M   'P 1'
_cell_length_a   3.69535510
_cell_length_b   6.07435354
_cell_length_c   5.96740745
_cell_angle_alpha   120.59463076
_cell_angle_beta   108.03683248
_cell_angle_gamma   89.99999641
_symmetry_Int_Tables_number   1
_chemical_formula_structural   Ce(YCo)2
_chemical_formula_sum   'Ce1 Y2 Co2'
_cell_volume   107.58503035
_cell_formula_units_Z   1
loop_
 _symmetry_equiv_pos_site_id
 _symmetry_equiv_pos_as_xyz
  1  'x, y, z'
loop_
 _atom_site_type_symbol
 _atom_site_label
 _atom_site_symmetry_multiplicity
 _atom_site_fract_x
 _atom_site_fract_y
 _atom_site_fract_z
 _atom_site_occupancy
  Ce  Ce0  1  0.000000  0.000000  0.000000  1
  Y  Y1  1  0.809881  0.309881  0.619763  1
  Y  Y2  1  0.190119  0.690119  0.380237  1
  Co  Co3  1  0.500000  0.291784  0.000000  1
  Co  Co4  1  0.500000  0.708216  0.000000  1
