# generated using pymatgen
data_Tb7Dy(CuP)12
_symmetry_space_group_name_H-M   'P 1'
_cell_length_a   3.85630400
_cell_length_b   10.70098700
_cell_length_c   13.00624901
_cell_angle_alpha   90.00329132
_cell_angle_beta   90.00000000
_cell_angle_gamma   90.00000000
_symmetry_Int_Tables_number   1
_chemical_formula_structural   Tb7Dy(CuP)12
_chemical_formula_sum   'Tb7 Dy1 Cu12 P12'
_cell_volume   536.71923905
_cell_formula_units_Z   1
loop_
 _symmetry_equiv_pos_site_id
 _symmetry_equiv_pos_as_xyz
  1  'x, y, z'
loop_
 _atom_site_type_symbol
 _atom_site_label
 _atom_site_symmetry_multiplicity
 _atom_site_fract_x
 _atom_site_fract_y
 _atom_site_fract_z
 _atom_site_occupancy
  Tb  Tb0  1  0.250000  0.930229  0.792939  1
  Tb  Tb1  1  0.750000  0.430230  0.707045  1
  Tb  Tb2  1  0.250000  0.569768  0.292942  1
  Tb  Tb3  1  0.750000  0.069810  0.207074  1
  Tb  Tb4  1  0.250000  0.841215  0.502839  1
  Tb  Tb5  1  0.750000  0.341164  0.997164  1
  Tb  Tb6  1  0.250000  0.658830  0.002838  1
  Dy  Dy7  1  0.750000  0.158778  0.497146  1
  Cu  Cu8  1  0.250000  0.402637  0.513962  1
  Cu  Cu9  1  0.750000  0.902675  0.986030  1
  Cu  Cu10  1  0.250000  0.097327  0.013972  1
  Cu  Cu11  1  0.750000  0.597327  0.486030  1
  Cu  Cu12  1  0.250000  0.273007  0.332298  1
  Cu  Cu13  1  0.750000  0.773036  0.167749  1
  Cu  Cu14  1  0.250000  0.226958  0.832248  1
  Cu  Cu15  1  0.750000  0.726957  0.667746  1
  Cu  Cu16  1  0.250000  0.860624  0.279749  1
  Cu  Cu17  1  0.750000  0.360624  0.220252  1
  Cu  Cu18  1  0.250000  0.639376  0.779743  1
  Cu  Cu19  1  0.750000  0.139369  0.720172  1
  P  P20  1  0.250000  0.240517  0.643592  1
  P  P21  1  0.750000  0.740614  0.856201  1
  P  P22  1  0.250000  0.259390  0.143790  1
  P  P23  1  0.750000  0.759384  0.356209  1
  P  P24  1  0.250000  0.603890  0.600702  1
  P  P25  1  0.750000  0.103885  0.899304  1
  P  P26  1  0.250000  0.896115  0.100707  1
  P  P27  1  0.750000  0.395941  0.399372  1
  P  P28  1  0.250000  0.057391  0.368762  1
  P  P29  1  0.750000  0.557212  0.131496  1
  P  P30  1  0.250000  0.442792  0.868501  1
  P  P31  1  0.750000  0.942929  0.631426  1
