# generated using pymatgen
data_Cd3FeP7N12
_symmetry_space_group_name_H-M   'P 1'
_cell_length_a   7.30457045
_cell_length_b   7.34117538
_cell_length_c   7.34117640
_cell_angle_alpha   109.57200334
_cell_angle_beta   109.37024472
_cell_angle_gamma   109.37025041
_symmetry_Int_Tables_number   1
_chemical_formula_structural   Cd3FeP7N12
_chemical_formula_sum   'Cd3 Fe1 P7 N12'
_cell_volume   303.41967161
_cell_formula_units_Z   1
loop_
 _symmetry_equiv_pos_site_id
 _symmetry_equiv_pos_as_xyz
  1  'x, y, z'
loop_
 _atom_site_type_symbol
 _atom_site_label
 _atom_site_symmetry_multiplicity
 _atom_site_fract_x
 _atom_site_fract_y
 _atom_site_fract_z
 _atom_site_occupancy
  Cd  Cd0  1  0.002547  0.000000  0.688039  1
  Cd  Cd1  1  0.002547  0.688039  0.000000  1
  Cd  Cd2  1  0.314508  0.311961  0.311961  1
  Fe  Fe3  1  0.628611  0.000000  0.000000  1
  P  P4  1  0.255698  0.748569  0.500961  1
  P  P5  1  0.754737  0.247609  0.499039  1
  P  P6  1  0.754737  0.499039  0.247609  1
  P  P7  1  0.255698  0.500961  0.748569  1
  P  P8  1  0.507128  0.752391  0.251431  1
  P  P9  1  0.507128  0.251431  0.752391  1
  P  P10  1  0.945897  0.000000  0.000000  1
  N  N11  1  0.708544  0.273199  0.273199  1
  N  N12  1  0.291061  0.719705  0.286666  1
  N  N13  1  0.303811  0.576762  0.576762  1
  N  N14  1  0.571356  0.566962  0.280295  1
  N  N15  1  0.435345  0.726801  0.000000  1
  N  N16  1  0.004394  0.713334  0.433038  1
  N  N17  1  0.571356  0.280295  0.566962  1
  N  N18  1  0.727049  0.000000  0.423238  1
  N  N19  1  0.435345  0.000000  0.726801  1
  N  N20  1  0.727049  0.423238  0.000000  1
  N  N21  1  0.291061  0.286666  0.719705  1
  N  N22  1  0.004394  0.433038  0.713334  1
