# generated using pymatgen
data_LaNdBiO2
_symmetry_space_group_name_H-M   'P 1'
_cell_length_a   7.65721304
_cell_length_b   7.65721297
_cell_length_c   7.65721309
_cell_angle_alpha   149.21600096
_cell_angle_beta   149.21599626
_cell_angle_gamma   44.09346343
_symmetry_Int_Tables_number   1
_chemical_formula_structural   LaNdBiO2
_chemical_formula_sum   'La1 Nd1 Bi1 O2'
_cell_volume   117.26462034
_cell_formula_units_Z   1
loop_
 _symmetry_equiv_pos_site_id
 _symmetry_equiv_pos_as_xyz
  1  'x, y, z'
loop_
 _atom_site_type_symbol
 _atom_site_label
 _atom_site_symmetry_multiplicity
 _atom_site_fract_x
 _atom_site_fract_y
 _atom_site_fract_z
 _atom_site_occupancy
  La  La0  1  0.665640  0.665640  0.000000  1
  Nd  Nd1  1  0.334305  0.334305  0.000000  1
  Bi  Bi2  1  0.997561  0.997561  0.000000  1
  O  O3  1  0.751247  0.251247  0.500000  1
  O  O4  1  0.251247  0.751247  0.500000  1
