# generated using pymatgen
data_CePa3(CdPt2)2
_symmetry_space_group_name_H-M   'P 1'
_cell_length_a   7.86416892
_cell_length_b   7.86416925
_cell_length_c   3.66137300
_cell_angle_alpha   90.00000000
_cell_angle_beta   90.00000000
_cell_angle_gamma   89.02642156
_symmetry_Int_Tables_number   1
_chemical_formula_structural   CePa3(CdPt2)2
_chemical_formula_sum   'Ce1 Pa3 Cd2 Pt4'
_cell_volume   226.40549284
_cell_formula_units_Z   1
loop_
 _symmetry_equiv_pos_site_id
 _symmetry_equiv_pos_as_xyz
  1  'x, y, z'
loop_
 _atom_site_type_symbol
 _atom_site_label
 _atom_site_symmetry_multiplicity
 _atom_site_fract_x
 _atom_site_fract_y
 _atom_site_fract_z
 _atom_site_occupancy
  Ce  Ce0  1  0.672177  0.172177  0.500000  1
  Pa  Pa1  1  0.170489  0.330000  0.500000  1
  Pa  Pa2  1  0.330450  0.830450  0.500000  1
  Pa  Pa3  1  0.830000  0.670489  0.500000  1
  Cd  Cd4  1  0.499759  0.497897  0.000000  1
  Cd  Cd5  1  0.997897  0.999759  0.000000  1
  Pt  Pt6  1  0.628095  0.858517  0.000000  1
  Pt  Pt7  1  0.135881  0.635881  0.000000  1
  Pt  Pt8  1  0.876735  0.376735  0.000000  1
  Pt  Pt9  1  0.358517  0.128095  0.000000  1
