# generated using pymatgen
data_Pr18Y2Si15P
_symmetry_space_group_name_H-M   'P 1'
_cell_length_a   7.86260554
_cell_length_b   7.87072545
_cell_length_c   15.40302904
_cell_angle_alpha   89.94408154
_cell_angle_beta   89.91775921
_cell_angle_gamma   90.16732909
_symmetry_Int_Tables_number   1
_chemical_formula_structural   Pr18Y2Si15P
_chemical_formula_sum   'Pr18 Y2 Si15 P1'
_cell_volume   953.20185227
_cell_formula_units_Z   1
loop_
 _symmetry_equiv_pos_site_id
 _symmetry_equiv_pos_as_xyz
  1  'x, y, z'
loop_
 _atom_site_type_symbol
 _atom_site_label
 _atom_site_symmetry_multiplicity
 _atom_site_fract_x
 _atom_site_fract_y
 _atom_site_fract_z
 _atom_site_occupancy
  Pr  Pr0  1  0.805524  0.193206  0.751446  1
  Pr  Pr1  1  0.691468  0.690780  0.498741  1
  Pr  Pr2  1  0.381809  0.008483  0.442196  1
  Pr  Pr3  1  0.487125  0.881668  0.696287  1
  Pr  Pr4  1  0.513423  0.121266  0.194552  1
  Pr  Pr5  1  0.879562  0.484893  0.303046  1
  Pr  Pr6  1  0.122206  0.509892  0.804666  1
  Pr  Pr7  1  0.620498  0.986338  0.945810  1
  Pr  Pr8  1  0.009924  0.378556  0.555169  1
  Pr  Pr9  1  0.987285  0.620165  0.054624  1
  Pr  Pr10  1  0.126734  0.980803  0.877536  1
  Pr  Pr11  1  0.523120  0.626347  0.126241  1
  Pr  Pr12  1  0.473272  0.369943  0.629119  1
  Pr  Pr13  1  0.627482  0.522496  0.873061  1
  Pr  Pr14  1  0.373364  0.475942  0.372234  1
  Pr  Pr15  1  0.875269  0.021947  0.377116  1
  Pr  Pr16  1  0.977483  0.125456  0.122732  1
  Pr  Pr17  1  0.025779  0.881323  0.623120  1
  Y  Y18  1  0.310652  0.311445  0.000184  1
  Y  Y19  1  0.190080  0.809447  0.249187  1
  Si  Si20  1  0.328372  0.690664  0.956740  1
  Si  Si21  1  0.669116  0.306780  0.456240  1
  Si  Si22  1  0.690880  0.328393  0.043480  1
  Si  Si23  1  0.305626  0.667828  0.544491  1
  Si  Si24  1  0.810813  0.827635  0.206981  1
  Si  Si25  1  0.171793  0.189424  0.291284  1
  Si  Si26  1  0.832819  0.807380  0.793814  1
  Si  Si27  1  0.286113  0.920775  0.062615  1
  Si  Si28  1  0.575679  0.786750  0.308689  1
  Si  Si29  1  0.420000  0.214198  0.816039  1
  Si  Si30  1  0.787654  0.581519  0.688319  1
  Si  Si31  1  0.213600  0.422089  0.186756  1
  Si  Si32  1  0.710068  0.078400  0.561081  1
  Si  Si33  1  0.926270  0.289345  0.940931  1
  Si  Si34  1  0.082235  0.713598  0.436390  1
  P  P35  1  0.186902  0.174824  0.709080  1
