# generated using pymatgen
data_Pr(CoO2)8
_symmetry_space_group_name_H-M   'P 1'
_cell_length_a   5.68574455
_cell_length_b   6.61947211
_cell_length_c   6.92046995
_cell_angle_alpha   92.39561370
_cell_angle_beta   78.18906456
_cell_angle_gamma   77.54607311
_symmetry_Int_Tables_number   1
_chemical_formula_structural   Pr(CoO2)8
_chemical_formula_sum   'Pr1 Co8 O16'
_cell_volume   247.94132866
_cell_formula_units_Z   1
loop_
 _symmetry_equiv_pos_site_id
 _symmetry_equiv_pos_as_xyz
  1  'x, y, z'
loop_
 _atom_site_type_symbol
 _atom_site_label
 _atom_site_symmetry_multiplicity
 _atom_site_fract_x
 _atom_site_fract_y
 _atom_site_fract_z
 _atom_site_occupancy
  Pr  Pr0  1  0.012670  0.996192  0.002160  1
  Co  Co1  1  0.582855  0.507610  0.180015  1
  Co  Co2  1  0.083751  0.501353  0.180622  1
  Co  Co3  1  0.168412  0.818234  0.524447  1
  Co  Co4  1  0.666456  0.815932  0.536428  1
  Co  Co5  1  0.340883  0.184457  0.465720  1
  Co  Co6  1  0.838985  0.184071  0.475298  1
  Co  Co7  1  0.424752  0.492268  0.818968  1
  Co  Co8  1  0.925651  0.497809  0.818112  1
  O  O9  1  0.828564  0.654974  0.069414  1
  O  O10  1  0.317888  0.655848  0.067723  1
  O  O11  1  0.981840  0.673316  0.407576  1
  O  O12  1  0.485237  0.677029  0.405553  1
  O  O13  1  0.850934  0.977653  0.659952  1
  O  O14  1  0.339824  0.980425  0.654472  1
  O  O15  1  0.355138  0.348307  0.256443  1
  O  O16  1  0.855233  0.333751  0.250324  1
  O  O17  1  0.151703  0.667444  0.750412  1
  O  O18  1  0.654713  0.650963  0.737026  1
  O  O19  1  0.155633  0.023971  0.338794  1
  O  O20  1  0.668503  0.017949  0.348614  1
  O  O21  1  0.025808  0.326598  0.593029  1
  O  O22  1  0.522565  0.322526  0.594387  1
  O  O23  1  0.179592  0.345043  0.931691  1
  O  O24  1  0.689508  0.346278  0.932819  1
