# generated using pymatgen
data_Tb3ThS6
_symmetry_space_group_name_H-M   'P 1'
_cell_length_a   3.93306400
_cell_length_b   10.50580347
_cell_length_c   10.73164105
_cell_angle_alpha   89.68446678
_cell_angle_beta   90.00000000
_cell_angle_gamma   90.00000000
_symmetry_Int_Tables_number   1
_chemical_formula_structural   Tb3ThS6
_chemical_formula_sum   'Tb6 Th2 S12'
_cell_volume   443.42465632
_cell_formula_units_Z   2
loop_
 _symmetry_equiv_pos_site_id
 _symmetry_equiv_pos_as_xyz
  1  'x, y, z'
loop_
 _atom_site_type_symbol
 _atom_site_label
 _atom_site_symmetry_multiplicity
 _atom_site_fract_x
 _atom_site_fract_y
 _atom_site_fract_z
 _atom_site_occupancy
  Tb  Tb0  1  0.750000  0.490626  0.690624  1
  Tb  Tb1  1  0.250000  0.509374  0.309376  1
  Tb  Tb2  1  0.250000  0.190854  0.484690  1
  Tb  Tb3  1  0.750000  0.809146  0.515310  1
  Tb  Tb4  1  0.750000  0.682005  0.009298  1
  Tb  Tb5  1  0.250000  0.317995  0.990702  1
  Th  Th6  1  0.250000  0.004646  0.802879  1
  Th  Th7  1  0.750000  0.995354  0.197121  1
  S  S8  1  0.250000  0.294331  0.729420  1
  S  S9  1  0.750000  0.705669  0.270580  1
  S  S10  1  0.750000  0.804287  0.774988  1
  S  S11  1  0.250000  0.195713  0.225012  1
  S  S12  1  0.250000  0.944145  0.385942  1
  S  S13  1  0.750000  0.055855  0.614058  1
  S  S14  1  0.750000  0.446014  0.124361  1
  S  S15  1  0.250000  0.553986  0.875639  1
  S  S16  1  0.250000  0.869053  0.043799  1
  S  S17  1  0.750000  0.130947  0.956201  1
  S  S18  1  0.750000  0.375696  0.451457  1
  S  S19  1  0.250000  0.624304  0.548543  1
