# generated using pymatgen
data_Er6Al24Os7Pd
_symmetry_space_group_name_H-M   'P 1'
_cell_length_a   8.81697552
_cell_length_b   8.81697552
_cell_length_c   9.54510905
_cell_angle_alpha   89.64679893
_cell_angle_beta   90.35319961
_cell_angle_gamma   119.77092495
_symmetry_Int_Tables_number   1
_chemical_formula_structural   Er6Al24Os7Pd
_chemical_formula_sum   'Er6 Al24 Os7 Pd1'
_cell_volume   644.07676807
_cell_formula_units_Z   1
loop_
 _symmetry_equiv_pos_site_id
 _symmetry_equiv_pos_as_xyz
  1  'x, y, z'
loop_
 _atom_site_type_symbol
 _atom_site_label
 _atom_site_symmetry_multiplicity
 _atom_site_fract_x
 _atom_site_fract_y
 _atom_site_fract_z
 _atom_site_occupancy
  Er  Er0  1  0.189495  0.387408  0.251988  1
  Er  Er1  1  0.810505  0.612592  0.748012  1
  Er  Er2  1  0.612592  0.810505  0.251988  1
  Er  Er3  1  0.387408  0.189495  0.748012  1
  Er  Er4  1  0.194931  0.805069  0.251995  1
  Er  Er5  1  0.805069  0.194931  0.748005  1
  Al  Al6  1  0.331255  0.668745  0.020552  1
  Al  Al7  1  0.668745  0.331255  0.979448  1
  Al  Al8  1  0.666465  0.333535  0.516904  1
  Al  Al9  1  0.333535  0.666465  0.483096  1
  Al  Al10  1  0.163742  0.325558  0.577348  1
  Al  Al11  1  0.836258  0.674442  0.422652  1
  Al  Al12  1  0.674442  0.836258  0.577348  1
  Al  Al13  1  0.842705  0.676237  0.078705  1
  Al  Al14  1  0.325558  0.163742  0.422652  1
  Al  Al15  1  0.157295  0.323763  0.921295  1
  Al  Al16  1  0.163324  0.836676  0.575839  1
  Al  Al17  1  0.323763  0.157295  0.078705  1
  Al  Al18  1  0.836676  0.163324  0.424161  1
  Al  Al19  1  0.676237  0.842705  0.921295  1
  Al  Al20  1  0.836673  0.163327  0.075787  1
  Al  Al21  1  0.163327  0.836673  0.924213  1
  Al  Al22  1  0.560208  0.121991  0.249093  1
  Al  Al23  1  0.439792  0.878009  0.750907  1
  Al  Al24  1  0.878009  0.439792  0.249093  1
  Al  Al25  1  0.121991  0.560208  0.750907  1
  Al  Al26  1  0.560948  0.439052  0.251918  1
  Al  Al27  1  0.439052  0.560948  0.748082  1
  Al  Al28  1  0.999445  0.000555  0.250212  1
  Al  Al29  1  0.000555  0.999445  0.749788  1
  Os  Os30  1  0.500000  0.000000  0.000000  1
  Os  Os31  1  0.000000  0.500000  0.000000  1
  Os  Os32  1  0.500000  0.000000  0.500000  1
  Os  Os33  1  0.000000  0.500000  0.500000  1
  Os  Os34  1  0.500000  0.500000  0.500000  1
  Os  Os35  1  0.000000  0.000000  0.000000  1
  Os  Os36  1  0.000000  0.000000  0.500000  1
  Pd  Pd37  1  0.500000  0.500000  0.000000  1
