# generated using pymatgen
data_TaNb23(AlAs5)2
_symmetry_space_group_name_H-M   'P 1'
_cell_length_a   3.51902800
_cell_length_b   12.09735626
_cell_length_c   14.88708978
_cell_angle_alpha   89.63417479
_cell_angle_beta   90.00000000
_cell_angle_gamma   90.00000000
_symmetry_Int_Tables_number   1
_chemical_formula_structural   TaNb23(AlAs5)2
_chemical_formula_sum   'Ta1 Nb23 Al2 As10'
_cell_volume   633.74441952
_cell_formula_units_Z   1
loop_
 _symmetry_equiv_pos_site_id
 _symmetry_equiv_pos_as_xyz
  1  'x, y, z'
loop_
 _atom_site_type_symbol
 _atom_site_label
 _atom_site_symmetry_multiplicity
 _atom_site_fract_x
 _atom_site_fract_y
 _atom_site_fract_z
 _atom_site_occupancy
  Ta  Ta0  1  0.500000  0.027519  0.390297  1
  Nb  Nb1  1  0.000000  0.184513  0.294217  1
  Nb  Nb2  1  0.000000  0.527334  0.109391  1
  Nb  Nb3  1  0.500000  0.912215  0.077996  1
  Nb  Nb4  1  0.000000  0.885418  0.928081  1
  Nb  Nb5  1  0.000000  0.860690  0.477588  1
  Nb  Nb6  1  0.500000  0.689140  0.204635  1
  Nb  Nb7  1  0.500000  0.387181  0.572722  1
  Nb  Nb8  1  0.000000  0.585749  0.576985  1
  Nb  Nb9  1  0.500000  0.612842  0.427207  1
  Nb  Nb10  1  0.000000  0.086336  0.758518  1
  Nb  Nb11  1  0.500000  0.642799  0.978278  1
  Nb  Nb12  1  0.000000  0.139144  0.521966  1
  Nb  Nb13  1  0.000000  0.414137  0.422949  1
  Nb  Nb14  1  0.500000  0.413964  0.258975  1
  Nb  Nb15  1  0.500000  0.585996  0.740945  1
  Nb  Nb16  1  0.500000  0.972728  0.609851  1
  Nb  Nb17  1  0.500000  0.357095  0.021734  1
  Nb  Nb18  1  0.000000  0.114335  0.072076  1
  Nb  Nb19  1  0.500000  0.087671  0.922092  1
  Nb  Nb20  1  0.000000  0.472619  0.890727  1
  Nb  Nb21  1  0.000000  0.815267  0.705868  1
  Nb  Nb22  1  0.500000  0.310818  0.795319  1
  Nb  Nb23  1  0.000000  0.914507  0.242132  1
  Al  Al24  1  0.500000  0.746020  0.584334  1
  Al  Al25  1  0.500000  0.254039  0.415433  1
  As  As26  1  0.000000  0.426435  0.703974  1
  As  As27  1  0.000000  0.246536  0.916381  1
  As  As28  1  0.000000  0.311304  0.151562  1
  As  As29  1  0.000000  0.573585  0.296028  1
  As  As30  1  0.500000  0.189388  0.649535  1
  As  As31  1  0.000000  0.753278  0.083578  1
  As  As32  1  0.500000  0.810620  0.350289  1
  As  As33  1  0.000000  0.688594  0.848380  1
  As  As34  1  0.500000  0.073712  0.202992  1
  As  As35  1  0.500000  0.926473  0.796964  1
