# generated using pymatgen
data_Hf4Sc2Sn5
_symmetry_space_group_name_H-M   'P 1'
_cell_length_a   10.99702772
_cell_length_b   10.99702746
_cell_length_c   10.99702668
_cell_angle_alpha   149.12087719
_cell_angle_beta   132.31563134
_cell_angle_gamma   57.89542752
_symmetry_Int_Tables_number   1
_chemical_formula_structural   Hf4Sc2Sn5
_chemical_formula_sum   'Hf8 Sc4 Sn10'
_cell_volume   500.93879424
_cell_formula_units_Z   2
loop_
 _symmetry_equiv_pos_site_id
 _symmetry_equiv_pos_as_xyz
  1  'x, y, z'
loop_
 _atom_site_type_symbol
 _atom_site_label
 _atom_site_symmetry_multiplicity
 _atom_site_fract_x
 _atom_site_fract_y
 _atom_site_fract_z
 _atom_site_occupancy
  Hf  Hf0  1  0.310395  0.560395  0.250000  1
  Hf  Hf1  1  0.689605  0.439605  0.750000  1
  Hf  Hf2  1  0.689605  0.939605  0.250000  1
  Hf  Hf3  1  0.310395  0.060395  0.750000  1
  Hf  Hf4  1  0.674741  0.435164  0.239578  1
  Hf  Hf5  1  0.325259  0.564836  0.760422  1
  Hf  Hf6  1  0.195586  0.935164  0.260422  1
  Hf  Hf7  1  0.804414  0.064836  0.739578  1
  Sc  Sc8  1  0.255434  0.143047  0.112386  1
  Sc  Sc9  1  0.744566  0.856953  0.887614  1
  Sc  Sc10  1  0.030661  0.643047  0.387614  1
  Sc  Sc11  1  0.969339  0.356953  0.612386  1
  Sn  Sn12  1  0.592287  0.289472  0.302815  1
  Sn  Sn13  1  0.407713  0.710528  0.697185  1
  Sn  Sn14  1  0.986657  0.789472  0.197185  1
  Sn  Sn15  1  0.013343  0.210528  0.802815  1
  Sn  Sn16  1  0.000000  0.250000  0.250000  1
  Sn  Sn17  1  0.000000  0.750000  0.750000  1
  Sn  Sn18  1  0.464625  0.067806  0.396818  1
  Sn  Sn19  1  0.535375  0.932194  0.603182  1
  Sn  Sn20  1  0.670989  0.567806  0.103182  1
  Sn  Sn21  1  0.329011  0.432194  0.896818  1
