# generated using pymatgen
data_Rb3TlSe3
_symmetry_space_group_name_H-M   'P 1'
_cell_length_a   8.57962800
_cell_length_b   9.83513340
_cell_length_c   13.57731002
_cell_angle_alpha   82.35553262
_cell_angle_beta   90.00000000
_cell_angle_gamma   90.00000000
_symmetry_Int_Tables_number   1
_chemical_formula_structural   Rb3TlSe3
_chemical_formula_sum   'Rb12 Tl4 Se12'
_cell_volume   1135.49556885
_cell_formula_units_Z   4
loop_
 _symmetry_equiv_pos_site_id
 _symmetry_equiv_pos_as_xyz
  1  'x, y, z'
loop_
 _atom_site_type_symbol
 _atom_site_label
 _atom_site_symmetry_multiplicity
 _atom_site_fract_x
 _atom_site_fract_y
 _atom_site_fract_z
 _atom_site_occupancy
  Rb  Rb0  1  0.276219  0.390246  0.076401  1
  Rb  Rb1  1  0.659884  0.923201  0.123554  1
  Rb  Rb2  1  0.773716  0.315706  0.211114  1
  Rb  Rb3  1  0.273716  0.684294  0.288886  1
  Rb  Rb4  1  0.159884  0.076799  0.376446  1
  Rb  Rb5  1  0.776219  0.609754  0.423599  1
  Rb  Rb6  1  0.223781  0.390246  0.576401  1
  Rb  Rb7  1  0.840116  0.923201  0.623554  1
  Rb  Rb8  1  0.726284  0.315706  0.711114  1
  Rb  Rb9  1  0.226284  0.684294  0.788886  1
  Rb  Rb10  1  0.340116  0.076799  0.876446  1
  Rb  Rb11  1  0.723781  0.609754  0.923599  1
  Tl  Tl12  1  0.079872  0.821807  0.050158  1
  Tl  Tl13  1  0.579872  0.178193  0.449842  1
  Tl  Tl14  1  0.420128  0.821807  0.550158  1
  Tl  Tl15  1  0.920128  0.178193  0.949842  1
  Se  Se16  1  0.370454  0.743472  0.021129  1
  Se  Se17  1  0.061303  0.073940  0.125860  1
  Se  Se18  1  0.914495  0.635574  0.163113  1
  Se  Se19  1  0.414495  0.364426  0.336887  1
  Se  Se20  1  0.561303  0.926060  0.374140  1
  Se  Se21  1  0.870454  0.256528  0.478871  1
  Se  Se22  1  0.129546  0.743472  0.521129  1
  Se  Se23  1  0.438697  0.073940  0.625860  1
  Se  Se24  1  0.585505  0.635574  0.663113  1
  Se  Se25  1  0.085505  0.364426  0.836887  1
  Se  Se26  1  0.938697  0.926060  0.874140  1
  Se  Se27  1  0.629546  0.256528  0.978871  1
