# generated using pymatgen
data_Tb2DyTa3(B2Ru5)2
_symmetry_space_group_name_H-M   'P 1'
_cell_length_a   9.61974007
_cell_length_b   9.61974049
_cell_length_c   3.12702100
_cell_angle_alpha   90.00000000
_cell_angle_beta   90.00000000
_cell_angle_gamma   90.47456046
_symmetry_Int_Tables_number   1
_chemical_formula_structural   Tb2DyTa3(B2Ru5)2
_chemical_formula_sum   'Tb2 Dy1 Ta3 B4 Ru10'
_cell_volume   289.36273100
_cell_formula_units_Z   1
loop_
 _symmetry_equiv_pos_site_id
 _symmetry_equiv_pos_as_xyz
  1  'x, y, z'
loop_
 _atom_site_type_symbol
 _atom_site_label
 _atom_site_symmetry_multiplicity
 _atom_site_fract_x
 _atom_site_fract_y
 _atom_site_fract_z
 _atom_site_occupancy
  Tb  Tb0  1  0.823916  0.674933  0.000000  1
  Tb  Tb1  1  0.174933  0.323916  0.000000  1
  Dy  Dy2  1  0.325743  0.825743  0.000000  1
  Ta  Ta3  1  0.675933  0.175933  0.000000  1
  Ta  Ta4  1  0.498102  0.502749  0.000000  1
  Ta  Ta5  1  0.002749  0.998102  0.000000  1
  B  B6  1  0.623444  0.881765  0.000000  1
  B  B7  1  0.381765  0.123444  0.000000  1
  B  B8  1  0.119066  0.619066  0.000000  1
  B  B9  1  0.875537  0.375537  0.000000  1
  Ru  Ru10  1  0.570677  0.722368  0.500000  1
  Ru  Ru11  1  0.441336  0.280319  0.500000  1
  Ru  Ru12  1  0.069675  0.780671  0.500000  1
  Ru  Ru13  1  0.915098  0.212988  0.500000  1
  Ru  Ru14  1  0.280671  0.569675  0.500000  1
  Ru  Ru15  1  0.712988  0.415098  0.500000  1
  Ru  Ru16  1  0.222368  0.070677  0.500000  1
  Ru  Ru17  1  0.780319  0.941336  0.500000  1
  Ru  Ru18  1  0.509966  0.009966  0.500000  1
  Ru  Ru19  1  0.995715  0.495715  0.500000  1
