# generated using pymatgen
data_Pr4CuPd(SeO3)8
_symmetry_space_group_name_H-M   'P 1'
_cell_length_a   7.13364147
_cell_length_b   8.39318163
_cell_length_c   10.96010055
_cell_angle_alpha   70.35954829
_cell_angle_beta   89.47591984
_cell_angle_gamma   89.98269555
_symmetry_Int_Tables_number   1
_chemical_formula_structural   Pr4CuPd(SeO3)8
_chemical_formula_sum   'Pr4 Cu1 Pd1 Se8 O24'
_cell_volume   618.01707449
_cell_formula_units_Z   1
loop_
 _symmetry_equiv_pos_site_id
 _symmetry_equiv_pos_as_xyz
  1  'x, y, z'
loop_
 _atom_site_type_symbol
 _atom_site_label
 _atom_site_symmetry_multiplicity
 _atom_site_fract_x
 _atom_site_fract_y
 _atom_site_fract_z
 _atom_site_occupancy
  Pr  Pr0  1  0.664960  0.761876  0.083368  1
  Pr  Pr1  1  0.166255  0.738750  0.915935  1
  Pr  Pr2  1  0.335040  0.238124  0.916632  1
  Pr  Pr3  1  0.833745  0.261250  0.084065  1
  Cu  Cu4  1  0.500000  0.500000  0.500000  1
  Pd  Pd5  1  0.000000  0.000000  0.500000  1
  Se  Se6  1  0.681203  0.630136  0.819079  1
  Se  Se7  1  0.177802  0.870573  0.180531  1
  Se  Se8  1  0.318797  0.369864  0.180921  1
  Se  Se9  1  0.822198  0.129427  0.819469  1
  Se  Se10  1  0.326562  0.128518  0.631408  1
  Se  Se11  1  0.823458  0.377549  0.365945  1
  Se  Se12  1  0.673438  0.871482  0.368592  1
  Se  Se13  1  0.176542  0.622451  0.634055  1
  O  O14  1  0.384289  0.323470  0.648318  1
  O  O15  1  0.883242  0.182908  0.346044  1
  O  O16  1  0.615711  0.676530  0.351682  1
  O  O17  1  0.116758  0.817092  0.653956  1
  O  O18  1  0.615406  0.424755  0.849388  1
  O  O19  1  0.113615  0.076876  0.147134  1
  O  O20  1  0.384594  0.575245  0.150612  1
  O  O21  1  0.886385  0.923124  0.852866  1
  O  O22  1  0.843016  0.588989  0.946389  1
  O  O23  1  0.343219  0.909818  0.053499  1
  O  O24  1  0.156984  0.411011  0.053611  1
  O  O25  1  0.656781  0.090182  0.946501  1
  O  O26  1  0.102535  0.180591  0.567765  1
  O  O27  1  0.602561  0.328516  0.435606  1
  O  O28  1  0.897465  0.819409  0.432235  1
  O  O29  1  0.397439  0.671484  0.564394  1
  O  O30  1  0.510692  0.720130  0.888909  1
  O  O31  1  0.009274  0.779351  0.111790  1
  O  O32  1  0.489308  0.279870  0.111091  1
  O  O33  1  0.990726  0.220649  0.888210  1
  O  O34  1  0.287193  0.031822  0.794862  1
  O  O35  1  0.782135  0.469921  0.203211  1
  O  O36  1  0.712807  0.968178  0.205138  1
  O  O37  1  0.217865  0.530079  0.796789  1
