# generated using pymatgen
data_Ho5Er11Tl6CoNi
_symmetry_space_group_name_H-M   'P 1'
_cell_length_a   10.32687164
_cell_length_b   10.32391210
_cell_length_c   7.03265411
_cell_angle_alpha   89.99919648
_cell_angle_beta   90.01223041
_cell_angle_gamma   119.97881428
_symmetry_Int_Tables_number   1
_chemical_formula_structural   Ho5Er11Tl6CoNi
_chemical_formula_sum   'Ho5 Er11 Tl6 Co1 Ni1'
_cell_volume   649.46481623
_cell_formula_units_Z   1
loop_
 _symmetry_equiv_pos_site_id
 _symmetry_equiv_pos_as_xyz
  1  'x, y, z'
loop_
 _atom_site_type_symbol
 _atom_site_label
 _atom_site_symmetry_multiplicity
 _atom_site_fract_x
 _atom_site_fract_y
 _atom_site_fract_z
 _atom_site_occupancy
  Ho  Ho0  1  0.535748  0.071153  0.796338  1
  Ho  Ho1  1  0.928804  0.464252  0.796232  1
  Ho  Ho2  1  0.535565  0.464492  0.796745  1
  Ho  Ho3  1  0.461425  0.923105  0.294887  1
  Ho  Ho4  1  0.076915  0.538628  0.294835  1
  Er  Er5  1  0.461218  0.538784  0.295233  1
  Er  Er6  1  0.822084  0.644952  0.493602  1
  Er  Er7  1  0.354814  0.177767  0.493441  1
  Er  Er8  1  0.822542  0.177340  0.493175  1
  Er  Er9  1  0.178621  0.356764  0.995767  1
  Er  Er10  1  0.643466  0.821480  0.995748  1
  Er  Er11  1  0.178491  0.821747  0.995004  1
  Er  Er12  1  0.666562  0.333530  0.182489  1
  Er  Er13  1  0.333515  0.666582  0.685876  1
  Er  Er14  1  0.999940  0.000164  0.774089  1
  Er  Er15  1  0.000172  0.000011  0.275262  1
  Tl  Tl16  1  0.838083  0.675328  0.040576  1
  Tl  Tl17  1  0.324741  0.162216  0.040530  1
  Tl  Tl18  1  0.837742  0.162362  0.040334  1
  Tl  Tl19  1  0.161933  0.324193  0.542749  1
  Tl  Tl20  1  0.675704  0.837858  0.542647  1
  Tl  Tl21  1  0.161737  0.837965  0.542759  1
  Co  Co22  1  0.333651  0.666597  0.064757  1
  Ni  Ni23  1  0.666526  0.332730  0.562832  1
