# generated using pymatgen
data_Tb7Ho12ErSn16
_symmetry_space_group_name_H-M   'P 1'
_cell_length_a   8.02682932
_cell_length_b   8.16966795
_cell_length_c   15.43928301
_cell_angle_alpha   90.00573391
_cell_angle_beta   90.04454518
_cell_angle_gamma   89.97849238
_symmetry_Int_Tables_number   1
_chemical_formula_structural   Tb7Ho12ErSn16
_chemical_formula_sum   'Tb7 Ho12 Er1 Sn16'
_cell_volume   1012.45422629
_cell_formula_units_Z   1
loop_
 _symmetry_equiv_pos_site_id
 _symmetry_equiv_pos_as_xyz
  1  'x, y, z'
loop_
 _atom_site_type_symbol
 _atom_site_label
 _atom_site_symmetry_multiplicity
 _atom_site_fract_x
 _atom_site_fract_y
 _atom_site_fract_z
 _atom_site_occupancy
  Tb  Tb0  1  0.020258  0.179989  0.597601  1
  Tb  Tb1  1  0.479692  0.679939  0.402565  1
  Tb  Tb2  1  0.979619  0.820238  0.097414  1
  Tb  Tb3  1  0.479496  0.679748  0.097369  1
  Tb  Tb4  1  0.979765  0.820163  0.402572  1
  Tb  Tb5  1  0.520180  0.320189  0.597329  1
  Tb  Tb6  1  0.020324  0.180028  0.902576  1
  Ho  Ho7  1  0.367344  0.836098  0.877873  1
  Ho  Ho8  1  0.867165  0.663835  0.622243  1
  Ho  Ho9  1  0.632673  0.163880  0.377839  1
  Ho  Ho10  1  0.132511  0.336054  0.122061  1
  Ho  Ho11  1  0.632416  0.163993  0.122021  1
  Ho  Ho12  1  0.132853  0.336027  0.377834  1
  Ho  Ho13  1  0.367258  0.836174  0.622283  1
  Ho  Ho14  1  0.867365  0.663797  0.877910  1
  Ho  Ho15  1  0.520829  0.320247  0.902377  1
  Ho  Ho16  1  0.198284  0.503035  0.750189  1
  Ho  Ho17  1  0.698068  0.996914  0.750143  1
  Ho  Ho18  1  0.801843  0.496805  0.249950  1
  Er  Er19  1  0.301790  0.003154  0.249884  1
  Sn  Sn20  1  0.293671  0.036270  0.041848  1
  Sn  Sn21  1  0.793765  0.463684  0.458240  1
  Sn  Sn22  1  0.706260  0.963677  0.541793  1
  Sn  Sn23  1  0.207503  0.535360  0.957963  1
  Sn  Sn24  1  0.705978  0.964288  0.958114  1
  Sn  Sn25  1  0.206163  0.536434  0.541780  1
  Sn  Sn26  1  0.293776  0.036262  0.458163  1
  Sn  Sn27  1  0.792947  0.463313  0.041405  1
  Sn  Sn28  1  0.564848  0.619616  0.750050  1
  Sn  Sn29  1  0.064933  0.880050  0.750052  1
  Sn  Sn30  1  0.434990  0.379965  0.249930  1
  Sn  Sn31  1  0.935283  0.119948  0.249979  1
  Sn  Sn32  1  0.329363  0.146979  0.750470  1
  Sn  Sn33  1  0.828401  0.353486  0.750200  1
  Sn  Sn34  1  0.671138  0.853590  0.249972  1
  Sn  Sn35  1  0.171248  0.646771  0.250008  1
