# generated using pymatgen
data_CaAl5Cu6
_symmetry_space_group_name_H-M   'P 1'
_cell_length_a   10.36111210
_cell_length_b   8.23321105
_cell_length_c   7.81743087
_cell_angle_alpha   80.36253569
_cell_angle_beta   51.57424326
_cell_angle_gamma   48.05952872
_symmetry_Int_Tables_number   1
_chemical_formula_structural   CaAl5Cu6
_chemical_formula_sum   'Ca2 Al10 Cu12'
_cell_volume   351.66746533
_cell_formula_units_Z   2
loop_
 _symmetry_equiv_pos_site_id
 _symmetry_equiv_pos_as_xyz
  1  'x, y, z'
loop_
 _atom_site_type_symbol
 _atom_site_label
 _atom_site_symmetry_multiplicity
 _atom_site_fract_x
 _atom_site_fract_y
 _atom_site_fract_z
 _atom_site_occupancy
  Ca  Ca0  1  0.000001  0.999997  0.000005  1
  Ca  Ca1  1  0.249999  0.250003  0.249995  1
  Al  Al2  1  0.499997  0.500004  0.500000  1
  Al  Al3  1  0.750003  0.749996  0.750000  1
  Al  Al4  1  0.756072  0.070479  0.833931  1
  Al  Al5  1  0.833971  0.339480  0.756057  1
  Al  Al6  1  0.070513  0.756044  0.339495  1
  Al  Al7  1  0.339500  0.833962  0.070487  1
  Al  Al8  1  0.493928  0.179521  0.416069  1
  Al  Al9  1  0.416029  0.910520  0.493943  1
  Al  Al10  1  0.179487  0.493956  0.910505  1
  Al  Al11  1  0.910500  0.416038  0.179513  1
  Cu  Cu12  1  0.625000  0.125000  0.625000  1
  Cu  Cu13  1  0.625000  0.625000  0.625000  1
  Cu  Cu14  1  0.125000  0.625000  0.625000  1
  Cu  Cu15  1  0.625000  0.625000  0.125000  1
  Cu  Cu16  1  0.490638  0.437009  0.183744  1
  Cu  Cu17  1  0.183759  0.888602  0.490580  1
  Cu  Cu18  1  0.437015  0.490639  0.888604  1
  Cu  Cu19  1  0.888638  0.183748  0.437006  1
  Cu  Cu20  1  0.759362  0.812991  0.066256  1
  Cu  Cu21  1  0.066241  0.361398  0.759420  1
  Cu  Cu22  1  0.812985  0.759361  0.361396  1
  Cu  Cu23  1  0.361362  0.066252  0.812994  1
