# generated using pymatgen
data_LiLa8AlRu2
_symmetry_space_group_name_H-M   'P 1'
_cell_length_a   10.04252489
_cell_length_b   10.00914562
_cell_length_c   10.04252519
_cell_angle_alpha   60.10989456
_cell_angle_beta   60.13592777
_cell_angle_gamma   60.10989560
_symmetry_Int_Tables_number   1
_chemical_formula_structural   LiLa8AlRu2
_chemical_formula_sum   'Li2 La16 Al2 Ru4'
_cell_volume   715.70308274
_cell_formula_units_Z   2
loop_
 _symmetry_equiv_pos_site_id
 _symmetry_equiv_pos_as_xyz
  1  'x, y, z'
loop_
 _atom_site_type_symbol
 _atom_site_label
 _atom_site_symmetry_multiplicity
 _atom_site_fract_x
 _atom_site_fract_y
 _atom_site_fract_z
 _atom_site_occupancy
  Li  Li0  1  0.673423  0.681692  0.963191  1
  Li  Li1  1  0.963191  0.681692  0.673423  1
  La  La2  1  0.903717  0.905510  0.903717  1
  La  La3  1  0.440783  0.439744  0.058546  1
  La  La4  1  0.058546  0.060927  0.440783  1
  La  La5  1  0.440783  0.060927  0.058546  1
  La  La6  1  0.308065  0.691935  0.308065  1
  La  La7  1  0.689080  0.692461  0.315835  1
  La  La8  1  0.689080  0.302624  0.315835  1
  La  La9  1  0.292548  0.902764  0.901924  1
  La  La10  1  0.903717  0.287058  0.903717  1
  La  La11  1  0.315835  0.692461  0.689080  1
  La  La12  1  0.901924  0.902764  0.292548  1
  La  La13  1  0.065665  0.434335  0.065665  1
  La  La14  1  0.315835  0.302624  0.689080  1
  La  La15  1  0.058546  0.439744  0.440783  1
  La  La16  1  0.443478  0.056522  0.443478  1
  La  La17  1  0.688974  0.311026  0.688974  1
  Al  Al18  1  0.668873  0.987497  0.668873  1
  Al  Al19  1  0.668873  0.674757  0.668873  1
  Ru  Ru20  1  0.115174  0.110039  0.664745  1
  Ru  Ru21  1  0.114571  0.111731  0.114571  1
  Ru  Ru22  1  0.114571  0.659125  0.114571  1
  Ru  Ru23  1  0.664745  0.110039  0.115174  1
