# generated using pymatgen
data_Dy16Ho4Bi3Pb13
_symmetry_space_group_name_H-M   'P 1'
_cell_length_a   8.26443239
_cell_length_b   15.59732576
_cell_length_c   8.29130327
_cell_angle_alpha   90.11906237
_cell_angle_beta   89.94046893
_cell_angle_gamma   89.74127733
_symmetry_Int_Tables_number   1
_chemical_formula_structural   Dy16Ho4Bi3Pb13
_chemical_formula_sum   'Dy16 Ho4 Bi3 Pb13'
_cell_volume   1068.76044109
_cell_formula_units_Z   1
loop_
 _symmetry_equiv_pos_site_id
 _symmetry_equiv_pos_as_xyz
  1  'x, y, z'
loop_
 _atom_site_type_symbol
 _atom_site_label
 _atom_site_symmetry_multiplicity
 _atom_site_fract_x
 _atom_site_fract_y
 _atom_site_fract_z
 _atom_site_occupancy
  Dy  Dy0  1  0.618416  0.621591  0.160615  1
  Dy  Dy1  1  0.115368  0.878106  0.341936  1
  Dy  Dy2  1  0.383537  0.122214  0.842729  1
  Dy  Dy3  1  0.880744  0.378694  0.656836  1
  Dy  Dy4  1  0.376826  0.378914  0.841769  1
  Dy  Dy5  1  0.878723  0.120894  0.659909  1
  Dy  Dy6  1  0.621133  0.879256  0.159045  1
  Dy  Dy7  1  0.121132  0.621495  0.341619  1
  Dy  Dy8  1  0.452112  0.604279  0.666851  1
  Dy  Dy9  1  0.944034  0.892953  0.830817  1
  Dy  Dy10  1  0.555380  0.106835  0.331217  1
  Dy  Dy11  1  0.048930  0.396291  0.174536  1
  Dy  Dy12  1  0.541989  0.397697  0.331573  1
  Dy  Dy13  1  0.040893  0.104356  0.169444  1
  Dy  Dy14  1  0.459599  0.895803  0.670251  1
  Dy  Dy15  1  0.960850  0.602993  0.823588  1
  Ho  Ho16  1  0.787554  0.749398  0.497845  1
  Ho  Ho17  1  0.287377  0.746804  0.001000  1
  Ho  Ho18  1  0.213044  0.252539  0.501937  1
  Ho  Ho19  1  0.712684  0.248544  0.999046  1
  Bi  Bi20  1  0.724686  0.454889  0.974083  1
  Bi  Bi21  1  0.228017  0.045470  0.523505  1
  Bi  Bi22  1  0.271700  0.954457  0.023120  1
  Pb  Pb23  1  0.777453  0.543834  0.471395  1
  Pb  Pb24  1  0.277781  0.543494  0.029755  1
  Pb  Pb25  1  0.778000  0.955952  0.471647  1
  Pb  Pb26  1  0.721377  0.043835  0.971657  1
  Pb  Pb27  1  0.219699  0.456575  0.531309  1
  Pb  Pb28  1  0.424829  0.752382  0.370789  1
  Pb  Pb29  1  0.924724  0.748809  0.127934  1
  Pb  Pb30  1  0.574804  0.250984  0.629399  1
  Pb  Pb31  1  0.074457  0.249234  0.871712  1
  Pb  Pb32  1  0.643997  0.748618  0.847601  1
  Pb  Pb33  1  0.145735  0.751410  0.651969  1
  Pb  Pb34  1  0.355887  0.249737  0.153287  1
  Pb  Pb35  1  0.856526  0.250664  0.348276  1
