# generated using pymatgen
data_Y4TcPt3F28
_symmetry_space_group_name_H-M   'P 1'
_cell_length_a   5.56530042
_cell_length_b   8.92637675
_cell_length_c   12.03863393
_cell_angle_alpha   62.35612735
_cell_angle_beta   90.02153519
_cell_angle_gamma   90.04447308
_symmetry_Int_Tables_number   1
_chemical_formula_structural   Y4TcPt3F28
_chemical_formula_sum   'Y4 Tc1 Pt3 F28'
_cell_volume   529.78589160
_cell_formula_units_Z   1
loop_
 _symmetry_equiv_pos_site_id
 _symmetry_equiv_pos_as_xyz
  1  'x, y, z'
loop_
 _atom_site_type_symbol
 _atom_site_label
 _atom_site_symmetry_multiplicity
 _atom_site_fract_x
 _atom_site_fract_y
 _atom_site_fract_z
 _atom_site_occupancy
  Y  Y0  1  0.259532  0.813398  0.265128  1
  Y  Y1  1  0.739708  0.185543  0.736294  1
  Y  Y2  1  0.760519  0.184759  0.236669  1
  Y  Y3  1  0.239893  0.814076  0.763710  1
  Tc  Tc4  1  0.757809  0.725805  0.043174  1
  Pt  Pt5  1  0.240571  0.272959  0.957011  1
  Pt  Pt6  1  0.259373  0.272944  0.456991  1
  Pt  Pt7  1  0.740856  0.726303  0.543585  1
  F  F8  1  0.934473  0.704227  0.415319  1
  F  F9  1  0.064907  0.295232  0.584855  1
  F  F10  1  0.435324  0.295632  0.084851  1
  F  F11  1  0.556674  0.708960  0.916406  1
  F  F12  1  0.472860  0.729164  0.138235  1
  F  F13  1  0.533067  0.273347  0.865099  1
  F  F14  1  0.966898  0.273813  0.364651  1
  F  F15  1  0.033591  0.725992  0.635405  1
  F  F16  1  0.954813  0.744525  0.172602  1
  F  F17  1  0.050719  0.257065  0.824543  1
  F  F18  1  0.450155  0.257598  0.324486  1
  F  F19  1  0.551393  0.742228  0.676121  1
  F  F20  1  0.771207  0.478065  0.140817  1
  F  F21  1  0.229097  0.521280  0.858506  1
  F  F22  1  0.270006  0.521130  0.358298  1
  F  F23  1  0.730050  0.478033  0.642052  1
  F  F24  1  0.941680  0.279926  0.043026  1
  F  F25  1  0.053934  0.721173  0.954654  1
  F  F26  1  0.441662  0.719031  0.458057  1
  F  F27  1  0.558072  0.279993  0.542964  1
  F  F28  1  0.741513  0.974561  0.450229  1
  F  F29  1  0.258841  0.024737  0.550141  1
  F  F30  1  0.241120  0.024802  0.050258  1
  F  F31  1  0.759327  0.972690  0.946896  1
  F  F32  1  0.586598  0.968760  0.231829  1
  F  F33  1  0.412821  0.031390  0.767886  1
  F  F34  1  0.087094  0.031042  0.268419  1
  F  F35  1  0.913843  0.969814  0.730834  1
