# generated using pymatgen
data_HoEr5B14MoOs
_symmetry_space_group_name_H-M   'P 1'
_cell_length_a   8.05709515
_cell_length_b   8.05709662
_cell_length_c   9.34948900
_cell_angle_alpha   90.00000000
_cell_angle_beta   90.00000000
_cell_angle_gamma   155.00372238
_symmetry_Int_Tables_number   1
_chemical_formula_structural   HoEr5B14MoOs
_chemical_formula_sum   'Ho1 Er5 B14 Mo1 Os1'
_cell_volume   256.46770516
_cell_formula_units_Z   1
loop_
 _symmetry_equiv_pos_site_id
 _symmetry_equiv_pos_as_xyz
  1  'x, y, z'
loop_
 _atom_site_type_symbol
 _atom_site_label
 _atom_site_symmetry_multiplicity
 _atom_site_fract_x
 _atom_site_fract_y
 _atom_site_fract_z
 _atom_site_occupancy
  Ho  Ho0  1  0.744872  0.255128  0.750000  1
  Er  Er1  1  0.256437  0.743563  0.250000  1
  Er  Er2  1  0.605984  0.394016  0.061853  1
  Er  Er3  1  0.393188  0.606812  0.941000  1
  Er  Er4  1  0.393188  0.606812  0.559000  1
  Er  Er5  1  0.605984  0.394016  0.438147  1
  B  B6  1  0.979119  0.020881  0.095830  1
  B  B7  1  0.019357  0.980643  0.909280  1
  B  B8  1  0.019357  0.980643  0.590720  1
  B  B9  1  0.979119  0.020881  0.404170  1
  B  B10  1  0.773262  0.226738  0.035354  1
  B  B11  1  0.228273  0.771727  0.968244  1
  B  B12  1  0.228273  0.771727  0.531756  1
  B  B13  1  0.773262  0.226738  0.464646  1
  B  B14  1  0.867965  0.132035  0.150631  1
  B  B15  1  0.134744  0.865256  0.853029  1
  B  B16  1  0.134744  0.865256  0.646971  1
  B  B17  1  0.867965  0.132035  0.349369  1
  B  B18  1  0.043109  0.956891  0.250000  1
  B  B19  1  0.953540  0.046460  0.750000  1
  Mo  Mo20  1  0.552429  0.447571  0.750000  1
  Os  Os21  1  0.445825  0.554175  0.250000  1
