# generated using pymatgen
data_YTmB6MoW
_symmetry_space_group_name_H-M   'P 1'
_cell_length_a   3.16178000
_cell_length_b   5.43393239
_cell_length_c   6.81850203
_cell_angle_alpha   78.11760258
_cell_angle_beta   90.00000000
_cell_angle_gamma   90.00000000
_symmetry_Int_Tables_number   1
_chemical_formula_structural   YTmB6MoW
_chemical_formula_sum   'Y1 Tm1 B6 Mo1 W1'
_cell_volume   114.63777974
_cell_formula_units_Z   1
loop_
 _symmetry_equiv_pos_site_id
 _symmetry_equiv_pos_as_xyz
  1  'x, y, z'
loop_
 _atom_site_type_symbol
 _atom_site_label
 _atom_site_symmetry_multiplicity
 _atom_site_fract_x
 _atom_site_fract_y
 _atom_site_fract_z
 _atom_site_occupancy
  Y  Y0  1  0.250000  0.326423  0.706388  1
  Tm  Tm1  1  0.750000  0.678051  0.288222  1
  B  B2  1  0.250000  0.914100  0.523207  1
  B  B3  1  0.750000  0.078002  0.474364  1
  B  B4  1  0.250000  0.912861  0.006278  1
  B  B5  1  0.750000  0.087557  0.996823  1
  B  B6  1  0.250000  0.584126  0.008835  1
  B  B7  1  0.750000  0.417502  0.994539  1
  Mo  Mo8  1  0.750000  0.812155  0.780115  1
  W  W9  1  0.250000  0.189225  0.221227  1
