# generated using pymatgen
data_Sm4DyHo3(B6Os)4
_symmetry_space_group_name_H-M   'P 1'
_cell_length_a   3.67984800
_cell_length_b   9.19784201
_cell_length_c   11.60132101
_cell_angle_alpha   90.00435199
_cell_angle_beta   90.00000000
_cell_angle_gamma   90.00000000
_symmetry_Int_Tables_number   1
_chemical_formula_structural   Sm4DyHo3(B6Os)4
_chemical_formula_sum   'Sm4 Dy1 Ho3 B24 Os4'
_cell_volume   392.66597253
_cell_formula_units_Z   1
loop_
 _symmetry_equiv_pos_site_id
 _symmetry_equiv_pos_as_xyz
  1  'x, y, z'
loop_
 _atom_site_type_symbol
 _atom_site_label
 _atom_site_symmetry_multiplicity
 _atom_site_fract_x
 _atom_site_fract_y
 _atom_site_fract_z
 _atom_site_occupancy
  Sm  Sm0  1  0.000000  0.322313  0.414062  1
  Sm  Sm1  1  0.000000  0.677702  0.586073  1
  Sm  Sm2  1  0.000000  0.822179  0.085896  1
  Sm  Sm3  1  0.000000  0.177823  0.913998  1
  Dy  Dy4  1  0.000000  0.944165  0.372602  1
  Ho  Ho5  1  0.000000  0.055899  0.627582  1
  Ho  Ho6  1  0.000000  0.444161  0.127325  1
  Ho  Ho7  1  0.000000  0.555839  0.872600  1
  B  B8  1  0.500000  0.555032  0.431634  1
  B  B9  1  0.500000  0.444804  0.568434  1
  B  B10  1  0.500000  0.055184  0.068302  1
  B  B11  1  0.500000  0.944838  0.931587  1
  B  B12  1  0.500000  0.748522  0.418414  1
  B  B13  1  0.500000  0.251156  0.581628  1
  B  B14  1  0.500000  0.248971  0.081552  1
  B  B15  1  0.500000  0.751109  0.918403  1
  B  B16  1  0.500000  0.790472  0.266712  1
  B  B17  1  0.500000  0.209212  0.733236  1
  B  B18  1  0.500000  0.291005  0.233162  1
  B  B19  1  0.500000  0.709175  0.766796  1
  B  B20  1  0.500000  0.630953  0.185253  1
  B  B21  1  0.500000  0.368948  0.814678  1
  B  B22  1  0.500000  0.131332  0.314535  1
  B  B23  1  0.500000  0.868911  0.685381  1
  B  B24  1  0.500000  0.984789  0.213481  1
  B  B25  1  0.500000  0.015427  0.786280  1
  B  B26  1  0.500000  0.484455  0.286221  1
  B  B27  1  0.500000  0.515445  0.713751  1
  B  B28  1  0.500000  0.604887  0.028833  1
  B  B29  1  0.500000  0.395107  0.971143  1
  B  B30  1  0.500000  0.105388  0.471351  1
  B  B31  1  0.500000  0.894886  0.529219  1
  Os  Os32  1  0.000000  0.638027  0.320243  1
  Os  Os33  1  0.000000  0.361653  0.679784  1
  Os  Os34  1  0.000000  0.138636  0.179535  1
  Os  Os35  1  0.000000  0.861595  0.820315  1
