# generated using pymatgen
data_Li2CrCo(PO3)8
_symmetry_space_group_name_H-M   'P 1'
_cell_length_a   8.36310300
_cell_length_b   9.14789207
_cell_length_c   12.64719591
_cell_angle_alpha   90.07742617
_cell_angle_beta   90.00000000
_cell_angle_gamma   90.00000000
_symmetry_Int_Tables_number   1
_chemical_formula_structural   Li2CrCo(PO3)8
_chemical_formula_sum   'Li4 Cr2 Co2 P16 O48'
_cell_volume   967.56985019
_cell_formula_units_Z   2
loop_
 _symmetry_equiv_pos_site_id
 _symmetry_equiv_pos_as_xyz
  1  'x, y, z'
loop_
 _atom_site_type_symbol
 _atom_site_label
 _atom_site_symmetry_multiplicity
 _atom_site_fract_x
 _atom_site_fract_y
 _atom_site_fract_z
 _atom_site_occupancy
  Li  Li0  1  0.002744  0.750000  0.000000  1
  Li  Li1  1  0.506658  0.750000  0.500000  1
  Li  Li2  1  0.493342  0.250000  0.500000  1
  Li  Li3  1  0.997256  0.250000  0.000000  1
  Cr  Cr4  1  0.632508  0.250000  0.000000  1
  Cr  Cr5  1  0.367492  0.750000  0.000000  1
  Co  Co6  1  0.869683  0.750000  0.500000  1
  Co  Co7  1  0.130317  0.250000  0.500000  1
  P  P8  1  0.463589  0.488645  0.848129  1
  P  P9  1  0.536411  0.988645  0.848129  1
  P  P10  1  0.964859  0.489620  0.645830  1
  P  P11  1  0.180069  0.996559  0.859855  1
  P  P12  1  0.180069  0.503441  0.140145  1
  P  P13  1  0.819931  0.003441  0.140145  1
  P  P14  1  0.463589  0.011355  0.151871  1
  P  P15  1  0.536411  0.511355  0.151871  1
  P  P16  1  0.035141  0.510380  0.354170  1
  P  P17  1  0.964859  0.010380  0.354170  1
  P  P18  1  0.318220  0.007130  0.364173  1
  P  P19  1  0.681780  0.507130  0.364173  1
  P  P20  1  0.318220  0.492870  0.635827  1
  P  P21  1  0.681780  0.992870  0.635827  1
  P  P22  1  0.035141  0.989620  0.645830  1
  P  P23  1  0.819931  0.496559  0.859855  1
  O  O24  1  0.865033  0.876822  0.378721  1
  O  O25  1  0.464240  0.369741  0.930559  1
  O  O26  1  0.535760  0.869741  0.930559  1
  O  O27  1  0.810387  0.367375  0.935330  1
  O  O28  1  0.189613  0.632625  0.064670  1
  O  O29  1  0.810387  0.132625  0.064670  1
  O  O30  1  0.464240  0.130259  0.069441  1
  O  O31  1  0.535760  0.630259  0.069441  1
  O  O32  1  0.093879  0.370988  0.105422  1
  O  O33  1  0.906121  0.870988  0.105422  1
  O  O34  1  0.364564  0.878012  0.127983  1
  O  O35  1  0.635436  0.378012  0.127983  1
  O  O36  1  0.357597  0.462555  0.180399  1
  O  O37  1  0.642403  0.962555  0.180399  1
  O  O38  1  0.103734  0.575207  0.246166  1
  O  O39  1  0.896266  0.075207  0.246166  1
  O  O40  1  0.398071  0.080001  0.259639  1
  O  O41  1  0.601929  0.580001  0.259639  1
  O  O42  1  0.142719  0.962762  0.322287  1
  O  O43  1  0.857281  0.462762  0.322287  1
  O  O44  1  0.134967  0.376822  0.378721  1
  O  O45  1  0.189613  0.867375  0.935330  1
  O  O46  1  0.406961  0.876334  0.399150  1
  O  O47  1  0.593039  0.376334  0.399150  1
  O  O48  1  0.034530  0.632446  0.434979  1
  O  O49  1  0.965470  0.132446  0.434979  1
  O  O50  1  0.304160  0.136537  0.439582  1
  O  O51  1  0.695840  0.636537  0.439582  1
  O  O52  1  0.304160  0.363463  0.560418  1
  O  O53  1  0.695840  0.863463  0.560418  1
  O  O54  1  0.034530  0.867554  0.565021  1
  O  O55  1  0.965470  0.367554  0.565021  1
  O  O56  1  0.406961  0.623666  0.600850  1
  O  O57  1  0.593039  0.123666  0.600850  1
  O  O58  1  0.134967  0.123178  0.621279  1
  O  O59  1  0.865033  0.623178  0.621279  1
  O  O60  1  0.142719  0.537238  0.677713  1
  O  O61  1  0.857281  0.037238  0.677713  1
  O  O62  1  0.398071  0.419999  0.740361  1
  O  O63  1  0.601929  0.919999  0.740361  1
  O  O64  1  0.103734  0.924793  0.753834  1
  O  O65  1  0.896266  0.424793  0.753834  1
  O  O66  1  0.357597  0.037445  0.819601  1
  O  O67  1  0.642403  0.537445  0.819601  1
  O  O68  1  0.364564  0.621988  0.872017  1
  O  O69  1  0.906121  0.629012  0.894578  1
  O  O70  1  0.093879  0.129012  0.894578  1
  O  O71  1  0.635436  0.121988  0.872017  1
