# generated using pymatgen
data_Y3Tm5(CoAg)2
_symmetry_space_group_name_H-M   'P 1'
_cell_length_a   9.32484332
_cell_length_b   9.32484363
_cell_length_c   9.32484400
_cell_angle_alpha   59.99999868
_cell_angle_beta   59.99999757
_cell_angle_gamma   60.00000154
_symmetry_Int_Tables_number   1
_chemical_formula_structural   Y3Tm5(CoAg)2
_chemical_formula_sum   'Y6 Tm10 Co4 Ag4'
_cell_volume   573.33660548
_cell_formula_units_Z   2
loop_
 _symmetry_equiv_pos_site_id
 _symmetry_equiv_pos_as_xyz
  1  'x, y, z'
loop_
 _atom_site_type_symbol
 _atom_site_label
 _atom_site_symmetry_multiplicity
 _atom_site_fract_x
 _atom_site_fract_y
 _atom_site_fract_z
 _atom_site_occupancy
  Y  Y0  1  0.938614  0.561386  0.561386  1
  Y  Y1  1  0.561386  0.938614  0.938614  1
  Y  Y2  1  0.561386  0.938614  0.561386  1
  Y  Y3  1  0.938614  0.561386  0.938614  1
  Y  Y4  1  0.561386  0.561386  0.938614  1
  Y  Y5  1  0.938614  0.938614  0.561386  1
  Tm  Tm6  1  0.347746  0.347746  0.347746  1
  Tm  Tm7  1  0.347746  0.347746  0.956762  1
  Tm  Tm8  1  0.347746  0.956762  0.347746  1
  Tm  Tm9  1  0.956762  0.347746  0.347746  1
  Tm  Tm10  1  0.811949  0.188051  0.188051  1
  Tm  Tm11  1  0.188051  0.811949  0.811949  1
  Tm  Tm12  1  0.188051  0.811949  0.188051  1
  Tm  Tm13  1  0.811949  0.188051  0.811949  1
  Tm  Tm14  1  0.188051  0.188051  0.811949  1
  Tm  Tm15  1  0.811949  0.811949  0.188051  1
  Co  Co16  1  0.141226  0.141226  0.141226  1
  Co  Co17  1  0.141226  0.141226  0.576323  1
  Co  Co18  1  0.141226  0.576323  0.141226  1
  Co  Co19  1  0.576323  0.141226  0.141226  1
  Ag  Ag20  1  0.580572  0.580572  0.580572  1
  Ag  Ag21  1  0.580572  0.580572  0.258285  1
  Ag  Ag22  1  0.580572  0.258285  0.580572  1
  Ag  Ag23  1  0.258285  0.580572  0.580572  1
