# generated using pymatgen
data_Li3Si3Pd10
_symmetry_space_group_name_H-M   'P 1'
_cell_length_a   4.03449000
_cell_length_b   5.41159145
_cell_length_c   10.29448208
_cell_angle_alpha   89.73584428
_cell_angle_beta   90.00000000
_cell_angle_gamma   90.00000000
_symmetry_Int_Tables_number   1
_chemical_formula_structural   Li3Si3Pd10
_chemical_formula_sum   'Li3 Si3 Pd10'
_cell_volume   224.75715774
_cell_formula_units_Z   1
loop_
 _symmetry_equiv_pos_site_id
 _symmetry_equiv_pos_as_xyz
  1  'x, y, z'
loop_
 _atom_site_type_symbol
 _atom_site_label
 _atom_site_symmetry_multiplicity
 _atom_site_fract_x
 _atom_site_fract_y
 _atom_site_fract_z
 _atom_site_occupancy
  Li  Li0  1  0.000000  0.842168  0.642609  1
  Li  Li1  1  0.000000  0.343025  0.855207  1
  Li  Li2  1  0.000000  0.146869  0.364970  1
  Si  Si3  1  0.500000  0.505864  0.504338  1
  Si  Si4  1  0.500000  0.047208  0.987869  1
  Si  Si5  1  0.000000  0.628671  0.150648  1
  Pd  Pd6  1  0.000000  0.825392  0.910527  1
  Pd  Pd7  1  0.000000  0.672882  0.388270  1
  Pd  Pd8  1  0.000000  0.324902  0.601556  1
  Pd  Pd9  1  0.500000  0.883826  0.211584  1
  Pd  Pd10  1  0.500000  0.385833  0.275629  1
  Pd  Pd11  1  0.500000  0.603281  0.734080  1
  Pd  Pd12  1  0.500000  0.099198  0.762212  1
  Pd  Pd13  1  0.500000  0.511121  0.007251  1
  Pd  Pd14  1  0.500000  0.990617  0.495410  1
  Pd  Pd15  1  0.000000  0.189145  0.107841  1
