# generated using pymatgen
data_Hf2TiVP2
_symmetry_space_group_name_H-M   'P 1'
_cell_length_a   3.49173300
_cell_length_b   6.65848700
_cell_length_c   8.05225000
_cell_angle_alpha   90.00000000
_cell_angle_beta   90.00000000
_cell_angle_gamma   90.00000000
_symmetry_Int_Tables_number   1
_chemical_formula_structural   Hf2TiVP2
_chemical_formula_sum   'Hf4 Ti2 V2 P4'
_cell_volume   187.21206498
_cell_formula_units_Z   2
loop_
 _symmetry_equiv_pos_site_id
 _symmetry_equiv_pos_as_xyz
  1  'x, y, z'
loop_
 _atom_site_type_symbol
 _atom_site_label
 _atom_site_symmetry_multiplicity
 _atom_site_fract_x
 _atom_site_fract_y
 _atom_site_fract_z
 _atom_site_occupancy
  Hf  Hf0  1  0.250000  0.040425  0.833780  1
  Hf  Hf1  1  0.250000  0.540425  0.666220  1
  Hf  Hf2  1  0.750000  0.963556  0.169874  1
  Hf  Hf3  1  0.750000  0.463556  0.330126  1
  Ti  Ti4  1  0.250000  0.132192  0.442089  1
  Ti  Ti5  1  0.250000  0.632192  0.057911  1
  V  V6  1  0.750000  0.864615  0.560436  1
  V  V7  1  0.750000  0.364615  0.939564  1
  P  P8  1  0.250000  0.762020  0.365496  1
  P  P9  1  0.250000  0.262020  0.134504  1
  P  P10  1  0.750000  0.237192  0.643258  1
  P  P11  1  0.750000  0.737192  0.856742  1
