# generated using pymatgen
data_Sr6Re2N7
_symmetry_space_group_name_H-M   'P 1'
_cell_length_a   7.21864559
_cell_length_b   7.21864519
_cell_length_c   7.21864499
_cell_angle_alpha   65.61817325
_cell_angle_beta   65.61818174
_cell_angle_gamma   65.61817458
_symmetry_Int_Tables_number   1
_chemical_formula_structural   Sr6Re2N7
_chemical_formula_sum   'Sr6 Re2 N7'
_cell_volume   298.43391850
_cell_formula_units_Z   1
loop_
 _symmetry_equiv_pos_site_id
 _symmetry_equiv_pos_as_xyz
  1  'x, y, z'
loop_
 _atom_site_type_symbol
 _atom_site_label
 _atom_site_symmetry_multiplicity
 _atom_site_fract_x
 _atom_site_fract_y
 _atom_site_fract_z
 _atom_site_occupancy
  Sr  Sr0  1  0.336660  0.189224  0.727715  1
  Sr  Sr1  1  0.189224  0.727715  0.336660  1
  Sr  Sr2  1  0.727715  0.336660  0.189224  1
  Sr  Sr3  1  0.663340  0.810776  0.272285  1
  Sr  Sr4  1  0.810776  0.272285  0.663340  1
  Sr  Sr5  1  0.272285  0.663340  0.810776  1
  Re  Re6  1  0.249397  0.249397  0.249397  1
  Re  Re7  1  0.750603  0.750603  0.750603  1
  N  N8  1  0.241850  0.027587  0.490842  1
  N  N9  1  0.027587  0.490842  0.241850  1
  N  N10  1  0.490842  0.241850  0.027587  1
  N  N11  1  0.758150  0.972413  0.509158  1
  N  N12  1  0.972413  0.509158  0.758150  1
  N  N13  1  0.509158  0.758150  0.972413  1
  N  N14  1  0.500000  0.500000  0.500000  1
