# generated using pymatgen
data_La6Pr9Y(MgIr)4
_symmetry_space_group_name_H-M   'P 1'
_cell_length_a   10.06359954
_cell_length_b   10.11260639
_cell_length_c   10.13869171
_cell_angle_alpha   59.59481951
_cell_angle_beta   60.38054265
_cell_angle_gamma   60.33146972
_symmetry_Int_Tables_number   1
_chemical_formula_structural   La6Pr9Y(MgIr)4
_chemical_formula_sum   'La6 Pr9 Y1 Mg4 Ir4'
_cell_volume   731.20269289
_cell_formula_units_Z   1
loop_
 _symmetry_equiv_pos_site_id
 _symmetry_equiv_pos_as_xyz
  1  'x, y, z'
loop_
 _atom_site_type_symbol
 _atom_site_label
 _atom_site_symmetry_multiplicity
 _atom_site_fract_x
 _atom_site_fract_y
 _atom_site_fract_z
 _atom_site_occupancy
  La  La0  1  0.342077  0.350352  0.346687  1
  La  La1  1  0.348823  0.342349  0.962046  1
  La  La2  1  0.346687  0.960884  0.342077  1
  La  La3  1  0.962046  0.346782  0.348823  1
  La  La4  1  0.815395  0.184432  0.186343  1
  La  La5  1  0.186343  0.813830  0.815395  1
  Pr  Pr6  1  0.809215  0.190785  0.809215  1
  Pr  Pr7  1  0.189289  0.187548  0.812201  1
  Pr  Pr8  1  0.812201  0.810962  0.189289  1
  Pr  Pr9  1  0.936351  0.567585  0.562016  1
  Pr  Pr10  1  0.562016  0.934048  0.936351  1
  Pr  Pr11  1  0.560235  0.939765  0.560235  1
  Pr  Pr12  1  0.939546  0.560454  0.939546  1
  Pr  Pr13  1  0.558552  0.563820  0.940448  1
  Pr  Pr14  1  0.940448  0.937181  0.558552  1
  Y  Y15  1  0.189840  0.810160  0.189840  1
  Mg  Mg16  1  0.581029  0.578338  0.579130  1
  Mg  Mg17  1  0.575837  0.582131  0.261702  1
  Mg  Mg18  1  0.579130  0.261502  0.581029  1
  Mg  Mg19  1  0.261702  0.580331  0.575837  1
  Ir  Ir20  1  0.137303  0.139234  0.145983  1
  Ir  Ir21  1  0.144980  0.135213  0.574971  1
  Ir  Ir22  1  0.145983  0.577480  0.137303  1
  Ir  Ir23  1  0.574971  0.144836  0.144980  1
