# generated using pymatgen
data_LaTbEr2(Mo2O7)2
_symmetry_space_group_name_H-M   'P 1'
_cell_length_a   7.44341377
_cell_length_b   7.48196153
_cell_length_c   7.44341358
_cell_angle_alpha   59.25785321
_cell_angle_beta   58.96847492
_cell_angle_gamma   59.25784786
_symmetry_Int_Tables_number   1
_chemical_formula_structural   LaTbEr2(Mo2O7)2
_chemical_formula_sum   'La1 Tb1 Er2 Mo4 O14'
_cell_volume   287.51276151
_cell_formula_units_Z   1
loop_
 _symmetry_equiv_pos_site_id
 _symmetry_equiv_pos_as_xyz
  1  'x, y, z'
loop_
 _atom_site_type_symbol
 _atom_site_label
 _atom_site_symmetry_multiplicity
 _atom_site_fract_x
 _atom_site_fract_y
 _atom_site_fract_z
 _atom_site_occupancy
  La  La0  1  0.125000  0.125000  0.125000  1
  Tb  Tb1  1  0.125000  0.625000  0.125000  1
  Er  Er2  1  0.625000  0.125000  0.125000  1
  Er  Er3  1  0.125000  0.125000  0.625000  1
  Mo  Mo4  1  0.625000  0.625000  0.625000  1
  Mo  Mo5  1  0.125000  0.625000  0.625000  1
  Mo  Mo6  1  0.625000  0.625000  0.125000  1
  Mo  Mo7  1  0.625000  0.125000  0.625000  1
  O  O8  1  0.995784  0.998826  0.995784  1
  O  O9  1  0.254216  0.251174  0.254216  1
  O  O10  1  0.287753  0.290786  0.702550  1
  O  O11  1  0.541495  0.530929  0.962652  1
  O  O12  1  0.717988  0.279058  0.717988  1
  O  O13  1  0.702550  0.290786  0.287753  1
  O  O14  1  0.287348  0.719071  0.708505  1
  O  O15  1  0.287833  0.701316  0.287833  1
  O  O16  1  0.708505  0.719071  0.287348  1
  O  O17  1  0.962652  0.530929  0.541495  1
  O  O18  1  0.547450  0.959214  0.962247  1
  O  O19  1  0.962247  0.959214  0.547450  1
  O  O20  1  0.962167  0.548684  0.962167  1
  O  O21  1  0.532012  0.970942  0.532012  1
