# generated using pymatgen
data_K8TaAlSe8
_symmetry_space_group_name_H-M   'P 1'
_cell_length_a   8.43616816
_cell_length_b   10.00658700
_cell_length_c   14.88271200
_cell_angle_alpha   90.00000000
_cell_angle_beta   91.59171338
_cell_angle_gamma   90.00000000
_symmetry_Int_Tables_number   1
_chemical_formula_structural   K8TaAlSe8
_chemical_formula_sum   'K16 Ta2 Al2 Se16'
_cell_volume   1255.87285390
_cell_formula_units_Z   2
loop_
 _symmetry_equiv_pos_site_id
 _symmetry_equiv_pos_as_xyz
  1  'x, y, z'
loop_
 _atom_site_type_symbol
 _atom_site_label
 _atom_site_symmetry_multiplicity
 _atom_site_fract_x
 _atom_site_fract_y
 _atom_site_fract_z
 _atom_site_occupancy
  K  K0  1  0.000000  0.000000  0.000000  1
  K  K1  1  0.500000  0.000000  0.500000  1
  K  K2  1  0.000000  0.500000  0.000000  1
  K  K3  1  0.500000  0.500000  0.500000  1
  K  K4  1  0.993103  0.750000  0.442665  1
  K  K5  1  0.475616  0.250000  0.087459  1
  K  K6  1  0.006897  0.250000  0.557335  1
  K  K7  1  0.524384  0.750000  0.912541  1
  K  K8  1  0.848225  0.063081  0.281273  1
  K  K9  1  0.339384  0.961862  0.230124  1
  K  K10  1  0.151775  0.563081  0.718727  1
  K  K11  1  0.660616  0.461862  0.769876  1
  K  K12  1  0.151775  0.936919  0.718727  1
  K  K13  1  0.660616  0.038138  0.769876  1
  K  K14  1  0.848225  0.436919  0.281273  1
  K  K15  1  0.339384  0.538138  0.230124  1
  Ta  Ta16  1  0.740164  0.750000  0.164064  1
  Ta  Ta17  1  0.259836  0.250000  0.835936  1
  Al  Al18  1  0.758861  0.750000  0.669051  1
  Al  Al19  1  0.241139  0.250000  0.330949  1
  Se  Se20  1  0.973271  0.250000  0.829142  1
  Se  Se21  1  0.529989  0.250000  0.316220  1
  Se  Se22  1  0.470011  0.750000  0.683780  1
  Se  Se23  1  0.026729  0.750000  0.170858  1
  Se  Se24  1  0.647706  0.552300  0.086651  1
  Se  Se25  1  0.159600  0.449556  0.407216  1
  Se  Se26  1  0.352294  0.052300  0.913349  1
  Se  Se27  1  0.840400  0.949556  0.592784  1
  Se  Se28  1  0.352294  0.447700  0.913349  1
  Se  Se29  1  0.840400  0.550444  0.592784  1
  Se  Se30  1  0.647706  0.947700  0.086651  1
  Se  Se31  1  0.159600  0.050444  0.407216  1
  Se  Se32  1  0.635165  0.750000  0.313601  1
  Se  Se33  1  0.120354  0.250000  0.175078  1
  Se  Se34  1  0.364835  0.250000  0.686399  1
  Se  Se35  1  0.879646  0.750000  0.824922  1
