# generated using pymatgen
data_Ac10Yb9ScSn16
_symmetry_space_group_name_H-M   'P 1'
_cell_length_a   8.24911989
_cell_length_b   8.75346836
_cell_length_c   16.61716800
_cell_angle_alpha   89.97887114
_cell_angle_beta   90.03879165
_cell_angle_gamma   90.08985778
_symmetry_Int_Tables_number   1
_chemical_formula_structural   Ac10Yb9ScSn16
_chemical_formula_sum   'Ac10 Yb9 Sc1 Sn16'
_cell_volume   1199.89744712
_cell_formula_units_Z   1
loop_
 _symmetry_equiv_pos_site_id
 _symmetry_equiv_pos_as_xyz
  1  'x, y, z'
loop_
 _atom_site_type_symbol
 _atom_site_label
 _atom_site_symmetry_multiplicity
 _atom_site_fract_x
 _atom_site_fract_y
 _atom_site_fract_z
 _atom_site_occupancy
  Ac  Ac0  1  0.504081  0.816413  0.907861  1
  Ac  Ac1  1  0.002663  0.683236  0.591498  1
  Ac  Ac2  1  0.498555  0.181289  0.402640  1
  Ac  Ac3  1  0.997570  0.318518  0.097662  1
  Ac  Ac4  1  0.494871  0.182028  0.099051  1
  Ac  Ac5  1  0.994128  0.317566  0.400901  1
  Ac  Ac6  1  0.504362  0.814827  0.592720  1
  Ac  Ac7  1  0.003040  0.684908  0.907667  1
  Ac  Ac8  1  0.668062  0.326590  0.878659  1
  Ac  Ac9  1  0.167295  0.171771  0.620338  1
  Yb  Yb10  1  0.334484  0.669046  0.372808  1
  Yb  Yb11  1  0.835284  0.830237  0.129108  1
  Yb  Yb12  1  0.328541  0.669458  0.126635  1
  Yb  Yb13  1  0.829688  0.829930  0.371565  1
  Yb  Yb14  1  0.666937  0.330393  0.621497  1
  Yb  Yb15  1  0.167745  0.168821  0.879440  1
  Yb  Yb16  1  0.334970  0.502609  0.750907  1
  Yb  Yb17  1  0.835641  0.997746  0.748968  1
  Yb  Yb18  1  0.667239  0.503955  0.250387  1
  Sc  Sc19  1  0.169800  0.993952  0.249730  1
  Sn  Sn20  1  0.168171  0.963239  0.047190  1
  Sn  Sn21  1  0.669126  0.541693  0.458243  1
  Sn  Sn22  1  0.823164  0.036726  0.534099  1
  Sn  Sn23  1  0.324589  0.464148  0.965005  1
  Sn  Sn24  1  0.839503  0.032365  0.966439  1
  Sn  Sn25  1  0.338596  0.467539  0.534217  1
  Sn  Sn26  1  0.165204  0.961123  0.448910  1
  Sn  Sn27  1  0.665293  0.544899  0.045362  1
  Sn  Sn28  1  0.710126  0.637045  0.749210  1
  Sn  Sn29  1  0.208616  0.863210  0.750824  1
  Sn  Sn30  1  0.286119  0.357705  0.250448  1
  Sn  Sn31  1  0.802349  0.124123  0.249608  1
  Sn  Sn32  1  0.466225  0.102578  0.752373  1
  Sn  Sn33  1  0.966730  0.395991  0.747759  1
  Sn  Sn34  1  0.522556  0.893844  0.249098  1
  Sn  Sn35  1  0.038681  0.620482  0.251174  1
