# generated using pymatgen
data_LiDy16Zn3FeNi3
_symmetry_space_group_name_H-M   'P 1'
_cell_length_a   9.45649156
_cell_length_b   9.45649213
_cell_length_c   9.45649183
_cell_angle_alpha   59.39168080
_cell_angle_beta   59.39167848
_cell_angle_gamma   59.39167286
_symmetry_Int_Tables_number   1
_chemical_formula_structural   LiDy16Zn3FeNi3
_chemical_formula_sum   'Li1 Dy16 Zn3 Fe1 Ni3'
_cell_volume   589.68598199
_cell_formula_units_Z   1
loop_
 _symmetry_equiv_pos_site_id
 _symmetry_equiv_pos_as_xyz
  1  'x, y, z'
loop_
 _atom_site_type_symbol
 _atom_site_label
 _atom_site_symmetry_multiplicity
 _atom_site_fract_x
 _atom_site_fract_y
 _atom_site_fract_z
 _atom_site_occupancy
  Li  Li0  1  0.817661  0.817661  0.817661  1
  Dy  Dy1  1  0.604098  0.604098  0.604098  1
  Dy  Dy2  1  0.596465  0.596465  0.203979  1
  Dy  Dy3  1  0.596465  0.203979  0.596465  1
  Dy  Dy4  1  0.203979  0.596465  0.596465  1
  Dy  Dy5  1  0.064479  0.440998  0.440998  1
  Dy  Dy6  1  0.437730  0.061692  0.061692  1
  Dy  Dy7  1  0.440998  0.064479  0.440998  1
  Dy  Dy8  1  0.061692  0.437730  0.061692  1
  Dy  Dy9  1  0.440998  0.440998  0.064479  1
  Dy  Dy10  1  0.061692  0.061692  0.437730  1
  Dy  Dy11  1  0.190420  0.813250  0.813250  1
  Dy  Dy12  1  0.811668  0.186808  0.186808  1
  Dy  Dy13  1  0.813250  0.190420  0.813250  1
  Dy  Dy14  1  0.186808  0.811668  0.186808  1
  Dy  Dy15  1  0.813250  0.813250  0.190420  1
  Dy  Dy16  1  0.186808  0.186808  0.811668  1
  Zn  Zn17  1  0.829701  0.829701  0.507270  1
  Zn  Zn18  1  0.829701  0.507270  0.829701  1
  Zn  Zn19  1  0.507270  0.829701  0.829701  1
  Fe  Fe20  1  0.393033  0.393033  0.393033  1
  Ni  Ni21  1  0.395220  0.395220  0.821396  1
  Ni  Ni22  1  0.395220  0.821396  0.395220  1
  Ni  Ni23  1  0.821396  0.395220  0.395220  1
