# generated using pymatgen
data_Er12InCo4Rh
_symmetry_space_group_name_H-M   'P 1'
_cell_length_a   8.21426549
_cell_length_b   8.21426601
_cell_length_c   8.21426656
_cell_angle_alpha   110.94503256
_cell_angle_beta   110.84736801
_cell_angle_gamma   106.65739166
_symmetry_Int_Tables_number   1
_chemical_formula_structural   Er12InCo4Rh
_chemical_formula_sum   'Er12 In1 Co4 Rh1'
_cell_volume   425.89511880
_cell_formula_units_Z   1
loop_
 _symmetry_equiv_pos_site_id
 _symmetry_equiv_pos_as_xyz
  1  'x, y, z'
loop_
 _atom_site_type_symbol
 _atom_site_label
 _atom_site_symmetry_multiplicity
 _atom_site_fract_x
 _atom_site_fract_y
 _atom_site_fract_z
 _atom_site_occupancy
  Er  Er0  1  0.185985  0.289345  0.475330  1
  Er  Er1  1  0.814015  0.710655  0.524670  1
  Er  Er2  1  0.185985  0.710655  0.896640  1
  Er  Er3  1  0.814015  0.289345  0.103360  1
  Er  Er4  1  0.313896  0.618876  0.304980  1
  Er  Er5  1  0.686104  0.381124  0.695020  1
  Er  Er6  1  0.313896  0.008916  0.695020  1
  Er  Er7  1  0.686104  0.991084  0.304980  1
  Er  Er8  1  0.410319  0.215458  0.194861  1
  Er  Er9  1  0.589681  0.784542  0.805139  1
  Er  Er10  1  0.020597  0.215458  0.805139  1
  Er  Er11  1  0.979403  0.784542  0.194861  1
  In  In12  1  0.500000  0.500000  0.000000  1
  Co  Co13  1  0.112253  0.612253  0.500000  1
  Co  Co14  1  0.887747  0.387747  0.500000  1
  Co  Co15  1  0.378199  0.000000  0.378199  1
  Co  Co16  1  0.621801  0.000000  0.621801  1
  Rh  Rh17  1  0.000000  0.000000  0.000000  1
