# generated using pymatgen
data_La3LuAl18(RePd2)2
_symmetry_space_group_name_H-M   'P 1'
_cell_length_a   7.69303746
_cell_length_b   7.66663501
_cell_length_c   9.67766800
_cell_angle_alpha   90.00000000
_cell_angle_beta   90.00000000
_cell_angle_gamma   118.42735911
_symmetry_Int_Tables_number   1
_chemical_formula_structural   La3LuAl18(RePd2)2
_chemical_formula_sum   'La3 Lu1 Al18 Re2 Pd4'
_cell_volume   501.96144851
_cell_formula_units_Z   1
loop_
 _symmetry_equiv_pos_site_id
 _symmetry_equiv_pos_as_xyz
  1  'x, y, z'
loop_
 _atom_site_type_symbol
 _atom_site_label
 _atom_site_symmetry_multiplicity
 _atom_site_fract_x
 _atom_site_fract_y
 _atom_site_fract_z
 _atom_site_occupancy
  La  La0  1  0.006115  0.320572  0.750000  1
  La  La1  1  0.679740  0.993924  0.250000  1
  La  La2  1  0.320513  0.005759  0.750000  1
  Lu  Lu3  1  0.993367  0.686297  0.250000  1
  Al  Al4  1  0.135171  0.133990  0.250000  1
  Al  Al5  1  0.863269  0.860990  0.750000  1
  Al  Al6  1  0.005014  0.340009  0.078967  1
  Al  Al7  1  0.996012  0.665102  0.931042  1
  Al  Al8  1  0.996012  0.665102  0.568958  1
  Al  Al9  1  0.331439  0.000078  0.420583  1
  Al  Al10  1  0.005014  0.340009  0.421033  1
  Al  Al11  1  0.664984  0.993201  0.574372  1
  Al  Al12  1  0.664984  0.993201  0.925628  1
  Al  Al13  1  0.331439  0.000078  0.079417  1
  Al  Al14  1  0.330231  0.329903  0.537603  1
  Al  Al15  1  0.671672  0.667963  0.452056  1
  Al  Al16  1  0.671672  0.667963  0.047944  1
  Al  Al17  1  0.330231  0.329903  0.962397  1
  Al  Al18  1  0.339385  0.550228  0.250000  1
  Al  Al19  1  0.657403  0.453226  0.750000  1
  Al  Al20  1  0.554055  0.351140  0.250000  1
  Al  Al21  1  0.452560  0.654980  0.750000  1
  Re  Re22  1  0.999359  0.998449  0.002559  1
  Re  Re23  1  0.999359  0.998449  0.497441  1
  Pd  Pd24  1  0.670530  0.328585  0.001185  1
  Pd  Pd25  1  0.329968  0.671156  0.001188  1
  Pd  Pd26  1  0.329968  0.671156  0.498812  1
  Pd  Pd27  1  0.670530  0.328585  0.498815  1
