# generated using pymatgen
data_CsReCl6
_symmetry_space_group_name_H-M   'P 1'
_cell_length_a   6.97937158
_cell_length_b   6.97937207
_cell_length_c   12.58622605
_cell_angle_alpha   79.16516050
_cell_angle_beta   79.16516024
_cell_angle_gamma   55.53266199
_symmetry_Int_Tables_number   1
_chemical_formula_structural   CsReCl6
_chemical_formula_sum   'Cs2 Re2 Cl12'
_cell_volume   493.92830667
_cell_formula_units_Z   2
loop_
 _symmetry_equiv_pos_site_id
 _symmetry_equiv_pos_as_xyz
  1  'x, y, z'
loop_
 _atom_site_type_symbol
 _atom_site_label
 _atom_site_symmetry_multiplicity
 _atom_site_fract_x
 _atom_site_fract_y
 _atom_site_fract_z
 _atom_site_occupancy
  Cs  Cs0  1  0.116858  0.883142  0.250000  1
  Cs  Cs1  1  0.883142  0.116858  0.750000  1
  Re  Re2  1  0.000000  0.500000  0.000000  1
  Re  Re3  1  0.500000  0.000000  0.500000  1
  Cl  Cl4  1  0.196942  0.372257  0.155292  1
  Cl  Cl5  1  0.627743  0.803058  0.344708  1
  Cl  Cl6  1  0.803058  0.627743  0.844708  1
  Cl  Cl7  1  0.372257  0.196942  0.655292  1
  Cl  Cl8  1  0.798441  0.886517  0.039523  1
  Cl  Cl9  1  0.113483  0.201559  0.460477  1
  Cl  Cl10  1  0.201559  0.113483  0.960477  1
  Cl  Cl11  1  0.886517  0.798441  0.539523  1
  Cl  Cl12  1  0.704522  0.462520  0.101588  1
  Cl  Cl13  1  0.537480  0.295478  0.398412  1
  Cl  Cl14  1  0.295478  0.537480  0.898412  1
  Cl  Cl15  1  0.462520  0.704522  0.601588  1
