# generated using pymatgen
data_GaCu5(SnRh2)6
_symmetry_space_group_name_H-M   'P 1'
_cell_length_a   4.41252936
_cell_length_b   6.20911200
_cell_length_c   13.26937800
_cell_angle_alpha   90.00000000
_cell_angle_beta   90.11150049
_cell_angle_gamma   90.00000000
_symmetry_Int_Tables_number   1
_chemical_formula_structural   GaCu5(SnRh2)6
_chemical_formula_sum   'Ga1 Cu5 Sn6 Rh12'
_cell_volume   363.55225675
_cell_formula_units_Z   1
loop_
 _symmetry_equiv_pos_site_id
 _symmetry_equiv_pos_as_xyz
  1  'x, y, z'
loop_
 _atom_site_type_symbol
 _atom_site_label
 _atom_site_symmetry_multiplicity
 _atom_site_fract_x
 _atom_site_fract_y
 _atom_site_fract_z
 _atom_site_occupancy
  Ga  Ga0  1  0.000000  0.499999  0.000000  1
  Cu  Cu1  1  0.499960  0.000000  0.166615  1
  Cu  Cu2  1  0.998422  0.499999  0.333463  1
  Cu  Cu3  1  0.499999  0.000000  0.500000  1
  Cu  Cu4  1  0.001577  0.499999  0.666536  1
  Cu  Cu5  1  0.500039  0.000000  0.833385  1
  Sn  Sn6  1  0.000000  0.000000  0.000000  1
  Sn  Sn7  1  0.499765  0.499999  0.173723  1
  Sn  Sn8  1  0.999108  0.000000  0.333580  1
  Sn  Sn9  1  0.499999  0.499999  0.500000  1
  Sn  Sn10  1  0.000891  0.000000  0.666420  1
  Sn  Sn11  1  0.500234  0.499999  0.826277  1
  Rh  Rh12  1  0.499999  0.259441  0.000000  1
  Rh  Rh13  1  0.499999  0.740558  0.000000  1
  Rh  Rh14  1  0.999793  0.253706  0.162059  1
  Rh  Rh15  1  0.999793  0.746294  0.162059  1
  Rh  Rh16  1  0.498988  0.245937  0.333632  1
  Rh  Rh17  1  0.498988  0.754062  0.333632  1
  Rh  Rh18  1  0.000000  0.251926  0.500000  1
  Rh  Rh19  1  0.000000  0.748074  0.500000  1
  Rh  Rh20  1  0.501011  0.245937  0.666368  1
  Rh  Rh21  1  0.501011  0.754062  0.666368  1
  Rh  Rh22  1  0.000205  0.253706  0.837941  1
  Rh  Rh23  1  0.000205  0.746294  0.837941  1
