# generated using pymatgen
data_DyHf8ZrSn6
_symmetry_space_group_name_H-M   'P 1'
_cell_length_a   8.55732500
_cell_length_b   8.55732607
_cell_length_c   5.77190700
_cell_angle_alpha   90.00000000
_cell_angle_beta   90.00000000
_cell_angle_gamma   121.04779521
_symmetry_Int_Tables_number   1
_chemical_formula_structural   DyHf8ZrSn6
_chemical_formula_sum   'Dy1 Hf8 Zr1 Sn6'
_cell_volume   362.11218669
_cell_formula_units_Z   1
loop_
 _symmetry_equiv_pos_site_id
 _symmetry_equiv_pos_as_xyz
  1  'x, y, z'
loop_
 _atom_site_type_symbol
 _atom_site_label
 _atom_site_symmetry_multiplicity
 _atom_site_fract_x
 _atom_site_fract_y
 _atom_site_fract_z
 _atom_site_occupancy
  Dy  Dy0  1  0.770399  0.770399  0.750000  1
  Hf  Hf1  1  0.251548  0.001298  0.750000  1
  Hf  Hf2  1  0.001298  0.251548  0.750000  1
  Hf  Hf3  1  0.750068  0.000420  0.250000  1
  Hf  Hf4  1  0.000420  0.750068  0.250000  1
  Hf  Hf5  1  0.664903  0.333834  0.000388  1
  Hf  Hf6  1  0.333834  0.664903  0.000388  1
  Hf  Hf7  1  0.333834  0.664903  0.499612  1
  Hf  Hf8  1  0.664903  0.333834  0.499612  1
  Zr  Zr9  1  0.232078  0.232078  0.250000  1
  Sn  Sn10  1  0.390861  0.390861  0.750000  1
  Sn  Sn11  1  0.606000  0.003740  0.750000  1
  Sn  Sn12  1  0.003740  0.606000  0.750000  1
  Sn  Sn13  1  0.605980  0.605980  0.250000  1
  Sn  Sn14  1  0.391678  0.998450  0.250000  1
  Sn  Sn15  1  0.998450  0.391678  0.250000  1
