# generated using pymatgen
data_Nd12Os3Pt
_symmetry_space_group_name_H-M   'P 1'
_cell_length_a   6.57821391
_cell_length_b   7.48436932
_cell_length_c   9.74356400
_cell_angle_alpha   90.00000000
_cell_angle_beta   90.00000000
_cell_angle_gamma   90.18944370
_symmetry_Int_Tables_number   1
_chemical_formula_structural   Nd12Os3Pt
_chemical_formula_sum   'Nd12 Os3 Pt1'
_cell_volume   479.70988718
_cell_formula_units_Z   1
loop_
 _symmetry_equiv_pos_site_id
 _symmetry_equiv_pos_as_xyz
  1  'x, y, z'
loop_
 _atom_site_type_symbol
 _atom_site_label
 _atom_site_symmetry_multiplicity
 _atom_site_fract_x
 _atom_site_fract_y
 _atom_site_fract_z
 _atom_site_occupancy
  Nd  Nd0  1  0.334877  0.671993  0.063393  1
  Nd  Nd1  1  0.170864  0.181024  0.437439  1
  Nd  Nd2  1  0.672713  0.323471  0.566968  1
  Nd  Nd3  1  0.825677  0.825143  0.930219  1
  Nd  Nd4  1  0.672713  0.323471  0.933032  1
  Nd  Nd5  1  0.825677  0.825143  0.569781  1
  Nd  Nd6  1  0.334877  0.671993  0.436607  1
  Nd  Nd7  1  0.170864  0.181024  0.062561  1
  Nd  Nd8  1  0.857182  0.533022  0.250000  1
  Nd  Nd9  1  0.634335  0.043163  0.250000  1
  Nd  Nd10  1  0.139198  0.462114  0.750000  1
  Nd  Nd11  1  0.357215  0.960708  0.750000  1
  Os  Os12  1  0.445504  0.384455  0.250000  1
  Os  Os13  1  0.950076  0.114015  0.750000  1
  Os  Os14  1  0.551200  0.614748  0.750000  1
  Pt  Pt15  1  0.057029  0.884514  0.250000  1
