# generated using pymatgen
data_TmHf2PdF15
_symmetry_space_group_name_H-M   'P 1'
_cell_length_a   8.01342591
_cell_length_b   8.01342647
_cell_length_c   8.01528900
_cell_angle_alpha   79.73991122
_cell_angle_beta   79.73991049
_cell_angle_gamma   100.03573771
_symmetry_Int_Tables_number   1
_chemical_formula_structural   TmHf2PdF15
_chemical_formula_sum   'Tm2 Hf4 Pd2 F30'
_cell_volume   486.96453049
_cell_formula_units_Z   2
loop_
 _symmetry_equiv_pos_site_id
 _symmetry_equiv_pos_as_xyz
  1  'x, y, z'
loop_
 _atom_site_type_symbol
 _atom_site_label
 _atom_site_symmetry_multiplicity
 _atom_site_fract_x
 _atom_site_fract_y
 _atom_site_fract_z
 _atom_site_occupancy
  Tm  Tm0  1  0.677116  0.322884  0.750000  1
  Tm  Tm1  1  0.322884  0.677116  0.250000  1
  Hf  Hf2  1  0.822647  0.752682  0.327181  1
  Hf  Hf3  1  0.247318  0.177353  0.172819  1
  Hf  Hf4  1  0.177353  0.247318  0.672819  1
  Hf  Hf5  1  0.752682  0.822647  0.827181  1
  Pd  Pd6  1  0.249866  0.750134  0.750000  1
  Pd  Pd7  1  0.750134  0.249866  0.250000  1
  F  F8  1  0.150940  0.186004  0.944844  1
  F  F9  1  0.688833  0.564719  0.846043  1
  F  F10  1  0.041070  0.657696  0.313583  1
  F  F11  1  0.657696  0.041070  0.813583  1
  F  F12  1  0.564719  0.688833  0.346043  1
  F  F13  1  0.186004  0.150940  0.444844  1
  F  F14  1  0.849060  0.813996  0.055156  1
  F  F15  1  0.311167  0.435281  0.153957  1
  F  F16  1  0.958930  0.342304  0.686417  1
  F  F17  1  0.342304  0.958930  0.186417  1
  F  F18  1  0.435281  0.311167  0.653957  1
  F  F19  1  0.813996  0.849060  0.555156  1
  F  F20  1  0.971487  0.028513  0.750000  1
  F  F21  1  0.542202  0.753169  0.025922  1
  F  F22  1  0.246831  0.457798  0.474078  1
  F  F23  1  0.457798  0.246831  0.974078  1
  F  F24  1  0.753169  0.542202  0.525922  1
  F  F25  1  0.028513  0.971487  0.250000  1
  F  F26  1  0.211935  0.726932  0.000480  1
  F  F27  1  0.226506  0.497827  0.790947  1
  F  F28  1  0.995982  0.711641  0.776014  1
  F  F29  1  0.711641  0.995982  0.276014  1
  F  F30  1  0.497827  0.226506  0.290947  1
  F  F31  1  0.726932  0.211935  0.500480  1
  F  F32  1  0.788065  0.273068  0.999520  1
  F  F33  1  0.773494  0.502173  0.209053  1
  F  F34  1  0.004018  0.288359  0.223986  1
  F  F35  1  0.288359  0.004018  0.723986  1
  F  F36  1  0.502173  0.773494  0.709053  1
  F  F37  1  0.273068  0.788065  0.499520  1
