# generated using pymatgen
data_Tb10AgAsPb6
_symmetry_space_group_name_H-M   'P 1'
_cell_length_a   9.26254100
_cell_length_b   9.26253774
_cell_length_c   6.82256800
_cell_angle_alpha   90.00018557
_cell_angle_beta   89.99979587
_cell_angle_gamma   120.00040807
_symmetry_Int_Tables_number   1
_chemical_formula_structural   Tb10AgAsPb6
_chemical_formula_sum   'Tb10 Ag1 As1 Pb6'
_cell_volume   506.91699605
_cell_formula_units_Z   1
loop_
 _symmetry_equiv_pos_site_id
 _symmetry_equiv_pos_as_xyz
  1  'x, y, z'
loop_
 _atom_site_type_symbol
 _atom_site_label
 _atom_site_symmetry_multiplicity
 _atom_site_fract_x
 _atom_site_fract_y
 _atom_site_fract_z
 _atom_site_occupancy
  Tb  Tb0  1  0.254640  0.999973  0.264787  1
  Tb  Tb1  1  0.745360  0.000027  0.735213  1
  Tb  Tb2  1  0.999972  0.254640  0.264786  1
  Tb  Tb3  1  0.000028  0.745360  0.735214  1
  Tb  Tb4  1  0.745299  0.745300  0.264849  1
  Tb  Tb5  1  0.254701  0.254700  0.735151  1
  Tb  Tb6  1  0.333395  0.666604  0.000000  1
  Tb  Tb7  1  0.666605  0.333396  0.000000  1
  Tb  Tb8  1  0.666666  0.333334  0.500000  1
  Tb  Tb9  1  0.333334  0.666666  0.500000  1
  Ag  Ag10  1  0.000000  0.000000  0.000000  1
  As  As11  1  0.000000  0.000000  0.500000  1
  Pb  Pb12  1  0.606875  0.999927  0.249485  1
  Pb  Pb13  1  0.393125  0.000073  0.750515  1
  Pb  Pb14  1  0.999927  0.606875  0.249489  1
  Pb  Pb15  1  0.000073  0.393125  0.750511  1
  Pb  Pb16  1  0.393071  0.393071  0.249526  1
  Pb  Pb17  1  0.606929  0.606929  0.750474  1
