# generated using pymatgen
data_ZrPa2Mn2Ga3Ni
_symmetry_space_group_name_H-M   'P 1'
_cell_length_a   6.95202276
_cell_length_b   6.95202137
_cell_length_c   3.72914700
_cell_angle_alpha   90.00000000
_cell_angle_beta   90.00000000
_cell_angle_gamma   122.69639456
_symmetry_Int_Tables_number   1
_chemical_formula_structural   ZrPa2Mn2Ga3Ni
_chemical_formula_sum   'Zr1 Pa2 Mn2 Ga3 Ni1'
_cell_volume   151.67325787
_cell_formula_units_Z   1
loop_
 _symmetry_equiv_pos_site_id
 _symmetry_equiv_pos_as_xyz
  1  'x, y, z'
loop_
 _atom_site_type_symbol
 _atom_site_label
 _atom_site_symmetry_multiplicity
 _atom_site_fract_x
 _atom_site_fract_y
 _atom_site_fract_z
 _atom_site_occupancy
  Zr  Zr0  1  0.588102  0.588102  0.500000  1
  Pa  Pa1  1  0.430634  0.007083  0.500000  1
  Pa  Pa2  1  0.007083  0.430634  0.500000  1
  Mn  Mn3  1  0.301012  0.665813  0.000000  1
  Mn  Mn4  1  0.665813  0.301012  0.000000  1
  Ga  Ga5  1  0.756148  0.980900  0.000000  1
  Ga  Ga6  1  0.980900  0.756148  0.000000  1
  Ga  Ga7  1  0.263158  0.263158  0.000000  1
  Ni  Ni8  1  0.007151  0.007151  0.500000  1
