# generated using pymatgen
data_K2Hf(Si2O5)3
_symmetry_space_group_name_H-M   'P 1'
_cell_length_a   7.03974905
_cell_length_b   7.43666306
_cell_length_c   7.77208863
_cell_angle_alpha   99.25489592
_cell_angle_beta   106.11949064
_cell_angle_gamma   112.24784108
_symmetry_Int_Tables_number   1
_chemical_formula_structural   K2Hf(Si2O5)3
_chemical_formula_sum   'K2 Hf1 Si6 O15'
_cell_volume   345.22798806
_cell_formula_units_Z   1
loop_
 _symmetry_equiv_pos_site_id
 _symmetry_equiv_pos_as_xyz
  1  'x, y, z'
loop_
 _atom_site_type_symbol
 _atom_site_label
 _atom_site_symmetry_multiplicity
 _atom_site_fract_x
 _atom_site_fract_y
 _atom_site_fract_z
 _atom_site_occupancy
  K  K0  1  0.286563  0.711286  0.818880  1
  K  K1  1  0.713437  0.288714  0.181120  1
  Hf  Hf2  1  0.000000  0.000000  0.000000  1
  Si  Si3  1  0.698241  0.815069  0.261348  1
  Si  Si4  1  0.301759  0.184931  0.738652  1
  Si  Si5  1  0.149258  0.832839  0.372685  1
  Si  Si6  1  0.850742  0.167161  0.627315  1
  Si  Si7  1  0.319009  0.503519  0.317593  1
  Si  Si8  1  0.680991  0.496481  0.682407  1
  O  O9  1  0.455676  0.616238  0.192231  1
  O  O10  1  0.544324  0.383762  0.807769  1
  O  O11  1  0.211065  0.644283  0.397727  1
  O  O12  1  0.788935  0.355717  0.602273  1
  O  O13  1  0.874945  0.716790  0.808582  1
  O  O14  1  0.125055  0.283210  0.191418  1
  O  O15  1  0.885582  0.738909  0.349584  1
  O  O16  1  0.114418  0.261091  0.650416  1
  O  O17  1  0.730145  0.899111  0.087346  1
  O  O18  1  0.500000  0.500000  0.500000  1
  O  O19  1  0.294788  0.008924  0.576466  1
  O  O20  1  0.705212  0.991076  0.423534  1
  O  O21  1  0.820411  0.089811  0.802976  1
  O  O22  1  0.179589  0.910189  0.197024  1
  O  O23  1  0.269855  0.100889  0.912654  1
