# generated using pymatgen
data_Tb2PaSn3Ir2Rh
_symmetry_space_group_name_H-M   'P 1'
_cell_length_a   7.65395800
_cell_length_b   7.56612822
_cell_length_c   3.88144100
_cell_angle_alpha   90.00000000
_cell_angle_beta   90.00000000
_cell_angle_gamma   120.38474771
_symmetry_Int_Tables_number   1
_chemical_formula_structural   Tb2PaSn3Ir2Rh
_chemical_formula_sum   'Tb2 Pa1 Sn3 Ir2 Rh1'
_cell_volume   193.90390482
_cell_formula_units_Z   1
loop_
 _symmetry_equiv_pos_site_id
 _symmetry_equiv_pos_as_xyz
  1  'x, y, z'
loop_
 _atom_site_type_symbol
 _atom_site_label
 _atom_site_symmetry_multiplicity
 _atom_site_fract_x
 _atom_site_fract_y
 _atom_site_fract_z
 _atom_site_occupancy
  Tb  Tb0  1  0.999567  0.405808  0.500000  1
  Tb  Tb1  1  0.593758  0.594192  0.500000  1
  Pa  Pa2  1  0.413998  0.000000  0.500000  1
  Sn  Sn3  1  0.756394  0.000000  0.000000  1
  Sn  Sn4  1  0.986863  0.729180  0.000000  1
  Sn  Sn5  1  0.257683  0.270820  0.000000  1
  Ir  Ir6  1  0.337406  0.697780  0.000000  1
  Ir  Ir7  1  0.639626  0.302220  0.000000  1
  Rh  Rh8  1  0.014705  0.000000  0.500000  1
