# generated using pymatgen
data_NaTi3Ga2(B2Rh5)2
_symmetry_space_group_name_H-M   'P 1'
_cell_length_a   9.39495930
_cell_length_b   2.96307700
_cell_length_c   9.39495930
_cell_angle_alpha   90.00000000
_cell_angle_beta   88.95814322
_cell_angle_gamma   90.00000000
_symmetry_Int_Tables_number   1
_chemical_formula_structural   NaTi3Ga2(B2Rh5)2
_chemical_formula_sum   'Na1 Ti3 Ga2 B4 Rh10'
_cell_volume   261.49352521
_cell_formula_units_Z   1
loop_
 _symmetry_equiv_pos_site_id
 _symmetry_equiv_pos_as_xyz
  1  'x, y, z'
loop_
 _atom_site_type_symbol
 _atom_site_label
 _atom_site_symmetry_multiplicity
 _atom_site_fract_x
 _atom_site_fract_y
 _atom_site_fract_z
 _atom_site_occupancy
  Na  Na0  1  0.677601  0.000000  0.177601  1
  Ti  Ti1  1  0.174035  0.000000  0.326059  1
  Ti  Ti2  1  0.826058  0.000000  0.674035  1
  Ti  Ti3  1  0.325471  0.000000  0.825470  1
  Ga  Ga4  1  0.989604  0.000000  0.003164  1
  Ga  Ga5  1  0.503164  0.000000  0.489604  1
  B  B6  1  0.368572  0.000000  0.121729  1
  B  B7  1  0.879144  0.000000  0.379144  1
  B  B8  1  0.129673  0.000000  0.629673  1
  B  B9  1  0.621729  0.000000  0.868572  1
  Rh  Rh10  1  0.492123  0.500001  0.992123  1
  Rh  Rh11  1  0.210878  0.500001  0.065617  1
  Rh  Rh12  1  0.947738  0.500001  0.226499  1
  Rh  Rh13  1  0.409688  0.500001  0.283720  1
  Rh  Rh14  1  0.726498  0.500001  0.447737  1
  Rh  Rh15  1  0.006563  0.500001  0.506563  1
  Rh  Rh16  1  0.288010  0.500001  0.574115  1
  Rh  Rh17  1  0.565617  0.500001  0.710877  1
  Rh  Rh18  1  0.074115  0.500001  0.788009  1
  Rh  Rh19  1  0.783719  0.500001  0.909689  1
