# generated using pymatgen
data_PrSmDy4Ta2O14
_symmetry_space_group_name_H-M   'P 1'
_cell_length_a   6.50176294
_cell_length_b   6.50176219
_cell_length_c   7.59475622
_cell_angle_alpha   89.97753406
_cell_angle_beta   90.02246456
_cell_angle_gamma   109.29185206
_symmetry_Int_Tables_number   1
_chemical_formula_structural   PrSmDy4Ta2O14
_chemical_formula_sum   'Pr1 Sm1 Dy4 Ta2 O14'
_cell_volume   303.02470207
_cell_formula_units_Z   1
loop_
 _symmetry_equiv_pos_site_id
 _symmetry_equiv_pos_as_xyz
  1  'x, y, z'
loop_
 _atom_site_type_symbol
 _atom_site_label
 _atom_site_symmetry_multiplicity
 _atom_site_fract_x
 _atom_site_fract_y
 _atom_site_fract_z
 _atom_site_occupancy
  Pr  Pr0  1  0.500000  0.500000  0.500000  1
  Sm  Sm1  1  0.500000  0.500000  0.000000  1
  Dy  Dy2  1  0.533610  0.000768  0.751687  1
  Dy  Dy3  1  0.000768  0.533610  0.248313  1
  Dy  Dy4  1  0.466390  0.999232  0.248313  1
  Dy  Dy5  1  0.999232  0.466390  0.751687  1
  Ta  Ta6  1  0.000000  0.000000  0.500000  1
  Ta  Ta7  1  0.000000  0.000000  0.000000  1
  O  O8  1  0.679950  0.931723  0.467598  1
  O  O9  1  0.931723  0.679950  0.532402  1
  O  O10  1  0.680079  0.930159  0.032119  1
  O  O11  1  0.930159  0.680079  0.967881  1
  O  O12  1  0.320050  0.068277  0.532402  1
  O  O13  1  0.068277  0.320050  0.467598  1
  O  O14  1  0.319921  0.069841  0.967881  1
  O  O15  1  0.069841  0.319921  0.032119  1
  O  O16  1  0.935824  0.064176  0.749964  1
  O  O17  1  0.064176  0.935824  0.250036  1
  O  O18  1  0.364476  0.635523  0.755168  1
  O  O19  1  0.635523  0.364476  0.244832  1
  O  O20  1  0.641975  0.358025  0.754448  1
  O  O21  1  0.358025  0.641975  0.245552  1
