# generated using pymatgen
data_Tb8TaTi10Si16Ir
_symmetry_space_group_name_H-M   'P 1'
_cell_length_a   7.04721238
_cell_length_b   7.04514885
_cell_length_c   12.90619206
_cell_angle_alpha   90.16354111
_cell_angle_beta   89.83595019
_cell_angle_gamma   89.78759782
_symmetry_Int_Tables_number   1
_chemical_formula_structural   Tb8TaTi10Si16Ir
_chemical_formula_sum   'Tb8 Ta1 Ti10 Si16 Ir1'
_cell_volume   640.76548464
_cell_formula_units_Z   1
loop_
 _symmetry_equiv_pos_site_id
 _symmetry_equiv_pos_as_xyz
  1  'x, y, z'
loop_
 _atom_site_type_symbol
 _atom_site_label
 _atom_site_symmetry_multiplicity
 _atom_site_fract_x
 _atom_site_fract_y
 _atom_site_fract_z
 _atom_site_occupancy
  Tb  Tb0  1  0.340490  0.004083  0.467446  1
  Tb  Tb1  1  0.496697  0.841264  0.718111  1
  Tb  Tb2  1  0.501133  0.158570  0.215191  1
  Tb  Tb3  1  0.841580  0.496769  0.281789  1
  Tb  Tb4  1  0.158699  0.501235  0.784939  1
  Tb  Tb5  1  0.658219  0.997948  0.968552  1
  Tb  Tb6  1  0.004382  0.339837  0.532656  1
  Tb  Tb7  1  0.997843  0.658000  0.031303  1
  Ta  Ta8  1  0.175305  0.826881  0.248030  1
  Ti  Ti9  1  0.826688  0.175463  0.751959  1
  Ti  Ti10  1  0.673402  0.673936  0.499975  1
  Ti  Ti11  1  0.150171  0.003367  0.876509  1
  Ti  Ti12  1  0.492464  0.658170  0.125689  1
  Ti  Ti13  1  0.507424  0.348534  0.628299  1
  Ti  Ti14  1  0.657651  0.493126  0.874801  1
  Ti  Ti15  1  0.347489  0.508398  0.371053  1
  Ti  Ti16  1  0.848293  0.992555  0.374512  1
  Ti  Ti17  1  0.003510  0.148864  0.124147  1
  Ti  Ti18  1  0.993482  0.848025  0.624747  1
  Si  Si19  1  0.201369  0.131411  0.686352  1
  Si  Si20  1  0.373571  0.699990  0.934403  1
  Si  Si21  1  0.630203  0.296870  0.435054  1
  Si  Si22  1  0.700042  0.373275  0.065011  1
  Si  Si23  1  0.296907  0.629743  0.565084  1
  Si  Si24  1  0.797540  0.869090  0.184515  1
  Si  Si25  1  0.131678  0.201516  0.314137  1
  Si  Si26  1  0.869113  0.797301  0.815360  1
  Si  Si27  1  0.287148  0.952516  0.062381  1
  Si  Si28  1  0.547130  0.791719  0.315945  1
  Si  Si29  1  0.449558  0.210299  0.818785  1
  Si  Si30  1  0.791510  0.547487  0.684386  1
  Si  Si31  1  0.209920  0.449323  0.181711  1
  Si  Si32  1  0.709082  0.048104  0.565878  1
  Si  Si33  1  0.950945  0.286099  0.936094  1
  Si  Si34  1  0.047601  0.708189  0.434811  1
  Ir  Ir35  1  0.331757  0.332041  0.000384  1
