# generated using pymatgen
data_K2AsPtO6
_symmetry_space_group_name_H-M   'P 1'
_cell_length_a   9.53405500
_cell_length_b   5.96359400
_cell_length_c   11.11618100
_cell_angle_alpha   90.00000000
_cell_angle_beta   90.00000000
_cell_angle_gamma   90.00000000
_symmetry_Int_Tables_number   1
_chemical_formula_structural   K2AsPtO6
_chemical_formula_sum   'K8 As4 Pt4 O24'
_cell_volume   632.03529534
_cell_formula_units_Z   4
loop_
 _symmetry_equiv_pos_site_id
 _symmetry_equiv_pos_as_xyz
  1  'x, y, z'
loop_
 _atom_site_type_symbol
 _atom_site_label
 _atom_site_symmetry_multiplicity
 _atom_site_fract_x
 _atom_site_fract_y
 _atom_site_fract_z
 _atom_site_occupancy
  K  K0  1  0.616701  0.500000  0.162634  1
  K  K1  1  0.319099  0.000000  0.201940  1
  K  K2  1  0.819099  0.000000  0.298060  1
  K  K3  1  0.116701  0.500000  0.337366  1
  K  K4  1  0.883298  0.000000  0.662634  1
  K  K5  1  0.180900  0.500000  0.701940  1
  K  K6  1  0.680900  0.500000  0.798060  1
  K  K7  1  0.383299  0.000000  0.837366  1
  As  As8  1  0.304410  0.500000  0.012207  1
  As  As9  1  0.804410  0.500000  0.487793  1
  As  As10  1  0.195589  0.000000  0.512207  1
  As  As11  1  0.695589  0.000000  0.987793  1
  Pt  Pt12  1  0.000000  0.250000  0.000000  1
  Pt  Pt13  1  0.000000  0.749999  0.000000  1
  Pt  Pt14  1  0.499999  0.250000  0.500000  1
  Pt  Pt15  1  0.499999  0.749999  0.500000  1
  O  O16  1  0.791673  0.238668  0.036234  1
  O  O17  1  0.791673  0.761332  0.036234  1
  O  O18  1  0.551991  0.000000  0.076265  1
  O  O19  1  0.019362  0.500000  0.115009  1
  O  O20  1  0.032951  0.000000  0.114809  1
  O  O21  1  0.329172  0.500000  0.163008  1
  O  O22  1  0.829172  0.500000  0.336992  1
  O  O23  1  0.532951  0.000000  0.385191  1
  O  O24  1  0.519363  0.500000  0.384991  1
  O  O25  1  0.051991  0.000000  0.423735  1
  O  O26  1  0.291673  0.238668  0.463766  1
  O  O27  1  0.291673  0.761332  0.463766  1
  O  O28  1  0.708325  0.261333  0.536234  1
  O  O29  1  0.708325  0.738666  0.536234  1
  O  O30  1  0.948008  0.500000  0.576265  1
  O  O31  1  0.480637  0.000000  0.615009  1
  O  O32  1  0.467047  0.500000  0.614809  1
  O  O33  1  0.170826  0.000000  0.663008  1
  O  O34  1  0.670826  0.000000  0.836992  1
  O  O35  1  0.967048  0.500000  0.885190  1
  O  O36  1  0.980636  0.000000  0.884991  1
  O  O37  1  0.448008  0.500000  0.923735  1
  O  O38  1  0.208326  0.261333  0.963766  1
  O  O39  1  0.208326  0.738666  0.963766  1
