# generated using pymatgen
data_LaSmCo5B2
_symmetry_space_group_name_H-M   'P 1'
_cell_length_a   5.12991306
_cell_length_b   5.12991355
_cell_length_c   20.09861700
_cell_angle_alpha   90.00000000
_cell_angle_beta   90.00000000
_cell_angle_gamma   120.00534869
_symmetry_Int_Tables_number   1
_chemical_formula_structural   LaSmCo5B2
_chemical_formula_sum   'La4 Sm4 Co20 B8'
_cell_volume   458.02949708
_cell_formula_units_Z   4
loop_
 _symmetry_equiv_pos_site_id
 _symmetry_equiv_pos_as_xyz
  1  'x, y, z'
loop_
 _atom_site_type_symbol
 _atom_site_label
 _atom_site_symmetry_multiplicity
 _atom_site_fract_x
 _atom_site_fract_y
 _atom_site_fract_z
 _atom_site_occupancy
  La  La0  1  0.666788  0.333212  0.521436  1
  La  La1  1  0.333212  0.666788  0.478564  1
  La  La2  1  0.333212  0.666788  0.021436  1
  La  La3  1  0.666788  0.333212  0.978564  1
  Sm  Sm4  1  0.666722  0.333278  0.674899  1
  Sm  Sm5  1  0.333278  0.666722  0.325101  1
  Sm  Sm6  1  0.333278  0.666722  0.174899  1
  Sm  Sm7  1  0.666722  0.333278  0.825101  1
  Co  Co8  1  0.000000  0.000000  0.500000  1
  Co  Co9  1  0.000000  0.000000  0.000000  1
  Co  Co10  1  0.167918  0.335652  0.750000  1
  Co  Co11  1  0.167908  0.832092  0.750000  1
  Co  Co12  1  0.664348  0.832082  0.750000  1
  Co  Co13  1  0.832082  0.664348  0.250000  1
  Co  Co14  1  0.832092  0.167908  0.250000  1
  Co  Co15  1  0.335652  0.167918  0.250000  1
  Co  Co16  1  0.160920  0.321578  0.608890  1
  Co  Co17  1  0.160880  0.839120  0.608888  1
  Co  Co18  1  0.678422  0.839081  0.608890  1
  Co  Co19  1  0.839081  0.678422  0.391110  1
  Co  Co20  1  0.839120  0.160880  0.391112  1
  Co  Co21  1  0.321578  0.160920  0.391110  1
  Co  Co22  1  0.839081  0.678422  0.108890  1
  Co  Co23  1  0.839120  0.160880  0.108888  1
  Co  Co24  1  0.321578  0.160920  0.108890  1
  Co  Co25  1  0.160920  0.321578  0.891110  1
  Co  Co26  1  0.160880  0.839120  0.891112  1
  Co  Co27  1  0.678422  0.839081  0.891110  1
  B  B28  1  0.000054  0.999946  0.678983  1
  B  B29  1  0.999946  0.000054  0.321017  1
  B  B30  1  0.999946  0.000054  0.178983  1
  B  B31  1  0.000054  0.999946  0.821017  1
  B  B32  1  0.666622  0.333378  0.324732  1
  B  B33  1  0.333378  0.666622  0.675268  1
  B  B34  1  0.333378  0.666622  0.824732  1
  B  B35  1  0.666622  0.333378  0.175268  1
