# generated using pymatgen
data_SmTm7(Sc3Pt4)4
_symmetry_space_group_name_H-M   'P 1'
_cell_length_a   7.30910926
_cell_length_b   7.36368936
_cell_length_c   13.87278459
_cell_angle_alpha   90.02694217
_cell_angle_beta   90.01966519
_cell_angle_gamma   90.02322388
_symmetry_Int_Tables_number   1
_chemical_formula_structural   SmTm7(Sc3Pt4)4
_chemical_formula_sum   'Sm1 Tm7 Sc12 Pt16'
_cell_volume   746.66096338
_cell_formula_units_Z   1
loop_
 _symmetry_equiv_pos_site_id
 _symmetry_equiv_pos_as_xyz
  1  'x, y, z'
loop_
 _atom_site_type_symbol
 _atom_site_label
 _atom_site_symmetry_multiplicity
 _atom_site_fract_x
 _atom_site_fract_y
 _atom_site_fract_z
 _atom_site_occupancy
  Sm  Sm0  1  0.005816  0.175528  0.093467  1
  Tm  Tm1  1  0.992986  0.821809  0.904635  1
  Tm  Tm2  1  0.493431  0.676625  0.905306  1
  Tm  Tm3  1  0.992680  0.823205  0.594510  1
  Tm  Tm4  1  0.506928  0.323981  0.094774  1
  Tm  Tm5  1  0.007377  0.176757  0.405418  1
  Tm  Tm6  1  0.507055  0.323421  0.405718  1
  Tm  Tm7  1  0.492931  0.676943  0.594496  1
  Sc  Sc8  1  0.165315  0.500704  0.749839  1
  Sc  Sc9  1  0.834318  0.499540  0.250582  1
  Sc  Sc10  1  0.335622  0.000526  0.250614  1
  Sc  Sc11  1  0.665363  0.998900  0.749785  1
  Sc  Sc12  1  0.332747  0.165834  0.623596  1
  Sc  Sc13  1  0.666914  0.833926  0.376778  1
  Sc  Sc14  1  0.167308  0.665432  0.376626  1
  Sc  Sc15  1  0.665418  0.832944  0.124003  1
  Sc  Sc16  1  0.832838  0.334126  0.623486  1
  Sc  Sc17  1  0.333528  0.166108  0.876102  1
  Sc  Sc18  1  0.831530  0.335133  0.875475  1
  Sc  Sc19  1  0.167449  0.665737  0.123772  1
  Pt  Pt20  1  0.030011  0.121502  0.750103  1
  Pt  Pt21  1  0.969164  0.876530  0.251389  1
  Pt  Pt22  1  0.470563  0.622249  0.250115  1
  Pt  Pt23  1  0.529858  0.378523  0.749886  1
  Pt  Pt24  1  0.296485  0.853590  0.750016  1
  Pt  Pt25  1  0.701406  0.146012  0.251451  1
  Pt  Pt26  1  0.206366  0.355412  0.252186  1
  Pt  Pt27  1  0.796162  0.646502  0.749850  1
  Pt  Pt28  1  0.175579  0.459345  0.542626  1
  Pt  Pt29  1  0.824064  0.541084  0.457444  1
  Pt  Pt30  1  0.324100  0.959220  0.457323  1
  Pt  Pt31  1  0.823146  0.544415  0.041630  1
  Pt  Pt32  1  0.675722  0.040681  0.542619  1
  Pt  Pt33  1  0.176776  0.461800  0.956341  1
  Pt  Pt34  1  0.674847  0.039997  0.956195  1
  Pt  Pt35  1  0.328197  0.955955  0.041844  1
