# generated using pymatgen
data_Nb4SiAs2PRh4
_symmetry_space_group_name_H-M   'P 1'
_cell_length_a   3.83427500
_cell_length_b   6.45435024
_cell_length_c   7.40343172
_cell_angle_alpha   90.20400570
_cell_angle_beta   90.00000000
_cell_angle_gamma   90.00000000
_symmetry_Int_Tables_number   1
_chemical_formula_structural   Nb4SiAs2PRh4
_chemical_formula_sum   'Nb4 Si1 As2 P1 Rh4'
_cell_volume   183.21714382
_cell_formula_units_Z   1
loop_
 _symmetry_equiv_pos_site_id
 _symmetry_equiv_pos_as_xyz
  1  'x, y, z'
loop_
 _atom_site_type_symbol
 _atom_site_label
 _atom_site_symmetry_multiplicity
 _atom_site_fract_x
 _atom_site_fract_y
 _atom_site_fract_z
 _atom_site_occupancy
  Nb  Nb0  1  0.250000  0.027163  0.831732  1
  Nb  Nb1  1  0.250000  0.528272  0.669828  1
  Nb  Nb2  1  0.750000  0.968375  0.164531  1
  Nb  Nb3  1  0.750000  0.468914  0.330642  1
  Si  Si4  1  0.750000  0.234176  0.624291  1
  As  As5  1  0.250000  0.764798  0.371884  1
  As  As6  1  0.250000  0.263047  0.129412  1
  P  P7  1  0.750000  0.737362  0.876472  1
  Rh  Rh8  1  0.250000  0.146521  0.449484  1
  Rh  Rh9  1  0.250000  0.649553  0.047992  1
  Rh  Rh10  1  0.750000  0.853838  0.576262  1
  Rh  Rh11  1  0.750000  0.357981  0.927469  1
