# generated using pymatgen
data_Tb2Ta2Bi2O11
_symmetry_space_group_name_H-M   'P 1'
_cell_length_a   6.60256608
_cell_length_b   7.68872364
_cell_length_c   9.72965946
_cell_angle_alpha   101.38026393
_cell_angle_beta   90.23647493
_cell_angle_gamma   90.08772712
_symmetry_Int_Tables_number   1
_chemical_formula_structural   Tb2Ta2Bi2O11
_chemical_formula_sum   'Tb4 Ta4 Bi4 O22'
_cell_volume   484.21258697
_cell_formula_units_Z   2
loop_
 _symmetry_equiv_pos_site_id
 _symmetry_equiv_pos_as_xyz
  1  'x, y, z'
loop_
 _atom_site_type_symbol
 _atom_site_label
 _atom_site_symmetry_multiplicity
 _atom_site_fract_x
 _atom_site_fract_y
 _atom_site_fract_z
 _atom_site_occupancy
  Tb  Tb0  1  0.747536  0.369387  0.482361  1
  Tb  Tb1  1  0.252464  0.630613  0.517639  1
  Tb  Tb2  1  0.759657  0.872319  0.490394  1
  Tb  Tb3  1  0.240343  0.127681  0.509606  1
  Ta  Ta4  1  0.912576  0.700759  0.804305  1
  Ta  Ta5  1  0.087424  0.299241  0.195695  1
  Ta  Ta6  1  0.914254  0.199217  0.805948  1
  Ta  Ta7  1  0.085746  0.800783  0.194052  1
  Bi  Bi8  1  0.433981  0.954197  0.814712  1
  Bi  Bi9  1  0.566019  0.045803  0.185288  1
  Bi  Bi10  1  0.389064  0.454768  0.826691  1
  Bi  Bi11  1  0.610936  0.545232  0.173309  1
  O  O12  1  0.216640  0.724425  0.756049  1
  O  O13  1  0.783360  0.275575  0.243951  1
  O  O14  1  0.630083  0.664848  0.843168  1
  O  O15  1  0.369917  0.335152  0.156832  1
  O  O16  1  0.630635  0.254586  0.843744  1
  O  O17  1  0.369365  0.745414  0.156256  1
  O  O18  1  0.890953  0.155965  0.587902  1
  O  O19  1  0.109047  0.844035  0.412098  1
  O  O20  1  0.215441  0.150493  0.752057  1
  O  O21  1  0.784559  0.849507  0.247943  1
  O  O22  1  0.894410  0.638314  0.590998  1
  O  O23  1  0.105590  0.361686  0.409002  1
  O  O24  1  0.025891  0.550161  0.196601  1
  O  O25  1  0.974109  0.449839  0.803399  1
  O  O26  1  0.998385  0.787087  0.000532  1
  O  O27  1  0.001615  0.212913  0.999468  1
  O  O28  1  0.571950  0.597922  0.394137  1
  O  O29  1  0.428050  0.402078  0.605863  1
  O  O30  1  0.166943  0.056503  0.224485  1
  O  O31  1  0.833057  0.943497  0.775515  1
  O  O32  1  0.544183  0.104513  0.403963  1
  O  O33  1  0.455817  0.895487  0.596037  1
