# generated using pymatgen
data_Dy5Tm6Ni4Hg9
_symmetry_space_group_name_H-M   'P 1'
_cell_length_a   3.55093900
_cell_length_b   12.86344191
_cell_length_c   12.86344166
_cell_angle_alpha   112.62542306
_cell_angle_beta   90.00000000
_cell_angle_gamma   90.00000000
_symmetry_Int_Tables_number   1
_chemical_formula_structural   Dy5Tm6Ni4Hg9
_chemical_formula_sum   'Dy5 Tm6 Ni4 Hg9'
_cell_volume   542.34784632
_cell_formula_units_Z   1
loop_
 _symmetry_equiv_pos_site_id
 _symmetry_equiv_pos_as_xyz
  1  'x, y, z'
loop_
 _atom_site_type_symbol
 _atom_site_label
 _atom_site_symmetry_multiplicity
 _atom_site_fract_x
 _atom_site_fract_y
 _atom_site_fract_z
 _atom_site_occupancy
  Dy  Dy0  1  0.000000  0.835355  0.164645  1
  Dy  Dy1  1  0.000000  0.372718  0.627282  1
  Dy  Dy2  1  0.000000  0.626596  0.373404  1
  Dy  Dy3  1  0.000000  0.693057  0.692829  1
  Dy  Dy4  1  0.000000  0.307171  0.306943  1
  Tm  Tm5  1  0.000000  0.919884  0.584439  1
  Tm  Tm6  1  0.000000  0.080960  0.416174  1
  Tm  Tm7  1  0.000000  0.583826  0.919040  1
  Tm  Tm8  1  0.000000  0.415561  0.080116  1
  Tm  Tm9  1  0.000000  0.164591  0.835409  1
  Tm  Tm10  1  0.000000  0.000232  0.999768  1
  Ni  Ni11  1  0.500000  0.750854  0.549381  1
  Ni  Ni12  1  0.500000  0.249749  0.450334  1
  Ni  Ni13  1  0.500000  0.549666  0.750251  1
  Ni  Ni14  1  0.500000  0.450619  0.249146  1
  Hg  Hg15  1  0.500000  0.152757  0.629577  1
  Hg  Hg16  1  0.500000  0.846267  0.371920  1
  Hg  Hg17  1  0.500000  0.628080  0.153733  1
  Hg  Hg18  1  0.500000  0.370423  0.847243  1
  Hg  Hg19  1  0.500000  0.932096  0.783994  1
  Hg  Hg20  1  0.500000  0.069944  0.216331  1
  Hg  Hg21  1  0.500000  0.783669  0.930056  1
  Hg  Hg22  1  0.500000  0.216006  0.067904  1
  Hg  Hg23  1  0.500000  0.499921  0.500079  1
