# generated using pymatgen
data_Zr3Re2Si3Ru
_symmetry_space_group_name_H-M   'P 1'
_cell_length_a   6.92852500
_cell_length_b   6.96320309
_cell_length_c   3.48961000
_cell_angle_alpha   90.00000000
_cell_angle_beta   90.00000000
_cell_angle_gamma   119.83539760
_symmetry_Int_Tables_number   1
_chemical_formula_structural   Zr3Re2Si3Ru
_chemical_formula_sum   'Zr3 Re2 Si3 Ru1'
_cell_volume   146.04117798
_cell_formula_units_Z   1
loop_
 _symmetry_equiv_pos_site_id
 _symmetry_equiv_pos_as_xyz
  1  'x, y, z'
loop_
 _atom_site_type_symbol
 _atom_site_label
 _atom_site_symmetry_multiplicity
 _atom_site_fract_x
 _atom_site_fract_y
 _atom_site_fract_z
 _atom_site_occupancy
  Zr  Zr0  1  0.402474  0.000000  0.500000  1
  Zr  Zr1  1  0.004233  0.409698  0.500000  1
  Zr  Zr2  1  0.594535  0.590302  0.500000  1
  Re  Re3  1  0.000612  0.749371  0.000000  1
  Re  Re4  1  0.251241  0.250629  0.000000  1
  Si  Si5  1  0.336215  0.668418  0.000000  1
  Si  Si6  1  0.667798  0.331582  0.000000  1
  Si  Si7  1  0.993115  0.000000  0.500000  1
  Ru  Ru8  1  0.749777  0.000000  0.000000  1
