# generated using pymatgen
data_Pu4Sn2Ir3Pd
_symmetry_space_group_name_H-M   'P 1'
_cell_length_a   7.58896713
_cell_length_b   7.58896759
_cell_length_c   3.77490100
_cell_angle_alpha   90.00000000
_cell_angle_beta   90.00000000
_cell_angle_gamma   89.58281613
_symmetry_Int_Tables_number   1
_chemical_formula_structural   Pu4Sn2Ir3Pd
_chemical_formula_sum   'Pu4 Sn2 Ir3 Pd1'
_cell_volume   217.39994180
_cell_formula_units_Z   1
loop_
 _symmetry_equiv_pos_site_id
 _symmetry_equiv_pos_as_xyz
  1  'x, y, z'
loop_
 _atom_site_type_symbol
 _atom_site_label
 _atom_site_symmetry_multiplicity
 _atom_site_fract_x
 _atom_site_fract_y
 _atom_site_fract_z
 _atom_site_occupancy
  Pu  Pu0  1  0.674040  0.174040  0.500000  1
  Pu  Pu1  1  0.165821  0.317478  0.500000  1
  Pu  Pu2  1  0.341110  0.841110  0.500000  1
  Pu  Pu3  1  0.817478  0.665821  0.500000  1
  Sn  Sn4  1  0.495753  0.499665  0.000000  1
  Sn  Sn5  1  0.999665  0.995753  0.000000  1
  Ir  Ir6  1  0.869501  0.369501  0.000000  1
  Ir  Ir7  1  0.366352  0.135914  0.000000  1
  Ir  Ir8  1  0.635914  0.866352  0.000000  1
  Pd  Pd9  1  0.134368  0.634368  0.000000  1
