# generated using pymatgen
data_Ho12TcNi4Hg
_symmetry_space_group_name_H-M   'P 1'
_cell_length_a   8.23891278
_cell_length_b   8.23817964
_cell_length_c   8.23891277
_cell_angle_alpha   111.42858450
_cell_angle_beta   109.82213904
_cell_angle_gamma   107.19448397
_symmetry_Int_Tables_number   1
_chemical_formula_structural   Ho12TcNi4Hg
_chemical_formula_sum   'Ho12 Tc1 Ni4 Hg1'
_cell_volume   429.86127310
_cell_formula_units_Z   1
loop_
 _symmetry_equiv_pos_site_id
 _symmetry_equiv_pos_as_xyz
  1  'x, y, z'
loop_
 _atom_site_type_symbol
 _atom_site_label
 _atom_site_symmetry_multiplicity
 _atom_site_fract_x
 _atom_site_fract_y
 _atom_site_fract_z
 _atom_site_occupancy
  Ho  Ho0  1  0.417276  0.227851  0.189434  1
  Ho  Ho1  1  0.582724  0.772149  0.810566  1
  Ho  Ho2  1  0.038417  0.227851  0.810574  1
  Ho  Ho3  1  0.961583  0.772149  0.189426  1
  Ho  Ho4  1  0.177883  0.278221  0.456092  1
  Ho  Ho5  1  0.822117  0.721779  0.543908  1
  Ho  Ho6  1  0.177872  0.721779  0.899662  1
  Ho  Ho7  1  0.822128  0.278221  0.100338  1
  Ho  Ho8  1  0.323904  0.628212  0.304309  1
  Ho  Ho9  1  0.676096  0.371788  0.695691  1
  Ho  Ho10  1  0.323915  0.019617  0.695702  1
  Ho  Ho11  1  0.676085  0.980383  0.304298  1
  Tc  Tc12  1  0.000000  0.000000  0.000000  1
  Ni  Ni13  1  0.352965  0.000000  0.352965  1
  Ni  Ni14  1  0.647035  0.000000  0.647035  1
  Ni  Ni15  1  0.119879  0.619878  0.499999  1
  Ni  Ni16  1  0.880121  0.380122  0.500001  1
  Hg  Hg17  1  0.500000  0.500000  0.000000  1
