# generated using pymatgen
data_La6Nd10Cd4Ir3Au
_symmetry_space_group_name_H-M   'P 1'
_cell_length_a   10.03665449
_cell_length_b   10.05380812
_cell_length_c   10.05380924
_cell_angle_alpha   60.00379282
_cell_angle_beta   60.34758592
_cell_angle_gamma   60.34759898
_symmetry_Int_Tables_number   1
_chemical_formula_structural   La6Nd10Cd4Ir3Au
_chemical_formula_sum   'La6 Nd10 Cd4 Ir3 Au1'
_cell_volume   721.12348208
_cell_formula_units_Z   1
loop_
 _symmetry_equiv_pos_site_id
 _symmetry_equiv_pos_as_xyz
  1  'x, y, z'
loop_
 _atom_site_type_symbol
 _atom_site_label
 _atom_site_symmetry_multiplicity
 _atom_site_fract_x
 _atom_site_fract_y
 _atom_site_fract_z
 _atom_site_occupancy
  La  La0  1  0.343556  0.346406  0.346406  1
  La  La1  1  0.357110  0.354952  0.946405  1
  La  La2  1  0.357110  0.946405  0.354952  1
  La  La3  1  0.947561  0.356195  0.356195  1
  La  La4  1  0.799251  0.189988  0.189988  1
  La  La5  1  0.187421  0.811837  0.811837  1
  Nd  Nd6  1  0.191328  0.800127  0.191683  1
  Nd  Nd7  1  0.809805  0.189774  0.809545  1
  Nd  Nd8  1  0.191328  0.191683  0.800127  1
  Nd  Nd9  1  0.809805  0.809545  0.189774  1
  Nd  Nd10  1  0.938431  0.564880  0.564880  1
  Nd  Nd11  1  0.564835  0.937551  0.937551  1
  Nd  Nd12  1  0.564260  0.938980  0.564492  1
  Nd  Nd13  1  0.937951  0.564771  0.937943  1
  Nd  Nd14  1  0.564260  0.564492  0.938980  1
  Nd  Nd15  1  0.937951  0.937943  0.564771  1
  Cd  Cd16  1  0.582356  0.580666  0.580666  1
  Cd  Cd17  1  0.579248  0.580869  0.258693  1
  Cd  Cd18  1  0.579248  0.258693  0.580869  1
  Cd  Cd19  1  0.258574  0.579291  0.579291  1
  Ir  Ir20  1  0.141244  0.137949  0.573036  1
  Ir  Ir21  1  0.141244  0.573036  0.137949  1
  Ir  Ir22  1  0.573414  0.141478  0.141478  1
  Au  Au23  1  0.142709  0.142491  0.142491  1
