# generated using pymatgen
data_Dy2Cr2Co5(P2Rh)3
_symmetry_space_group_name_H-M   'P 1'
_cell_length_a   3.70456500
_cell_length_b   10.56002800
_cell_length_c   12.13866800
_cell_angle_alpha   90.00000000
_cell_angle_beta   90.00000000
_cell_angle_gamma   90.00000000
_symmetry_Int_Tables_number   1
_chemical_formula_structural   Dy2Cr2Co5(P2Rh)3
_chemical_formula_sum   'Dy4 Cr4 Co10 P12 Rh6'
_cell_volume   474.86845670
_cell_formula_units_Z   2
loop_
 _symmetry_equiv_pos_site_id
 _symmetry_equiv_pos_as_xyz
  1  'x, y, z'
loop_
 _atom_site_type_symbol
 _atom_site_label
 _atom_site_symmetry_multiplicity
 _atom_site_fract_x
 _atom_site_fract_y
 _atom_site_fract_z
 _atom_site_occupancy
  Dy  Dy0  1  0.250000  0.585927  0.711102  1
  Dy  Dy1  1  0.250000  0.914073  0.211102  1
  Dy  Dy2  1  0.750000  0.420138  0.290618  1
  Dy  Dy3  1  0.750000  0.079862  0.790618  1
  Cr  Cr4  1  0.250000  0.704909  0.988340  1
  Cr  Cr5  1  0.250000  0.795091  0.488340  1
  Cr  Cr6  1  0.750000  0.293662  0.009268  1
  Cr  Cr7  1  0.750000  0.206338  0.509268  1
  Co  Co8  1  0.750000  0.775746  0.821309  1
  Co  Co9  1  0.750000  0.724254  0.321309  1
  Co  Co10  1  0.250000  0.880572  0.696498  1
  Co  Co11  1  0.250000  0.619428  0.196498  1
  Co  Co12  1  0.750000  0.111278  0.305001  1
  Co  Co13  1  0.750000  0.388722  0.805001  1
  Co  Co14  1  0.250000  0.465925  0.933191  1
  Co  Co15  1  0.250000  0.034075  0.433191  1
  Co  Co16  1  0.750000  0.537305  0.065661  1
  Co  Co17  1  0.750000  0.962695  0.565661  1
  P  P18  1  0.250000  0.428892  0.109893  1
  P  P19  1  0.250000  0.071108  0.609893  1
  P  P20  1  0.750000  0.580498  0.888890  1
  P  P21  1  0.750000  0.919502  0.388890  1
  P  P22  1  0.250000  0.274232  0.870616  1
  P  P23  1  0.250000  0.225768  0.370616  1
  P  P24  1  0.750000  0.725263  0.136222  1
  P  P25  1  0.750000  0.774737  0.636222  1
  P  P26  1  0.250000  0.606437  0.380220  1
  P  P27  1  0.250000  0.893563  0.880220  1
  P  P28  1  0.750000  0.404296  0.616054  1
  P  P29  1  0.750000  0.095704  0.116054  1
  Rh  Rh30  1  0.250000  0.406850  0.483554  1
  Rh  Rh31  1  0.250000  0.093150  0.983554  1
  Rh  Rh32  1  0.750000  0.600955  0.514173  1
  Rh  Rh33  1  0.750000  0.899045  0.014173  1
  Rh  Rh34  1  0.250000  0.225323  0.179388  1
  Rh  Rh35  1  0.250000  0.274677  0.679388  1
