# generated using pymatgen
data_Y3HoAl4IrPt3
_symmetry_space_group_name_H-M   'P 1'
_cell_length_a   4.42680400
_cell_length_b   6.83593438
_cell_length_c   7.79192552
_cell_angle_alpha   89.92782766
_cell_angle_beta   90.00004795
_cell_angle_gamma   90.00002134
_symmetry_Int_Tables_number   1
_chemical_formula_structural   Y3HoAl4IrPt3
_chemical_formula_sum   'Y3 Ho1 Al4 Ir1 Pt3'
_cell_volume   235.79393320
_cell_formula_units_Z   1
loop_
 _symmetry_equiv_pos_site_id
 _symmetry_equiv_pos_as_xyz
  1  'x, y, z'
loop_
 _atom_site_type_symbol
 _atom_site_label
 _atom_site_symmetry_multiplicity
 _atom_site_fract_x
 _atom_site_fract_y
 _atom_site_fract_z
 _atom_site_occupancy
  Y  Y0  1  0.250000  0.032578  0.678681  1
  Y  Y1  1  0.250000  0.529779  0.819555  1
  Y  Y2  1  0.750001  0.974970  0.319678  1
  Ho  Ho3  1  0.750000  0.467588  0.182348  1
  Al  Al4  1  0.250000  0.146013  0.063857  1
  Al  Al5  1  0.250000  0.639690  0.436908  1
  Al  Al6  1  0.750000  0.854974  0.938599  1
  Al  Al7  1  0.750000  0.355592  0.560438  1
  Ir  Ir8  1  0.250000  0.270426  0.380387  1
  Pt  Pt9  1  0.250000  0.772249  0.118433  1
  Pt  Pt10  1  0.750000  0.728157  0.619147  1
  Pt  Pt11  1  0.750000  0.227984  0.881967  1
