# generated using pymatgen
data_Zr8Co3Si16Ni9
_symmetry_space_group_name_H-M   'P 1'
_cell_length_a   5.22100600
_cell_length_b   6.88688876
_cell_length_c   13.75314879
_cell_angle_alpha   90.13965669
_cell_angle_beta   90.00000000
_cell_angle_gamma   90.00000000
_symmetry_Int_Tables_number   1
_chemical_formula_structural   Zr8Co3Si16Ni9
_chemical_formula_sum   'Zr8 Co3 Si16 Ni9'
_cell_volume   494.51345414
_cell_formula_units_Z   1
loop_
 _symmetry_equiv_pos_site_id
 _symmetry_equiv_pos_as_xyz
  1  'x, y, z'
loop_
 _atom_site_type_symbol
 _atom_site_label
 _atom_site_symmetry_multiplicity
 _atom_site_fract_x
 _atom_site_fract_y
 _atom_site_fract_z
 _atom_site_occupancy
  Zr  Zr0  1  0.246875  0.402115  0.145748  1
  Zr  Zr1  1  0.746856  0.096981  0.145860  1
  Zr  Zr2  1  0.253100  0.097692  0.645394  1
  Zr  Zr3  1  0.753143  0.403052  0.645609  1
  Zr  Zr4  1  0.246875  0.597885  0.354252  1
  Zr  Zr5  1  0.746856  0.903019  0.354140  1
  Zr  Zr6  1  0.253100  0.902308  0.854606  1
  Zr  Zr7  1  0.753143  0.596948  0.854391  1
  Co  Co8  1  0.745847  0.500000  0.250000  1
  Co  Co9  1  0.245822  0.000000  0.250000  1
  Co  Co10  1  0.254162  0.500000  0.750000  1
  Si  Si11  1  0.246534  0.020706  0.071448  1
  Si  Si12  1  0.746534  0.522829  0.428676  1
  Si  Si13  1  0.753514  0.023478  0.568223  1
  Si  Si14  1  0.496192  0.749764  0.189159  1
  Si  Si15  1  0.005854  0.252111  0.811469  1
  Si  Si16  1  0.501968  0.251329  0.811467  1
  Si  Si17  1  0.246534  0.979294  0.428552  1
  Si  Si18  1  0.253556  0.520393  0.929347  1
  Si  Si19  1  0.995837  0.748991  0.189159  1
  Si  Si20  1  0.746534  0.477171  0.071324  1
  Si  Si21  1  0.253556  0.479607  0.570653  1
  Si  Si22  1  0.496192  0.250236  0.310841  1
  Si  Si23  1  0.005854  0.747889  0.688531  1
  Si  Si24  1  0.753514  0.976522  0.931777  1
  Si  Si25  1  0.501968  0.748671  0.688533  1
  Si  Si26  1  0.995837  0.251009  0.310841  1
  Ni  Ni27  1  0.999345  0.250729  0.979006  1
  Ni  Ni28  1  0.500557  0.249919  0.478799  1
  Ni  Ni29  1  0.754229  0.000000  0.750000  1
  Ni  Ni30  1  0.499459  0.246619  0.979010  1
  Ni  Ni31  1  0.499459  0.753381  0.520990  1
  Ni  Ni32  1  0.000645  0.253679  0.478796  1
  Ni  Ni33  1  0.000645  0.746321  0.021204  1
  Ni  Ni34  1  0.500557  0.750081  0.021201  1
  Ni  Ni35  1  0.999345  0.749271  0.520994  1
