# generated using pymatgen
data_Tb2Dy3(FeO6)2
_symmetry_space_group_name_H-M   'P 1'
_cell_length_a   6.77901685
_cell_length_b   6.77901538
_cell_length_c   7.28694643
_cell_angle_alpha   74.34746666
_cell_angle_beta   74.34746815
_cell_angle_gamma   51.15047716
_symmetry_Int_Tables_number   1
_chemical_formula_structural   Tb2Dy3(FeO6)2
_chemical_formula_sum   'Tb2 Dy3 Fe2 O12'
_cell_volume   248.85741406
_cell_formula_units_Z   1
loop_
 _symmetry_equiv_pos_site_id
 _symmetry_equiv_pos_as_xyz
  1  'x, y, z'
loop_
 _atom_site_type_symbol
 _atom_site_label
 _atom_site_symmetry_multiplicity
 _atom_site_fract_x
 _atom_site_fract_y
 _atom_site_fract_z
 _atom_site_occupancy
  Tb  Tb0  1  0.693094  0.693094  0.167057  1
  Tb  Tb1  1  0.999937  0.999937  0.500213  1
  Dy  Dy2  1  0.304949  0.304949  0.358907  1
  Dy  Dy3  1  0.695004  0.695004  0.641779  1
  Dy  Dy4  1  0.307120  0.307120  0.832492  1
  Fe  Fe5  1  0.756823  0.243220  0.999811  1
  Fe  Fe6  1  0.243220  0.756823  0.999811  1
  O  O7  1  0.899105  0.420541  0.920592  1
  O  O8  1  0.420541  0.899105  0.920592  1
  O  O9  1  0.102291  0.578322  0.078417  1
  O  O10  1  0.578322  0.102291  0.078417  1
  O  O11  1  0.096116  0.594943  0.577798  1
  O  O12  1  0.594943  0.096116  0.577798  1
  O  O13  1  0.904480  0.404361  0.423300  1
  O  O14  1  0.404361  0.904480  0.423300  1
  O  O15  1  0.001225  0.001225  0.818303  1
  O  O16  1  0.998632  0.998632  0.181847  1
  O  O17  1  0.500060  0.500060  0.816951  1
  O  O18  1  0.499776  0.499776  0.182614  1
