# generated using pymatgen
data_Hf6GaSn5Rh12
_symmetry_space_group_name_H-M   'P 1'
_cell_length_a   4.30100500
_cell_length_b   7.33055600
_cell_length_c   12.87566500
_cell_angle_alpha   90.00000000
_cell_angle_beta   89.99997778
_cell_angle_gamma   90.00000000
_symmetry_Int_Tables_number   1
_chemical_formula_structural   Hf6GaSn5Rh12
_chemical_formula_sum   'Hf6 Ga1 Sn5 Rh12'
_cell_volume   405.95372599
_cell_formula_units_Z   1
loop_
 _symmetry_equiv_pos_site_id
 _symmetry_equiv_pos_as_xyz
  1  'x, y, z'
loop_
 _atom_site_type_symbol
 _atom_site_label
 _atom_site_symmetry_multiplicity
 _atom_site_fract_x
 _atom_site_fract_y
 _atom_site_fract_z
 _atom_site_occupancy
  Hf  Hf0  1  0.000018  0.500000  0.994576  1
  Hf  Hf1  1  0.499938  0.000000  0.163342  1
  Hf  Hf2  1  0.000071  0.500000  0.332974  1
  Hf  Hf3  1  0.499982  0.000000  0.503056  1
  Hf  Hf4  1  0.000015  0.500000  0.672355  1
  Hf  Hf5  1  0.499994  0.000000  0.833325  1
  Ga  Ga6  1  0.500001  0.500000  0.833767  1
  Sn  Sn7  1  0.000006  0.000000  0.997941  1
  Sn  Sn8  1  0.499988  0.500000  0.164753  1
  Sn  Sn9  1  0.000010  0.000000  0.333589  1
  Sn  Sn10  1  0.499992  0.500000  0.502116  1
  Sn  Sn11  1  0.000002  0.000000  0.668500  1
  Rh  Rh12  1  0.499996  0.254995  0.996387  1
  Rh  Rh13  1  0.499996  0.745005  0.996387  1
  Rh  Rh14  1  0.000008  0.249620  0.166296  1
  Rh  Rh15  1  0.000008  0.750379  0.166296  1
  Rh  Rh16  1  0.499986  0.246158  0.333738  1
  Rh  Rh17  1  0.499986  0.753843  0.333738  1
  Rh  Rh18  1  0.000004  0.249304  0.500724  1
  Rh  Rh19  1  0.000004  0.750695  0.500724  1
  Rh  Rh20  1  0.499999  0.255203  0.669826  1
  Rh  Rh21  1  0.499999  0.744798  0.669826  1
  Rh  Rh22  1  0.000002  0.259869  0.832881  1
  Rh  Rh23  1  0.000002  0.740130  0.832881  1
