# generated using pymatgen
data_Al3Pd5Pt2
_symmetry_space_group_name_H-M   'P 1'
_cell_length_a   7.17117937
_cell_length_b   7.17117902
_cell_length_c   5.44485177
_cell_angle_alpha   104.87584233
_cell_angle_beta   104.87584208
_cell_angle_gamma   33.49931610
_symmetry_Int_Tables_number   1
_chemical_formula_structural   Al3Pd5Pt2
_chemical_formula_sum   'Al3 Pd5 Pt2'
_cell_volume   148.88519149
_cell_formula_units_Z   1
loop_
 _symmetry_equiv_pos_site_id
 _symmetry_equiv_pos_as_xyz
  1  'x, y, z'
loop_
 _atom_site_type_symbol
 _atom_site_label
 _atom_site_symmetry_multiplicity
 _atom_site_fract_x
 _atom_site_fract_y
 _atom_site_fract_z
 _atom_site_occupancy
  Al  Al0  1  0.001314  0.001314  0.000995  1
  Al  Al1  1  0.807265  0.807265  0.342093  1
  Al  Al2  1  0.192094  0.192094  0.658539  1
  Pd  Pd3  1  0.417056  0.417056  0.143674  1
  Pd  Pd4  1  0.624008  0.624008  0.383031  1
  Pd  Pd5  1  0.375466  0.375466  0.616799  1
  Pd  Pd6  1  0.582938  0.582938  0.854806  1
  Pd  Pd7  1  0.792975  0.792975  0.858737  1
  Pt  Pt8  1  0.207417  0.207417  0.141359  1
  Pt  Pt9  1  0.999469  0.999469  0.499966  1
