# generated using pymatgen
data_DyY2Al7Pd2
_symmetry_space_group_name_H-M   'P 1'
_cell_length_a   9.23511073
_cell_length_b   9.23511177
_cell_length_c   9.23511200
_cell_angle_alpha   34.80970352
_cell_angle_beta   34.80969422
_cell_angle_gamma   34.80969548
_symmetry_Int_Tables_number   1
_chemical_formula_structural   DyY2Al7Pd2
_chemical_formula_sum   'Dy1 Y2 Al7 Pd2'
_cell_volume   229.10094263
_cell_formula_units_Z   1
loop_
 _symmetry_equiv_pos_site_id
 _symmetry_equiv_pos_as_xyz
  1  'x, y, z'
loop_
 _atom_site_type_symbol
 _atom_site_label
 _atom_site_symmetry_multiplicity
 _atom_site_fract_x
 _atom_site_fract_y
 _atom_site_fract_z
 _atom_site_occupancy
  Dy  Dy0  1  0.000000  0.000000  0.000000  1
  Y  Y1  1  0.857179  0.857179  0.857179  1
  Y  Y2  1  0.142821  0.142821  0.142821  1
  Al  Al3  1  0.417450  0.417450  0.926693  1
  Al  Al4  1  0.926693  0.417450  0.417450  1
  Al  Al5  1  0.417450  0.926693  0.417450  1
  Al  Al6  1  0.500000  0.500000  0.500000  1
  Al  Al7  1  0.582550  0.073307  0.582550  1
  Al  Al8  1  0.073307  0.582550  0.582550  1
  Al  Al9  1  0.582550  0.582550  0.073307  1
  Pd  Pd10  1  0.664650  0.664650  0.664650  1
  Pd  Pd11  1  0.335350  0.335350  0.335350  1
