# generated using pymatgen
data_Ti12Zn3Ga5O4
_symmetry_space_group_name_H-M   'P 1'
_cell_length_a   6.87088817
_cell_length_b   6.87088810
_cell_length_c   6.87088826
_cell_angle_alpha   90.12489061
_cell_angle_beta   89.87511019
_cell_angle_gamma   89.87510873
_symmetry_Int_Tables_number   1
_chemical_formula_structural   Ti12Zn3Ga5O4
_chemical_formula_sum   'Ti12 Zn3 Ga5 O4'
_cell_volume   324.36616174
_cell_formula_units_Z   1
loop_
 _symmetry_equiv_pos_site_id
 _symmetry_equiv_pos_as_xyz
  1  'x, y, z'
loop_
 _atom_site_type_symbol
 _atom_site_label
 _atom_site_symmetry_multiplicity
 _atom_site_fract_x
 _atom_site_fract_y
 _atom_site_fract_z
 _atom_site_occupancy
  Ti  Ti0  1  0.791149  0.960206  0.374923  1
  Ti  Ti1  1  0.708348  0.041652  0.875628  1
  Ti  Ti2  1  0.210014  0.459523  0.123593  1
  Ti  Ti3  1  0.291518  0.539164  0.626350  1
  Ti  Ti4  1  0.958348  0.375628  0.791652  1
  Ti  Ti5  1  0.039794  0.874923  0.708851  1
  Ti  Ti6  1  0.460836  0.126350  0.208482  1
  Ti  Ti7  1  0.540477  0.623593  0.289986  1
  Ti  Ti8  1  0.376407  0.789986  0.959523  1
  Ti  Ti9  1  0.873650  0.708482  0.039164  1
  Ti  Ti10  1  0.125077  0.208851  0.460206  1
  Ti  Ti11  1  0.624372  0.291652  0.541652  1
  Zn  Zn12  1  0.429106  0.930057  0.568677  1
  Zn  Zn13  1  0.931323  0.570894  0.430057  1
  Zn  Zn14  1  0.069943  0.068677  0.070894  1
  Ga  Ga15  1  0.177929  0.822071  0.322071  1
  Ga  Ga16  1  0.317556  0.173789  0.820971  1
  Ga  Ga17  1  0.826211  0.320971  0.182444  1
  Ga  Ga18  1  0.679029  0.682444  0.673789  1
  Ga  Ga19  1  0.571187  0.428813  0.928813  1
  O  O20  1  0.874216  0.125784  0.625784  1
  O  O21  1  0.625572  0.875337  0.126722  1
  O  O22  1  0.124663  0.626722  0.874428  1
  O  O23  1  0.373278  0.374428  0.375337  1
