# generated using pymatgen
data_Ca2YErCd4
_symmetry_space_group_name_H-M   'P 1'
_cell_length_a   7.51733900
_cell_length_b   7.54161500
_cell_length_c   7.47496200
_cell_angle_alpha   90.00000000
_cell_angle_beta   90.00092986
_cell_angle_gamma   90.00000000
_symmetry_Int_Tables_number   1
_chemical_formula_structural   Ca2YErCd4
_chemical_formula_sum   'Ca4 Y2 Er2 Cd8'
_cell_volume   423.77709798
_cell_formula_units_Z   2
loop_
 _symmetry_equiv_pos_site_id
 _symmetry_equiv_pos_as_xyz
  1  'x, y, z'
loop_
 _atom_site_type_symbol
 _atom_site_label
 _atom_site_symmetry_multiplicity
 _atom_site_fract_x
 _atom_site_fract_y
 _atom_site_fract_z
 _atom_site_occupancy
  Ca  Ca0  1  0.749432  0.250008  0.000072  1
  Ca  Ca1  1  0.249435  0.750008  0.499902  1
  Ca  Ca2  1  0.750563  0.249992  0.500098  1
  Ca  Ca3  1  0.250569  0.749992  0.999929  1
  Y  Y4  1  0.750623  0.750003  0.500025  1
  Y  Y5  1  0.249376  0.249997  0.499975  1
  Er  Er6  1  0.250524  0.250035  0.000042  1
  Er  Er7  1  0.749475  0.749965  0.999958  1
  Cd  Cd8  1  0.000145  0.500078  0.247904  1
  Cd  Cd9  1  0.000146  0.999930  0.247910  1
  Cd  Cd10  1  0.500095  0.000075  0.250363  1
  Cd  Cd11  1  0.500101  0.499923  0.250352  1
  Cd  Cd12  1  0.499898  0.500079  0.749647  1
  Cd  Cd13  1  0.499904  0.999925  0.749636  1
  Cd  Cd14  1  0.999856  0.000070  0.752091  1
  Cd  Cd15  1  0.999857  0.499924  0.752097  1
