# generated using pymatgen
data_Ce2NdSn3Ir2Rh
_symmetry_space_group_name_H-M   'P 1'
_cell_length_a   7.56915129
_cell_length_b   7.50659554
_cell_length_c   4.06565100
_cell_angle_alpha   90.00000000
_cell_angle_beta   90.00000000
_cell_angle_gamma   119.72698455
_symmetry_Int_Tables_number   1
_chemical_formula_structural   Ce2NdSn3Ir2Rh
_chemical_formula_sum   'Ce2 Nd1 Sn3 Ir2 Rh1'
_cell_volume   200.60379668
_cell_formula_units_Z   1
loop_
 _symmetry_equiv_pos_site_id
 _symmetry_equiv_pos_as_xyz
  1  'x, y, z'
loop_
 _atom_site_type_symbol
 _atom_site_label
 _atom_site_symmetry_multiplicity
 _atom_site_fract_x
 _atom_site_fract_y
 _atom_site_fract_z
 _atom_site_occupancy
  Ce  Ce0  1  0.585294  0.585123  0.000000  1
  Ce  Ce1  1  0.414706  0.999829  0.000000  1
  Nd  Nd2  1  0.000000  0.410870  0.000000  1
  Sn  Sn3  1  0.249025  0.252739  0.500000  1
  Sn  Sn4  1  0.000000  0.743457  0.500000  1
  Sn  Sn5  1  0.750975  0.003714  0.500000  1
  Ir  Ir6  1  0.650953  0.330984  0.500000  1
  Ir  Ir7  1  0.349047  0.680031  0.500000  1
  Rh  Rh8  1  0.000000  0.993252  0.000000  1
