# generated using pymatgen
data_Zr10Ga5Te
_symmetry_space_group_name_H-M   'P 1'
_cell_length_a   8.23235585
_cell_length_b   8.23235611
_cell_length_c   5.71460900
_cell_angle_alpha   90.00000000
_cell_angle_beta   90.00000000
_cell_angle_gamma   120.31875964
_symmetry_Int_Tables_number   1
_chemical_formula_structural   Zr10Ga5Te
_chemical_formula_sum   'Zr10 Ga5 Te1'
_cell_volume   334.31932915
_cell_formula_units_Z   1
loop_
 _symmetry_equiv_pos_site_id
 _symmetry_equiv_pos_as_xyz
  1  'x, y, z'
loop_
 _atom_site_type_symbol
 _atom_site_label
 _atom_site_symmetry_multiplicity
 _atom_site_fract_x
 _atom_site_fract_y
 _atom_site_fract_z
 _atom_site_occupancy
  Zr  Zr0  1  0.671970  0.329582  0.003767  1
  Zr  Zr1  1  0.329582  0.671970  0.003767  1
  Zr  Zr2  1  0.329582  0.671970  0.496233  1
  Zr  Zr3  1  0.671970  0.329582  0.496233  1
  Zr  Zr4  1  0.763892  0.763892  0.750000  1
  Zr  Zr5  1  0.242011  0.990968  0.750000  1
  Zr  Zr6  1  0.990968  0.242011  0.750000  1
  Zr  Zr7  1  0.241897  0.241897  0.250000  1
  Zr  Zr8  1  0.755609  0.001841  0.250000  1
  Zr  Zr9  1  0.001841  0.755609  0.250000  1
  Ga  Ga10  1  0.607507  0.997563  0.750000  1
  Ga  Ga11  1  0.997563  0.607507  0.750000  1
  Ga  Ga12  1  0.611836  0.611836  0.250000  1
  Ga  Ga13  1  0.390353  0.001289  0.250000  1
  Ga  Ga14  1  0.001289  0.390353  0.250000  1
  Te  Te15  1  0.392129  0.392129  0.750000  1
