# generated using pymatgen
data_TbHo5Co4(P6Ir7)2
_symmetry_space_group_name_H-M   'P 1'
_cell_length_a   3.88138400
_cell_length_b   11.02655700
_cell_length_c   12.70650900
_cell_angle_alpha   90.00000000
_cell_angle_beta   90.00000000
_cell_angle_gamma   90.00000000
_symmetry_Int_Tables_number   1
_chemical_formula_structural   TbHo5Co4(P6Ir7)2
_chemical_formula_sum   'Tb1 Ho5 Co4 P12 Ir14'
_cell_volume   543.81700847
_cell_formula_units_Z   1
loop_
 _symmetry_equiv_pos_site_id
 _symmetry_equiv_pos_as_xyz
  1  'x, y, z'
loop_
 _atom_site_type_symbol
 _atom_site_label
 _atom_site_symmetry_multiplicity
 _atom_site_fract_x
 _atom_site_fract_y
 _atom_site_fract_z
 _atom_site_occupancy
  Tb  Tb0  1  0.000000  0.500000  0.522815  1
  Ho  Ho1  1  0.500000  0.000000  0.477384  1
  Ho  Ho2  1  0.500000  0.820920  0.198986  1
  Ho  Ho3  1  0.500000  0.179080  0.198986  1
  Ho  Ho4  1  0.000000  0.684978  0.801117  1
  Ho  Ho5  1  0.000000  0.315022  0.801117  1
  Co  Co6  1  0.000000  0.500000  0.986043  1
  Co  Co7  1  0.500000  0.000000  0.016246  1
  Co  Co8  1  0.000000  0.159216  0.003564  1
  Co  Co9  1  0.000000  0.840784  0.003564  1
  P  P10  1  0.500000  0.316036  0.620286  1
  P  P11  1  0.500000  0.683964  0.620286  1
  P  P12  1  0.000000  0.183320  0.379552  1
  P  P13  1  0.000000  0.816680  0.379552  1
  P  P14  1  0.500000  0.500000  0.883104  1
  P  P15  1  0.000000  0.000000  0.111538  1
  P  P16  1  0.500000  0.851023  0.900334  1
  P  P17  1  0.500000  0.148977  0.900334  1
  P  P18  1  0.000000  0.660084  0.101791  1
  P  P19  1  0.000000  0.339916  0.101791  1
  P  P20  1  0.500000  0.500000  0.354342  1
  P  P21  1  0.000000  0.000000  0.645912  1
  Ir  Ir22  1  0.500000  0.294250  0.428860  1
  Ir  Ir23  1  0.500000  0.705750  0.428860  1
  Ir  Ir24  1  0.000000  0.203742  0.570371  1
  Ir  Ir25  1  0.000000  0.796258  0.570371  1
  Ir  Ir26  1  0.500000  0.871120  0.716764  1
  Ir  Ir27  1  0.500000  0.128880  0.716764  1
  Ir  Ir28  1  0.000000  0.629858  0.283071  1
  Ir  Ir29  1  0.000000  0.370142  0.283071  1
  Ir  Ir30  1  0.500000  0.332820  0.995858  1
  Ir  Ir31  1  0.500000  0.667180  0.995858  1
  Ir  Ir32  1  0.500000  0.500000  0.171380  1
  Ir  Ir33  1  0.000000  0.000000  0.831102  1
  Ir  Ir34  1  0.500000  0.500000  0.705046  1
  Ir  Ir35  1  0.000000  0.000000  0.293984  1
