# generated using pymatgen
data_Ag(BrO3)2
_symmetry_space_group_name_H-M   'P 1'
_cell_length_a   6.08521000
_cell_length_b   8.15749948
_cell_length_c   14.44458832
_cell_angle_alpha   70.81394250
_cell_angle_beta   90.00000000
_cell_angle_gamma   90.00000000
_symmetry_Int_Tables_number   1
_chemical_formula_structural   Ag(BrO3)2
_chemical_formula_sum   'Ag4 Br8 O24'
_cell_volume   677.20427879
_cell_formula_units_Z   4
loop_
 _symmetry_equiv_pos_site_id
 _symmetry_equiv_pos_as_xyz
  1  'x, y, z'
loop_
 _atom_site_type_symbol
 _atom_site_label
 _atom_site_symmetry_multiplicity
 _atom_site_fract_x
 _atom_site_fract_y
 _atom_site_fract_z
 _atom_site_occupancy
  Ag  Ag0  1  0.902844  0.102057  0.952298  1
  Ag  Ag1  1  0.097156  0.102057  0.452298  1
  Ag  Ag2  1  0.744720  0.489848  0.008382  1
  Ag  Ag3  1  0.255280  0.489848  0.508382  1
  Br  Br4  1  0.452338  0.285999  0.859680  1
  Br  Br5  1  0.984571  0.729536  0.620283  1
  Br  Br6  1  0.015429  0.729536  0.120283  1
  Br  Br7  1  0.547662  0.285999  0.359680  1
  Br  Br8  1  0.096323  0.211162  0.177085  1
  Br  Br9  1  0.565996  0.772719  0.329488  1
  Br  Br10  1  0.434004  0.772719  0.829488  1
  Br  Br11  1  0.903677  0.211162  0.677085  1
  O  O12  1  0.708066  0.351071  0.910995  1
  O  O13  1  0.207730  0.591052  0.622201  1
  O  O14  1  0.792270  0.591052  0.122201  1
  O  O15  1  0.291934  0.351071  0.410995  1
  O  O16  1  0.580146  0.107523  0.852151  1
  O  O17  1  0.101765  0.880116  0.657410  1
  O  O18  1  0.898235  0.880116  0.157410  1
  O  O19  1  0.419854  0.107523  0.352151  1
  O  O20  1  0.935616  0.183923  0.274826  1
  O  O21  1  0.386806  0.812567  0.238889  1
  O  O22  1  0.613194  0.812567  0.738889  1
  O  O23  1  0.064384  0.183923  0.774826  1
  O  O24  1  0.241202  0.392053  0.156603  1
  O  O25  1  0.700931  0.589162  0.340114  1
  O  O26  1  0.299069  0.589162  0.840114  1
  O  O27  1  0.758798  0.392053  0.656603  1
  O  O28  1  0.286462  0.221328  0.955214  1
  O  O29  1  0.934195  0.834863  0.499906  1
  O  O30  1  0.065805  0.834863  0.999906  1
  O  O31  1  0.713538  0.221328  0.455214  1
  O  O32  1  0.908169  0.255365  0.076036  1
  O  O33  1  0.411268  0.722176  0.438298  1
  O  O34  1  0.588732  0.722176  0.938298  1
  O  O35  1  0.091831  0.255365  0.576036  1
