# generated using pymatgen
data_SmHoErRh9
_symmetry_space_group_name_H-M   'P 1'
_cell_length_a   5.26939100
_cell_length_b   5.27193102
_cell_length_c   17.53958900
_cell_angle_alpha   89.99986958
_cell_angle_beta   89.99991301
_cell_angle_gamma   119.99706963
_symmetry_Int_Tables_number   1
_chemical_formula_structural   SmHoErRh9
_chemical_formula_sum   'Sm2 Ho2 Er2 Rh18'
_cell_volume   421.98111167
_cell_formula_units_Z   2
loop_
 _symmetry_equiv_pos_site_id
 _symmetry_equiv_pos_as_xyz
  1  'x, y, z'
loop_
 _atom_site_type_symbol
 _atom_site_label
 _atom_site_symmetry_multiplicity
 _atom_site_fract_x
 _atom_site_fract_y
 _atom_site_fract_z
 _atom_site_occupancy
  Sm  Sm0  1  0.333341  0.666673  0.750029  1
  Sm  Sm1  1  0.666659  0.333327  0.249971  1
  Ho  Ho2  1  0.333361  0.666698  0.958481  1
  Ho  Ho3  1  0.666639  0.333302  0.041519  1
  Er  Er4  1  0.666646  0.333317  0.458433  1
  Er  Er5  1  0.333354  0.666683  0.541567  1
  Rh  Rh6  1  0.167362  0.832601  0.375103  1
  Rh  Rh7  1  0.167356  0.334734  0.375099  1
  Rh  Rh8  1  0.665218  0.832599  0.375108  1
  Rh  Rh9  1  0.832638  0.167399  0.624897  1
  Rh  Rh10  1  0.832644  0.665266  0.624901  1
  Rh  Rh11  1  0.334782  0.167401  0.624892  1
  Rh  Rh12  1  0.832686  0.167346  0.875082  1
  Rh  Rh13  1  0.832691  0.665367  0.875076  1
  Rh  Rh14  1  0.334681  0.167350  0.875086  1
  Rh  Rh15  1  0.167314  0.832654  0.124918  1
  Rh  Rh16  1  0.167309  0.334633  0.124924  1
  Rh  Rh17  1  0.665319  0.832650  0.124914  1
  Rh  Rh18  1  0.333250  0.666580  0.249963  1
  Rh  Rh19  1  0.666750  0.333420  0.750037  1
  Rh  Rh20  1  0.000072  0.000075  0.249952  1
  Rh  Rh21  1  0.999928  0.999925  0.750048  1
  Rh  Rh22  1  0.000000  0.000000  0.500000  1
  Rh  Rh23  1  0.000000  0.000000  0.000000  1
