# generated using pymatgen
data_Sr13La7Si15Sn
_symmetry_space_group_name_H-M   'P 1'
_cell_length_a   8.27756137
_cell_length_b   8.25437407
_cell_length_c   15.79574300
_cell_angle_alpha   90.17854345
_cell_angle_beta   89.71504831
_cell_angle_gamma   89.76663647
_symmetry_Int_Tables_number   1
_chemical_formula_structural   Sr13La7Si15Sn
_chemical_formula_sum   'Sr13 La7 Si15 Sn1'
_cell_volume   1079.23371706
_cell_formula_units_Z   1
loop_
 _symmetry_equiv_pos_site_id
 _symmetry_equiv_pos_as_xyz
  1  'x, y, z'
loop_
 _atom_site_type_symbol
 _atom_site_label
 _atom_site_symmetry_multiplicity
 _atom_site_fract_x
 _atom_site_fract_y
 _atom_site_fract_z
 _atom_site_occupancy
  Sr  Sr0  1  0.308388  0.306823  0.000030  1
  Sr  Sr1  1  0.190668  0.810592  0.250653  1
  Sr  Sr2  1  0.806611  0.186993  0.752508  1
  Sr  Sr3  1  0.687487  0.692091  0.496506  1
  Sr  Sr4  1  0.370598  0.016389  0.453132  1
  Sr  Sr5  1  0.492160  0.869285  0.700705  1
  Sr  Sr6  1  0.511749  0.124985  0.200985  1
  Sr  Sr7  1  0.873154  0.487473  0.297609  1
  Sr  Sr8  1  0.125100  0.515395  0.802554  1
  Sr  Sr9  1  0.626918  0.984767  0.951732  1
  Sr  Sr10  1  0.008045  0.377785  0.544108  1
  Sr  Sr11  1  0.988244  0.625868  0.051699  1
  Sr  Sr12  1  0.130504  0.980024  0.877896  1
  La  La13  1  0.513307  0.626473  0.126939  1
  La  La14  1  0.496287  0.380473  0.624047  1
  La  La15  1  0.629920  0.514140  0.876662  1
  La  La16  1  0.372216  0.485807  0.373329  1
  La  La17  1  0.871846  0.014544  0.374769  1
  La  La18  1  0.986363  0.128467  0.124667  1
  La  La19  1  0.002849  0.861178  0.621702  1
  Si  Si20  1  0.350265  0.703256  0.954398  1
  Si  Si21  1  0.654528  0.290708  0.447011  1
  Si  Si22  1  0.707763  0.345866  0.053916  1
  Si  Si23  1  0.291820  0.655163  0.548392  1
  Si  Si24  1  0.792269  0.846674  0.199271  1
  Si  Si25  1  0.152606  0.209287  0.301473  1
  Si  Si26  1  0.835463  0.790839  0.798771  1
  Si  Si27  1  0.279736  0.908680  0.059536  1
  Si  Si28  1  0.588277  0.776656  0.304711  1
  Si  Si29  1  0.428091  0.231685  0.805934  1
  Si  Si30  1  0.773644  0.585584  0.694607  1
  Si  Si31  1  0.223364  0.411329  0.195814  1
  Si  Si32  1  0.725080  0.088678  0.553213  1
  Si  Si33  1  0.911892  0.284260  0.947862  1
  Si  Si34  1  0.087944  0.723259  0.443692  1
  Sn  Sn35  1  0.204843  0.158532  0.689171  1
