# generated using pymatgen
data_Sc2Ti2Ge4W
_symmetry_space_group_name_H-M   'P 1'
_cell_length_a   6.95034800
_cell_length_b   6.95034800
_cell_length_c   12.72739400
_cell_angle_alpha   90.00000000
_cell_angle_beta   90.00000000
_cell_angle_gamma   90.00000000
_symmetry_Int_Tables_number   1
_chemical_formula_structural   Sc2Ti2Ge4W
_chemical_formula_sum   'Sc8 Ti8 Ge16 W4'
_cell_volume   614.82651518
_cell_formula_units_Z   4
loop_
 _symmetry_equiv_pos_site_id
 _symmetry_equiv_pos_as_xyz
  1  'x, y, z'
loop_
 _atom_site_type_symbol
 _atom_site_label
 _atom_site_symmetry_multiplicity
 _atom_site_fract_x
 _atom_site_fract_y
 _atom_site_fract_z
 _atom_site_occupancy
  Sc  Sc0  1  0.003525  0.660512  0.029786  1
  Sc  Sc1  1  0.996475  0.339488  0.529786  1
  Sc  Sc2  1  0.339488  0.996475  0.470214  1
  Sc  Sc3  1  0.160512  0.496475  0.779786  1
  Sc  Sc4  1  0.839488  0.503525  0.279786  1
  Sc  Sc5  1  0.496475  0.160512  0.220214  1
  Sc  Sc6  1  0.503525  0.839488  0.720214  1
  Sc  Sc7  1  0.660512  0.003525  0.970214  1
  Ti  Ti8  1  0.991858  0.846292  0.626688  1
  Ti  Ti9  1  0.008142  0.153708  0.126688  1
  Ti  Ti10  1  0.846292  0.991858  0.373312  1
  Ti  Ti11  1  0.346292  0.508142  0.376688  1
  Ti  Ti12  1  0.653708  0.491858  0.876688  1
  Ti  Ti13  1  0.508142  0.346292  0.623312  1
  Ti  Ti14  1  0.491858  0.653708  0.123312  1
  Ti  Ti15  1  0.153708  0.008142  0.873312  1
  Ge  Ge16  1  0.037934  0.700778  0.432578  1
  Ge  Ge17  1  0.633302  0.298740  0.424225  1
  Ge  Ge18  1  0.366698  0.701260  0.924225  1
  Ge  Ge19  1  0.201260  0.133302  0.674225  1
  Ge  Ge20  1  0.298740  0.633302  0.575775  1
  Ge  Ge21  1  0.701260  0.366698  0.075775  1
  Ge  Ge22  1  0.798740  0.866698  0.174225  1
  Ge  Ge23  1  0.133302  0.201260  0.325775  1
  Ge  Ge24  1  0.962066  0.299222  0.932578  1
  Ge  Ge25  1  0.700778  0.037934  0.567422  1
  Ge  Ge26  1  0.200778  0.462066  0.182578  1
  Ge  Ge27  1  0.799222  0.537934  0.682578  1
  Ge  Ge28  1  0.462066  0.200778  0.817422  1
  Ge  Ge29  1  0.537934  0.799222  0.317422  1
  Ge  Ge30  1  0.299222  0.962066  0.067422  1
  Ge  Ge31  1  0.866698  0.798740  0.825775  1
  W  W32  1  0.670113  0.670113  0.500000  1
  W  W33  1  0.170113  0.829887  0.250000  1
  W  W34  1  0.329887  0.329887  0.000000  1
  W  W35  1  0.829887  0.170113  0.750000  1
