# generated using pymatgen
data_Ho10TcAg3
_symmetry_space_group_name_H-M   'P 1'
_cell_length_a   9.38682800
_cell_length_b   9.38682979
_cell_length_c   9.72135500
_cell_angle_alpha   90.00000000
_cell_angle_beta   90.00000000
_cell_angle_gamma   120.00000074
_symmetry_Int_Tables_number   1
_chemical_formula_structural   Ho10TcAg3
_chemical_formula_sum   'Ho20 Tc2 Ag6'
_cell_volume   741.81435703
_cell_formula_units_Z   2
loop_
 _symmetry_equiv_pos_site_id
 _symmetry_equiv_pos_as_xyz
  1  'x, y, z'
loop_
 _atom_site_type_symbol
 _atom_site_label
 _atom_site_symmetry_multiplicity
 _atom_site_fract_x
 _atom_site_fract_y
 _atom_site_fract_z
 _atom_site_occupancy
  Ho  Ho0  1  0.000000  0.000000  0.500000  1
  Ho  Ho1  1  0.000000  0.000000  0.000000  1
  Ho  Ho2  1  0.539883  0.460117  0.250000  1
  Ho  Ho3  1  0.539883  0.079768  0.250000  1
  Ho  Ho4  1  0.920232  0.460117  0.250000  1
  Ho  Ho5  1  0.460117  0.539883  0.750000  1
  Ho  Ho6  1  0.460117  0.920232  0.750000  1
  Ho  Ho7  1  0.079768  0.539883  0.750000  1
  Ho  Ho8  1  0.208920  0.791080  0.441242  1
  Ho  Ho9  1  0.208920  0.417839  0.441242  1
  Ho  Ho10  1  0.582161  0.791080  0.441242  1
  Ho  Ho11  1  0.791080  0.208920  0.558758  1
  Ho  Ho12  1  0.791080  0.582161  0.558758  1
  Ho  Ho13  1  0.417839  0.208920  0.558758  1
  Ho  Ho14  1  0.791080  0.208920  0.941242  1
  Ho  Ho15  1  0.791080  0.582161  0.941242  1
  Ho  Ho16  1  0.417839  0.208920  0.941242  1
  Ho  Ho17  1  0.208920  0.791080  0.058758  1
  Ho  Ho18  1  0.208920  0.417839  0.058758  1
  Ho  Ho19  1  0.582161  0.791080  0.058758  1
  Tc  Tc20  1  0.333333  0.666667  0.250000  1
  Tc  Tc21  1  0.666667  0.333333  0.750000  1
  Ag  Ag22  1  0.884960  0.115040  0.250000  1
  Ag  Ag23  1  0.884960  0.769918  0.250000  1
  Ag  Ag24  1  0.230082  0.115040  0.250000  1
  Ag  Ag25  1  0.115040  0.884960  0.750000  1
  Ag  Ag26  1  0.115040  0.230082  0.750000  1
  Ag  Ag27  1  0.769918  0.884960  0.750000  1
