# generated using pymatgen
data_U9PaSe20
_symmetry_space_group_name_H-M   'P 1'
_cell_length_a   10.68636600
_cell_length_b   10.68636600
_cell_length_c   6.58668900
_cell_angle_alpha   90.00000000
_cell_angle_beta   90.00000000
_cell_angle_gamma   90.00000000
_symmetry_Int_Tables_number   1
_chemical_formula_structural   U9PaSe20
_chemical_formula_sum   'U9 Pa1 Se20'
_cell_volume   752.18946554
_cell_formula_units_Z   1
loop_
 _symmetry_equiv_pos_site_id
 _symmetry_equiv_pos_as_xyz
  1  'x, y, z'
loop_
 _atom_site_type_symbol
 _atom_site_label
 _atom_site_symmetry_multiplicity
 _atom_site_fract_x
 _atom_site_fract_y
 _atom_site_fract_z
 _atom_site_occupancy
  U  U0  1  0.841607  0.155059  0.249122  1
  U  U1  1  0.655059  0.658393  0.249122  1
  U  U2  1  0.344941  0.341607  0.249122  1
  U  U3  1  0.158393  0.844941  0.249122  1
  U  U4  1  0.340164  0.653220  0.750362  1
  U  U5  1  0.153220  0.159836  0.750362  1
  U  U6  1  0.846780  0.840164  0.750362  1
  U  U7  1  0.659836  0.346780  0.750362  1
  U  U8  1  0.000000  0.500000  0.141568  1
  Pa  Pa9  1  0.500000  0.000000  0.860234  1
  Se  Se10  1  0.708711  0.087387  0.620779  1
  Se  Se11  1  0.587387  0.791289  0.620779  1
  Se  Se12  1  0.412613  0.208711  0.620779  1
  Se  Se13  1  0.291289  0.912613  0.620779  1
  Se  Se14  1  0.707760  0.912893  0.112762  1
  Se  Se15  1  0.587107  0.207760  0.112762  1
  Se  Se16  1  0.412893  0.792240  0.112762  1
  Se  Se17  1  0.292240  0.087107  0.112762  1
  Se  Se18  1  0.500000  0.500000  0.999713  1
  Se  Se19  1  0.000000  0.000000  0.999713  1
  Se  Se20  1  0.208274  0.412794  0.886598  1
  Se  Se21  1  0.087206  0.708274  0.886598  1
  Se  Se22  1  0.912794  0.291726  0.886598  1
  Se  Se23  1  0.791726  0.587206  0.886598  1
  Se  Se24  1  0.500000  0.500000  0.499562  1
  Se  Se25  1  0.000000  0.000000  0.499562  1
  Se  Se26  1  0.208972  0.587862  0.380289  1
  Se  Se27  1  0.087862  0.291028  0.380289  1
  Se  Se28  1  0.912138  0.708972  0.380289  1
  Se  Se29  1  0.791028  0.412138  0.380289  1
