# generated using pymatgen
data_Tb2HoMgIn2Au3
_symmetry_space_group_name_H-M   'P 1'
_cell_length_a   7.66004054
_cell_length_b   7.66150035
_cell_length_c   4.13558800
_cell_angle_alpha   90.00000000
_cell_angle_beta   90.00000000
_cell_angle_gamma   120.14087525
_symmetry_Int_Tables_number   1
_chemical_formula_structural   Tb2HoMgIn2Au3
_chemical_formula_sum   'Tb2 Ho1 Mg1 In2 Au3'
_cell_volume   209.89134768
_cell_formula_units_Z   1
loop_
 _symmetry_equiv_pos_site_id
 _symmetry_equiv_pos_as_xyz
  1  'x, y, z'
loop_
 _atom_site_type_symbol
 _atom_site_label
 _atom_site_symmetry_multiplicity
 _atom_site_fract_x
 _atom_site_fract_y
 _atom_site_fract_z
 _atom_site_occupancy
  Tb  Tb0  1  0.406387  0.406498  0.500000  1
  Tb  Tb1  1  0.592094  0.002322  0.500000  1
  Ho  Ho2  1  0.002097  0.592167  0.500000  1
  Mg  Mg3  1  0.749406  0.749104  0.000000  1
  In  In4  1  0.252800  0.998197  0.000000  1
  In  In5  1  0.998827  0.253664  0.000000  1
  Au  Au6  1  0.669194  0.345038  0.000000  1
  Au  Au7  1  0.343621  0.668073  0.000000  1
  Au  Au8  1  0.985575  0.984936  0.500000  1
