# generated using pymatgen
data_Y16Tm4(Ir3Ru)3
_symmetry_space_group_name_H-M   'P 1'
_cell_length_a   10.85620700
_cell_length_b   10.85620700
_cell_length_c   6.42255500
_cell_angle_alpha   90.00000000
_cell_angle_beta   90.00000000
_cell_angle_gamma   90.00000000
_symmetry_Int_Tables_number   1
_chemical_formula_structural   Y16Tm4(Ir3Ru)3
_chemical_formula_sum   'Y16 Tm4 Ir9 Ru3'
_cell_volume   756.94454456
_cell_formula_units_Z   1
loop_
 _symmetry_equiv_pos_site_id
 _symmetry_equiv_pos_as_xyz
  1  'x, y, z'
loop_
 _atom_site_type_symbol
 _atom_site_label
 _atom_site_symmetry_multiplicity
 _atom_site_fract_x
 _atom_site_fract_y
 _atom_site_fract_z
 _atom_site_occupancy
  Y  Y0  1  0.292821  0.086421  0.377030  1
  Y  Y1  1  0.292843  0.913671  0.877243  1
  Y  Y2  1  0.707157  0.086329  0.877243  1
  Y  Y3  1  0.707179  0.913579  0.377030  1
  Y  Y4  1  0.586329  0.792843  0.877243  1
  Y  Y5  1  0.586421  0.207179  0.377030  1
  Y  Y6  1  0.413579  0.792821  0.377030  1
  Y  Y7  1  0.413671  0.207157  0.877243  1
  Y  Y8  1  0.208731  0.412978  0.624006  1
  Y  Y9  1  0.208541  0.587038  0.121485  1
  Y  Y10  1  0.791459  0.412962  0.121485  1
  Y  Y11  1  0.791269  0.587022  0.624006  1
  Y  Y12  1  0.912962  0.708541  0.121485  1
  Y  Y13  1  0.912978  0.291269  0.624006  1
  Y  Y14  1  0.087022  0.708731  0.624006  1
  Y  Y15  1  0.087038  0.291459  0.121485  1
  Tm  Tm16  1  0.000000  0.000000  0.499849  1
  Tm  Tm17  1  0.000000  0.000000  0.999845  1
  Tm  Tm18  1  0.500000  0.500000  0.999845  1
  Tm  Tm19  1  0.500000  0.500000  0.499849  1
  Ir  Ir20  1  0.849815  0.150776  0.250183  1
  Ir  Ir21  1  0.849603  0.849200  0.749805  1
  Ir  Ir22  1  0.150397  0.150800  0.749805  1
  Ir  Ir23  1  0.150185  0.849224  0.250183  1
  Ir  Ir24  1  0.650800  0.349603  0.749805  1
  Ir  Ir25  1  0.650776  0.650185  0.250183  1
  Ir  Ir26  1  0.349224  0.349815  0.250183  1
  Ir  Ir27  1  0.349200  0.650397  0.749805  1
  Ir  Ir28  1  0.000000  0.500000  0.377693  1
  Ru  Ru29  1  0.500000  0.000000  0.123233  1
  Ru  Ru30  1  0.500000  0.000000  0.623112  1
  Ru  Ru31  1  0.000000  0.500000  0.877566  1
