# generated using pymatgen
data_Ce(GdRu)2
_symmetry_space_group_name_H-M   'P 1'
_cell_length_a   5.84825775
_cell_length_b   5.84825708
_cell_length_c   5.84825800
_cell_angle_alpha   138.01471695
_cell_angle_beta   118.63642393
_cell_angle_gamma   77.14017043
_symmetry_Int_Tables_number   1
_chemical_formula_structural   Ce(GdRu)2
_chemical_formula_sum   'Ce1 Gd2 Ru2'
_cell_volume   114.35213046
_cell_formula_units_Z   1
loop_
 _symmetry_equiv_pos_site_id
 _symmetry_equiv_pos_as_xyz
  1  'x, y, z'
loop_
 _atom_site_type_symbol
 _atom_site_label
 _atom_site_symmetry_multiplicity
 _atom_site_fract_x
 _atom_site_fract_y
 _atom_site_fract_z
 _atom_site_occupancy
  Ce  Ce0  1  0.000000  0.000000  0.000000  1
  Gd  Gd1  1  0.690919  0.190920  0.499999  1
  Gd  Gd2  1  0.309080  0.809081  0.500001  1
  Ru  Ru3  1  0.744066  0.500000  0.244066  1
  Ru  Ru4  1  0.255933  0.500001  0.755934  1
