# generated using pymatgen
data_Nd6Dy10Cd4TcNi3
_symmetry_space_group_name_H-M   'P 1'
_cell_length_a   9.72421003
_cell_length_b   9.72421065
_cell_length_c   9.72421016
_cell_angle_alpha   59.43700564
_cell_angle_beta   59.43700523
_cell_angle_gamma   59.43700989
_symmetry_Int_Tables_number   1
_chemical_formula_structural   Nd6Dy10Cd4TcNi3
_chemical_formula_sum   'Nd6 Dy10 Cd4 Tc1 Ni3'
_cell_volume   641.87325104
_cell_formula_units_Z   1
loop_
 _symmetry_equiv_pos_site_id
 _symmetry_equiv_pos_as_xyz
  1  'x, y, z'
loop_
 _atom_site_type_symbol
 _atom_site_label
 _atom_site_symmetry_multiplicity
 _atom_site_fract_x
 _atom_site_fract_y
 _atom_site_fract_z
 _atom_site_occupancy
  Nd  Nd0  1  0.187508  0.812735  0.812735  1
  Nd  Nd1  1  0.802465  0.191685  0.191685  1
  Nd  Nd2  1  0.812735  0.187508  0.812735  1
  Nd  Nd3  1  0.191685  0.802465  0.191685  1
  Nd  Nd4  1  0.812735  0.812735  0.187508  1
  Nd  Nd5  1  0.191685  0.191685  0.802465  1
  Dy  Dy6  1  0.597792  0.597792  0.597792  1
  Dy  Dy7  1  0.600032  0.600032  0.208322  1
  Dy  Dy8  1  0.600032  0.208322  0.600032  1
  Dy  Dy9  1  0.208322  0.600032  0.600032  1
  Dy  Dy10  1  0.062448  0.435852  0.435852  1
  Dy  Dy11  1  0.434142  0.062107  0.062107  1
  Dy  Dy12  1  0.435852  0.062448  0.435852  1
  Dy  Dy13  1  0.062107  0.434142  0.062107  1
  Dy  Dy14  1  0.435852  0.435852  0.062448  1
  Dy  Dy15  1  0.062107  0.062107  0.434142  1
  Cd  Cd16  1  0.828962  0.828962  0.828962  1
  Cd  Cd17  1  0.828775  0.828775  0.510699  1
  Cd  Cd18  1  0.828775  0.510699  0.828775  1
  Cd  Cd19  1  0.510699  0.828775  0.828775  1
  Tc  Tc20  1  0.392812  0.392812  0.392812  1
  Ni  Ni21  1  0.392992  0.392992  0.826488  1
  Ni  Ni22  1  0.392992  0.826488  0.392992  1
  Ni  Ni23  1  0.826488  0.392992  0.392992  1
