# generated using pymatgen
data_HoLu15(ZnCo)4
_symmetry_space_group_name_H-M   'P 1'
_cell_length_a   9.15447733
_cell_length_b   9.15447731
_cell_length_c   9.15764900
_cell_angle_alpha   59.98853482
_cell_angle_beta   59.98853488
_cell_angle_gamma   59.91314282
_symmetry_Int_Tables_number   1
_chemical_formula_structural   HoLu15(ZnCo)4
_chemical_formula_sum   'Ho1 Lu15 Zn4 Co4'
_cell_volume   542.21936685
_cell_formula_units_Z   1
loop_
 _symmetry_equiv_pos_site_id
 _symmetry_equiv_pos_as_xyz
  1  'x, y, z'
loop_
 _atom_site_type_symbol
 _atom_site_label
 _atom_site_symmetry_multiplicity
 _atom_site_fract_x
 _atom_site_fract_y
 _atom_site_fract_z
 _atom_site_occupancy
  Ho  Ho0  1  0.937313  0.937313  0.562687  1
  Lu  Lu1  1  0.350386  0.350386  0.349943  1
  Lu  Lu2  1  0.350386  0.350386  0.949284  1
  Lu  Lu3  1  0.350873  0.949351  0.349888  1
  Lu  Lu4  1  0.949351  0.350873  0.349888  1
  Lu  Lu5  1  0.809580  0.190545  0.189529  1
  Lu  Lu6  1  0.190545  0.809580  0.810346  1
  Lu  Lu7  1  0.190545  0.809580  0.189529  1
  Lu  Lu8  1  0.809580  0.190545  0.810346  1
  Lu  Lu9  1  0.190122  0.190122  0.809878  1
  Lu  Lu10  1  0.809872  0.809872  0.190128  1
  Lu  Lu11  1  0.937220  0.561879  0.562544  1
  Lu  Lu12  1  0.561879  0.937220  0.938357  1
  Lu  Lu13  1  0.561879  0.937220  0.562544  1
  Lu  Lu14  1  0.937220  0.561879  0.938357  1
  Lu  Lu15  1  0.562578  0.562578  0.937422  1
  Zn  Zn16  1  0.577564  0.577564  0.577475  1
  Zn  Zn17  1  0.577564  0.577564  0.267396  1
  Zn  Zn18  1  0.576909  0.268319  0.577386  1
  Zn  Zn19  1  0.268319  0.576909  0.577386  1
  Co  Co20  1  0.142130  0.142130  0.141494  1
  Co  Co21  1  0.142130  0.142130  0.574246  1
  Co  Co22  1  0.141968  0.574086  0.141974  1
  Co  Co23  1  0.574086  0.141968  0.141974  1
