# generated using pymatgen
data_Hf8Ta3Nb9Si15Ge
_symmetry_space_group_name_H-M   'P 1'
_cell_length_a   6.67243400
_cell_length_b   6.86603206
_cell_length_c   13.09111000
_cell_angle_alpha   90.00000000
_cell_angle_beta   90.00000000
_cell_angle_gamma   89.99340206
_symmetry_Int_Tables_number   1
_chemical_formula_structural   Hf8Ta3Nb9Si15Ge
_chemical_formula_sum   'Hf8 Ta3 Nb9 Si15 Ge1'
_cell_volume   599.74492675
_cell_formula_units_Z   1
loop_
 _symmetry_equiv_pos_site_id
 _symmetry_equiv_pos_as_xyz
  1  'x, y, z'
loop_
 _atom_site_type_symbol
 _atom_site_label
 _atom_site_symmetry_multiplicity
 _atom_site_fract_x
 _atom_site_fract_y
 _atom_site_fract_z
 _atom_site_occupancy
  Hf  Hf0  1  0.496444  0.673725  0.594340  1
  Hf  Hf1  1  0.996339  0.826051  0.906287  1
  Hf  Hf2  1  0.501348  0.326769  0.092665  1
  Hf  Hf3  1  0.006585  0.170815  0.408779  1
  Hf  Hf4  1  0.501348  0.326769  0.407335  1
  Hf  Hf5  1  0.006585  0.170815  0.091221  1
  Hf  Hf6  1  0.496444  0.673725  0.905660  1
  Hf  Hf7  1  0.996339  0.826051  0.593713  1
  Ta  Ta8  1  0.836920  0.498685  0.750000  1
  Ta  Ta9  1  0.337073  0.002264  0.750000  1
  Ta  Ta10  1  0.165847  0.503067  0.250000  1
  Nb  Nb11  1  0.662389  0.170665  0.623761  1
  Nb  Nb12  1  0.162527  0.329524  0.876260  1
  Nb  Nb13  1  0.336399  0.830152  0.123258  1
  Nb  Nb14  1  0.838203  0.672594  0.377119  1
  Nb  Nb15  1  0.336399  0.830152  0.376742  1
  Nb  Nb16  1  0.838203  0.672594  0.122881  1
  Nb  Nb17  1  0.662389  0.170665  0.876239  1
  Nb  Nb18  1  0.162527  0.329524  0.623740  1
  Nb  Nb19  1  0.660968  0.995091  0.250000  1
  Si  Si20  1  0.671862  0.963630  0.461681  1
  Si  Si21  1  0.171995  0.536946  0.038729  1
  Si  Si22  1  0.327658  0.036591  0.960639  1
  Si  Si23  1  0.827164  0.463357  0.538786  1
  Si  Si24  1  0.327658  0.036591  0.539361  1
  Si  Si25  1  0.827164  0.463357  0.961214  1
  Si  Si26  1  0.671862  0.963630  0.038319  1
  Si  Si27  1  0.171995  0.536946  0.461271  1
  Si  Si28  1  0.461542  0.387799  0.750000  1
  Si  Si29  1  0.961089  0.113215  0.750000  1
  Si  Si30  1  0.537815  0.614547  0.250000  1
  Si  Si31  1  0.038423  0.887525  0.250000  1
  Si  Si32  1  0.703220  0.860755  0.750000  1
  Si  Si33  1  0.202639  0.639673  0.750000  1
  Si  Si34  1  0.296831  0.140255  0.250000  1
  Ge  Ge35  1  0.799805  0.355481  0.250000  1
