# generated using pymatgen
data_Hf2Zr8Ga2SnSb5
_symmetry_space_group_name_H-M   'P 1'
_cell_length_a   8.69228935
_cell_length_b   8.68095064
_cell_length_c   5.85670100
_cell_angle_alpha   90.00066374
_cell_angle_beta   89.99964585
_cell_angle_gamma   119.95694894
_symmetry_Int_Tables_number   1
_chemical_formula_structural   Hf2Zr8Ga2SnSb5
_chemical_formula_sum   'Hf2 Zr8 Ga2 Sn1 Sb5'
_cell_volume   382.88943623
_cell_formula_units_Z   1
loop_
 _symmetry_equiv_pos_site_id
 _symmetry_equiv_pos_as_xyz
  1  'x, y, z'
loop_
 _atom_site_type_symbol
 _atom_site_label
 _atom_site_symmetry_multiplicity
 _atom_site_fract_x
 _atom_site_fract_y
 _atom_site_fract_z
 _atom_site_occupancy
  Hf  Hf0  1  0.333421  0.666774  0.499338  1
  Hf  Hf1  1  0.666578  0.333350  0.499337  1
  Zr  Zr2  1  0.732945  0.732740  0.749820  1
  Zr  Zr3  1  0.267058  0.999797  0.749820  1
  Zr  Zr4  1  0.000001  0.266732  0.749850  1
  Zr  Zr5  1  0.268529  0.268277  0.250241  1
  Zr  Zr6  1  0.731471  0.999748  0.250243  1
  Zr  Zr7  1  0.999999  0.732824  0.250264  1
  Zr  Zr8  1  0.666346  0.333432  0.000487  1
  Zr  Zr9  1  0.333654  0.667087  0.000485  1
  Ga  Ga10  1  0.000000  0.000672  0.000947  1
  Ga  Ga11  1  0.000000  0.000643  0.499072  1
  Sn  Sn12  1  0.000001  0.388104  0.250744  1
  Sb  Sb13  1  0.389564  0.390205  0.749272  1
  Sb  Sb14  1  0.610436  0.000642  0.749272  1
  Sb  Sb15  1  0.000000  0.608529  0.749307  1
  Sb  Sb16  1  0.610473  0.610459  0.250751  1
  Sb  Sb17  1  0.389526  0.999985  0.250751  1
