# generated using pymatgen
data_DyTm(Hf4Sn3)2
_symmetry_space_group_name_H-M   'P 1'
_cell_length_a   8.61766523
_cell_length_b   8.61766575
_cell_length_c   5.83189700
_cell_angle_alpha   90.00000000
_cell_angle_beta   90.00000000
_cell_angle_gamma   121.37925395
_symmetry_Int_Tables_number   1
_chemical_formula_structural   DyTm(Hf4Sn3)2
_chemical_formula_sum   'Dy1 Tm1 Hf8 Sn6'
_cell_volume   369.75531876
_cell_formula_units_Z   1
loop_
 _symmetry_equiv_pos_site_id
 _symmetry_equiv_pos_as_xyz
  1  'x, y, z'
loop_
 _atom_site_type_symbol
 _atom_site_label
 _atom_site_symmetry_multiplicity
 _atom_site_fract_x
 _atom_site_fract_y
 _atom_site_fract_z
 _atom_site_occupancy
  Dy  Dy0  1  0.228058  0.228058  0.250000  1
  Tm  Tm1  1  0.772148  0.772148  0.750000  1
  Hf  Hf2  1  0.252298  0.000374  0.750000  1
  Hf  Hf3  1  0.000374  0.252298  0.750000  1
  Hf  Hf4  1  0.748206  0.999462  0.250000  1
  Hf  Hf5  1  0.999462  0.748206  0.250000  1
  Hf  Hf6  1  0.665252  0.334155  0.999942  1
  Hf  Hf7  1  0.334155  0.665252  0.999942  1
  Hf  Hf8  1  0.334155  0.665252  0.500058  1
  Hf  Hf9  1  0.665252  0.334155  0.500058  1
  Sn  Sn10  1  0.391916  0.391916  0.750000  1
  Sn  Sn11  1  0.606944  0.002946  0.750000  1
  Sn  Sn12  1  0.002946  0.606944  0.750000  1
  Sn  Sn13  1  0.609291  0.609291  0.250000  1
  Sn  Sn14  1  0.393608  0.995938  0.250000  1
  Sn  Sn15  1  0.995938  0.393608  0.250000  1
