# generated using pymatgen
data_Lu3Pa3TiPt21
_symmetry_space_group_name_H-M   'P 1'
_cell_length_a   5.79525600
_cell_length_b   5.79524679
_cell_length_c   16.68343200
_cell_angle_alpha   90.00013873
_cell_angle_beta   89.99994287
_cell_angle_gamma   120.00009765
_symmetry_Int_Tables_number   1
_chemical_formula_structural   Lu3Pa3TiPt21
_chemical_formula_sum   'Lu3 Pa3 Ti1 Pt21'
_cell_volume   485.24398428
_cell_formula_units_Z   1
loop_
 _symmetry_equiv_pos_site_id
 _symmetry_equiv_pos_as_xyz
  1  'x, y, z'
loop_
 _atom_site_type_symbol
 _atom_site_label
 _atom_site_symmetry_multiplicity
 _atom_site_fract_x
 _atom_site_fract_y
 _atom_site_fract_z
 _atom_site_occupancy
  Lu  Lu0  1  0.000014  0.000017  0.717467  1
  Lu  Lu1  1  0.666666  0.333323  0.852513  1
  Lu  Lu2  1  0.333332  0.666677  0.142040  1
  Pa  Pa3  1  0.999995  0.999991  0.283078  1
  Pa  Pa4  1  0.666669  0.333334  0.434644  1
  Pa  Pa5  1  0.999999  0.000000  0.995134  1
  Ti  Ti6  1  0.333337  0.666665  0.580738  1
  Pt  Pt7  1  0.833651  0.667299  0.571230  1
  Pt  Pt8  1  0.332704  0.166347  0.571230  1
  Pt  Pt9  1  0.172290  0.344570  0.855115  1
  Pt  Pt10  1  0.167392  0.334773  0.432207  1
  Pt  Pt11  1  0.167383  0.832613  0.432205  1
  Pt  Pt12  1  0.497423  0.994842  0.707758  1
  Pt  Pt13  1  0.665219  0.832613  0.432207  1
  Pt  Pt14  1  0.172280  0.827710  0.855114  1
  Pt  Pt15  1  0.655428  0.827708  0.855114  1
  Pt  Pt16  1  0.829704  0.170303  0.143008  1
  Pt  Pt17  1  0.833655  0.166357  0.571232  1
  Pt  Pt18  1  0.497429  0.502589  0.707753  1
  Pt  Pt19  1  0.340596  0.170303  0.143006  1
  Pt  Pt20  1  0.829698  0.659405  0.143006  1
  Pt  Pt21  1  0.500457  0.499528  0.289537  1
  Pt  Pt22  1  0.500459  0.000915  0.289536  1
  Pt  Pt23  1  0.500181  0.000369  0.999276  1
  Pt  Pt24  1  0.999081  0.499536  0.289537  1
  Pt  Pt25  1  0.005157  0.502583  0.707757  1
  Pt  Pt26  1  0.500180  0.499818  0.999281  1
  Pt  Pt27  1  0.999623  0.499812  0.999277  1
