# generated using pymatgen
data_SrInGa2Au3
_symmetry_space_group_name_H-M   'P 1'
_cell_length_a   4.53913500
_cell_length_b   7.59862800
_cell_length_c   8.85384300
_cell_angle_alpha   90.00000000
_cell_angle_beta   90.00000000
_cell_angle_gamma   90.00000000
_symmetry_Int_Tables_number   1
_chemical_formula_structural   SrInGa2Au3
_chemical_formula_sum   'Sr2 In2 Ga4 Au6'
_cell_volume   305.37965469
_cell_formula_units_Z   2
loop_
 _symmetry_equiv_pos_site_id
 _symmetry_equiv_pos_as_xyz
  1  'x, y, z'
loop_
 _atom_site_type_symbol
 _atom_site_label
 _atom_site_symmetry_multiplicity
 _atom_site_fract_x
 _atom_site_fract_y
 _atom_site_fract_z
 _atom_site_occupancy
  Sr  Sr0  1  0.500000  0.000000  0.743194  1
  Sr  Sr1  1  0.000000  0.500000  0.256806  1
  In  In2  1  0.000000  0.000000  0.365369  1
  In  In3  1  0.500000  0.500000  0.634631  1
  Ga  Ga4  1  0.000000  0.309901  0.892023  1
  Ga  Ga5  1  0.500000  0.190099  0.107977  1
  Ga  Ga6  1  0.000000  0.690099  0.892023  1
  Ga  Ga7  1  0.500000  0.809901  0.107977  1
  Au  Au8  1  0.000000  0.729545  0.600994  1
  Au  Au9  1  0.500000  0.770455  0.399006  1
  Au  Au10  1  0.500000  0.500000  0.961247  1
  Au  Au11  1  0.000000  0.000000  0.038753  1
  Au  Au12  1  0.500000  0.229545  0.399006  1
  Au  Au13  1  0.000000  0.270455  0.600994  1
