# generated using pymatgen
data_Tb5AlBi3
_symmetry_space_group_name_H-M   'P 1'
_cell_length_a   8.12636900
_cell_length_b   15.57365600
_cell_length_c   8.19012400
_cell_angle_alpha   90.00000000
_cell_angle_beta   90.00000000
_cell_angle_gamma   90.00000000
_symmetry_Int_Tables_number   1
_chemical_formula_structural   Tb5AlBi3
_chemical_formula_sum   'Tb20 Al4 Bi12'
_cell_volume   1036.51977810
_cell_formula_units_Z   4
loop_
 _symmetry_equiv_pos_site_id
 _symmetry_equiv_pos_as_xyz
  1  'x, y, z'
loop_
 _atom_site_type_symbol
 _atom_site_label
 _atom_site_symmetry_multiplicity
 _atom_site_fract_x
 _atom_site_fract_y
 _atom_site_fract_z
 _atom_site_occupancy
  Tb  Tb0  1  0.220554  0.250000  0.011540  1
  Tb  Tb1  1  0.104910  0.620862  0.150669  1
  Tb  Tb2  1  0.104910  0.879138  0.150669  1
  Tb  Tb3  1  0.557001  0.112824  0.185611  1
  Tb  Tb4  1  0.557001  0.387176  0.185611  1
  Tb  Tb5  1  0.057001  0.112824  0.314389  1
  Tb  Tb6  1  0.057001  0.387176  0.314389  1
  Tb  Tb7  1  0.604909  0.620862  0.349331  1
  Tb  Tb8  1  0.604909  0.879138  0.349331  1
  Tb  Tb9  1  0.720554  0.250000  0.488460  1
  Tb  Tb10  1  0.279446  0.750000  0.511540  1
  Tb  Tb11  1  0.395090  0.120862  0.650669  1
  Tb  Tb12  1  0.395090  0.379138  0.650669  1
  Tb  Tb13  1  0.942999  0.612824  0.685612  1
  Tb  Tb14  1  0.942999  0.887176  0.685612  1
  Tb  Tb15  1  0.442999  0.612824  0.814389  1
  Tb  Tb16  1  0.442999  0.887176  0.814389  1
  Tb  Tb17  1  0.895090  0.120862  0.849331  1
  Tb  Tb18  1  0.895090  0.379138  0.849331  1
  Tb  Tb19  1  0.779446  0.750000  0.988460  1
  Al  Al20  1  0.862250  0.250000  0.142477  1
  Al  Al21  1  0.362250  0.250000  0.357523  1
  Al  Al22  1  0.637749  0.750000  0.642477  1
  Al  Al23  1  0.137749  0.750000  0.857523  1
  Bi  Bi24  1  0.759321  0.544711  0.025644  1
  Bi  Bi25  1  0.759321  0.955289  0.025644  1
  Bi  Bi26  1  0.406276  0.750000  0.121557  1
  Bi  Bi27  1  0.906276  0.750000  0.378443  1
  Bi  Bi28  1  0.259321  0.544711  0.474356  1
  Bi  Bi29  1  0.259321  0.955289  0.474356  1
  Bi  Bi30  1  0.740679  0.044711  0.525644  1
  Bi  Bi31  1  0.740679  0.455289  0.525644  1
  Bi  Bi32  1  0.093724  0.250000  0.621557  1
  Bi  Bi33  1  0.593724  0.250000  0.878443  1
  Bi  Bi34  1  0.240678  0.044711  0.974356  1
  Bi  Bi35  1  0.240678  0.455289  0.974356  1
