# generated using pymatgen
data_Ca7Pr(OsC2)4
_symmetry_space_group_name_H-M   'P 1'
_cell_length_a   5.20566200
_cell_length_b   6.53888721
_cell_length_c   10.48700672
_cell_angle_alpha   90.32690527
_cell_angle_beta   90.00000000
_cell_angle_gamma   90.00000000
_symmetry_Int_Tables_number   1
_chemical_formula_structural   Ca7Pr(OsC2)4
_chemical_formula_sum   'Ca7 Pr1 Os4 C8'
_cell_volume   356.96389338
_cell_formula_units_Z   1
loop_
 _symmetry_equiv_pos_site_id
 _symmetry_equiv_pos_as_xyz
  1  'x, y, z'
loop_
 _atom_site_type_symbol
 _atom_site_label
 _atom_site_symmetry_multiplicity
 _atom_site_fract_x
 _atom_site_fract_y
 _atom_site_fract_z
 _atom_site_occupancy
  Ca  Ca0  1  0.750000  0.302366  0.448071  1
  Ca  Ca1  1  0.750000  0.807723  0.049860  1
  Ca  Ca2  1  0.250000  0.190569  0.950817  1
  Ca  Ca3  1  0.250000  0.537871  0.212501  1
  Ca  Ca4  1  0.750000  0.461862  0.785452  1
  Ca  Ca5  1  0.750000  0.967851  0.728217  1
  Ca  Ca6  1  0.250000  0.037666  0.274417  1
  Pr  Pr7  1  0.250000  0.692083  0.549053  1
  Os  Os8  1  0.250000  0.731010  0.852238  1
  Os  Os9  1  0.750000  0.266761  0.148854  1
  Os  Os10  1  0.750000  0.768447  0.346676  1
  Os  Os11  1  0.250000  0.229031  0.653825  1
  C  C12  1  0.250000  0.470299  0.758542  1
  C  C13  1  0.750000  0.530004  0.239350  1
  C  C14  1  0.750000  0.029283  0.256742  1
  C  C15  1  0.250000  0.965975  0.741991  1
  C  C16  1  0.250000  0.791104  0.024321  1
  C  C17  1  0.750000  0.210039  0.975737  1
  C  C18  1  0.750000  0.716752  0.521858  1
  C  C19  1  0.250000  0.293303  0.481479  1
