# generated using pymatgen
data_ZrGa3(NiPt5)2
_symmetry_space_group_name_H-M   'P 1'
_cell_length_a   3.99806300
_cell_length_b   3.99806300
_cell_length_c   15.20475700
_cell_angle_alpha   90.00000000
_cell_angle_beta   90.00000000
_cell_angle_gamma   90.00000000
_symmetry_Int_Tables_number   1
_chemical_formula_structural   ZrGa3(NiPt5)2
_chemical_formula_sum   'Zr1 Ga3 Ni2 Pt10'
_cell_volume   243.04055613
_cell_formula_units_Z   1
loop_
 _symmetry_equiv_pos_site_id
 _symmetry_equiv_pos_as_xyz
  1  'x, y, z'
loop_
 _atom_site_type_symbol
 _atom_site_label
 _atom_site_symmetry_multiplicity
 _atom_site_fract_x
 _atom_site_fract_y
 _atom_site_fract_z
 _atom_site_occupancy
  Zr  Zr0  1  0.000000  0.000000  0.000000  1
  Ga  Ga1  1  0.000000  0.000000  0.255356  1
  Ga  Ga2  1  0.000000  0.000000  0.500000  1
  Ga  Ga3  1  0.000000  0.000000  0.744644  1
  Ni  Ni4  1  0.500000  0.500000  0.252690  1
  Ni  Ni5  1  0.500000  0.500000  0.747310  1
  Pt  Pt6  1  0.500000  0.500000  0.000000  1
  Pt  Pt7  1  0.500000  0.500000  0.500000  1
  Pt  Pt8  1  0.500000  0.000000  0.135321  1
  Pt  Pt9  1  0.500000  0.000000  0.369507  1
  Pt  Pt10  1  0.500000  0.000000  0.630493  1
  Pt  Pt11  1  0.500000  0.000000  0.864679  1
  Pt  Pt12  1  0.000000  0.500000  0.135321  1
  Pt  Pt13  1  0.000000  0.500000  0.369507  1
  Pt  Pt14  1  0.000000  0.500000  0.630493  1
  Pt  Pt15  1  0.000000  0.500000  0.864679  1
