# generated using pymatgen
data_Yb2NiOsO6
_symmetry_space_group_name_H-M   'P 1'
_cell_length_a   5.31331294
_cell_length_b   5.60102401
_cell_length_c   7.60649452
_cell_angle_alpha   89.96084020
_cell_angle_beta   90.52150222
_cell_angle_gamma   90.02638486
_symmetry_Int_Tables_number   1
_chemical_formula_structural   Yb2NiOsO6
_chemical_formula_sum   'Yb4 Ni2 Os2 O12'
_cell_volume   226.35977328
_cell_formula_units_Z   2
loop_
 _symmetry_equiv_pos_site_id
 _symmetry_equiv_pos_as_xyz
  1  'x, y, z'
loop_
 _atom_site_type_symbol
 _atom_site_label
 _atom_site_symmetry_multiplicity
 _atom_site_fract_x
 _atom_site_fract_y
 _atom_site_fract_z
 _atom_site_occupancy
  Yb  Yb0  1  0.980315  0.067890  0.251702  1
  Yb  Yb1  1  0.519690  0.567633  0.247750  1
  Yb  Yb2  1  0.019684  0.932109  0.748299  1
  Yb  Yb3  1  0.480309  0.432368  0.752249  1
  Ni  Ni4  1  0.500000  0.000000  0.000000  1
  Ni  Ni5  1  0.000000  0.500000  0.500000  1
  Os  Os6  1  0.499999  0.999999  0.500000  1
  Os  Os7  1  0.999999  0.500001  0.999999  1
  O  O8  1  0.683875  0.291672  0.445452  1
  O  O9  1  0.816019  0.791945  0.054506  1
  O  O10  1  0.316125  0.708327  0.554548  1
  O  O11  1  0.183980  0.208056  0.945493  1
  O  O12  1  0.203837  0.190172  0.550850  1
  O  O13  1  0.296536  0.690421  0.949085  1
  O  O14  1  0.796162  0.809827  0.449150  1
  O  O15  1  0.703463  0.309580  0.050914  1
  O  O16  1  0.103155  0.467348  0.242890  1
  O  O17  1  0.397070  0.967431  0.257433  1
  O  O18  1  0.602930  0.032569  0.742567  1
  O  O19  1  0.896845  0.532652  0.757110  1
