# generated using pymatgen
data_BaPa3(NiP)4
_symmetry_space_group_name_H-M   'P 1'
_cell_length_a   3.92783300
_cell_length_b   3.92783225
_cell_length_c   16.24253600
_cell_angle_alpha   90.00000000
_cell_angle_beta   90.00000000
_cell_angle_gamma   120.00001478
_symmetry_Int_Tables_number   1
_chemical_formula_structural   BaPa3(NiP)4
_chemical_formula_sum   'Ba1 Pa3 Ni4 P4'
_cell_volume   217.01529862
_cell_formula_units_Z   1
loop_
 _symmetry_equiv_pos_site_id
 _symmetry_equiv_pos_as_xyz
  1  'x, y, z'
loop_
 _atom_site_type_symbol
 _atom_site_label
 _atom_site_symmetry_multiplicity
 _atom_site_fract_x
 _atom_site_fract_y
 _atom_site_fract_z
 _atom_site_occupancy
  Ba  Ba0  1  0.000000  0.000000  0.750000  1
  Pa  Pa1  1  0.000000  0.000000  0.487511  1
  Pa  Pa2  1  0.000000  0.000000  0.012489  1
  Pa  Pa3  1  0.000000  0.000000  0.250000  1
  Ni  Ni4  1  0.333333  0.666667  0.368243  1
  Ni  Ni5  1  0.666667  0.333333  0.589164  1
  Ni  Ni6  1  0.666667  0.333333  0.910836  1
  Ni  Ni7  1  0.333333  0.666667  0.131757  1
  P  P8  1  0.333333  0.666667  0.897021  1
  P  P9  1  0.666667  0.333333  0.131723  1
  P  P10  1  0.666667  0.333333  0.368277  1
  P  P11  1  0.333333  0.666667  0.602979  1
