# generated using pymatgen
data_TaMnOsF12
_symmetry_space_group_name_H-M   'P 1'
_cell_length_a   5.37247131
_cell_length_b   5.66601506
_cell_length_c   9.31525410
_cell_angle_alpha   73.77880792
_cell_angle_beta   88.62241781
_cell_angle_gamma   62.30622913
_symmetry_Int_Tables_number   1
_chemical_formula_structural   TaMnOsF12
_chemical_formula_sum   'Ta1 Mn1 Os1 F12'
_cell_volume   239.20877492
_cell_formula_units_Z   1
loop_
 _symmetry_equiv_pos_site_id
 _symmetry_equiv_pos_as_xyz
  1  'x, y, z'
loop_
 _atom_site_type_symbol
 _atom_site_label
 _atom_site_symmetry_multiplicity
 _atom_site_fract_x
 _atom_site_fract_y
 _atom_site_fract_z
 _atom_site_occupancy
  Ta  Ta0  1  0.228993  0.993682  0.762979  1
  Mn  Mn1  1  0.504281  0.500438  0.499683  1
  Os  Os2  1  0.772894  0.001033  0.245197  1
  F  F3  1  0.945784  0.229690  0.199085  1
  F  F4  1  0.058260  0.763690  0.797244  1
  F  F5  1  0.010761  0.766420  0.137388  1
  F  F6  1  0.458301  0.773219  0.628535  1
  F  F7  1  0.533368  0.230865  0.368850  1
  F  F8  1  0.941868  0.242500  0.578275  1
  F  F9  1  0.057657  0.760338  0.425075  1
  F  F10  1  0.404917  0.235324  0.677871  1
  F  F11  1  0.593893  0.760677  0.311465  1
  F  F12  1  0.512550  0.781538  0.926310  1
  F  F13  1  0.493502  0.222496  0.079010  1
  F  F14  1  0.982973  0.238091  0.863031  1
