# generated using pymatgen
data_CaPr7AsPd24
_symmetry_space_group_name_H-M   'P 1'
_cell_length_a   8.57958003
_cell_length_b   8.57958006
_cell_length_c   8.57958000
_cell_angle_alpha   90.00472813
_cell_angle_beta   90.00472813
_cell_angle_gamma   90.00472774
_symmetry_Int_Tables_number   1
_chemical_formula_structural   CaPr7AsPd24
_chemical_formula_sum   'Ca1 Pr7 As1 Pd24'
_cell_volume   631.53595988
_cell_formula_units_Z   1
loop_
 _symmetry_equiv_pos_site_id
 _symmetry_equiv_pos_as_xyz
  1  'x, y, z'
loop_
 _atom_site_type_symbol
 _atom_site_label
 _atom_site_symmetry_multiplicity
 _atom_site_fract_x
 _atom_site_fract_y
 _atom_site_fract_z
 _atom_site_occupancy
  Ca  Ca0  1  0.253088  0.253088  0.253088  1
  Pr  Pr1  1  0.746013  0.746013  0.746013  1
  Pr  Pr2  1  0.745443  0.745443  0.254231  1
  Pr  Pr3  1  0.745443  0.254231  0.745443  1
  Pr  Pr4  1  0.254758  0.254758  0.745070  1
  Pr  Pr5  1  0.254758  0.745070  0.254758  1
  Pr  Pr6  1  0.254231  0.745443  0.745443  1
  Pr  Pr7  1  0.745070  0.254758  0.254758  1
  As  As8  1  0.000167  0.000167  0.000167  1
  Pd  Pd9  1  0.258882  0.499450  0.000589  1
  Pd  Pd10  1  0.741818  0.499776  0.999788  1
  Pd  Pd11  1  0.000589  0.258882  0.499450  1
  Pd  Pd12  1  0.499450  0.258882  0.000589  1
  Pd  Pd13  1  0.999788  0.741818  0.499776  1
  Pd  Pd14  1  0.499776  0.741818  0.999788  1
  Pd  Pd15  1  0.499450  0.000589  0.258882  1
  Pd  Pd16  1  0.258882  0.000589  0.499450  1
  Pd  Pd17  1  0.499776  0.999788  0.741818  1
  Pd  Pd18  1  0.741818  0.999788  0.499776  1
  Pd  Pd19  1  0.000589  0.499450  0.258882  1
  Pd  Pd20  1  0.999788  0.499776  0.741818  1
  Pd  Pd21  1  0.252277  0.498884  0.498884  1
  Pd  Pd22  1  0.747715  0.500325  0.500325  1
  Pd  Pd23  1  0.498884  0.252277  0.498884  1
  Pd  Pd24  1  0.500325  0.747715  0.500325  1
  Pd  Pd25  1  0.498884  0.498884  0.252277  1
  Pd  Pd26  1  0.500325  0.500325  0.747715  1
  Pd  Pd27  1  0.287061  0.001392  0.001392  1
  Pd  Pd28  1  0.711282  0.000443  0.000443  1
  Pd  Pd29  1  0.001392  0.287061  0.001392  1
  Pd  Pd30  1  0.000443  0.711282  0.000443  1
  Pd  Pd31  1  0.001392  0.001392  0.287061  1
  Pd  Pd32  1  0.000443  0.000443  0.711282  1
