# generated using pymatgen
data_Ho2Al9Cu2Re
_symmetry_space_group_name_H-M   'P 1'
_cell_length_a   7.53820698
_cell_length_b   7.53820688
_cell_length_c   9.44323500
_cell_angle_alpha   90.00000000
_cell_angle_beta   90.00000000
_cell_angle_gamma   118.60999194
_symmetry_Int_Tables_number   1
_chemical_formula_structural   Ho2Al9Cu2Re
_chemical_formula_sum   'Ho4 Al18 Cu4 Re2'
_cell_volume   471.08762957
_cell_formula_units_Z   2
loop_
 _symmetry_equiv_pos_site_id
 _symmetry_equiv_pos_as_xyz
  1  'x, y, z'
loop_
 _atom_site_type_symbol
 _atom_site_label
 _atom_site_symmetry_multiplicity
 _atom_site_fract_x
 _atom_site_fract_y
 _atom_site_fract_z
 _atom_site_occupancy
  Ho  Ho0  1  0.993019  0.679550  0.250000  1
  Ho  Ho1  1  0.006981  0.320450  0.750000  1
  Ho  Ho2  1  0.679550  0.993019  0.250000  1
  Ho  Ho3  1  0.320450  0.006981  0.750000  1
  Al  Al4  1  0.135633  0.135633  0.250000  1
  Al  Al5  1  0.864367  0.864367  0.750000  1
  Al  Al6  1  0.000719  0.337456  0.076469  1
  Al  Al7  1  0.999281  0.662544  0.923531  1
  Al  Al8  1  0.999281  0.662544  0.576469  1
  Al  Al9  1  0.337456  0.000719  0.423531  1
  Al  Al10  1  0.000719  0.337456  0.423531  1
  Al  Al11  1  0.662544  0.999281  0.576469  1
  Al  Al12  1  0.662544  0.999281  0.923531  1
  Al  Al13  1  0.337456  0.000719  0.076469  1
  Al  Al14  1  0.331913  0.331913  0.549025  1
  Al  Al15  1  0.668087  0.668088  0.450975  1
  Al  Al16  1  0.668087  0.668088  0.049025  1
  Al  Al17  1  0.331913  0.331913  0.950975  1
  Al  Al18  1  0.346670  0.557351  0.250000  1
  Al  Al19  1  0.653330  0.442649  0.750000  1
  Al  Al20  1  0.557351  0.346670  0.250000  1
  Al  Al21  1  0.442649  0.653330  0.750000  1
  Cu  Cu22  1  0.671640  0.328360  0.000000  1
  Cu  Cu23  1  0.328360  0.671640  0.000000  1
  Cu  Cu24  1  0.328360  0.671640  0.500000  1
  Cu  Cu25  1  0.671640  0.328360  0.500000  1
  Re  Re26  1  0.000000  0.000000  0.000000  1
  Re  Re27  1  0.000000  0.000000  0.500000  1
