# generated using pymatgen
data_Tm5Th2Sn23Rh6
_symmetry_space_group_name_H-M   'P 1'
_cell_length_a   9.82698800
_cell_length_b   9.82781116
_cell_length_c   10.08435000
_cell_angle_alpha   90.00000000
_cell_angle_beta   90.00103782
_cell_angle_gamma   120.00277640
_symmetry_Int_Tables_number   1
_chemical_formula_structural   Tm5Th2Sn23Rh6
_chemical_formula_sum   'Tm5 Th2 Sn23 Rh6'
_cell_volume   843.41946510
_cell_formula_units_Z   1
loop_
 _symmetry_equiv_pos_site_id
 _symmetry_equiv_pos_as_xyz
  1  'x, y, z'
loop_
 _atom_site_type_symbol
 _atom_site_label
 _atom_site_symmetry_multiplicity
 _atom_site_fract_x
 _atom_site_fract_y
 _atom_site_fract_z
 _atom_site_occupancy
  Tm  Tm0  1  0.480279  0.520155  0.306793  1
  Tm  Tm1  1  0.521353  0.479784  0.692425  1
  Tm  Tm2  1  0.480279  0.960126  0.306793  1
  Tm  Tm3  1  0.521353  0.041568  0.692425  1
  Tm  Tm4  1  0.039319  0.519661  0.307323  1
  Th  Th5  1  0.956704  0.478351  0.692827  1
  Th  Th6  1  0.000354  0.000177  0.999964  1
  Sn  Sn7  1  0.120980  0.879482  0.282043  1
  Sn  Sn8  1  0.878735  0.115932  0.718255  1
  Sn  Sn9  1  0.120980  0.241495  0.282043  1
  Sn  Sn10  1  0.878735  0.762802  0.718255  1
  Sn  Sn11  1  0.757413  0.878706  0.282124  1
  Sn  Sn12  1  0.242033  0.121017  0.718201  1
  Sn  Sn13  1  0.774737  0.220873  0.453833  1
  Sn  Sn14  1  0.227939  0.782284  0.540834  1
  Sn  Sn15  1  0.774737  0.553862  0.453833  1
  Sn  Sn16  1  0.227939  0.445656  0.540834  1
  Sn  Sn17  1  0.446606  0.223303  0.455755  1
  Sn  Sn18  1  0.555352  0.777677  0.543365  1
  Sn  Sn19  1  0.352170  0.000547  0.000185  1
  Sn  Sn20  1  0.648145  0.999046  0.000683  1
  Sn  Sn21  1  0.999962  0.351106  0.001647  1
  Sn  Sn22  1  0.999962  0.648855  0.001647  1
  Sn  Sn23  1  0.648145  0.649100  0.000683  1
  Sn  Sn24  1  0.352170  0.351622  0.000185  1
  Sn  Sn25  1  0.333454  0.666727  0.124772  1
  Sn  Sn26  1  0.658922  0.329461  0.880798  1
  Sn  Sn27  1  0.335445  0.667723  0.824108  1
  Sn  Sn28  1  0.666214  0.333107  0.177345  1
  Sn  Sn29  1  0.001017  0.000508  0.500104  1
  Rh  Rh30  1  0.831040  0.168748  0.199631  1
  Rh  Rh31  1  0.169864  0.830610  0.800170  1
  Rh  Rh32  1  0.831040  0.662294  0.199631  1
  Rh  Rh33  1  0.169864  0.339251  0.800170  1
  Rh  Rh34  1  0.337366  0.168683  0.200031  1
  Rh  Rh35  1  0.659398  0.829697  0.800282  1
