# generated using pymatgen
data_Sc4Fe3CoP4
_symmetry_space_group_name_H-M   'P 1'
_cell_length_a   3.79303800
_cell_length_b   6.25120992
_cell_length_c   6.96934238
_cell_angle_alpha   89.88821475
_cell_angle_beta   90.00000000
_cell_angle_gamma   90.00000000
_symmetry_Int_Tables_number   1
_chemical_formula_structural   Sc4Fe3CoP4
_chemical_formula_sum   'Sc4 Fe3 Co1 P4'
_cell_volume   165.25029765
_cell_formula_units_Z   1
loop_
 _symmetry_equiv_pos_site_id
 _symmetry_equiv_pos_as_xyz
  1  'x, y, z'
loop_
 _atom_site_type_symbol
 _atom_site_label
 _atom_site_symmetry_multiplicity
 _atom_site_fract_x
 _atom_site_fract_y
 _atom_site_fract_z
 _atom_site_occupancy
  Sc  Sc0  1  0.250000  0.011114  0.814440  1
  Sc  Sc1  1  0.250000  0.511889  0.687927  1
  Sc  Sc2  1  0.750000  0.986568  0.185801  1
  Sc  Sc3  1  0.750000  0.488946  0.311058  1
  Fe  Fe4  1  0.250000  0.150801  0.439214  1
  Fe  Fe5  1  0.250000  0.651043  0.063687  1
  Fe  Fe6  1  0.750000  0.850118  0.562724  1
  Co  Co7  1  0.750000  0.349495  0.935436  1
  P  P8  1  0.250000  0.284948  0.117870  1
  P  P9  1  0.250000  0.787988  0.386172  1
  P  P10  1  0.750000  0.714787  0.884746  1
  P  P11  1  0.750000  0.212301  0.610925  1
