# generated using pymatgen
data_ErU3(ReB6)2
_symmetry_space_group_name_H-M   'P 1'
_cell_length_a   3.63196100
_cell_length_b   9.28772333
_cell_length_c   11.38818590
_cell_angle_alpha   89.94763103
_cell_angle_beta   90.00000000
_cell_angle_gamma   90.00000000
_symmetry_Int_Tables_number   1
_chemical_formula_structural   ErU3(ReB6)2
_chemical_formula_sum   'Er2 U6 Re4 B24'
_cell_volume   384.15351628
_cell_formula_units_Z   2
loop_
 _symmetry_equiv_pos_site_id
 _symmetry_equiv_pos_as_xyz
  1  'x, y, z'
loop_
 _atom_site_type_symbol
 _atom_site_label
 _atom_site_symmetry_multiplicity
 _atom_site_fract_x
 _atom_site_fract_y
 _atom_site_fract_z
 _atom_site_occupancy
  Er  Er0  1  0.000000  0.336518  0.408091  1
  Er  Er1  1  0.000000  0.663482  0.591909  1
  U  U2  1  0.000000  0.836236  0.092724  1
  U  U3  1  0.000000  0.163764  0.907276  1
  U  U4  1  0.000000  0.956471  0.396372  1
  U  U5  1  0.000000  0.043529  0.603628  1
  U  U6  1  0.000000  0.457059  0.103666  1
  U  U7  1  0.000000  0.542941  0.896334  1
  Re  Re8  1  0.000000  0.646659  0.317269  1
  Re  Re9  1  0.000000  0.353341  0.682731  1
  Re  Re10  1  0.000000  0.143692  0.178232  1
  Re  Re11  1  0.000000  0.856308  0.821768  1
  B  B12  1  0.500000  0.551389  0.431223  1
  B  B13  1  0.500000  0.448611  0.568777  1
  B  B14  1  0.500000  0.049831  0.067515  1
  B  B15  1  0.500000  0.950169  0.932485  1
  B  B16  1  0.500000  0.742302  0.423574  1
  B  B17  1  0.500000  0.257698  0.576426  1
  B  B18  1  0.500000  0.243200  0.076512  1
  B  B19  1  0.500000  0.756800  0.923488  1
  B  B20  1  0.500000  0.803619  0.273619  1
  B  B21  1  0.500000  0.196381  0.726381  1
  B  B22  1  0.500000  0.302465  0.225678  1
  B  B23  1  0.500000  0.697535  0.774322  1
  B  B24  1  0.500000  0.644919  0.188047  1
  B  B25  1  0.500000  0.355081  0.811953  1
  B  B26  1  0.500000  0.144755  0.311677  1
  B  B27  1  0.500000  0.855245  0.688323  1
  B  B28  1  0.500000  0.986984  0.219152  1
  B  B29  1  0.500000  0.013016  0.780848  1
  B  B30  1  0.500000  0.487722  0.281295  1
  B  B31  1  0.500000  0.512278  0.718705  1
  B  B32  1  0.500000  0.643164  0.039371  1
  B  B33  1  0.500000  0.356836  0.960629  1
  B  B34  1  0.500000  0.141125  0.460797  1
  B  B35  1  0.500000  0.858875  0.539203  1
