# generated using pymatgen
data_Nd3Sc2InSn2Pt
_symmetry_space_group_name_H-M   'P 1'
_cell_length_a   7.86204329
_cell_length_b   7.96800759
_cell_length_c   4.40561500
_cell_angle_alpha   90.00000000
_cell_angle_beta   90.00000000
_cell_angle_gamma   120.44685953
_symmetry_Int_Tables_number   1
_chemical_formula_structural   Nd3Sc2InSn2Pt
_chemical_formula_sum   'Nd3 Sc2 In1 Sn2 Pt1'
_cell_volume   237.92995101
_cell_formula_units_Z   1
loop_
 _symmetry_equiv_pos_site_id
 _symmetry_equiv_pos_as_xyz
  1  'x, y, z'
loop_
 _atom_site_type_symbol
 _atom_site_label
 _atom_site_symmetry_multiplicity
 _atom_site_fract_x
 _atom_site_fract_y
 _atom_site_fract_z
 _atom_site_occupancy
  Nd  Nd0  1  0.387327  0.402015  0.000000  1
  Nd  Nd1  1  0.612673  0.014688  0.000000  1
  Nd  Nd2  1  0.000000  0.590958  0.000000  1
  Sc  Sc3  1  0.770278  0.769452  0.500000  1
  Sc  Sc4  1  0.229722  0.999173  0.500000  1
  In  In5  1  0.000000  0.229005  0.500000  1
  Sn  Sn6  1  0.657640  0.339779  0.500000  1
  Sn  Sn7  1  0.342360  0.682139  0.500000  1
  Pt  Pt8  1  0.000000  0.972789  0.000000  1
