# generated using pymatgen
data_SrP6PtO18
_symmetry_space_group_name_H-M   'P 1'
_cell_length_a   6.84034700
_cell_length_b   6.84034701
_cell_length_c   10.51892300
_cell_angle_alpha   90.00000000
_cell_angle_beta   90.00000000
_cell_angle_gamma   120.00000477
_symmetry_Int_Tables_number   1
_chemical_formula_structural   SrP6PtO18
_chemical_formula_sum   'Sr1 P6 Pt1 O18'
_cell_volume   426.24387802
_cell_formula_units_Z   1
loop_
 _symmetry_equiv_pos_site_id
 _symmetry_equiv_pos_as_xyz
  1  'x, y, z'
loop_
 _atom_site_type_symbol
 _atom_site_label
 _atom_site_symmetry_multiplicity
 _atom_site_fract_x
 _atom_site_fract_y
 _atom_site_fract_z
 _atom_site_occupancy
  Sr  Sr0  1  0.000000  0.000000  0.500000  1
  P  P1  1  0.729998  0.122690  0.784222  1
  P  P2  1  0.877310  0.270002  0.215778  1
  P  P3  1  0.729998  0.607308  0.215778  1
  P  P4  1  0.877310  0.607308  0.784222  1
  P  P5  1  0.392692  0.270002  0.784222  1
  P  P6  1  0.392692  0.122690  0.215778  1
  Pt  Pt7  1  0.000000  0.000000  0.000000  1
  O  O8  1  0.901544  0.513784  0.191651  1
  O  O9  1  0.901544  0.387760  0.808349  1
  O  O10  1  0.486216  0.098456  0.808349  1
  O  O11  1  0.612240  0.098456  0.191651  1
  O  O12  1  0.751413  0.052947  0.654309  1
  O  O13  1  0.746602  0.990109  0.897529  1
  O  O14  1  0.486216  0.387760  0.191651  1
  O  O15  1  0.751413  0.698467  0.345691  1
  O  O16  1  0.746602  0.756494  0.102471  1
  O  O17  1  0.612240  0.513784  0.808349  1
  O  O18  1  0.947053  0.248587  0.345691  1
  O  O19  1  0.009891  0.253398  0.102471  1
  O  O20  1  0.243506  0.253398  0.897529  1
  O  O21  1  0.301533  0.248587  0.654309  1
  O  O22  1  0.009891  0.756494  0.897529  1
  O  O23  1  0.947053  0.698467  0.654309  1
  O  O24  1  0.243506  0.990109  0.102471  1
  O  O25  1  0.301533  0.052947  0.345691  1
