# generated using pymatgen
data_Er8Ti9Nb(ReSi8)2
_symmetry_space_group_name_H-M   'P 1'
_cell_length_a   6.97372559
_cell_length_b   6.97372568
_cell_length_c   12.81064001
_cell_angle_alpha   89.96658287
_cell_angle_beta   90.03341737
_cell_angle_gamma   90.10317235
_symmetry_Int_Tables_number   1
_chemical_formula_structural   Er8Ti9Nb(ReSi8)2
_chemical_formula_sum   'Er8 Ti9 Nb1 Re2 Si16'
_cell_volume   623.01670268
_cell_formula_units_Z   1
loop_
 _symmetry_equiv_pos_site_id
 _symmetry_equiv_pos_as_xyz
  1  'x, y, z'
loop_
 _atom_site_type_symbol
 _atom_site_label
 _atom_site_symmetry_multiplicity
 _atom_site_fract_x
 _atom_site_fract_y
 _atom_site_fract_z
 _atom_site_occupancy
  Er  Er0  1  0.339581  0.000692  0.466719  1
  Er  Er1  1  0.498969  0.841274  0.718314  1
  Er  Er2  1  0.500597  0.157914  0.218651  1
  Er  Er3  1  0.841274  0.498969  0.281686  1
  Er  Er4  1  0.157914  0.500597  0.781349  1
  Er  Er5  1  0.660143  0.999519  0.966917  1
  Er  Er6  1  0.000692  0.339581  0.533281  1
  Er  Er7  1  0.999519  0.660143  0.033083  1
  Ti  Ti8  1  0.673205  0.673205  0.500000  1
  Ti  Ti9  1  0.152559  0.009902  0.877120  1
  Ti  Ti10  1  0.495250  0.651874  0.124655  1
  Ti  Ti11  1  0.504817  0.347011  0.625292  1
  Ti  Ti12  1  0.651874  0.495250  0.875345  1
  Ti  Ti13  1  0.347011  0.504817  0.374708  1
  Ti  Ti14  1  0.847856  0.991109  0.376590  1
  Ti  Ti15  1  0.009902  0.152559  0.122880  1
  Ti  Ti16  1  0.991109  0.847856  0.623410  1
  Nb  Nb17  1  0.327045  0.327045  0.000000  1
  Re  Re18  1  0.172947  0.827201  0.250247  1
  Re  Re19  1  0.827201  0.172947  0.749753  1
  Si  Si20  1  0.200081  0.129434  0.683648  1
  Si  Si21  1  0.367817  0.704770  0.933317  1
  Si  Si22  1  0.631689  0.296815  0.433976  1
  Si  Si23  1  0.704770  0.367817  0.066683  1
  Si  Si24  1  0.296815  0.631689  0.566024  1
  Si  Si25  1  0.800856  0.870003  0.184549  1
  Si  Si26  1  0.129434  0.200081  0.316352  1
  Si  Si27  1  0.870003  0.800856  0.815451  1
  Si  Si28  1  0.293617  0.949706  0.067595  1
  Si  Si29  1  0.545592  0.790011  0.315163  1
  Si  Si30  1  0.455896  0.208927  0.813150  1
  Si  Si31  1  0.790011  0.545592  0.684837  1
  Si  Si32  1  0.208927  0.455896  0.186850  1
  Si  Si33  1  0.706605  0.048718  0.567283  1
  Si  Si34  1  0.949706  0.293617  0.932405  1
  Si  Si35  1  0.048718  0.706605  0.432717  1
