# generated using pymatgen
data_Ac(NbSn)6
_symmetry_space_group_name_H-M   'P 1'
_cell_length_a   5.89173100
_cell_length_b   5.89173099
_cell_length_c   9.68007700
_cell_angle_alpha   90.00000000
_cell_angle_beta   90.00000000
_cell_angle_gamma   119.99999442
_symmetry_Int_Tables_number   1
_chemical_formula_structural   Ac(NbSn)6
_chemical_formula_sum   'Ac1 Nb6 Sn6'
_cell_volume   291.00154012
_cell_formula_units_Z   1
loop_
 _symmetry_equiv_pos_site_id
 _symmetry_equiv_pos_as_xyz
  1  'x, y, z'
loop_
 _atom_site_type_symbol
 _atom_site_label
 _atom_site_symmetry_multiplicity
 _atom_site_fract_x
 _atom_site_fract_y
 _atom_site_fract_z
 _atom_site_occupancy
  Ac  Ac0  1  0.000000  0.000000  0.000000  1
  Nb  Nb1  1  0.000000  0.500000  0.748173  1
  Nb  Nb2  1  0.500000  0.500000  0.748173  1
  Nb  Nb3  1  0.500000  0.000000  0.748173  1
  Nb  Nb4  1  0.000000  0.500000  0.251827  1
  Nb  Nb5  1  0.500000  0.500000  0.251827  1
  Nb  Nb6  1  0.500000  0.000000  0.251827  1
  Sn  Sn7  1  0.666667  0.333333  0.500000  1
  Sn  Sn8  1  0.333333  0.666667  0.500000  1
  Sn  Sn9  1  0.666667  0.333333  0.000000  1
  Sn  Sn10  1  0.333333  0.666667  0.000000  1
  Sn  Sn11  1  0.000000  0.000000  0.661518  1
  Sn  Sn12  1  0.000000  0.000000  0.338482  1
