# generated using pymatgen
data_Li2Pr3LuPd3
_symmetry_space_group_name_H-M   'P 1'
_cell_length_a   7.78645800
_cell_length_b   7.68280168
_cell_length_c   4.17064700
_cell_angle_alpha   90.00000000
_cell_angle_beta   90.00000000
_cell_angle_gamma   119.56060145
_symmetry_Int_Tables_number   1
_chemical_formula_structural   Li2Pr3LuPd3
_chemical_formula_sum   'Li2 Pr3 Lu1 Pd3'
_cell_volume   217.01990440
_cell_formula_units_Z   1
loop_
 _symmetry_equiv_pos_site_id
 _symmetry_equiv_pos_as_xyz
  1  'x, y, z'
loop_
 _atom_site_type_symbol
 _atom_site_label
 _atom_site_symmetry_multiplicity
 _atom_site_fract_x
 _atom_site_fract_y
 _atom_site_fract_z
 _atom_site_occupancy
  Li  Li0  1  0.761622  0.762865  0.000000  1
  Li  Li1  1  0.238378  0.001242  0.000000  1
  Pr  Pr2  1  0.437411  0.415789  0.500000  1
  Pr  Pr3  1  0.562589  0.978378  0.500000  1
  Pr  Pr4  1  0.000000  0.613510  0.500000  1
  Lu  Lu5  1  0.000000  0.241163  0.000000  1
  Pd  Pd6  1  0.678834  0.330478  0.000000  1
  Pd  Pd7  1  0.321166  0.651646  0.000000  1
  Pd  Pd8  1  0.000000  0.004929  0.500000  1
