# generated using pymatgen
data_SmErPa2(NiGe)4
_symmetry_space_group_name_H-M   'P 1'
_cell_length_a   4.25927400
_cell_length_b   7.19611024
_cell_length_c   7.13989870
_cell_angle_alpha   90.43002994
_cell_angle_beta   90.00000000
_cell_angle_gamma   90.00000000
_symmetry_Int_Tables_number   1
_chemical_formula_structural   SmErPa2(NiGe)4
_chemical_formula_sum   'Sm1 Er1 Pa2 Ni4 Ge4'
_cell_volume   218.83319698
_cell_formula_units_Z   1
loop_
 _symmetry_equiv_pos_site_id
 _symmetry_equiv_pos_as_xyz
  1  'x, y, z'
loop_
 _atom_site_type_symbol
 _atom_site_label
 _atom_site_symmetry_multiplicity
 _atom_site_fract_x
 _atom_site_fract_y
 _atom_site_fract_z
 _atom_site_occupancy
  Sm  Sm0  1  0.750000  0.002527  0.720081  1
  Er  Er1  1  0.750000  0.501157  0.780381  1
  Pa  Pa2  1  0.250000  0.486239  0.218686  1
  Pa  Pa3  1  0.250000  0.982505  0.276755  1
  Ni  Ni4  1  0.250000  0.249643  0.935296  1
  Ni  Ni5  1  0.250000  0.734425  0.565019  1
  Ni  Ni6  1  0.750000  0.800838  0.090202  1
  Ni  Ni7  1  0.750000  0.315125  0.412095  1
  Ge  Ge8  1  0.250000  0.270648  0.589111  1
  Ge  Ge9  1  0.250000  0.763072  0.908506  1
  Ge  Ge10  1  0.750000  0.694399  0.414482  1
  Ge  Ge11  1  0.750000  0.199418  0.089387  1
