# generated using pymatgen
data_Zr2V3Ir
_symmetry_space_group_name_H-M   'P 1'
_cell_length_a   5.22899123
_cell_length_b   5.19937845
_cell_length_c   5.19937800
_cell_angle_alpha   59.99999016
_cell_angle_beta   60.18715095
_cell_angle_gamma   60.18714147
_symmetry_Int_Tables_number   1
_chemical_formula_structural   Zr2V3Ir
_chemical_formula_sum   'Zr2 V3 Ir1'
_cell_volume   100.23708449
_cell_formula_units_Z   1
loop_
 _symmetry_equiv_pos_site_id
 _symmetry_equiv_pos_as_xyz
  1  'x, y, z'
loop_
 _atom_site_type_symbol
 _atom_site_label
 _atom_site_symmetry_multiplicity
 _atom_site_fract_x
 _atom_site_fract_y
 _atom_site_fract_z
 _atom_site_occupancy
  Zr  Zr0  1  0.501723  0.499426  0.499426  1
  Zr  Zr1  1  0.748277  0.750574  0.750574  1
  V  V2  1  0.125000  0.125000  0.125000  1
  V  V3  1  0.125000  0.125000  0.625000  1
  V  V4  1  0.125000  0.625000  0.125000  1
  Ir  Ir5  1  0.625000  0.125000  0.125000  1
