# generated using pymatgen
data_La3Pr5HgPd24
_symmetry_space_group_name_H-M   'P 1'
_cell_length_a   8.58665023
_cell_length_b   8.58665012
_cell_length_c   8.58661000
_cell_angle_alpha   89.98668137
_cell_angle_beta   90.01331863
_cell_angle_gamma   90.03801056
_symmetry_Int_Tables_number   1
_chemical_formula_structural   La3Pr5HgPd24
_chemical_formula_sum   'La3 Pr5 Hg1 Pd24'
_cell_volume   633.09540108
_cell_formula_units_Z   1
loop_
 _symmetry_equiv_pos_site_id
 _symmetry_equiv_pos_as_xyz
  1  'x, y, z'
loop_
 _atom_site_type_symbol
 _atom_site_label
 _atom_site_symmetry_multiplicity
 _atom_site_fract_x
 _atom_site_fract_y
 _atom_site_fract_z
 _atom_site_occupancy
  La  La0  1  0.250126  0.749874  0.250271  1
  La  La1  1  0.251123  0.748877  0.748949  1
  La  La2  1  0.748815  0.251185  0.251199  1
  Pr  Pr3  1  0.248688  0.248578  0.248446  1
  Pr  Pr4  1  0.751217  0.751391  0.751544  1
  Pr  Pr5  1  0.751422  0.751312  0.248446  1
  Pr  Pr6  1  0.750680  0.249320  0.750562  1
  Pr  Pr7  1  0.248609  0.248783  0.751544  1
  Hg  Hg8  1  0.999591  0.000409  0.999388  1
  Pd  Pd9  1  0.269164  0.499476  0.000335  1
  Pd  Pd10  1  0.730851  0.500629  0.999371  1
  Pd  Pd11  1  0.001236  0.269218  0.500222  1
  Pd  Pd12  1  0.499371  0.269149  0.999371  1
  Pd  Pd13  1  0.998600  0.730805  0.499829  1
  Pd  Pd14  1  0.500524  0.730836  0.000335  1
  Pd  Pd15  1  0.499751  0.999592  0.269080  1
  Pd  Pd16  1  0.269195  0.001400  0.499829  1
  Pd  Pd17  1  0.500156  0.000557  0.730864  1
  Pd  Pd18  1  0.730782  0.998764  0.500222  1
  Pd  Pd19  1  0.000408  0.500249  0.269080  1
  Pd  Pd20  1  0.999443  0.499844  0.730864  1
  Pd  Pd21  1  0.255810  0.498066  0.499506  1
  Pd  Pd22  1  0.744260  0.501612  0.500960  1
  Pd  Pd23  1  0.498388  0.255740  0.500960  1
  Pd  Pd24  1  0.501934  0.744190  0.499506  1
  Pd  Pd25  1  0.499450  0.500550  0.255817  1
  Pd  Pd26  1  0.500890  0.499110  0.744254  1
  Pd  Pd27  1  0.320326  0.000629  0.000369  1
  Pd  Pd28  1  0.679045  0.999287  0.999649  1
  Pd  Pd29  1  0.000713  0.320955  0.999649  1
  Pd  Pd30  1  0.999371  0.679674  0.000369  1
  Pd  Pd31  1  0.000401  0.999599  0.320288  1
  Pd  Pd32  1  0.999662  0.000338  0.678921  1
