# generated using pymatgen
data_Pr8B8PtRh19
_symmetry_space_group_name_H-M   'P 1'
_cell_length_a   5.56364801
_cell_length_b   5.56302556
_cell_length_c   21.19620000
_cell_angle_alpha   90.00045121
_cell_angle_beta   89.99926435
_cell_angle_gamma   120.00183235
_symmetry_Int_Tables_number   1
_chemical_formula_structural   Pr8B8PtRh19
_chemical_formula_sum   'Pr8 B8 Pt1 Rh19'
_cell_volume   568.13470930
_cell_formula_units_Z   1
loop_
 _symmetry_equiv_pos_site_id
 _symmetry_equiv_pos_as_xyz
  1  'x, y, z'
loop_
 _atom_site_type_symbol
 _atom_site_label
 _atom_site_symmetry_multiplicity
 _atom_site_fract_x
 _atom_site_fract_y
 _atom_site_fract_z
 _atom_site_occupancy
  Pr  Pr0  1  0.666678  0.333320  0.521608  1
  Pr  Pr1  1  0.333322  0.666680  0.478392  1
  Pr  Pr2  1  0.333318  0.666679  0.021217  1
  Pr  Pr3  1  0.666682  0.333321  0.978783  1
  Pr  Pr4  1  0.666756  0.333244  0.674358  1
  Pr  Pr5  1  0.333244  0.666756  0.325642  1
  Pr  Pr6  1  0.333241  0.666755  0.174063  1
  Pr  Pr7  1  0.666759  0.333245  0.825937  1
  B  B8  1  0.000071  0.999919  0.677582  1
  B  B9  1  0.999929  0.000081  0.322418  1
  B  B10  1  0.999935  0.000082  0.177593  1
  B  B11  1  0.000065  0.999918  0.822407  1
  B  B12  1  0.666584  0.333406  0.325936  1
  B  B13  1  0.333416  0.666594  0.674064  1
  B  B14  1  0.333417  0.666597  0.825835  1
  B  B15  1  0.666583  0.333403  0.174165  1
  Pt  Pt16  1  0.000000  0.000000  0.500000  1
  Rh  Rh17  1  0.000000  0.000000  0.000000  1
  Rh  Rh18  1  0.167568  0.334940  0.749851  1
  Rh  Rh19  1  0.167563  0.832441  0.749850  1
  Rh  Rh20  1  0.665060  0.832440  0.749852  1
  Rh  Rh21  1  0.832432  0.665060  0.250149  1
  Rh  Rh22  1  0.832437  0.167559  0.250150  1
  Rh  Rh23  1  0.334940  0.167560  0.250148  1
  Rh  Rh24  1  0.163434  0.326616  0.609780  1
  Rh  Rh25  1  0.163421  0.836578  0.609774  1
  Rh  Rh26  1  0.673390  0.836570  0.609781  1
  Rh  Rh27  1  0.836566  0.673384  0.390220  1
  Rh  Rh28  1  0.836579  0.163422  0.390226  1
  Rh  Rh29  1  0.326610  0.163430  0.390219  1
  Rh  Rh30  1  0.836753  0.673761  0.109690  1
  Rh  Rh31  1  0.836757  0.163244  0.109682  1
  Rh  Rh32  1  0.326231  0.163244  0.109692  1
  Rh  Rh33  1  0.163247  0.326239  0.890310  1
  Rh  Rh34  1  0.163243  0.836756  0.890318  1
  Rh  Rh35  1  0.673769  0.836756  0.890308  1
