# generated using pymatgen
data_Dy12Y4MgCd3Pt4
_symmetry_space_group_name_H-M   'P 1'
_cell_length_a   9.71256026
_cell_length_b   9.71272590
_cell_length_c   9.71272610
_cell_angle_alpha   60.07475811
_cell_angle_beta   60.07397651
_cell_angle_gamma   60.07397551
_symmetry_Int_Tables_number   1
_chemical_formula_structural   Dy12Y4MgCd3Pt4
_chemical_formula_sum   'Dy12 Y4 Mg1 Cd3 Pt4'
_cell_volume   648.97956315
_cell_formula_units_Z   1
loop_
 _symmetry_equiv_pos_site_id
 _symmetry_equiv_pos_as_xyz
  1  'x, y, z'
loop_
 _atom_site_type_symbol
 _atom_site_label
 _atom_site_symmetry_multiplicity
 _atom_site_fract_x
 _atom_site_fract_y
 _atom_site_fract_z
 _atom_site_occupancy
  Dy  Dy0  1  0.349475  0.349721  0.349721  1
  Dy  Dy1  1  0.353300  0.353297  0.943761  1
  Dy  Dy2  1  0.353300  0.943761  0.353297  1
  Dy  Dy3  1  0.943779  0.353325  0.353325  1
  Dy  Dy4  1  0.809580  0.191540  0.191540  1
  Dy  Dy5  1  0.188107  0.811789  0.811789  1
  Dy  Dy6  1  0.191551  0.809571  0.191564  1
  Dy  Dy7  1  0.811867  0.187978  0.811814  1
  Dy  Dy8  1  0.191551  0.191564  0.809571  1
  Dy  Dy9  1  0.811867  0.811814  0.187978  1
  Dy  Dy10  1  0.936560  0.565449  0.565449  1
  Dy  Dy11  1  0.562083  0.937490  0.937490  1
  Y  Y12  1  0.565844  0.935803  0.565742  1
  Y  Y13  1  0.936890  0.562775  0.936985  1
  Y  Y14  1  0.565844  0.565742  0.935803  1
  Y  Y15  1  0.936890  0.936985  0.562775  1
  Mg  Mg16  1  0.576243  0.576208  0.576208  1
  Cd  Cd17  1  0.581364  0.581356  0.253726  1
  Cd  Cd18  1  0.581364  0.253726  0.581356  1
  Cd  Cd19  1  0.253903  0.581260  0.581260  1
  Pt  Pt20  1  0.144127  0.144161  0.144161  1
  Pt  Pt21  1  0.141812  0.141907  0.570940  1
  Pt  Pt22  1  0.141812  0.570940  0.141907  1
  Pt  Pt23  1  0.570891  0.141840  0.141840  1
