# generated using pymatgen
data_Tb2GdY(WO6)2
_symmetry_space_group_name_H-M   'P 1'
_cell_length_a   5.43539600
_cell_length_b   7.75806198
_cell_length_c   11.55124703
_cell_angle_alpha   75.61661350
_cell_angle_beta   90.00000000
_cell_angle_gamma   90.00000000
_symmetry_Int_Tables_number   1
_chemical_formula_structural   Tb2GdY(WO6)2
_chemical_formula_sum   'Tb4 Gd2 Y2 W4 O24'
_cell_volume   471.82672297
_cell_formula_units_Z   2
loop_
 _symmetry_equiv_pos_site_id
 _symmetry_equiv_pos_as_xyz
  1  'x, y, z'
loop_
 _atom_site_type_symbol
 _atom_site_label
 _atom_site_symmetry_multiplicity
 _atom_site_fract_x
 _atom_site_fract_y
 _atom_site_fract_z
 _atom_site_occupancy
  Tb  Tb0  1  0.739579  0.999904  0.749885  1
  Tb  Tb1  1  0.260421  0.999904  0.249885  1
  Tb  Tb2  1  0.185629  0.204899  0.922796  1
  Tb  Tb3  1  0.814371  0.204899  0.422796  1
  Gd  Gd4  1  0.683509  0.500151  0.749817  1
  Gd  Gd5  1  0.316491  0.500151  0.249817  1
  Y  Y6  1  0.186109  0.794332  0.577567  1
  Y  Y7  1  0.813891  0.794332  0.077567  1
  W  W8  1  0.254082  0.725009  0.884937  1
  W  W9  1  0.745918  0.725009  0.384937  1
  W  W10  1  0.254285  0.275158  0.615123  1
  W  W11  1  0.745715  0.275158  0.115123  1
  O  O12  1  0.043246  0.939297  0.895525  1
  O  O13  1  0.530954  0.846885  0.930620  1
  O  O14  1  0.956754  0.939297  0.395525  1
  O  O15  1  0.455380  0.791623  0.727905  1
  O  O16  1  0.469046  0.846885  0.430620  1
  O  O17  1  0.982257  0.711919  0.771758  1
  O  O18  1  0.544620  0.791623  0.227905  1
  O  O19  1  0.850069  0.637259  0.546640  1
  O  O20  1  0.358084  0.492460  0.886197  1
  O  O21  1  0.017743  0.711919  0.271758  1
  O  O22  1  0.357463  0.508044  0.614072  1
  O  O23  1  0.849585  0.362906  0.953449  1
  O  O24  1  0.149931  0.637259  0.046640  1
  O  O25  1  0.641916  0.492460  0.386197  1
  O  O26  1  0.981733  0.287686  0.727712  1
  O  O27  1  0.642537  0.508044  0.114072  1
  O  O28  1  0.150415  0.362906  0.453449  1
  O  O29  1  0.455949  0.209367  0.771869  1
  O  O30  1  0.018267  0.287686  0.227712  1
  O  O31  1  0.531088  0.153110  0.569550  1
  O  O32  1  0.544051  0.209367  0.271869  1
  O  O33  1  0.044768  0.059989  0.604577  1
  O  O34  1  0.468912  0.153110  0.069550  1
  O  O35  1  0.955232  0.059989  0.104577  1
