# generated using pymatgen
data_Ti4Si3WN
_symmetry_space_group_name_H-M   'P 1'
_cell_length_a   7.40169100
_cell_length_b   7.40169037
_cell_length_c   5.17366500
_cell_angle_alpha   90.00000000
_cell_angle_beta   90.00000000
_cell_angle_gamma   119.99999834
_symmetry_Int_Tables_number   1
_chemical_formula_structural   Ti4Si3WN
_chemical_formula_sum   'Ti8 Si6 W2 N2'
_cell_volume   245.46569585
_cell_formula_units_Z   2
loop_
 _symmetry_equiv_pos_site_id
 _symmetry_equiv_pos_as_xyz
  1  'x, y, z'
loop_
 _atom_site_type_symbol
 _atom_site_label
 _atom_site_symmetry_multiplicity
 _atom_site_fract_x
 _atom_site_fract_y
 _atom_site_fract_z
 _atom_site_occupancy
  Ti  Ti0  1  0.228176  0.000000  0.750335  1
  Ti  Ti1  1  0.771824  0.000000  0.249665  1
  Ti  Ti2  1  0.000000  0.228176  0.750335  1
  Ti  Ti3  1  0.000000  0.771824  0.249665  1
  Ti  Ti4  1  0.771824  0.771824  0.750335  1
  Ti  Ti5  1  0.228176  0.228176  0.249665  1
  Ti  Ti6  1  0.333333  0.666667  0.500000  1
  Ti  Ti7  1  0.666667  0.333333  0.500000  1
  Si  Si8  1  0.590645  0.000000  0.756404  1
  Si  Si9  1  0.409355  0.000000  0.243596  1
  Si  Si10  1  0.000000  0.590645  0.756404  1
  Si  Si11  1  0.000000  0.409355  0.243596  1
  Si  Si12  1  0.409355  0.409355  0.756404  1
  Si  Si13  1  0.590645  0.590645  0.243596  1
  W  W14  1  0.666667  0.333333  0.000000  1
  W  W15  1  0.333333  0.666667  0.000000  1
  N  N16  1  0.000000  0.000000  0.500000  1
  N  N17  1  0.000000  0.000000  0.000000  1
