# generated using pymatgen
data_LiTa3Pd9Pt2Rh
_symmetry_space_group_name_H-M   'P 1'
_cell_length_a   5.62239287
_cell_length_b   5.59924216
_cell_length_c   9.03878100
_cell_angle_alpha   90.00000000
_cell_angle_beta   90.00000000
_cell_angle_gamma   119.86388255
_symmetry_Int_Tables_number   1
_chemical_formula_structural   LiTa3Pd9Pt2Rh
_chemical_formula_sum   'Li1 Ta3 Pd9 Pt2 Rh1'
_cell_volume   246.76580893
_cell_formula_units_Z   1
loop_
 _symmetry_equiv_pos_site_id
 _symmetry_equiv_pos_as_xyz
  1  'x, y, z'
loop_
 _atom_site_type_symbol
 _atom_site_label
 _atom_site_symmetry_multiplicity
 _atom_site_fract_x
 _atom_site_fract_y
 _atom_site_fract_z
 _atom_site_occupancy
  Li  Li0  1  0.333234  0.666617  0.000000  1
  Ta  Ta1  1  0.668260  0.334130  0.500000  1
  Ta  Ta2  1  0.995697  0.997848  0.751254  1
  Ta  Ta3  1  0.995697  0.997848  0.248746  1
  Pd  Pd4  1  0.832297  0.166719  0.000000  1
  Pd  Pd5  1  0.832297  0.665577  0.000000  1
  Pd  Pd6  1  0.333508  0.166754  0.000000  1
  Pd  Pd7  1  0.996991  0.498495  0.749958  1
  Pd  Pd8  1  0.502010  0.499616  0.749222  1
  Pd  Pd9  1  0.502010  0.002394  0.749222  1
  Pd  Pd10  1  0.996991  0.498495  0.250042  1
  Pd  Pd11  1  0.502010  0.499616  0.250778  1
  Pd  Pd12  1  0.502010  0.002394  0.250778  1
  Pt  Pt13  1  0.169269  0.833997  0.500000  1
  Pt  Pt14  1  0.169269  0.335272  0.500000  1
  Rh  Rh15  1  0.668455  0.834227  0.500000  1
