# generated using pymatgen
data_La2HoSi5AsPd20
_symmetry_space_group_name_H-M   'P 1'
_cell_length_a   8.77703811
_cell_length_b   8.81568242
_cell_length_c   8.81568233
_cell_angle_alpha   59.71020864
_cell_angle_beta   60.14489865
_cell_angle_gamma   60.14490005
_symmetry_Int_Tables_number   1
_chemical_formula_structural   La2HoSi5AsPd20
_chemical_formula_sum   'La2 Ho1 Si5 As1 Pd20'
_cell_volume   482.31221578
_cell_formula_units_Z   1
loop_
 _symmetry_equiv_pos_site_id
 _symmetry_equiv_pos_as_xyz
  1  'x, y, z'
loop_
 _atom_site_type_symbol
 _atom_site_label
 _atom_site_symmetry_multiplicity
 _atom_site_fract_x
 _atom_site_fract_y
 _atom_site_fract_z
 _atom_site_occupancy
  La  La0  1  0.249869  0.250131  0.250131  1
  La  La1  1  0.749869  0.750131  0.750131  1
  Ho  Ho2  1  0.001171  0.998829  0.998829  1
  Si  Si3  1  0.266458  0.733542  0.733542  1
  Si  Si4  1  0.265624  0.734376  0.265690  1
  Si  Si5  1  0.734310  0.265690  0.734376  1
  Si  Si6  1  0.265624  0.265690  0.734376  1
  Si  Si7  1  0.734310  0.734376  0.265690  1
  As  As8  1  0.735810  0.264190  0.264190  1
  Pd  Pd9  1  0.379430  0.388227  0.388227  1
  Pd  Pd10  1  0.613601  0.615074  0.615074  1
  Pd  Pd11  1  0.384926  0.386399  0.843749  1
  Pd  Pd12  1  0.384926  0.843749  0.386399  1
  Pd  Pd13  1  0.611773  0.620570  0.155884  1
  Pd  Pd14  1  0.611773  0.155884  0.620570  1
  Pd  Pd15  1  0.844116  0.388227  0.388227  1
  Pd  Pd16  1  0.156251  0.615074  0.615074  1
  Pd  Pd17  1  0.346238  0.999027  0.999027  1
  Pd  Pd18  1  0.655708  0.999027  0.999027  1
  Pd  Pd19  1  0.000973  0.344292  0.653762  1
  Pd  Pd20  1  0.000973  0.653762  0.344292  1
  Pd  Pd21  1  0.006241  0.347328  0.993759  1
  Pd  Pd22  1  0.652672  0.993759  0.347328  1
  Pd  Pd23  1  0.999861  0.655641  0.000139  1
  Pd  Pd24  1  0.344359  0.000139  0.655641  1
  Pd  Pd25  1  0.006241  0.993759  0.347328  1
  Pd  Pd26  1  0.999861  0.000139  0.655641  1
  Pd  Pd27  1  0.652672  0.347328  0.993759  1
  Pd  Pd28  1  0.344359  0.655641  0.000139  1
