# generated using pymatgen
data_SrTb3MgAl17Pd6
_symmetry_space_group_name_H-M   'P 1'
_cell_length_a   7.67875032
_cell_length_b   7.70004971
_cell_length_c   9.58811343
_cell_angle_alpha   90.25325966
_cell_angle_beta   89.81772037
_cell_angle_gamma   119.40250833
_symmetry_Int_Tables_number   1
_chemical_formula_structural   SrTb3MgAl17Pd6
_chemical_formula_sum   'Sr1 Tb3 Mg1 Al17 Pd6'
_cell_volume   493.88602964
_cell_formula_units_Z   1
loop_
 _symmetry_equiv_pos_site_id
 _symmetry_equiv_pos_as_xyz
  1  'x, y, z'
loop_
 _atom_site_type_symbol
 _atom_site_label
 _atom_site_symmetry_multiplicity
 _atom_site_fract_x
 _atom_site_fract_y
 _atom_site_fract_z
 _atom_site_occupancy
  Sr  Sr0  1  0.995848  0.674096  0.250870  1
  Tb  Tb1  1  0.003671  0.331444  0.747884  1
  Tb  Tb2  1  0.664505  0.987569  0.252026  1
  Tb  Tb3  1  0.330496  0.005060  0.749792  1
  Mg  Mg4  1  0.997088  0.334201  0.076550  1
  Al  Al5  1  0.132991  0.135810  0.251135  1
  Al  Al6  1  0.869947  0.872447  0.751283  1
  Al  Al7  1  0.999124  0.664187  0.918533  1
  Al  Al8  1  0.999153  0.664848  0.581548  1
  Al  Al9  1  0.338376  0.004478  0.429886  1
  Al  Al10  1  0.001552  0.331067  0.424036  1
  Al  Al11  1  0.665665  0.000005  0.576297  1
  Al  Al12  1  0.666966  0.002523  0.924978  1
  Al  Al13  1  0.337424  0.004285  0.069611  1
  Al  Al14  1  0.332267  0.332591  0.559945  1
  Al  Al15  1  0.663745  0.665215  0.451584  1
  Al  Al16  1  0.663967  0.665773  0.046183  1
  Al  Al17  1  0.329993  0.332790  0.939333  1
  Al  Al18  1  0.351689  0.546679  0.250705  1
  Al  Al19  1  0.657939  0.452518  0.749267  1
  Al  Al20  1  0.544422  0.328983  0.249168  1
  Al  Al21  1  0.454092  0.663515  0.750777  1
  Pd  Pd22  1  0.661056  0.327500  0.993450  1
  Pd  Pd23  1  0.334243  0.678244  0.997170  1
  Pd  Pd24  1  0.327759  0.670473  0.503512  1
  Pd  Pd25  1  0.672247  0.328172  0.502719  1
  Pd  Pd26  1  0.001825  0.995638  0.997490  1
  Pd  Pd27  1  0.001950  0.999889  0.504268  1
