# generated using pymatgen
data_Tm5Lu11(AgRh)4
_symmetry_space_group_name_H-M   'P 1'
_cell_length_a   9.36746826
_cell_length_b   9.36746850
_cell_length_c   9.36865900
_cell_angle_alpha   59.99579939
_cell_angle_beta   59.99579852
_cell_angle_gamma   60.12069010
_symmetry_Int_Tables_number   1
_chemical_formula_structural   Tm5Lu11(AgRh)4
_chemical_formula_sum   'Tm5 Lu11 Ag4 Rh4'
_cell_volume   581.80016004
_cell_formula_units_Z   1
loop_
 _symmetry_equiv_pos_site_id
 _symmetry_equiv_pos_as_xyz
  1  'x, y, z'
loop_
 _atom_site_type_symbol
 _atom_site_label
 _atom_site_symmetry_multiplicity
 _atom_site_fract_x
 _atom_site_fract_y
 _atom_site_fract_z
 _atom_site_occupancy
  Tm  Tm0  1  0.933701  0.565298  0.565377  1
  Tm  Tm1  1  0.933701  0.565298  0.935624  1
  Tm  Tm2  1  0.565298  0.933701  0.565377  1
  Tm  Tm3  1  0.565298  0.933701  0.935624  1
  Tm  Tm4  1  0.313243  0.313243  0.686757  1
  Lu  Lu5  1  0.936746  0.936746  0.563254  1
  Lu  Lu6  1  0.561538  0.561538  0.938462  1
  Lu  Lu7  1  0.685765  0.685765  0.314235  1
  Lu  Lu8  1  0.143903  0.562070  0.147013  1
  Lu  Lu9  1  0.687887  0.311992  0.687709  1
  Lu  Lu10  1  0.147512  0.147512  0.146478  1
  Lu  Lu11  1  0.562070  0.143903  0.147013  1
  Lu  Lu12  1  0.687887  0.311992  0.312413  1
  Lu  Lu13  1  0.147512  0.147512  0.558498  1
  Lu  Lu14  1  0.311992  0.687887  0.312413  1
  Lu  Lu15  1  0.311992  0.687887  0.687709  1
  Ag  Ag16  1  0.919034  0.919034  0.245869  1
  Ag  Ag17  1  0.246364  0.917159  0.918239  1
  Ag  Ag18  1  0.919034  0.919034  0.916061  1
  Ag  Ag19  1  0.917159  0.246364  0.918239  1
  Rh  Rh20  1  0.357759  0.357759  0.932957  1
  Rh  Rh21  1  0.355461  0.931381  0.356579  1
  Rh  Rh22  1  0.931381  0.355461  0.356579  1
  Rh  Rh23  1  0.357759  0.357759  0.351522  1
