# generated using pymatgen
data_Lu12GaFe3Ag
_symmetry_space_group_name_H-M   'P 1'
_cell_length_a   8.09728803
_cell_length_b   8.09730304
_cell_length_c   8.09728800
_cell_angle_alpha   109.46193695
_cell_angle_beta   107.61467594
_cell_angle_gamma   111.35861635
_symmetry_Int_Tables_number   1
_chemical_formula_structural   Lu12GaFe3Ag
_chemical_formula_sum   'Lu12 Ga1 Fe3 Ag1'
_cell_volume   408.25744849
_cell_formula_units_Z   1
loop_
 _symmetry_equiv_pos_site_id
 _symmetry_equiv_pos_as_xyz
  1  'x, y, z'
loop_
 _atom_site_type_symbol
 _atom_site_label
 _atom_site_symmetry_multiplicity
 _atom_site_fract_x
 _atom_site_fract_y
 _atom_site_fract_z
 _atom_site_occupancy
  Lu  Lu0  1  0.310116  0.307877  0.618036  1
  Lu  Lu1  1  0.689884  0.692123  0.381964  1
  Lu  Lu2  1  0.689841  0.307877  0.997762  1
  Lu  Lu3  1  0.310159  0.692123  0.002238  1
  Lu  Lu4  1  0.191586  0.438009  0.246423  1
  Lu  Lu5  1  0.808414  0.561991  0.753577  1
  Lu  Lu6  1  0.191555  0.945110  0.753556  1
  Lu  Lu7  1  0.952328  0.187383  0.764954  1
  Lu  Lu8  1  0.808445  0.054890  0.246444  1
  Lu  Lu9  1  0.047672  0.812617  0.235046  1
  Lu  Lu10  1  0.422427  0.187383  0.235053  1
  Lu  Lu11  1  0.577573  0.812617  0.764947  1
  Ga  Ga12  1  0.500000  0.000000  0.500000  1
  Fe  Fe13  1  0.381162  0.381166  0.000005  1
  Fe  Fe14  1  0.618838  0.618834  0.999995  1
  Fe  Fe15  1  0.000000  0.000000  0.000000  1
  Ag  Ag16  1  0.000000  0.500000  0.500000  1
