# generated using pymatgen
data_Tm8GaSi11Pt4
_symmetry_space_group_name_H-M   'P 1'
_cell_length_a   8.18532300
_cell_length_b   8.18578057
_cell_length_c   7.76578142
_cell_angle_alpha   90.06001989
_cell_angle_beta   90.00000000
_cell_angle_gamma   119.99814688
_symmetry_Int_Tables_number   1
_chemical_formula_structural   Tm8GaSi11Pt4
_chemical_formula_sum   'Tm8 Ga1 Si11 Pt4'
_cell_volume   450.62938309
_cell_formula_units_Z   1
loop_
 _symmetry_equiv_pos_site_id
 _symmetry_equiv_pos_as_xyz
  1  'x, y, z'
loop_
 _atom_site_type_symbol
 _atom_site_label
 _atom_site_symmetry_multiplicity
 _atom_site_fract_x
 _atom_site_fract_y
 _atom_site_fract_z
 _atom_site_occupancy
  Tm  Tm0  1  0.512655  0.025310  0.249396  1
  Tm  Tm1  1  0.487943  0.975887  0.750866  1
  Tm  Tm2  1  0.975583  0.487670  0.249110  1
  Tm  Tm3  1  0.023760  0.513453  0.750520  1
  Tm  Tm4  1  0.512088  0.487670  0.249110  1
  Tm  Tm5  1  0.489691  0.513453  0.750520  1
  Tm  Tm6  1  0.998162  0.996324  0.251668  1
  Tm  Tm7  1  0.998210  0.996419  0.749035  1
  Ga  Ga8  1  0.164372  0.328744  0.001484  1
  Si  Si9  1  0.835027  0.670055  0.997060  1
  Si  Si10  1  0.670044  0.834826  0.002884  1
  Si  Si11  1  0.834848  0.669696  0.502270  1
  Si  Si12  1  0.331761  0.162963  0.997635  1
  Si  Si13  1  0.164821  0.329642  0.497468  1
  Si  Si14  1  0.164783  0.834826  0.002884  1
  Si  Si15  1  0.330401  0.165197  0.502471  1
  Si  Si16  1  0.831201  0.162963  0.997635  1
  Si  Si17  1  0.669704  0.835129  0.497531  1
  Si  Si18  1  0.834795  0.165197  0.502471  1
  Si  Si19  1  0.165426  0.835129  0.497531  1
  Pt  Pt20  1  0.337688  0.675378  0.041986  1
  Pt  Pt21  1  0.667232  0.334463  0.958284  1
  Pt  Pt22  1  0.666760  0.333520  0.541046  1
  Pt  Pt23  1  0.333043  0.666087  0.459134  1
