# generated using pymatgen
data_Cs5Rb(FeBr5)2
_symmetry_space_group_name_H-M   'P 1'
_cell_length_a   10.42810850
_cell_length_b   10.42810852
_cell_length_c   10.43275984
_cell_angle_alpha   124.38199604
_cell_angle_beta   124.38199761
_cell_angle_gamma   82.53508360
_symmetry_Int_Tables_number   1
_chemical_formula_structural   Cs5Rb(FeBr5)2
_chemical_formula_sum   'Cs5 Rb1 Fe2 Br10'
_cell_volume   742.38605594
_cell_formula_units_Z   1
loop_
 _symmetry_equiv_pos_site_id
 _symmetry_equiv_pos_as_xyz
  1  'x, y, z'
loop_
 _atom_site_type_symbol
 _atom_site_label
 _atom_site_symmetry_multiplicity
 _atom_site_fract_x
 _atom_site_fract_y
 _atom_site_fract_z
 _atom_site_occupancy
  Cs  Cs0  1  0.335698  0.835698  0.171395  1
  Cs  Cs1  1  0.163923  0.335392  0.499315  1
  Cs  Cs2  1  0.835392  0.663923  0.499315  1
  Cs  Cs3  1  0.749698  0.749698  0.999396  1
  Cs  Cs4  1  0.249698  0.249698  0.999396  1
  Rb  Rb5  1  0.668802  0.168802  0.837604  1
  Fe  Fe6  1  0.749467  0.249467  0.498292  1
  Fe  Fe7  1  0.248826  0.748826  0.498292  1
  Br  Br8  1  0.985067  0.485067  0.779801  1
  Br  Br9  1  0.704105  0.204105  0.217289  1
  Br  Br10  1  0.486308  0.708244  0.502598  1
  Br  Br11  1  0.208244  0.986308  0.502598  1
  Br  Br12  1  0.013186  0.513186  0.217289  1
  Br  Br13  1  0.294733  0.794733  0.779801  1
  Br  Br14  1  0.516290  0.294355  0.502598  1
  Br  Br15  1  0.794355  0.016290  0.502598  1
  Br  Br16  1  0.993299  0.002912  0.996211  1
  Br  Br17  1  0.502912  0.493299  0.996211  1
