# generated using pymatgen
data_Hf8Mn3Si16Ru9
_symmetry_space_group_name_H-M   'P 1'
_cell_length_a   9.84705259
_cell_length_b   9.85627951
_cell_length_c   13.24880453
_cell_angle_alpha   53.95442690
_cell_angle_beta   53.96705750
_cell_angle_gamma   31.13866548
_symmetry_Int_Tables_number   1
_chemical_formula_structural   Hf8Mn3Si16Ru9
_chemical_formula_sum   'Hf8 Mn3 Si16 Ru9'
_cell_volume   526.51178408
_cell_formula_units_Z   1
loop_
 _symmetry_equiv_pos_site_id
 _symmetry_equiv_pos_as_xyz
  1  'x, y, z'
loop_
 _atom_site_type_symbol
 _atom_site_label
 _atom_site_symmetry_multiplicity
 _atom_site_fract_x
 _atom_site_fract_y
 _atom_site_fract_z
 _atom_site_occupancy
  Hf  Hf0  1  0.291805  0.558576  0.648397  1
  Hf  Hf1  1  0.439741  0.707825  0.853626  1
  Hf  Hf2  1  0.708749  0.448662  0.346729  1
  Hf  Hf3  1  0.552554  0.293969  0.149850  1
  Hf  Hf4  1  0.038364  0.295171  0.635149  1
  Hf  Hf5  1  0.702636  0.963311  0.865711  1
  Hf  Hf6  1  0.959252  0.705813  0.360484  1
  Hf  Hf7  1  0.293470  0.042725  0.138507  1
  Mn  Mn8  1  0.655835  0.823417  0.279238  1
  Mn  Mn9  1  0.176735  0.344282  0.220591  1
  Mn  Mn10  1  0.758527  0.484767  0.068732  1
  Si  Si11  1  0.873415  0.132825  0.245941  1
  Si  Si12  1  0.124223  0.875547  0.749975  1
  Si  Si13  1  0.392254  0.613901  0.246289  1
  Si  Si14  1  0.616630  0.383082  0.750240  1
  Si  Si15  1  0.969603  0.255931  0.896422  1
  Si  Si16  1  0.745358  0.028009  0.605997  1
  Si  Si17  1  0.020574  0.737548  0.113520  1
  Si  Si18  1  0.262228  0.978170  0.386732  1
  Si  Si19  1  0.567691  0.083535  0.073076  1
  Si  Si20  1  0.915598  0.432973  0.426915  1
  Si  Si21  1  0.430287  0.910415  0.939343  1
  Si  Si22  1  0.085069  0.573081  0.563092  1
  Si  Si23  1  0.387526  0.141808  0.390622  1
  Si  Si24  1  0.858394  0.609613  0.106790  1
  Si  Si25  1  0.612511  0.857669  0.602339  1
  Si  Si26  1  0.134683  0.388964  0.902876  1
  Ru  Ru27  1  0.827534  0.648432  0.782203  1
  Ru  Ru28  1  0.897677  0.144728  0.583336  1
  Ru  Ru29  1  0.856175  0.101662  0.916689  1
  Ru  Ru30  1  0.106459  0.856362  0.414384  1
  Ru  Ru31  1  0.144447  0.891981  0.084954  1
  Ru  Ru32  1  0.239885  0.516504  0.933083  1
  Ru  Ru33  1  0.484590  0.759998  0.566937  1
  Ru  Ru34  1  0.518811  0.237385  0.431170  1
  Ru  Ru35  1  0.350710  0.171361  0.720060  1
