# generated using pymatgen
data_Ce2V4Ni8P7
_symmetry_space_group_name_H-M   'P 1'
_cell_length_a   9.25553700
_cell_length_b   9.30932360
_cell_length_c   3.67688100
_cell_angle_alpha   90.00000000
_cell_angle_beta   90.00000000
_cell_angle_gamma   119.80893297
_symmetry_Int_Tables_number   1
_chemical_formula_structural   Ce2V4Ni8P7
_chemical_formula_sum   'Ce2 V4 Ni8 P7'
_cell_volume   274.89250184
_cell_formula_units_Z   1
loop_
 _symmetry_equiv_pos_site_id
 _symmetry_equiv_pos_as_xyz
  1  'x, y, z'
loop_
 _atom_site_type_symbol
 _atom_site_label
 _atom_site_symmetry_multiplicity
 _atom_site_fract_x
 _atom_site_fract_y
 _atom_site_fract_z
 _atom_site_occupancy
  Ce  Ce0  1  0.996914  0.997791  0.000000  1
  Ce  Ce1  1  0.334927  0.671457  0.500000  1
  V  V2  1  0.386628  0.209337  0.000000  1
  V  V3  1  0.882139  0.431857  0.500000  1
  V  V4  1  0.551073  0.119017  0.500000  1
  V  V5  1  0.567077  0.452743  0.500000  1
  Ni  Ni6  1  0.099094  0.393987  0.000000  1
  Ni  Ni7  1  0.299373  0.899082  0.000000  1
  Ni  Ni8  1  0.609768  0.707155  0.000000  1
  Ni  Ni9  1  0.820674  0.611850  0.000000  1
  Ni  Ni10  1  0.793644  0.181048  0.000000  1
  Ni  Ni11  1  0.043137  0.761587  0.500000  1
  Ni  Ni12  1  0.719232  0.950394  0.500000  1
  Ni  Ni13  1  0.229171  0.283872  0.500000  1
  P  P14  1  0.072591  0.627114  0.000000  1
  P  P15  1  0.560038  0.928188  0.000000  1
  P  P16  1  0.374233  0.452629  0.000000  1
  P  P17  1  0.777098  0.735024  0.500000  1
  P  P18  1  0.956898  0.222802  0.500000  1
  P  P19  1  0.255128  0.026687  0.500000  1
  P  P20  1  0.671166  0.336375  0.000000  1
