# generated using pymatgen
data_Dy2Er4Bi2Os
_symmetry_space_group_name_H-M   'P 1'
_cell_length_a   8.26900106
_cell_length_b   8.26900032
_cell_length_c   4.24326200
_cell_angle_alpha   90.00000000
_cell_angle_beta   90.00000000
_cell_angle_gamma   120.05808456
_symmetry_Int_Tables_number   1
_chemical_formula_structural   Dy2Er4Bi2Os
_chemical_formula_sum   'Dy2 Er4 Bi2 Os1'
_cell_volume   251.12043010
_cell_formula_units_Z   1
loop_
 _symmetry_equiv_pos_site_id
 _symmetry_equiv_pos_as_xyz
  1  'x, y, z'
loop_
 _atom_site_type_symbol
 _atom_site_label
 _atom_site_symmetry_multiplicity
 _atom_site_fract_x
 _atom_site_fract_y
 _atom_site_fract_z
 _atom_site_occupancy
  Dy  Dy0  1  0.384973  0.000077  0.500001  1
  Dy  Dy1  1  0.000077  0.384973  0.500001  1
  Er  Er2  1  0.766742  0.999677  0.000000  1
  Er  Er3  1  0.233077  0.233077  0.000000  1
  Er  Er4  1  0.999677  0.766742  0.000000  1
  Er  Er5  1  0.615574  0.615573  0.500001  1
  Bi  Bi6  1  0.666681  0.333749  0.000000  1
  Bi  Bi7  1  0.333749  0.666681  0.000000  1
  Os  Os8  1  0.999450  0.999450  0.500001  1
