# generated using pymatgen
data_TbCe3(Pt2Pb)2
_symmetry_space_group_name_H-M   'P 1'
_cell_length_a   7.98896966
_cell_length_b   7.98896966
_cell_length_c   3.67287100
_cell_angle_alpha   90.00000000
_cell_angle_beta   90.00000000
_cell_angle_gamma   89.92607245
_symmetry_Int_Tables_number   1
_chemical_formula_structural   TbCe3(Pt2Pb)2
_chemical_formula_sum   'Tb1 Ce3 Pt4 Pb2'
_cell_volume   234.41578764
_cell_formula_units_Z   1
loop_
 _symmetry_equiv_pos_site_id
 _symmetry_equiv_pos_as_xyz
  1  'x, y, z'
loop_
 _atom_site_type_symbol
 _atom_site_label
 _atom_site_symmetry_multiplicity
 _atom_site_fract_x
 _atom_site_fract_y
 _atom_site_fract_z
 _atom_site_occupancy
  Tb  Tb0  1  0.670813  0.170811  0.500001  1
  Ce  Ce1  1  0.171292  0.327446  0.500001  1
  Ce  Ce2  1  0.827446  0.671294  0.500001  1
  Ce  Ce3  1  0.330396  0.830396  0.500001  1
  Pt  Pt4  1  0.370473  0.126572  0.000000  1
  Pt  Pt5  1  0.875462  0.375462  0.000000  1
  Pt  Pt6  1  0.129187  0.629187  0.000000  1
  Pt  Pt7  1  0.626572  0.870473  0.000000  1
  Pb  Pb8  1  0.996176  0.002184  0.000000  1
  Pb  Pb9  1  0.502184  0.496176  0.000000  1
