# generated using pymatgen
data_Th2Zn2(GaAu)3
_symmetry_space_group_name_H-M   'P 1'
_cell_length_a   4.32419400
_cell_length_b   4.32419400
_cell_length_c   10.85828300
_cell_angle_alpha   90.00000000
_cell_angle_beta   90.00000000
_cell_angle_gamma   90.00000000
_symmetry_Int_Tables_number   1
_chemical_formula_structural   Th2Zn2(GaAu)3
_chemical_formula_sum   'Th2 Zn2 Ga3 Au3'
_cell_volume   203.03527413
_cell_formula_units_Z   1
loop_
 _symmetry_equiv_pos_site_id
 _symmetry_equiv_pos_as_xyz
  1  'x, y, z'
loop_
 _atom_site_type_symbol
 _atom_site_label
 _atom_site_symmetry_multiplicity
 _atom_site_fract_x
 _atom_site_fract_y
 _atom_site_fract_z
 _atom_site_occupancy
  Th  Th0  1  0.000000  0.500000  0.253639  1
  Th  Th1  1  0.500000  0.000000  0.746361  1
  Zn  Zn2  1  0.000000  0.000000  0.000000  1
  Zn  Zn3  1  0.000000  0.000000  0.500000  1
  Ga  Ga4  1  0.500000  0.500000  0.000000  1
  Ga  Ga5  1  0.000000  0.500000  0.634548  1
  Ga  Ga6  1  0.500000  0.000000  0.365452  1
  Au  Au7  1  0.000000  0.500000  0.865135  1
  Au  Au8  1  0.500000  0.000000  0.134865  1
  Au  Au9  1  0.500000  0.500000  0.500000  1
