# generated using pymatgen
data_Cs2GaFeBr8
_symmetry_space_group_name_H-M   'P 1'
_cell_length_a   7.73298700
_cell_length_b   10.25330366
_cell_length_c   12.66011701
_cell_angle_alpha   89.87947293
_cell_angle_beta   90.00000000
_cell_angle_gamma   90.00000000
_symmetry_Int_Tables_number   1
_chemical_formula_structural   Cs2GaFeBr8
_chemical_formula_sum   'Cs4 Ga2 Fe2 Br16'
_cell_volume   1003.80154225
_cell_formula_units_Z   2
loop_
 _symmetry_equiv_pos_site_id
 _symmetry_equiv_pos_as_xyz
  1  'x, y, z'
loop_
 _atom_site_type_symbol
 _atom_site_label
 _atom_site_symmetry_multiplicity
 _atom_site_fract_x
 _atom_site_fract_y
 _atom_site_fract_z
 _atom_site_occupancy
  Cs  Cs0  1  0.250000  0.659066  0.182716  1
  Cs  Cs1  1  0.750000  0.340934  0.817284  1
  Cs  Cs2  1  0.750000  0.158737  0.317342  1
  Cs  Cs3  1  0.250000  0.841263  0.682658  1
  Ga  Ga4  1  0.250000  0.190526  0.063226  1
  Ga  Ga5  1  0.750000  0.809474  0.936774  1
  Fe  Fe6  1  0.750000  0.691030  0.436563  1
  Fe  Fe7  1  0.250000  0.308970  0.563437  1
  Br  Br8  1  0.250000  0.400271  0.394086  1
  Br  Br9  1  0.750000  0.599729  0.605914  1
  Br  Br10  1  0.750000  0.899378  0.106974  1
  Br  Br11  1  0.250000  0.100622  0.893026  1
  Br  Br12  1  0.250000  0.034539  0.200381  1
  Br  Br13  1  0.750000  0.965461  0.799619  1
  Br  Br14  1  0.750000  0.534039  0.301527  1
  Br  Br15  1  0.250000  0.465961  0.698473  1
  Br  Br16  1  0.002893  0.326629  0.083204  1
  Br  Br17  1  0.997107  0.673371  0.916796  1
  Br  Br18  1  0.997006  0.826273  0.417099  1
  Br  Br19  1  0.502893  0.673371  0.916796  1
  Br  Br20  1  0.002994  0.173727  0.582901  1
  Br  Br21  1  0.497107  0.326629  0.083204  1
  Br  Br22  1  0.497006  0.173727  0.582901  1
  Br  Br23  1  0.502994  0.826273  0.417099  1
