# generated using pymatgen
data_Ca5Zr3(Co4As3)4
_symmetry_space_group_name_H-M   'P 1'
_cell_length_a   12.80275300
_cell_length_b   12.80275296
_cell_length_c   3.87570600
_cell_angle_alpha   90.00000000
_cell_angle_beta   90.00000000
_cell_angle_gamma   120.00000269
_symmetry_Int_Tables_number   1
_chemical_formula_structural   Ca5Zr3(Co4As3)4
_chemical_formula_sum   'Ca5 Zr3 Co16 As12'
_cell_volume   550.15894371
_cell_formula_units_Z   1
loop_
 _symmetry_equiv_pos_site_id
 _symmetry_equiv_pos_as_xyz
  1  'x, y, z'
loop_
 _atom_site_type_symbol
 _atom_site_label
 _atom_site_symmetry_multiplicity
 _atom_site_fract_x
 _atom_site_fract_y
 _atom_site_fract_z
 _atom_site_occupancy
  Ca  Ca0  1  0.180938  0.180938  0.500000  1
  Ca  Ca1  1  0.819062  0.000000  0.500000  1
  Ca  Ca2  1  0.000000  0.819062  0.500000  1
  Ca  Ca3  1  0.333333  0.666667  0.000000  1
  Ca  Ca4  1  0.666667  0.333333  0.000000  1
  Zr  Zr5  1  0.560712  0.560712  0.000000  1
  Zr  Zr6  1  0.439288  0.000000  0.000000  1
  Zr  Zr7  1  0.000000  0.439288  0.000000  1
  Co  Co8  1  0.718527  0.718527  0.500000  1
  Co  Co9  1  0.281473  0.000000  0.500000  1
  Co  Co10  1  0.000000  0.281473  0.500000  1
  Co  Co11  1  0.178320  0.375177  0.000000  1
  Co  Co12  1  0.624823  0.803143  0.000000  1
  Co  Co13  1  0.196857  0.821680  0.000000  1
  Co  Co14  1  0.803143  0.624823  0.000000  1
  Co  Co15  1  0.821680  0.196857  0.000000  1
  Co  Co16  1  0.375177  0.178320  0.000000  1
  Co  Co17  1  0.358058  0.478650  0.500000  1
  Co  Co18  1  0.521350  0.879409  0.500000  1
  Co  Co19  1  0.120591  0.641942  0.500000  1
  Co  Co20  1  0.879409  0.521350  0.500000  1
  Co  Co21  1  0.641942  0.120591  0.500000  1
  Co  Co22  1  0.478650  0.358058  0.500000  1
  Co  Co23  1  0.000000  0.000000  0.000000  1
  As  As24  1  0.820818  0.820818  0.000000  1
  As  As25  1  0.179182  0.000000  0.000000  1
  As  As26  1  0.000000  0.179182  0.000000  1
  As  As27  1  0.173659  0.480652  0.500000  1
  As  As28  1  0.519348  0.693007  0.500000  1
  As  As29  1  0.306993  0.826341  0.500000  1
  As  As30  1  0.693007  0.519348  0.500000  1
  As  As31  1  0.826341  0.306993  0.500000  1
  As  As32  1  0.480652  0.173659  0.500000  1
  As  As33  1  0.352112  0.352112  0.000000  1
  As  As34  1  0.647888  0.000000  0.000000  1
  As  As35  1  0.000000  0.647888  0.000000  1
