# generated using pymatgen
data_Er5Co(P2Ru3)6
_symmetry_space_group_name_H-M   'P 1'
_cell_length_a   12.46606800
_cell_length_b   12.46606750
_cell_length_c   3.96319000
_cell_angle_alpha   90.00000000
_cell_angle_beta   90.00000000
_cell_angle_gamma   120.00000132
_symmetry_Int_Tables_number   1
_chemical_formula_structural   Er5Co(P2Ru3)6
_chemical_formula_sum   'Er5 Co1 P12 Ru18'
_cell_volume   533.37724664
_cell_formula_units_Z   1
loop_
 _symmetry_equiv_pos_site_id
 _symmetry_equiv_pos_as_xyz
  1  'x, y, z'
loop_
 _atom_site_type_symbol
 _atom_site_label
 _atom_site_symmetry_multiplicity
 _atom_site_fract_x
 _atom_site_fract_y
 _atom_site_fract_z
 _atom_site_occupancy
  Er  Er0  1  0.666667  0.333333  0.000000  1
  Er  Er1  1  0.333333  0.666667  0.000000  1
  Er  Er2  1  0.182556  0.182556  0.500000  1
  Er  Er3  1  0.817444  0.000000  0.500000  1
  Er  Er4  1  0.000000  0.817444  0.500000  1
  Co  Co5  1  0.000000  0.000000  0.000000  1
  P  P6  1  0.372460  0.372460  0.000000  1
  P  P7  1  0.627540  0.000000  0.000000  1
  P  P8  1  0.000000  0.627540  0.000000  1
  P  P9  1  0.830649  0.306944  0.500000  1
  P  P10  1  0.693056  0.523707  0.500000  1
  P  P11  1  0.476293  0.169351  0.500000  1
  P  P12  1  0.306944  0.830649  0.500000  1
  P  P13  1  0.523707  0.693056  0.500000  1
  P  P14  1  0.169351  0.476293  0.500000  1
  P  P15  1  0.823573  0.823573  0.000000  1
  P  P16  1  0.176427  0.000000  0.000000  1
  P  P17  1  0.000000  0.176427  0.000000  1
  Ru  Ru18  1  0.815975  0.190460  0.000000  1
  Ru  Ru19  1  0.809540  0.625514  0.000000  1
  Ru  Ru20  1  0.374486  0.184025  0.000000  1
  Ru  Ru21  1  0.190460  0.815975  0.000000  1
  Ru  Ru22  1  0.625514  0.809540  0.000000  1
  Ru  Ru23  1  0.184025  0.374486  0.000000  1
  Ru  Ru24  1  0.556017  0.556017  0.000000  1
  Ru  Ru25  1  0.443983  0.000000  0.000000  1
  Ru  Ru26  1  0.000000  0.443983  0.000000  1
  Ru  Ru27  1  0.634994  0.126545  0.500000  1
  Ru  Ru28  1  0.873455  0.508449  0.500000  1
  Ru  Ru29  1  0.491551  0.365006  0.500000  1
  Ru  Ru30  1  0.126545  0.634994  0.500000  1
  Ru  Ru31  1  0.508449  0.873455  0.500000  1
  Ru  Ru32  1  0.365006  0.491551  0.500000  1
  Ru  Ru33  1  0.721373  0.721373  0.500000  1
  Ru  Ru34  1  0.278627  0.000000  0.500000  1
  Ru  Ru35  1  0.000000  0.278627  0.500000  1
