# generated using pymatgen
data_SrHoErGa8Ag3
_symmetry_space_group_name_H-M   'P 1'
_cell_length_a   4.38135545
_cell_length_b   8.47316510
_cell_length_c   8.47316559
_cell_angle_alpha   69.13607988
_cell_angle_beta   75.01636805
_cell_angle_gamma   75.01636092
_symmetry_Int_Tables_number   1
_chemical_formula_structural   SrHoErGa8Ag3
_chemical_formula_sum   'Sr1 Ho1 Er1 Ga8 Ag3'
_cell_volume   279.06780846
_cell_formula_units_Z   1
loop_
 _symmetry_equiv_pos_site_id
 _symmetry_equiv_pos_as_xyz
  1  'x, y, z'
loop_
 _atom_site_type_symbol
 _atom_site_label
 _atom_site_symmetry_multiplicity
 _atom_site_fract_x
 _atom_site_fract_y
 _atom_site_fract_z
 _atom_site_occupancy
  Sr  Sr0  1  0.500070  0.499930  0.499930  1
  Ho  Ho1  1  0.200102  0.799898  0.799898  1
  Er  Er2  1  0.800131  0.199869  0.199869  1
  Ga  Ga3  1  0.353926  0.362230  0.929917  1
  Ga  Ga4  1  0.646043  0.637472  0.070443  1
  Ga  Ga5  1  0.353926  0.929917  0.362230  1
  Ga  Ga6  1  0.646043  0.070443  0.637472  1
  Ga  Ga7  1  0.163192  0.469799  0.203817  1
  Ga  Ga8  1  0.836967  0.529935  0.796131  1
  Ga  Ga9  1  0.163192  0.203817  0.469799  1
  Ga  Ga10  1  0.836967  0.796131  0.529935  1
  Ag  Ag11  1  0.499798  0.000202  0.000202  1
  Ag  Ag12  1  0.999821  0.808011  0.192348  1
  Ag  Ag13  1  0.999821  0.192348  0.808011  1
