# generated using pymatgen
data_Ho3Lu17Sn16
_symmetry_space_group_name_H-M   'P 1'
_cell_length_a   7.92313657
_cell_length_b   8.02476883
_cell_length_c   15.19059800
_cell_angle_alpha   90.00615183
_cell_angle_beta   90.17163689
_cell_angle_gamma   89.93770372
_symmetry_Int_Tables_number   1
_chemical_formula_structural   Ho3Lu17Sn16
_chemical_formula_sum   'Ho3 Lu17 Sn16'
_cell_volume   965.83365681
_cell_formula_units_Z   1
loop_
 _symmetry_equiv_pos_site_id
 _symmetry_equiv_pos_as_xyz
  1  'x, y, z'
loop_
 _atom_site_type_symbol
 _atom_site_label
 _atom_site_symmetry_multiplicity
 _atom_site_fract_x
 _atom_site_fract_y
 _atom_site_fract_z
 _atom_site_occupancy
  Ho  Ho0  1  0.978192  0.821279  0.403884  1
  Ho  Ho1  1  0.521046  0.321655  0.595339  1
  Ho  Ho2  1  0.022087  0.178081  0.904641  1
  Lu  Lu3  1  0.368563  0.836727  0.877056  1
  Lu  Lu4  1  0.867411  0.662727  0.623172  1
  Lu  Lu5  1  0.632410  0.161822  0.375956  1
  Lu  Lu6  1  0.131240  0.337713  0.123399  1
  Lu  Lu7  1  0.630852  0.162601  0.123342  1
  Lu  Lu8  1  0.131480  0.337728  0.376436  1
  Lu  Lu9  1  0.368718  0.837604  0.623258  1
  Lu  Lu10  1  0.870622  0.662525  0.877006  1
  Lu  Lu11  1  0.525641  0.321859  0.903086  1
  Lu  Lu12  1  0.024102  0.178981  0.596532  1
  Lu  Lu13  1  0.476394  0.678623  0.403229  1
  Lu  Lu14  1  0.975235  0.820899  0.097417  1
  Lu  Lu15  1  0.475552  0.677883  0.096400  1
  Lu  Lu16  1  0.199428  0.504882  0.750248  1
  Lu  Lu17  1  0.698867  0.995455  0.750184  1
  Lu  Lu18  1  0.801082  0.495528  0.249535  1
  Lu  Lu19  1  0.301497  0.004690  0.249583  1
  Sn  Sn20  1  0.292680  0.034838  0.042436  1
  Sn  Sn21  1  0.792566  0.462892  0.457965  1
  Sn  Sn22  1  0.707021  0.963843  0.541623  1
  Sn  Sn23  1  0.209994  0.536294  0.959084  1
  Sn  Sn24  1  0.705156  0.960317  0.959607  1
  Sn  Sn25  1  0.204171  0.539861  0.540408  1
  Sn  Sn26  1  0.295446  0.039150  0.459055  1
  Sn  Sn27  1  0.791610  0.463746  0.041410  1
  Sn  Sn28  1  0.565272  0.619658  0.750060  1
  Sn  Sn29  1  0.064629  0.880693  0.749853  1
  Sn  Sn30  1  0.435402  0.381168  0.250073  1
  Sn  Sn31  1  0.935398  0.119648  0.249972  1
  Sn  Sn32  1  0.333914  0.149957  0.750675  1
  Sn  Sn33  1  0.834418  0.349848  0.749266  1
  Sn  Sn34  1  0.664694  0.848403  0.249606  1
  Sn  Sn35  1  0.167206  0.650419  0.249207  1
