# generated using pymatgen
data_Sr3CaP2O
_symmetry_space_group_name_H-M   'P 1'
_cell_length_a   8.65006203
_cell_length_b   8.65006245
_cell_length_c   8.65006200
_cell_angle_alpha   148.96256517
_cell_angle_beta   147.89936735
_cell_angle_gamma   45.25548870
_symmetry_Int_Tables_number   1
_chemical_formula_structural   Sr3CaP2O
_chemical_formula_sum   'Sr3 Ca1 P2 O1'
_cell_volume   176.76924664
_cell_formula_units_Z   1
loop_
 _symmetry_equiv_pos_site_id
 _symmetry_equiv_pos_as_xyz
  1  'x, y, z'
loop_
 _atom_site_type_symbol
 _atom_site_label
 _atom_site_symmetry_multiplicity
 _atom_site_fract_x
 _atom_site_fract_y
 _atom_site_fract_z
 _atom_site_occupancy
  Sr  Sr0  1  0.674623  0.674623  0.000000  1
  Sr  Sr1  1  0.325377  0.325377  0.000000  1
  Sr  Sr2  1  0.000000  0.500000  0.500000  1
  Ca  Ca3  1  0.500000  0.000000  0.500000  1
  P  P4  1  0.866195  0.866195  0.000000  1
  P  P5  1  0.133805  0.133805  0.000000  1
  O  O6  1  0.500000  0.500000  0.000000  1
