# generated using pymatgen
data_HfSc3(AsRh5)2
_symmetry_space_group_name_H-M   'P 1'
_cell_length_a   4.05711900
_cell_length_b   5.54293458
_cell_length_c   10.88053513
_cell_angle_alpha   89.94757380
_cell_angle_beta   90.00000000
_cell_angle_gamma   90.00000000
_symmetry_Int_Tables_number   1
_chemical_formula_structural   HfSc3(AsRh5)2
_chemical_formula_sum   'Hf1 Sc3 As2 Rh10'
_cell_volume   244.68512774
_cell_formula_units_Z   1
loop_
 _symmetry_equiv_pos_site_id
 _symmetry_equiv_pos_as_xyz
  1  'x, y, z'
loop_
 _atom_site_type_symbol
 _atom_site_label
 _atom_site_symmetry_multiplicity
 _atom_site_fract_x
 _atom_site_fract_y
 _atom_site_fract_z
 _atom_site_occupancy
  Hf  Hf0  1  0.500000  0.324039  0.358337  1
  Sc  Sc1  1  0.500000  0.677683  0.642995  1
  Sc  Sc2  1  0.500000  0.177781  0.859020  1
  Sc  Sc3  1  0.500000  0.823330  0.138455  1
  As  As4  1  0.000000  0.992794  0.502866  1
  As  As5  1  0.000000  0.500167  0.999151  1
  Rh  Rh6  1  0.500000  0.314957  0.107497  1
  Rh  Rh7  1  0.500000  0.685825  0.893262  1
  Rh  Rh8  1  0.500000  0.814150  0.393037  1
  Rh  Rh9  1  0.500000  0.186427  0.605126  1
  Rh  Rh10  1  0.000000  0.935491  0.744124  1
  Rh  Rh11  1  0.000000  0.065818  0.256372  1
  Rh  Rh12  1  0.000000  0.434461  0.755705  1
  Rh  Rh13  1  0.000000  0.565694  0.244494  1
  Rh  Rh14  1  0.000000  0.500433  0.499560  1
  Rh  Rh15  1  0.000000  0.000948  0.000000  1
