# generated using pymatgen
data_TmZr(NiAs)2
_symmetry_space_group_name_H-M   'P 1'
_cell_length_a   4.00125200
_cell_length_b   4.00125210
_cell_length_c   14.72959700
_cell_angle_alpha   90.00000000
_cell_angle_beta   90.00000000
_cell_angle_gamma   119.99999913
_symmetry_Int_Tables_number   1
_chemical_formula_structural   TmZr(NiAs)2
_chemical_formula_sum   'Tm2 Zr2 Ni4 As4'
_cell_volume   204.22707631
_cell_formula_units_Z   2
loop_
 _symmetry_equiv_pos_site_id
 _symmetry_equiv_pos_as_xyz
  1  'x, y, z'
loop_
 _atom_site_type_symbol
 _atom_site_label
 _atom_site_symmetry_multiplicity
 _atom_site_fract_x
 _atom_site_fract_y
 _atom_site_fract_z
 _atom_site_occupancy
  Tm  Tm0  1  0.000000  0.000000  0.000000  1
  Tm  Tm1  1  0.000000  0.000000  0.500000  1
  Zr  Zr2  1  0.000000  0.000000  0.250000  1
  Zr  Zr3  1  0.000000  0.000000  0.750000  1
  Ni  Ni4  1  0.333333  0.666667  0.152564  1
  Ni  Ni5  1  0.666667  0.333333  0.847436  1
  Ni  Ni6  1  0.666667  0.333333  0.652564  1
  Ni  Ni7  1  0.333333  0.666667  0.347436  1
  As  As8  1  0.333333  0.666667  0.620235  1
  As  As9  1  0.666667  0.333333  0.379765  1
  As  As10  1  0.666667  0.333333  0.120235  1
  As  As11  1  0.333333  0.666667  0.879765  1
