# generated using pymatgen
data_Tb6PrY3(In2Pd)4
_symmetry_space_group_name_H-M   'P 1'
_cell_length_a   3.65634200
_cell_length_b   8.18892278
_cell_length_c   18.43309415
_cell_angle_alpha   90.11345197
_cell_angle_beta   90.00000000
_cell_angle_gamma   90.00000000
_symmetry_Int_Tables_number   1
_chemical_formula_structural   Tb6PrY3(In2Pd)4
_chemical_formula_sum   'Tb6 Pr1 Y3 In8 Pd4'
_cell_volume   551.91344848
_cell_formula_units_Z   1
loop_
 _symmetry_equiv_pos_site_id
 _symmetry_equiv_pos_as_xyz
  1  'x, y, z'
loop_
 _atom_site_type_symbol
 _atom_site_label
 _atom_site_symmetry_multiplicity
 _atom_site_fract_x
 _atom_site_fract_y
 _atom_site_fract_z
 _atom_site_occupancy
  Tb  Tb0  1  0.500000  0.241007  0.780544  1
  Tb  Tb1  1  0.500000  0.758993  0.219456  1
  Tb  Tb2  1  0.500000  0.259960  0.281682  1
  Tb  Tb3  1  0.500000  0.740040  0.718318  1
  Tb  Tb4  1  0.500000  0.118423  0.583013  1
  Tb  Tb5  1  0.500000  0.881577  0.416987  1
  Pr  Pr6  1  0.500000  0.000000  0.000000  1
  Y  Y7  1  0.500000  0.378274  0.083240  1
  Y  Y8  1  0.500000  0.621726  0.916760  1
  Y  Y9  1  0.500000  0.500000  0.500000  1
  In  In10  1  0.000000  0.080779  0.153382  1
  In  In11  1  0.000000  0.919221  0.846618  1
  In  In12  1  0.000000  0.420690  0.650351  1
  In  In13  1  0.000000  0.579310  0.349649  1
  In  In14  1  0.000000  0.207689  0.432328  1
  In  In15  1  0.000000  0.792311  0.567672  1
  In  In16  1  0.000000  0.298780  0.930627  1
  In  In17  1  0.000000  0.701220  0.069373  1
  Pd  Pd18  1  0.000000  0.024827  0.695101  1
  Pd  Pd19  1  0.000000  0.975173  0.304899  1
  Pd  Pd20  1  0.000000  0.474929  0.196586  1
  Pd  Pd21  1  0.000000  0.525071  0.803414  1
