# generated using pymatgen
data_TlIrBr6
_symmetry_space_group_name_H-M   'P 1'
_cell_length_a   6.96141146
_cell_length_b   6.96141109
_cell_length_c   7.19951168
_cell_angle_alpha   80.88209904
_cell_angle_beta   80.88209883
_cell_angle_gamma   119.68423722
_symmetry_Int_Tables_number   1
_chemical_formula_structural   TlIrBr6
_chemical_formula_sum   'Tl1 Ir1 Br6'
_cell_volume   287.63670956
_cell_formula_units_Z   1
loop_
 _symmetry_equiv_pos_site_id
 _symmetry_equiv_pos_as_xyz
  1  'x, y, z'
loop_
 _atom_site_type_symbol
 _atom_site_label
 _atom_site_symmetry_multiplicity
 _atom_site_fract_x
 _atom_site_fract_y
 _atom_site_fract_z
 _atom_site_occupancy
  Tl  Tl0  1  0.168060  0.831940  0.000000  1
  Ir  Ir1  1  0.833145  0.166855  0.000000  1
  Br  Br2  1  0.900291  0.527593  0.788316  1
  Br  Br3  1  0.472407  0.099709  0.211684  1
  Br  Br4  1  0.763454  0.804674  0.211751  1
  Br  Br5  1  0.195326  0.236546  0.788249  1
  Br  Br6  1  0.613217  0.945900  0.786668  1
  Br  Br7  1  0.054100  0.386783  0.213332  1
