# generated using pymatgen
data_DyY3(ZnSi)4
_symmetry_space_group_name_H-M   'P 1'
_cell_length_a   4.14833400
_cell_length_b   4.14833432
_cell_length_c   15.82346100
_cell_angle_alpha   90.00000000
_cell_angle_beta   90.00000000
_cell_angle_gamma   119.99999743
_symmetry_Int_Tables_number   1
_chemical_formula_structural   DyY3(ZnSi)4
_chemical_formula_sum   'Dy1 Y3 Zn4 Si4'
_cell_volume   235.81943242
_cell_formula_units_Z   1
loop_
 _symmetry_equiv_pos_site_id
 _symmetry_equiv_pos_as_xyz
  1  'x, y, z'
loop_
 _atom_site_type_symbol
 _atom_site_label
 _atom_site_symmetry_multiplicity
 _atom_site_fract_x
 _atom_site_fract_y
 _atom_site_fract_z
 _atom_site_occupancy
  Dy  Dy0  1  0.000000  0.000000  0.750000  1
  Y  Y1  1  0.000000  0.000000  0.250000  1
  Y  Y2  1  0.000000  0.000000  0.999576  1
  Y  Y3  1  0.000000  0.000000  0.500424  1
  Zn  Zn4  1  0.333333  0.666667  0.136161  1
  Zn  Zn5  1  0.666667  0.333333  0.862523  1
  Zn  Zn6  1  0.666667  0.333333  0.637477  1
  Zn  Zn7  1  0.333333  0.666667  0.363839  1
  Si  Si8  1  0.333333  0.666667  0.618998  1
  Si  Si9  1  0.666667  0.333333  0.381918  1
  Si  Si10  1  0.666667  0.333333  0.118082  1
  Si  Si11  1  0.333333  0.666667  0.881002  1
