# generated using pymatgen
data_Ho20Fe3Bi8Pt
_symmetry_space_group_name_H-M   'P 1'
_cell_length_a   7.95568691
_cell_length_b   8.94614100
_cell_length_c   12.36926206
_cell_angle_alpha   90.00000000
_cell_angle_beta   90.16353113
_cell_angle_gamma   90.00000000
_symmetry_Int_Tables_number   1
_chemical_formula_structural   Ho20Fe3Bi8Pt
_chemical_formula_sum   'Ho20 Fe3 Bi8 Pt1'
_cell_volume   880.35015353
_cell_formula_units_Z   1
loop_
 _symmetry_equiv_pos_site_id
 _symmetry_equiv_pos_as_xyz
  1  'x, y, z'
loop_
 _atom_site_type_symbol
 _atom_site_label
 _atom_site_symmetry_multiplicity
 _atom_site_fract_x
 _atom_site_fract_y
 _atom_site_fract_z
 _atom_site_occupancy
  Ho  Ho0  1  0.339292  0.750000  0.711836  1
  Ho  Ho1  1  0.652947  0.250000  0.299718  1
  Ho  Ho2  1  0.846748  0.250000  0.798971  1
  Ho  Ho3  1  0.151010  0.750000  0.198279  1
  Ho  Ho4  1  0.883523  0.750000  0.810829  1
  Ho  Ho5  1  0.113160  0.250000  0.188547  1
  Ho  Ho6  1  0.384523  0.250000  0.687718  1
  Ho  Ho7  1  0.625687  0.750000  0.302791  1
  Ho  Ho8  1  0.675614  0.529502  0.564658  1
  Ho  Ho9  1  0.322187  0.449649  0.434581  1
  Ho  Ho10  1  0.172646  0.465488  0.939024  1
  Ho  Ho11  1  0.322187  0.050351  0.434581  1
  Ho  Ho12  1  0.825149  0.539111  0.061797  1
  Ho  Ho13  1  0.675614  0.970498  0.564658  1
  Ho  Ho14  1  0.825149  0.960889  0.061797  1
  Ho  Ho15  1  0.172646  0.034512  0.939024  1
  Ho  Ho16  1  0.050602  0.750000  0.497035  1
  Ho  Ho17  1  0.948252  0.250000  0.503237  1
  Ho  Ho18  1  0.559324  0.250000  0.004859  1
  Ho  Ho19  1  0.446917  0.750000  0.997290  1
  Fe  Fe20  1  0.073440  0.750000  0.987697  1
  Fe  Fe21  1  0.931397  0.250000  0.008082  1
  Fe  Fe22  1  0.571077  0.250000  0.509527  1
  Bi  Bi23  1  0.571478  0.507209  0.828178  1
  Bi  Bi24  1  0.427998  0.490835  0.172926  1
  Bi  Bi25  1  0.071370  0.491292  0.673266  1
  Bi  Bi26  1  0.427998  0.009165  0.172926  1
  Bi  Bi27  1  0.929418  0.508021  0.326728  1
  Bi  Bi28  1  0.571478  0.992791  0.828178  1
  Bi  Bi29  1  0.929418  0.991979  0.326728  1
  Bi  Bi30  1  0.071370  0.008708  0.673266  1
  Pt  Pt31  1  0.430378  0.750000  0.491263  1
