# generated using pymatgen
data_LaEr4(FeB3)2
_symmetry_space_group_name_H-M   'P 1'
_cell_length_a   8.22967385
_cell_length_b   8.22967390
_cell_length_c   8.22967295
_cell_angle_alpha   38.43174342
_cell_angle_beta   38.43174316
_cell_angle_gamma   38.43173599
_symmetry_Int_Tables_number   1
_chemical_formula_structural   LaEr4(FeB3)2
_chemical_formula_sum   'La1 Er4 Fe2 B6'
_cell_volume   193.46191621
_cell_formula_units_Z   1
loop_
 _symmetry_equiv_pos_site_id
 _symmetry_equiv_pos_as_xyz
  1  'x, y, z'
loop_
 _atom_site_type_symbol
 _atom_site_label
 _atom_site_symmetry_multiplicity
 _atom_site_fract_x
 _atom_site_fract_y
 _atom_site_fract_z
 _atom_site_occupancy
  La  La0  1  0.000000  0.000000  0.000000  1
  Er  Er1  1  0.582175  0.582175  0.582175  1
  Er  Er2  1  0.417825  0.417825  0.417825  1
  Er  Er3  1  0.750587  0.750587  0.750587  1
  Er  Er4  1  0.249413  0.249413  0.249413  1
  Fe  Fe5  1  0.885130  0.885130  0.885130  1
  Fe  Fe6  1  0.114870  0.114870  0.114870  1
  B  B7  1  0.500000  0.832331  0.167669  1
  B  B8  1  0.167669  0.500000  0.832331  1
  B  B9  1  0.832331  0.167669  0.500000  1
  B  B10  1  0.500000  0.167669  0.832331  1
  B  B11  1  0.832331  0.500000  0.167669  1
  B  B12  1  0.167669  0.832331  0.500000  1
