# generated using pymatgen
data_Zr8Ta11Si16Ru
_symmetry_space_group_name_H-M   'P 1'
_cell_length_a   6.87005277
_cell_length_b   6.86470777
_cell_length_c   12.72559167
_cell_angle_alpha   90.36016381
_cell_angle_beta   89.98566437
_cell_angle_gamma   89.91909433
_symmetry_Int_Tables_number   1
_chemical_formula_structural   Zr8Ta11Si16Ru
_chemical_formula_sum   'Zr8 Ta11 Si16 Ru1'
_cell_volume   600.13793974
_cell_formula_units_Z   1
loop_
 _symmetry_equiv_pos_site_id
 _symmetry_equiv_pos_as_xyz
  1  'x, y, z'
loop_
 _atom_site_type_symbol
 _atom_site_label
 _atom_site_symmetry_multiplicity
 _atom_site_fract_x
 _atom_site_fract_y
 _atom_site_fract_z
 _atom_site_occupancy
  Zr  Zr0  1  0.000803  0.662288  0.031587  1
  Zr  Zr1  1  0.992853  0.339666  0.531270  1
  Zr  Zr2  1  0.661758  0.001329  0.969621  1
  Zr  Zr3  1  0.161259  0.500349  0.779868  1
  Zr  Zr4  1  0.836162  0.503652  0.277420  1
  Zr  Zr5  1  0.500018  0.154052  0.218274  1
  Zr  Zr6  1  0.501122  0.838395  0.718834  1
  Zr  Zr7  1  0.341300  0.991789  0.468925  1
  Ta  Ta8  1  0.846263  0.998063  0.372532  1
  Ta  Ta9  1  0.007155  0.161231  0.127297  1
  Ta  Ta10  1  0.999361  0.844998  0.625507  1
  Ta  Ta11  1  0.654511  0.495963  0.875896  1
  Ta  Ta12  1  0.504938  0.347326  0.624530  1
  Ta  Ta13  1  0.498706  0.660446  0.120372  1
  Ta  Ta14  1  0.154091  0.005077  0.873303  1
  Ta  Ta15  1  0.673452  0.667702  0.499978  1
  Ta  Ta16  1  0.831402  0.169742  0.749134  1
  Ta  Ta17  1  0.171950  0.835153  0.249732  1
  Ta  Ta18  1  0.331246  0.333045  0.001016  1
  Si  Si19  1  0.046649  0.698567  0.434182  1
  Si  Si20  1  0.956914  0.299683  0.936703  1
  Si  Si21  1  0.702537  0.043102  0.562140  1
  Si  Si22  1  0.209689  0.463289  0.192762  1
  Si  Si23  1  0.798189  0.545344  0.686361  1
  Si  Si24  1  0.456396  0.201350  0.813652  1
  Si  Si25  1  0.537019  0.779565  0.314865  1
  Si  Si26  1  0.297122  0.958898  0.062817  1
  Si  Si27  1  0.866482  0.792204  0.822530  1
  Si  Si28  1  0.135998  0.210456  0.324270  1
  Si  Si29  1  0.792755  0.871918  0.177601  1
  Si  Si30  1  0.295869  0.632015  0.569860  1
  Si  Si31  1  0.708200  0.367517  0.073769  1
  Si  Si32  1  0.624829  0.297231  0.426059  1
  Si  Si33  1  0.364532  0.708170  0.927139  1
  Si  Si34  1  0.209926  0.134748  0.676211  1
  Ru  Ru35  1  0.328545  0.485680  0.383984  1
