# generated using pymatgen
data_Er5Hg4PdPt
_symmetry_space_group_name_H-M   'P 1'
_cell_length_a   3.62298200
_cell_length_b   7.95273971
_cell_length_c   17.98000000
_cell_angle_alpha   90.25011362
_cell_angle_beta   90.00000000
_cell_angle_gamma   90.00000000
_symmetry_Int_Tables_number   1
_chemical_formula_structural   Er5Hg4PdPt
_chemical_formula_sum   'Er10 Hg8 Pd2 Pt2'
_cell_volume   518.04620204
_cell_formula_units_Z   2
loop_
 _symmetry_equiv_pos_site_id
 _symmetry_equiv_pos_as_xyz
  1  'x, y, z'
loop_
 _atom_site_type_symbol
 _atom_site_label
 _atom_site_symmetry_multiplicity
 _atom_site_fract_x
 _atom_site_fract_y
 _atom_site_fract_z
 _atom_site_occupancy
  Er  Er0  1  0.000000  0.109581  0.414719  1
  Er  Er1  1  0.000000  0.890419  0.585281  1
  Er  Er2  1  0.000000  0.388351  0.913880  1
  Er  Er3  1  0.000000  0.611649  0.086120  1
  Er  Er4  1  0.000000  0.236087  0.214415  1
  Er  Er5  1  0.000000  0.763913  0.785585  1
  Er  Er6  1  0.000000  0.273871  0.715124  1
  Er  Er7  1  0.000000  0.726129  0.284876  1
  Er  Er8  1  0.000000  0.000000  0.000000  1
  Er  Er9  1  0.000000  0.500000  0.500000  1
  Hg  Hg10  1  0.500000  0.412417  0.356119  1
  Hg  Hg11  1  0.500000  0.587583  0.643881  1
  Hg  Hg12  1  0.500000  0.079335  0.853823  1
  Hg  Hg13  1  0.500000  0.920665  0.146177  1
  Hg  Hg14  1  0.500000  0.286864  0.060988  1
  Hg  Hg15  1  0.500000  0.713136  0.939012  1
  Hg  Hg16  1  0.500000  0.211762  0.563388  1
  Hg  Hg17  1  0.500000  0.788238  0.436612  1
  Pd  Pd18  1  0.500000  0.019975  0.302819  1
  Pd  Pd19  1  0.500000  0.980025  0.697181  1
  Pt  Pt20  1  0.500000  0.480228  0.802960  1
  Pt  Pt21  1  0.500000  0.519772  0.197040  1
