# generated using pymatgen
data_In2SnI8
_symmetry_space_group_name_H-M   'P 1'
_cell_length_a   8.55328000
_cell_length_b   8.67617888
_cell_length_c   15.80625604
_cell_angle_alpha   87.18799337
_cell_angle_beta   90.00000000
_cell_angle_gamma   90.00000000
_symmetry_Int_Tables_number   1
_chemical_formula_structural   In2SnI8
_chemical_formula_sum   'In4 Sn2 I16'
_cell_volume   1171.56649060
_cell_formula_units_Z   2
loop_
 _symmetry_equiv_pos_site_id
 _symmetry_equiv_pos_as_xyz
  1  'x, y, z'
loop_
 _atom_site_type_symbol
 _atom_site_label
 _atom_site_symmetry_multiplicity
 _atom_site_fract_x
 _atom_site_fract_y
 _atom_site_fract_z
 _atom_site_occupancy
  In  In0  1  0.936010  0.220904  0.578788  1
  In  In1  1  0.063990  0.220904  0.078788  1
  In  In2  1  0.571373  0.641999  0.775486  1
  In  In3  1  0.428627  0.641999  0.275486  1
  Sn  Sn4  1  0.754788  0.070539  0.811414  1
  Sn  Sn5  1  0.245212  0.070539  0.311414  1
  I  I6  1  0.415472  0.612517  0.629719  1
  I  I7  1  0.584528  0.612517  0.129719  1
  I  I8  1  0.882998  0.741364  0.760075  1
  I  I9  1  0.117002  0.741364  0.260075  1
  I  I10  1  0.933992  0.496220  0.492696  1
  I  I11  1  0.066008  0.496220  0.992696  1
  I  I12  1  0.916765  0.985180  0.995498  1
  I  I13  1  0.083235  0.985180  0.495498  1
  I  I14  1  0.632113  0.119147  0.620668  1
  I  I15  1  0.367887  0.119147  0.120668  1
  I  I16  1  0.571908  0.372771  0.879722  1
  I  I17  1  0.428092  0.372771  0.379722  1
  I  I18  1  0.446920  0.879643  0.869061  1
  I  I19  1  0.553080  0.879643  0.369061  1
  I  I20  1  0.926464  0.227116  0.239074  1
  I  I21  1  0.073536  0.227116  0.739074  1
