# generated using pymatgen
data_Pr16Y4Si15Ge
_symmetry_space_group_name_H-M   'P 1'
_cell_length_a   7.85892211
_cell_length_b   7.84494161
_cell_length_c   15.36036184
_cell_angle_alpha   90.04066696
_cell_angle_beta   89.88413959
_cell_angle_gamma   89.91607550
_symmetry_Int_Tables_number   1
_chemical_formula_structural   Pr16Y4Si15Ge
_chemical_formula_sum   'Pr16 Y4 Si15 Ge1'
_cell_volume   947.00589422
_cell_formula_units_Z   1
loop_
 _symmetry_equiv_pos_site_id
 _symmetry_equiv_pos_as_xyz
  1  'x, y, z'
loop_
 _atom_site_type_symbol
 _atom_site_label
 _atom_site_symmetry_multiplicity
 _atom_site_fract_x
 _atom_site_fract_y
 _atom_site_fract_z
 _atom_site_occupancy
  Pr  Pr0  1  0.379293  0.013330  0.444757  1
  Pr  Pr1  1  0.488533  0.877493  0.695054  1
  Pr  Pr2  1  0.512917  0.120616  0.194639  1
  Pr  Pr3  1  0.879346  0.486781  0.304993  1
  Pr  Pr4  1  0.120594  0.514642  0.805952  1
  Pr  Pr5  1  0.621482  0.986163  0.945267  1
  Pr  Pr6  1  0.011612  0.380991  0.553792  1
  Pr  Pr7  1  0.986876  0.620701  0.055406  1
  Pr  Pr8  1  0.125103  0.975968  0.879051  1
  Pr  Pr9  1  0.524356  0.624722  0.128501  1
  Pr  Pr10  1  0.476979  0.376422  0.628586  1
  Pr  Pr11  1  0.625235  0.525405  0.872037  1
  Pr  Pr12  1  0.375260  0.475589  0.371342  1
  Pr  Pr13  1  0.875093  0.024221  0.378398  1
  Pr  Pr14  1  0.975786  0.125016  0.121610  1
  Pr  Pr15  1  0.022505  0.872776  0.621000  1
  Y  Y16  1  0.308855  0.308797  0.000103  1
  Y  Y17  1  0.190913  0.808767  0.249959  1
  Y  Y18  1  0.805369  0.190952  0.750702  1
  Y  Y19  1  0.690341  0.691107  0.499489  1
  Si  Si20  1  0.327244  0.687347  0.958845  1
  Si  Si21  1  0.672310  0.312403  0.458469  1
  Si  Si22  1  0.687659  0.327526  0.041559  1
  Si  Si23  1  0.312641  0.672734  0.541427  1
  Si  Si24  1  0.812532  0.827254  0.208536  1
  Si  Si25  1  0.172556  0.187517  0.291411  1
  Si  Si26  1  0.828431  0.812698  0.791535  1
  Si  Si27  1  0.286176  0.920530  0.063508  1
  Si  Si28  1  0.579528  0.786515  0.313334  1
  Si  Si29  1  0.424182  0.213424  0.815030  1
  Si  Si30  1  0.786649  0.579139  0.686757  1
  Si  Si31  1  0.213819  0.420393  0.186585  1
  Si  Si32  1  0.713499  0.079846  0.563485  1
  Si  Si33  1  0.920873  0.286529  0.936588  1
  Si  Si34  1  0.079813  0.713651  0.436430  1
  Ge  Ge35  1  0.185640  0.172036  0.705866  1
