# generated using pymatgen
data_Dy7HoTi11Si16Ag
_symmetry_space_group_name_H-M   'P 1'
_cell_length_a   7.07316158
_cell_length_b   7.07289445
_cell_length_c   12.92253805
_cell_angle_alpha   90.07110273
_cell_angle_beta   89.92337605
_cell_angle_gamma   89.66642210
_symmetry_Int_Tables_number   1
_chemical_formula_structural   Dy7HoTi11Si16Ag
_chemical_formula_sum   'Dy7 Ho1 Ti11 Si16 Ag1'
_cell_volume   646.47314459
_cell_formula_units_Z   1
loop_
 _symmetry_equiv_pos_site_id
 _symmetry_equiv_pos_as_xyz
  1  'x, y, z'
loop_
 _atom_site_type_symbol
 _atom_site_label
 _atom_site_symmetry_multiplicity
 _atom_site_fract_x
 _atom_site_fract_y
 _atom_site_fract_z
 _atom_site_occupancy
  Dy  Dy0  1  0.340772  0.002566  0.466687  1
  Dy  Dy1  1  0.497498  0.840146  0.716702  1
  Dy  Dy2  1  0.501065  0.158377  0.214461  1
  Dy  Dy3  1  0.840182  0.497551  0.283273  1
  Dy  Dy4  1  0.158335  0.501106  0.785577  1
  Dy  Dy5  1  0.656441  0.000539  0.968341  1
  Dy  Dy6  1  0.002582  0.340801  0.533349  1
  Ho  Ho7  1  0.000727  0.656365  0.031635  1
  Ti  Ti8  1  0.173948  0.826581  0.249951  1
  Ti  Ti9  1  0.826656  0.173996  0.749994  1
  Ti  Ti10  1  0.672940  0.672901  0.500029  1
  Ti  Ti11  1  0.148158  0.007929  0.876959  1
  Ti  Ti12  1  0.495003  0.650629  0.123499  1
  Ti  Ti13  1  0.507930  0.350193  0.625240  1
  Ti  Ti14  1  0.650765  0.495029  0.876512  1
  Ti  Ti15  1  0.350174  0.507890  0.374773  1
  Ti  Ti16  1  0.849486  0.992104  0.374597  1
  Ti  Ti17  1  0.007989  0.148148  0.123033  1
  Ti  Ti18  1  0.992126  0.849461  0.625435  1
  Si  Si19  1  0.202246  0.131952  0.684457  1
  Si  Si20  1  0.373464  0.718635  0.929435  1
  Si  Si21  1  0.630986  0.294484  0.432865  1
  Si  Si22  1  0.719026  0.374006  0.070520  1
  Si  Si23  1  0.294460  0.631011  0.567193  1
  Si  Si24  1  0.797689  0.867944  0.182699  1
  Si  Si25  1  0.131984  0.202298  0.315562  1
  Si  Si26  1  0.868224  0.797410  0.817230  1
  Si  Si27  1  0.285619  0.937992  0.066199  1
  Si  Si28  1  0.546611  0.791185  0.314527  1
  Si  Si29  1  0.455488  0.207814  0.808839  1
  Si  Si30  1  0.791168  0.546589  0.685518  1
  Si  Si31  1  0.207572  0.455648  0.191010  1
  Si  Si32  1  0.709064  0.047631  0.564398  1
  Si  Si33  1  0.938354  0.286222  0.933810  1
  Si  Si34  1  0.047632  0.709038  0.435680  1
  Ag  Ag35  1  0.327633  0.327826  0.000010  1
