# generated using pymatgen
data_LuSc9(GaSb)3
_symmetry_space_group_name_H-M   'P 1'
_cell_length_a   8.26639900
_cell_length_b   8.29314289
_cell_length_c   6.03074100
_cell_angle_alpha   90.00000000
_cell_angle_beta   90.00000000
_cell_angle_gamma   119.89336908
_symmetry_Int_Tables_number   1
_chemical_formula_structural   LuSc9(GaSb)3
_chemical_formula_sum   'Lu1 Sc9 Ga3 Sb3'
_cell_volume   358.42843965
_cell_formula_units_Z   1
loop_
 _symmetry_equiv_pos_site_id
 _symmetry_equiv_pos_as_xyz
  1  'x, y, z'
loop_
 _atom_site_type_symbol
 _atom_site_label
 _atom_site_symmetry_multiplicity
 _atom_site_fract_x
 _atom_site_fract_y
 _atom_site_fract_z
 _atom_site_occupancy
  Lu  Lu0  1  0.231338  0.000000  0.250000  1
  Sc  Sc1  1  0.327383  0.666419  0.003606  1
  Sc  Sc2  1  0.660966  0.333581  0.496394  1
  Sc  Sc3  1  0.660966  0.333581  0.003606  1
  Sc  Sc4  1  0.327383  0.666419  0.496394  1
  Sc  Sc5  1  0.241337  0.229396  0.750000  1
  Sc  Sc6  1  0.011941  0.770604  0.750000  1
  Sc  Sc7  1  0.013269  0.249548  0.250000  1
  Sc  Sc8  1  0.763720  0.750452  0.250000  1
  Sc  Sc9  1  0.756765  0.000000  0.750000  1
  Ga  Ga10  1  0.995042  0.597804  0.250000  1
  Ga  Ga11  1  0.397236  0.402196  0.250000  1
  Ga  Ga12  1  0.397680  0.000000  0.750000  1
  Sb  Sb13  1  0.612723  0.000000  0.250000  1
  Sb  Sb14  1  0.604919  0.607587  0.750000  1
  Sb  Sb15  1  0.997331  0.392413  0.750000  1
