# generated using pymatgen
data_SmGd3(TcB4)4
_symmetry_space_group_name_H-M   'P 1'
_cell_length_a   3.62166100
_cell_length_b   5.99969903
_cell_length_c   11.61886764
_cell_angle_alpha   90.03262015
_cell_angle_beta   90.00000000
_cell_angle_gamma   90.00000000
_symmetry_Int_Tables_number   1
_chemical_formula_structural   SmGd3(TcB4)4
_chemical_formula_sum   'Sm1 Gd3 Tc4 B16'
_cell_volume   252.46489333
_cell_formula_units_Z   1
loop_
 _symmetry_equiv_pos_site_id
 _symmetry_equiv_pos_as_xyz
  1  'x, y, z'
loop_
 _atom_site_type_symbol
 _atom_site_label
 _atom_site_symmetry_multiplicity
 _atom_site_fract_x
 _atom_site_fract_y
 _atom_site_fract_z
 _atom_site_occupancy
  Sm  Sm0  1  0.000000  0.873516  0.849255  1
  Gd  Gd1  1  0.000000  0.626995  0.349695  1
  Gd  Gd2  1  0.000000  0.373393  0.650198  1
  Gd  Gd3  1  0.000000  0.126819  0.150663  1
  Tc  Tc4  1  0.000000  0.632250  0.087540  1
  Tc  Tc5  1  0.000000  0.367605  0.913106  1
  Tc  Tc6  1  0.000000  0.132658  0.412793  1
  Tc  Tc7  1  0.000000  0.867434  0.586677  1
  B  B8  1  0.500000  0.786224  0.184755  1
  B  B9  1  0.500000  0.215470  0.815005  1
  B  B10  1  0.500000  0.285890  0.315393  1
  B  B11  1  0.500000  0.713514  0.683989  1
  B  B12  1  0.500000  0.862961  0.032392  1
  B  B13  1  0.500000  0.137271  0.968720  1
  B  B14  1  0.500000  0.363361  0.468398  1
  B  B15  1  0.500000  0.636494  0.531466  1
  B  B16  1  0.500000  0.887152  0.453143  1
  B  B17  1  0.500000  0.113005  0.546469  1
  B  B18  1  0.500000  0.386757  0.047209  1
  B  B19  1  0.500000  0.611680  0.953812  1
  B  B20  1  0.500000  0.976378  0.308334  1
  B  B21  1  0.500000  0.024380  0.690959  1
  B  B22  1  0.500000  0.476355  0.191887  1
  B  B23  1  0.500000  0.522439  0.808144  1
