# generated using pymatgen
data_Ca10Cu4AgHg
_symmetry_space_group_name_H-M   'P 1'
_cell_length_a   9.22379314
_cell_length_b   9.22379266
_cell_length_c   9.22379144
_cell_angle_alpha   129.56471299
_cell_angle_beta   129.56471315
_cell_angle_gamma   74.10360702
_symmetry_Int_Tables_number   1
_chemical_formula_structural   Ca10Cu4AgHg
_chemical_formula_sum   'Ca10 Cu4 Ag1 Hg1'
_cell_volume   454.75579628
_cell_formula_units_Z   1
loop_
 _symmetry_equiv_pos_site_id
 _symmetry_equiv_pos_as_xyz
  1  'x, y, z'
loop_
 _atom_site_type_symbol
 _atom_site_label
 _atom_site_symmetry_multiplicity
 _atom_site_fract_x
 _atom_site_fract_y
 _atom_site_fract_z
 _atom_site_occupancy
  Ca  Ca0  1  0.529182  0.028886  0.840098  1
  Ca  Ca1  1  0.188787  0.689085  0.159902  1
  Ca  Ca2  1  0.028886  0.188787  0.499703  1
  Ca  Ca3  1  0.689085  0.529182  0.500297  1
  Ca  Ca4  1  0.471114  0.970818  0.159902  1
  Ca  Ca5  1  0.810915  0.311213  0.840098  1
  Ca  Ca6  1  0.970818  0.810915  0.499703  1
  Ca  Ca7  1  0.311213  0.471114  0.500297  1
  Ca  Ca8  1  0.500783  0.500783  0.000000  1
  Ca  Ca9  1  0.999217  0.999217  0.000000  1
  Cu  Cu10  1  0.613974  0.886026  0.500000  1
  Cu  Cu11  1  0.386026  0.113974  0.500000  1
  Cu  Cu12  1  0.113974  0.613974  0.727948  1
  Cu  Cu13  1  0.886026  0.386026  0.272052  1
  Ag  Ag14  1  0.750000  0.750000  0.000000  1
  Hg  Hg15  1  0.250000  0.250000  0.000000  1
