# generated using pymatgen
data_Ho7TmSc11Si16Os
_symmetry_space_group_name_H-M   'P 1'
_cell_length_a   6.97869762
_cell_length_b   7.33018690
_cell_length_c   13.82763426
_cell_angle_alpha   89.97906066
_cell_angle_beta   90.00739910
_cell_angle_gamma   90.11738693
_symmetry_Int_Tables_number   1
_chemical_formula_structural   Ho7TmSc11Si16Os
_chemical_formula_sum   'Ho7 Tm1 Sc11 Si16 Os1'
_cell_volume   707.35327587
_cell_formula_units_Z   1
loop_
 _symmetry_equiv_pos_site_id
 _symmetry_equiv_pos_as_xyz
  1  'x, y, z'
loop_
 _atom_site_type_symbol
 _atom_site_label
 _atom_site_symmetry_multiplicity
 _atom_site_fract_x
 _atom_site_fract_y
 _atom_site_fract_z
 _atom_site_occupancy
  Ho  Ho0  1  0.011612  0.178686  0.092266  1
  Ho  Ho1  1  0.993815  0.818638  0.901296  1
  Ho  Ho2  1  0.490545  0.673093  0.903258  1
  Ho  Ho3  1  0.993809  0.818561  0.598644  1
  Ho  Ho4  1  0.510767  0.323129  0.093938  1
  Ho  Ho5  1  0.011583  0.178680  0.407800  1
  Ho  Ho6  1  0.510748  0.323172  0.406168  1
  Tm  Tm7  1  0.490391  0.673223  0.596979  1
  Sc  Sc8  1  0.841697  0.496184  0.250007  1
  Sc  Sc9  1  0.342036  0.003858  0.249997  1
  Sc  Sc10  1  0.656571  0.994388  0.749923  1
  Sc  Sc11  1  0.325774  0.176163  0.627687  1
  Sc  Sc12  1  0.671844  0.824670  0.374352  1
  Sc  Sc13  1  0.172305  0.673807  0.376970  1
  Sc  Sc14  1  0.671857  0.824790  0.125718  1
  Sc  Sc15  1  0.824905  0.331931  0.628834  1
  Sc  Sc16  1  0.325683  0.176087  0.872268  1
  Sc  Sc17  1  0.825103  0.331773  0.871063  1
  Sc  Sc18  1  0.172275  0.673794  0.123076  1
  Si  Si19  1  0.027500  0.115736  0.749960  1
  Si  Si20  1  0.972906  0.887838  0.250007  1
  Si  Si21  1  0.469067  0.613588  0.250028  1
  Si  Si22  1  0.513253  0.397385  0.749822  1
  Si  Si23  1  0.285923  0.855842  0.749776  1
  Si  Si24  1  0.717119  0.131037  0.250005  1
  Si  Si25  1  0.214918  0.369738  0.249996  1
  Si  Si26  1  0.796122  0.631807  0.749839  1
  Si  Si27  1  0.158255  0.466384  0.549281  1
  Si  Si28  1  0.841809  0.536206  0.464110  1
  Si  Si29  1  0.344614  0.964486  0.463431  1
  Si  Si30  1  0.841968  0.536180  0.035953  1
  Si  Si31  1  0.659817  0.033992  0.539884  1
  Si  Si32  1  0.157618  0.466002  0.950816  1
  Si  Si33  1  0.659995  0.034415  0.960199  1
  Si  Si34  1  0.344479  0.964841  0.036696  1
  Os  Os35  1  0.151317  0.499903  0.749952  1
