# generated using pymatgen
data_Tm3Mg(B4Ru5)2
_symmetry_space_group_name_H-M   'P 1'
_cell_length_a   3.03342100
_cell_length_b   8.65199975
_cell_length_c   10.15832515
_cell_angle_alpha   90.68563368
_cell_angle_beta   90.00000000
_cell_angle_gamma   90.00000000
_symmetry_Int_Tables_number   1
_chemical_formula_structural   Tm3Mg(B4Ru5)2
_chemical_formula_sum   'Tm3 Mg1 B8 Ru10'
_cell_volume   266.58775733
_cell_formula_units_Z   1
loop_
 _symmetry_equiv_pos_site_id
 _symmetry_equiv_pos_as_xyz
  1  'x, y, z'
loop_
 _atom_site_type_symbol
 _atom_site_label
 _atom_site_symmetry_multiplicity
 _atom_site_fract_x
 _atom_site_fract_y
 _atom_site_fract_z
 _atom_site_occupancy
  Tm  Tm0  1  0.500000  0.659639  0.821075  1
  Tm  Tm1  1  0.500000  0.343812  0.186905  1
  Tm  Tm2  1  0.500000  0.156813  0.676102  1
  Mg  Mg3  1  0.500000  0.846891  0.312895  1
  B  B4  1  0.500000  0.850343  0.597646  1
  B  B5  1  0.500000  0.140137  0.397593  1
  B  B6  1  0.500000  0.353063  0.901448  1
  B  B7  1  0.500000  0.651464  0.106457  1
  B  B8  1  0.500000  0.966528  0.910553  1
  B  B9  1  0.500000  0.034500  0.087821  1
  B  B10  1  0.500000  0.465362  0.588762  1
  B  B11  1  0.500000  0.537085  0.412321  1
  Ru  Ru12  1  0.000000  0.405394  0.740217  1
  Ru  Ru13  1  0.000000  0.606776  0.265693  1
  Ru  Ru14  1  0.000000  0.906020  0.759408  1
  Ru  Ru15  1  0.000000  0.089624  0.237768  1
  Ru  Ru16  1  0.000000  0.989669  0.493997  1
  Ru  Ru17  1  0.000000  0.501202  0.003192  1
  Ru  Ru18  1  0.000000  0.654174  0.548952  1
  Ru  Ru19  1  0.000000  0.338701  0.453850  1
  Ru  Ru20  1  0.000000  0.160076  0.953029  1
  Ru  Ru21  1  0.000000  0.842729  0.044317  1
