# generated using pymatgen
data_Ce2Tc15Ge2C3
_symmetry_space_group_name_H-M   'P 1'
_cell_length_a   6.96462516
_cell_length_b   6.97863144
_cell_length_c   6.96462460
_cell_angle_alpha   82.45139424
_cell_angle_beta   82.78757172
_cell_angle_gamma   82.45139939
_symmetry_Int_Tables_number   1
_chemical_formula_structural   Ce2Tc15Ge2C3
_chemical_formula_sum   'Ce2 Tc15 Ge2 C3'
_cell_volume   330.63794910
_cell_formula_units_Z   1
loop_
 _symmetry_equiv_pos_site_id
 _symmetry_equiv_pos_as_xyz
  1  'x, y, z'
loop_
 _atom_site_type_symbol
 _atom_site_label
 _atom_site_symmetry_multiplicity
 _atom_site_fract_x
 _atom_site_fract_y
 _atom_site_fract_z
 _atom_site_occupancy
  Ce  Ce0  1  0.654896  0.656839  0.654896  1
  Ce  Ce1  1  0.345104  0.343161  0.345104  1
  Tc  Tc2  1  0.000000  0.500000  0.000000  1
  Tc  Tc3  1  0.275780  0.722770  0.996834  1
  Tc  Tc4  1  0.723717  0.000000  0.276283  1
  Tc  Tc5  1  0.003166  0.277230  0.724220  1
  Tc  Tc6  1  0.276283  0.000000  0.723717  1
  Tc  Tc7  1  0.996834  0.722770  0.275780  1
  Tc  Tc8  1  0.724220  0.277230  0.003166  1
  Tc  Tc9  1  0.354019  0.353939  0.850970  1
  Tc  Tc10  1  0.347178  0.854551  0.347178  1
  Tc  Tc11  1  0.850970  0.353939  0.354019  1
  Tc  Tc12  1  0.645981  0.646061  0.149030  1
  Tc  Tc13  1  0.652822  0.145449  0.652822  1
  Tc  Tc14  1  0.149030  0.646061  0.645981  1
  Tc  Tc15  1  0.902671  0.900583  0.902671  1
  Tc  Tc16  1  0.097329  0.099417  0.097329  1
  Ge  Ge17  1  0.000000  0.000000  0.500000  1
  Ge  Ge18  1  0.500000  0.000000  0.000000  1
  C  C19  1  0.500000  0.500000  0.000000  1
  C  C20  1  0.500000  0.000000  0.500000  1
  C  C21  1  0.000000  0.500000  0.500000  1
