# generated using pymatgen
data_UTaCl10
_symmetry_space_group_name_H-M   'P 1'
_cell_length_a   6.92298097
_cell_length_b   7.51040502
_cell_length_c   10.04343236
_cell_angle_alpha   109.58320126
_cell_angle_beta   91.15917226
_cell_angle_gamma   116.01802055
_symmetry_Int_Tables_number   1
_chemical_formula_structural   UTaCl10
_chemical_formula_sum   'U1 Ta1 Cl10'
_cell_volume   433.42224688
_cell_formula_units_Z   1
loop_
 _symmetry_equiv_pos_site_id
 _symmetry_equiv_pos_as_xyz
  1  'x, y, z'
loop_
 _atom_site_type_symbol
 _atom_site_label
 _atom_site_symmetry_multiplicity
 _atom_site_fract_x
 _atom_site_fract_y
 _atom_site_fract_z
 _atom_site_occupancy
  U  U0  1  0.900191  0.795898  0.795531  1
  Ta  Ta1  1  0.107063  0.218375  0.218184  1
  Cl  Cl2  1  0.947589  0.192431  0.410596  1
  Cl  Cl3  1  0.062752  0.811058  0.578779  1
  Cl  Cl4  1  0.229486  0.179589  0.969682  1
  Cl  Cl5  1  0.782014  0.844268  0.054276  1
  Cl  Cl6  1  0.106982  0.622397  0.850332  1
  Cl  Cl7  1  0.902575  0.352411  0.141049  1
  Cl  Cl8  1  0.699821  0.980409  0.749977  1
  Cl  Cl9  1  0.279080  0.020522  0.233423  1
  Cl  Cl10  1  0.571121  0.441545  0.675407  1
  Cl  Cl11  1  0.411326  0.541096  0.322763  1
