# generated using pymatgen
data_ThFeNiPPt
_symmetry_space_group_name_H-M   'P 1'
_cell_length_a   3.93619400
_cell_length_b   3.93619400
_cell_length_c   10.12372400
_cell_angle_alpha   90.00000000
_cell_angle_beta   90.00000000
_cell_angle_gamma   90.00000000
_symmetry_Int_Tables_number   1
_chemical_formula_structural   ThFeNiPPt
_chemical_formula_sum   'Th2 Fe2 Ni2 P2 Pt2'
_cell_volume   156.85316509
_cell_formula_units_Z   2
loop_
 _symmetry_equiv_pos_site_id
 _symmetry_equiv_pos_as_xyz
  1  'x, y, z'
loop_
 _atom_site_type_symbol
 _atom_site_label
 _atom_site_symmetry_multiplicity
 _atom_site_fract_x
 _atom_site_fract_y
 _atom_site_fract_z
 _atom_site_occupancy
  Th  Th0  1  0.000000  0.500000  0.750416  1
  Th  Th1  1  0.500000  0.000000  0.249584  1
  Fe  Fe2  1  0.500000  0.500000  0.000000  1
  Fe  Fe3  1  0.000000  0.000000  0.000000  1
  Ni  Ni4  1  0.000000  0.500000  0.330515  1
  Ni  Ni5  1  0.500000  0.000000  0.669485  1
  P  P6  1  0.500000  0.000000  0.888922  1
  P  P7  1  0.000000  0.500000  0.111078  1
  Pt  Pt8  1  0.000000  0.000000  0.500000  1
  Pt  Pt9  1  0.500000  0.500000  0.500000  1
