# generated using pymatgen
data_Li5P12Ir13Ru6
_symmetry_space_group_name_H-M   'P 1'
_cell_length_a   12.43145038
_cell_length_b   12.40398609
_cell_length_c   3.95133600
_cell_angle_alpha   90.00000000
_cell_angle_beta   90.00000000
_cell_angle_gamma   119.47127258
_symmetry_Int_Tables_number   1
_chemical_formula_structural   Li5P12Ir13Ru6
_chemical_formula_sum   'Li5 P12 Ir13 Ru6'
_cell_volume   530.45302872
_cell_formula_units_Z   1
loop_
 _symmetry_equiv_pos_site_id
 _symmetry_equiv_pos_as_xyz
  1  'x, y, z'
loop_
 _atom_site_type_symbol
 _atom_site_label
 _atom_site_symmetry_multiplicity
 _atom_site_fract_x
 _atom_site_fract_y
 _atom_site_fract_z
 _atom_site_occupancy
  Li  Li0  1  0.672647  0.337968  0.000000  1
  Li  Li1  1  0.334409  0.663953  0.000000  1
  Li  Li2  1  0.835534  0.000294  0.500000  1
  Li  Li3  1  0.162074  0.164139  0.500000  1
  Li  Li4  1  0.998642  0.838996  0.500000  1
  P  P5  1  0.642139  0.004378  0.000000  1
  P  P6  1  0.365790  0.365289  0.000000  1
  P  P7  1  0.999617  0.636012  0.000000  1
  P  P8  1  0.688532  0.521096  0.500000  1
  P  P9  1  0.831288  0.308513  0.500000  1
  P  P10  1  0.307899  0.828353  0.500000  1
  P  P11  1  0.519798  0.685431  0.500000  1
  P  P12  1  0.180117  0.002795  0.000000  1
  P  P13  1  0.819793  0.821305  0.000000  1
  P  P14  1  0.998074  0.181190  0.000000  1
  P  P15  1  0.480382  0.168305  0.500000  1
  P  P16  1  0.166756  0.478523  0.500000  1
  Ir  Ir17  1  0.621748  0.808534  0.000000  1
  Ir  Ir18  1  0.185309  0.377000  0.000000  1
  Ir  Ir19  1  0.377586  0.184436  0.000000  1
  Ir  Ir20  1  0.190793  0.816598  0.000000  1
  Ir  Ir21  1  0.807738  0.623686  0.000000  1
  Ir  Ir22  1  0.867507  0.506090  0.500000  1
  Ir  Ir23  1  0.493519  0.360995  0.500000  1
  Ir  Ir24  1  0.637997  0.126846  0.500000  1
  Ir  Ir25  1  0.128832  0.639015  0.500000  1
  Ir  Ir26  1  0.360190  0.490512  0.500000  1
  Ir  Ir27  1  0.502307  0.862548  0.500000  1
  Ir  Ir28  1  0.999266  0.000722  0.000000  1
  Ir  Ir29  1  0.453114  0.996225  0.000000  1
  Ru  Ru30  1  0.717724  0.718830  0.500000  1
  Ru  Ru31  1  0.002112  0.282182  0.500000  1
  Ru  Ru32  1  0.547889  0.548006  0.000000  1
  Ru  Ru33  1  0.002163  0.454201  0.000000  1
  Ru  Ru34  1  0.816462  0.196421  0.000000  1
  Ru  Ru35  1  0.284251  0.000616  0.500000  1
