# generated using pymatgen
data_Nd4CdHgPt4
_symmetry_space_group_name_H-M   'P 1'
_cell_length_a   7.89207300
_cell_length_b   7.89207300
_cell_length_c   3.88241600
_cell_angle_alpha   90.00000000
_cell_angle_beta   90.00000000
_cell_angle_gamma   90.00000000
_symmetry_Int_Tables_number   1
_chemical_formula_structural   Nd4CdHgPt4
_chemical_formula_sum   'Nd4 Cd1 Hg1 Pt4'
_cell_volume   241.81556712
_cell_formula_units_Z   1
loop_
 _symmetry_equiv_pos_site_id
 _symmetry_equiv_pos_as_xyz
  1  'x, y, z'
loop_
 _atom_site_type_symbol
 _atom_site_label
 _atom_site_symmetry_multiplicity
 _atom_site_fract_x
 _atom_site_fract_y
 _atom_site_fract_z
 _atom_site_occupancy
  Nd  Nd0  1  0.679573  0.162299  0.500000  1
  Nd  Nd1  1  0.320427  0.837701  0.500000  1
  Nd  Nd2  1  0.162299  0.320427  0.500000  1
  Nd  Nd3  1  0.837701  0.679573  0.500000  1
  Cd  Cd4  1  0.500000  0.500000  0.000000  1
  Hg  Hg5  1  0.000000  0.000000  0.000000  1
  Pt  Pt6  1  0.139432  0.618750  0.000000  1
  Pt  Pt7  1  0.860568  0.381250  0.000000  1
  Pt  Pt8  1  0.618750  0.860568  0.000000  1
  Pt  Pt9  1  0.381250  0.139432  0.000000  1
