# generated using pymatgen
data_Zr8Tc4Ir3Os
_symmetry_space_group_name_H-M   'P 1'
_cell_length_a   6.56757900
_cell_length_b   4.66901800
_cell_length_c   9.32858300
_cell_angle_alpha   90.00000000
_cell_angle_beta   90.00001745
_cell_angle_gamma   90.00000000
_symmetry_Int_Tables_number   1
_chemical_formula_structural   Zr8Tc4Ir3Os
_chemical_formula_sum   'Zr8 Tc4 Ir3 Os1'
_cell_volume   286.05301772
_cell_formula_units_Z   1
loop_
 _symmetry_equiv_pos_site_id
 _symmetry_equiv_pos_as_xyz
  1  'x, y, z'
loop_
 _atom_site_type_symbol
 _atom_site_label
 _atom_site_symmetry_multiplicity
 _atom_site_fract_x
 _atom_site_fract_y
 _atom_site_fract_z
 _atom_site_occupancy
  Zr  Zr0  1  0.999263  0.749999  0.123077  1
  Zr  Zr1  1  0.500824  0.749999  0.123083  1
  Zr  Zr2  1  0.999970  0.249999  0.374983  1
  Zr  Zr3  1  0.500158  0.249999  0.374989  1
  Zr  Zr4  1  0.500702  0.749999  0.626932  1
  Zr  Zr5  1  0.999165  0.749999  0.626940  1
  Zr  Zr6  1  0.502131  0.249999  0.874990  1
  Zr  Zr7  1  0.997781  0.249999  0.874995  1
  Tc  Tc8  1  0.750047  0.249999  0.126199  1
  Tc  Tc9  1  0.250047  0.749999  0.375001  1
  Tc  Tc10  1  0.749955  0.249999  0.623801  1
  Tc  Tc11  1  0.249955  0.749999  0.875002  1
  Ir  Ir12  1  0.250051  0.249999  0.125593  1
  Ir  Ir13  1  0.750053  0.749999  0.375009  1
  Ir  Ir14  1  0.249949  0.249999  0.624403  1
  Os  Os15  1  0.749950  0.749999  0.875004  1
