# generated using pymatgen
data_LiNdSmP2
_symmetry_space_group_name_H-M   'P 1'
_cell_length_a   4.15547500
_cell_length_b   4.15547309
_cell_length_c   14.41452600
_cell_angle_alpha   90.00000000
_cell_angle_beta   90.00000000
_cell_angle_gamma   120.00000723
_symmetry_Int_Tables_number   1
_chemical_formula_structural   LiNdSmP2
_chemical_formula_sum   'Li2 Nd2 Sm2 P4'
_cell_volume   215.56195525
_cell_formula_units_Z   2
loop_
 _symmetry_equiv_pos_site_id
 _symmetry_equiv_pos_as_xyz
  1  'x, y, z'
loop_
 _atom_site_type_symbol
 _atom_site_label
 _atom_site_symmetry_multiplicity
 _atom_site_fract_x
 _atom_site_fract_y
 _atom_site_fract_z
 _atom_site_occupancy
  Li  Li0  1  0.000000  0.000000  0.250000  1
  Li  Li1  1  0.000000  0.000000  0.750000  1
  Nd  Nd2  1  0.666667  0.333332  0.608920  1
  Nd  Nd3  1  0.666667  0.333332  0.891080  1
  Sm  Sm4  1  0.333333  0.666667  0.111583  1
  Sm  Sm5  1  0.333333  0.666667  0.388417  1
  P  P6  1  0.000000  0.000000  0.003757  1
  P  P7  1  0.666667  0.333332  0.250000  1
  P  P8  1  0.000000  0.000000  0.496243  1
  P  P9  1  0.333333  0.666667  0.750000  1
