# generated using pymatgen
data_Pr3Y3Tm2(CdIr)2
_symmetry_space_group_name_H-M   'P 1'
_cell_length_a   9.77013552
_cell_length_b   9.77013407
_cell_length_c   9.77013500
_cell_angle_alpha   60.00000023
_cell_angle_beta   60.00000515
_cell_angle_gamma   60.00000047
_symmetry_Int_Tables_number   1
_chemical_formula_structural   Pr3Y3Tm2(CdIr)2
_chemical_formula_sum   'Pr6 Y6 Tm4 Cd4 Ir4'
_cell_volume   659.45732587
_cell_formula_units_Z   2
loop_
 _symmetry_equiv_pos_site_id
 _symmetry_equiv_pos_as_xyz
  1  'x, y, z'
loop_
 _atom_site_type_symbol
 _atom_site_label
 _atom_site_symmetry_multiplicity
 _atom_site_fract_x
 _atom_site_fract_y
 _atom_site_fract_z
 _atom_site_occupancy
  Pr  Pr0  1  0.941453  0.558547  0.558547  1
  Pr  Pr1  1  0.558547  0.941453  0.941453  1
  Pr  Pr2  1  0.558547  0.941453  0.558547  1
  Pr  Pr3  1  0.941453  0.558547  0.941453  1
  Pr  Pr4  1  0.558547  0.558547  0.941453  1
  Pr  Pr5  1  0.941453  0.941453  0.558547  1
  Y  Y6  1  0.811788  0.188212  0.188212  1
  Y  Y7  1  0.188212  0.811788  0.811788  1
  Y  Y8  1  0.188212  0.811788  0.188212  1
  Y  Y9  1  0.811788  0.188212  0.811788  1
  Y  Y10  1  0.188212  0.188212  0.811788  1
  Y  Y11  1  0.811788  0.811788  0.188212  1
  Tm  Tm12  1  0.346016  0.346016  0.346016  1
  Tm  Tm13  1  0.346016  0.346016  0.961952  1
  Tm  Tm14  1  0.346016  0.961952  0.346016  1
  Tm  Tm15  1  0.961952  0.346016  0.346016  1
  Cd  Cd16  1  0.579240  0.579240  0.579240  1
  Cd  Cd17  1  0.579240  0.579240  0.262279  1
  Cd  Cd18  1  0.579240  0.262279  0.579240  1
  Cd  Cd19  1  0.262279  0.579240  0.579240  1
  Ir  Ir20  1  0.142344  0.142344  0.142344  1
  Ir  Ir21  1  0.142344  0.142344  0.572968  1
  Ir  Ir22  1  0.142344  0.572968  0.142344  1
  Ir  Ir23  1  0.572968  0.142344  0.142344  1
