# generated using pymatgen
data_Hf6Ga6Ir3Pd2Rh
_symmetry_space_group_name_H-M   'P 1'
_cell_length_a   7.23569500
_cell_length_b   7.23569366
_cell_length_c   6.84540200
_cell_angle_alpha   90.00000000
_cell_angle_beta   90.00000000
_cell_angle_gamma   119.99999242
_symmetry_Int_Tables_number   1
_chemical_formula_structural   Hf6Ga6Ir3Pd2Rh
_chemical_formula_sum   'Hf6 Ga6 Ir3 Pd2 Rh1'
_cell_volume   310.37736797
_cell_formula_units_Z   1
loop_
 _symmetry_equiv_pos_site_id
 _symmetry_equiv_pos_as_xyz
  1  'x, y, z'
loop_
 _atom_site_type_symbol
 _atom_site_label
 _atom_site_symmetry_multiplicity
 _atom_site_fract_x
 _atom_site_fract_y
 _atom_site_fract_z
 _atom_site_occupancy
  Hf  Hf0  1  0.601956  0.591324  0.249408  1
  Hf  Hf1  1  0.010187  0.408276  0.750776  1
  Hf  Hf2  1  0.408676  0.010632  0.249408  1
  Hf  Hf3  1  0.989368  0.398044  0.249408  1
  Hf  Hf4  1  0.398089  0.989813  0.750776  1
  Hf  Hf5  1  0.591724  0.601911  0.750776  1
  Ga  Ga6  1  0.268863  0.270320  0.500210  1
  Ga  Ga7  1  0.729680  0.998543  0.500210  1
  Ga  Ga8  1  0.001457  0.731137  0.500210  1
  Ga  Ga9  1  0.730860  0.999981  0.000050  1
  Ga  Ga10  1  0.269121  0.269140  0.000050  1
  Ga  Ga11  1  0.000019  0.730879  0.000050  1
  Ir  Ir12  1  0.333333  0.666667  0.013594  1
  Ir  Ir13  1  0.666667  0.333333  0.514408  1
  Ir  Ir14  1  0.666667  0.333333  0.985710  1
  Pd  Pd15  1  0.000000  0.000000  0.750311  1
  Pd  Pd16  1  0.000000  0.000000  0.249888  1
  Rh  Rh17  1  0.333333  0.666667  0.484758  1
