# generated using pymatgen
data_Ag2(PdAu)3
_symmetry_space_group_name_H-M   'P 1'
_cell_length_a   4.09166800
_cell_length_b   4.12819200
_cell_length_c   8.07694100
_cell_angle_alpha   90.00000000
_cell_angle_beta   90.00000000
_cell_angle_gamma   90.00000000
_symmetry_Int_Tables_number   1
_chemical_formula_structural   Ag2(PdAu)3
_chemical_formula_sum   'Ag2 Pd3 Au3'
_cell_volume   136.42915397
_cell_formula_units_Z   1
loop_
 _symmetry_equiv_pos_site_id
 _symmetry_equiv_pos_as_xyz
  1  'x, y, z'
loop_
 _atom_site_type_symbol
 _atom_site_label
 _atom_site_symmetry_multiplicity
 _atom_site_fract_x
 _atom_site_fract_y
 _atom_site_fract_z
 _atom_site_occupancy
  Ag  Ag0  1  0.000000  0.000000  0.747028  1
  Ag  Ag1  1  0.000000  0.000000  0.252972  1
  Pd  Pd2  1  0.500000  0.000000  0.500000  1
  Pd  Pd3  1  0.000000  0.500000  0.000000  1
  Pd  Pd4  1  0.000000  0.500000  0.500000  1
  Au  Au5  1  0.500000  0.500000  0.745784  1
  Au  Au6  1  0.500000  0.500000  0.254216  1
  Au  Au7  1  0.500000  0.000000  0.000000  1
