# generated using pymatgen
data_La(FeC)2
_symmetry_space_group_name_H-M   'P 1'
_cell_length_a   5.74374336
_cell_length_b   5.74374332
_cell_length_c   5.74374275
_cell_angle_alpha   144.85073672
_cell_angle_beta   144.85073998
_cell_angle_gamma   50.55701642
_symmetry_Int_Tables_number   1
_chemical_formula_structural   La(FeC)2
_chemical_formula_sum   'La1 Fe2 C2'
_cell_volume   62.48760064
_cell_formula_units_Z   1
loop_
 _symmetry_equiv_pos_site_id
 _symmetry_equiv_pos_as_xyz
  1  'x, y, z'
loop_
 _atom_site_type_symbol
 _atom_site_label
 _atom_site_symmetry_multiplicity
 _atom_site_fract_x
 _atom_site_fract_y
 _atom_site_fract_z
 _atom_site_occupancy
  La  La0  1  0.000000  0.000000  0.000000  1
  Fe  Fe1  1  0.750000  0.250000  0.500000  1
  Fe  Fe2  1  0.250000  0.750000  0.500000  1
  C  C3  1  0.667289  0.667289  0.000000  1
  C  C4  1  0.332711  0.332711  0.000000  1
