# generated using pymatgen
data_PrNd3Te6(MoO12)2
_symmetry_space_group_name_H-M   'P 1'
_cell_length_a   5.40194906
_cell_length_b   11.43096413
_cell_length_c   18.29820200
_cell_angle_alpha   90.00000000
_cell_angle_beta   90.00000000
_cell_angle_gamma   90.01711048
_symmetry_Int_Tables_number   1
_chemical_formula_structural   PrNd3Te6(MoO12)2
_chemical_formula_sum   'Pr2 Nd6 Te12 Mo4 O48'
_cell_volume   1129.90451648
_cell_formula_units_Z   2
loop_
 _symmetry_equiv_pos_site_id
 _symmetry_equiv_pos_as_xyz
  1  'x, y, z'
loop_
 _atom_site_type_symbol
 _atom_site_label
 _atom_site_symmetry_multiplicity
 _atom_site_fract_x
 _atom_site_fract_y
 _atom_site_fract_z
 _atom_site_occupancy
  Pr  Pr0  1  0.256049  0.922703  0.937479  1
  Pr  Pr1  1  0.756049  0.422703  0.562521  1
  Nd  Nd2  1  0.743485  0.422793  0.062484  1
  Nd  Nd3  1  0.743798  0.077273  0.062673  1
  Nd  Nd4  1  0.756639  0.076753  0.562427  1
  Nd  Nd5  1  0.243485  0.922793  0.437516  1
  Nd  Nd6  1  0.256639  0.576753  0.937573  1
  Nd  Nd7  1  0.243798  0.577273  0.437327  1
  Te  Te8  1  0.226878  0.588673  0.168936  1
  Te  Te9  1  0.713833  0.750346  0.546012  1
  Te  Te10  1  0.213833  0.250346  0.953988  1
  Te  Te11  1  0.727008  0.411185  0.330775  1
  Te  Te12  1  0.786328  0.749350  0.046460  1
  Te  Te13  1  0.273571  0.589575  0.669239  1
  Te  Te14  1  0.273547  0.911512  0.668979  1
  Te  Te15  1  0.773571  0.089575  0.830761  1
  Te  Te16  1  0.773547  0.411512  0.831021  1
  Te  Te17  1  0.227008  0.911185  0.169225  1
  Te  Te18  1  0.726878  0.088673  0.331064  1
  Te  Te19  1  0.286328  0.249350  0.453540  1
  Mo  Mo20  1  0.741658  0.750036  0.319711  1
  Mo  Mo21  1  0.258390  0.249636  0.680534  1
  Mo  Mo22  1  0.758390  0.749636  0.819466  1
  Mo  Mo23  1  0.241658  0.250036  0.180289  1
  O  O24  1  0.515060  0.248579  0.534328  1
  O  O25  1  0.951800  0.879139  0.828563  1
  O  O26  1  0.604628  0.617210  0.010152  1
  O  O27  1  0.356546  0.250014  0.270134  1
  O  O28  1  0.983895  0.250192  0.034599  1
  O  O29  1  0.968194  0.984682  0.658808  1
  O  O30  1  0.047253  0.120773  0.171187  1
  O  O31  1  0.395005  0.118246  0.990393  1
  O  O32  1  0.547291  0.879241  0.328808  1
  O  O33  1  0.416082  0.933028  0.573407  1
  O  O34  1  0.518366  0.250123  0.122045  1
  O  O35  1  0.608116  0.882513  0.010283  1
  O  O36  1  0.018366  0.750123  0.377955  1
  O  O37  1  0.583715  0.066702  0.426453  1
  O  O38  1  0.468194  0.484682  0.841192  1
  O  O39  1  0.146956  0.750423  0.644142  1
  O  O40  1  0.394371  0.382909  0.990193  1
  O  O41  1  0.414109  0.567881  0.573506  1
  O  O42  1  0.547253  0.620773  0.328813  1
  O  O43  1  0.047291  0.379241  0.171192  1
  O  O44  1  0.031894  0.484828  0.341137  1
  O  O45  1  0.643229  0.749769  0.729639  1
  O  O46  1  0.916082  0.433028  0.926593  1
  O  O47  1  0.894371  0.882909  0.509807  1
  O  O48  1  0.143229  0.249769  0.770361  1
  O  O49  1  0.032038  0.015283  0.341234  1
  O  O50  1  0.532038  0.515283  0.158766  1
  O  O51  1  0.083715  0.566702  0.073547  1
  O  O52  1  0.451800  0.379139  0.671437  1
  O  O53  1  0.104628  0.117210  0.489848  1
  O  O54  1  0.468424  0.015983  0.840284  1
  O  O55  1  0.108116  0.382513  0.489717  1
  O  O56  1  0.531894  0.984828  0.158863  1
  O  O57  1  0.856546  0.750014  0.229866  1
  O  O58  1  0.453365  0.120626  0.671321  1
  O  O59  1  0.953365  0.620626  0.828679  1
  O  O60  1  0.982265  0.249100  0.622141  1
  O  O61  1  0.914109  0.067881  0.926494  1
  O  O62  1  0.895005  0.618246  0.509607  1
  O  O63  1  0.852591  0.249982  0.356073  1
  O  O64  1  0.646956  0.250423  0.855858  1
  O  O65  1  0.482265  0.749100  0.877859  1
  O  O66  1  0.352591  0.749982  0.143927  1
  O  O67  1  0.015060  0.748579  0.965672  1
  O  O68  1  0.968424  0.515983  0.659716  1
  O  O69  1  0.083622  0.932936  0.073918  1
  O  O70  1  0.583622  0.432936  0.426082  1
  O  O71  1  0.483895  0.750192  0.465401  1
