# generated using pymatgen
data_Yb6LuPt7
_symmetry_space_group_name_H-M   'P 1'
_cell_length_a   5.94703506
_cell_length_b   7.68571698
_cell_length_c   7.68571617
_cell_angle_alpha   113.59139827
_cell_angle_beta   104.94701647
_cell_angle_gamma   104.94701705
_symmetry_Int_Tables_number   1
_chemical_formula_structural   Yb6LuPt7
_chemical_formula_sum   'Yb6 Lu1 Pt7'
_cell_volume   283.98947809
_cell_formula_units_Z   1
loop_
 _symmetry_equiv_pos_site_id
 _symmetry_equiv_pos_as_xyz
  1  'x, y, z'
loop_
 _atom_site_type_symbol
 _atom_site_label
 _atom_site_symmetry_multiplicity
 _atom_site_fract_x
 _atom_site_fract_y
 _atom_site_fract_z
 _atom_site_occupancy
  Yb  Yb0  1  0.355936  0.431966  0.143490  1
  Yb  Yb1  1  0.212445  0.856510  0.288477  1
  Yb  Yb2  1  0.076031  0.288476  0.431966  1
  Yb  Yb3  1  0.923969  0.711524  0.568034  1
  Yb  Yb4  1  0.787555  0.143490  0.711524  1
  Yb  Yb5  1  0.644064  0.568034  0.856510  1
  Lu  Lu6  1  0.500000  0.000000  0.000000  1
  Pt  Pt7  1  0.000000  0.000000  0.000000  1
  Pt  Pt8  1  0.850398  0.418104  0.139290  1
  Pt  Pt9  1  0.711108  0.860710  0.278813  1
  Pt  Pt10  1  0.567706  0.278813  0.418104  1
  Pt  Pt11  1  0.432296  0.721187  0.581897  1
  Pt  Pt12  1  0.288892  0.139290  0.721188  1
  Pt  Pt13  1  0.149602  0.581896  0.860710  1
