# generated using pymatgen
data_CaCo2Te3(BrO4)2
_symmetry_space_group_name_H-M   'P 1'
_cell_length_a   9.29151800
_cell_length_b   6.59413200
_cell_length_c   19.17023824
_cell_angle_alpha   73.60604093
_cell_angle_beta   90.00000000
_cell_angle_gamma   90.00000000
_symmetry_Int_Tables_number   1
_chemical_formula_structural   CaCo2Te3(BrO4)2
_chemical_formula_sum   'Ca4 Co8 Te12 Br8 O32'
_cell_volume   1126.79799114
_cell_formula_units_Z   4
loop_
 _symmetry_equiv_pos_site_id
 _symmetry_equiv_pos_as_xyz
  1  'x, y, z'
loop_
 _atom_site_type_symbol
 _atom_site_label
 _atom_site_symmetry_multiplicity
 _atom_site_fract_x
 _atom_site_fract_y
 _atom_site_fract_z
 _atom_site_occupancy
  Ca  Ca0  1  0.113509  0.510980  0.730596  1
  Ca  Ca1  1  0.386491  0.510980  0.230596  1
  Ca  Ca2  1  0.886491  0.489020  0.269404  1
  Ca  Ca3  1  0.613509  0.489020  0.769404  1
  Co  Co4  1  0.244952  0.064414  0.321401  1
  Co  Co5  1  0.755048  0.935586  0.678599  1
  Co  Co6  1  0.458942  0.190440  0.681665  1
  Co  Co7  1  0.958942  0.809560  0.818335  1
  Co  Co8  1  0.255048  0.064414  0.821401  1
  Co  Co9  1  0.541058  0.809560  0.318335  1
  Co  Co10  1  0.041058  0.190440  0.181665  1
  Co  Co11  1  0.744952  0.935586  0.178599  1
  Te  Te12  1  0.297263  0.541438  0.890032  1
  Te  Te13  1  0.081367  0.774981  0.112769  1
  Te  Te14  1  0.392011  0.091774  0.139081  1
  Te  Te15  1  0.107989  0.091774  0.639081  1
  Te  Te16  1  0.418633  0.774981  0.612769  1
  Te  Te17  1  0.607989  0.908226  0.860919  1
  Te  Te18  1  0.581367  0.225019  0.387231  1
  Te  Te19  1  0.892011  0.908226  0.360919  1
  Te  Te20  1  0.918633  0.225019  0.887231  1
  Te  Te21  1  0.797263  0.458562  0.609968  1
  Te  Te22  1  0.702737  0.458562  0.109968  1
  Te  Te23  1  0.202737  0.541438  0.390032  1
  Br  Br24  1  0.675295  0.095859  0.038515  1
  Br  Br25  1  0.824705  0.095859  0.538515  1
  Br  Br26  1  0.324705  0.904141  0.961485  1
  Br  Br27  1  0.108495  0.268857  0.043314  1
  Br  Br28  1  0.175295  0.904141  0.461485  1
  Br  Br29  1  0.608495  0.731143  0.456686  1
  Br  Br30  1  0.391505  0.268857  0.543314  1
  Br  Br31  1  0.891505  0.731143  0.956686  1
  O  O32  1  0.011595  0.626484  0.352839  1
  O  O33  1  0.267699  0.173251  0.206552  1
  O  O34  1  0.806127  0.235711  0.176163  1
  O  O35  1  0.232301  0.173251  0.706552  1
  O  O36  1  0.021314  0.101681  0.823406  1
  O  O37  1  0.228520  0.803684  0.650450  1
  O  O38  1  0.979377  0.903521  0.704508  1
  O  O39  1  0.511595  0.373516  0.147161  1
  O  O40  1  0.736381  0.634836  0.171321  1
  O  O41  1  0.057425  0.501240  0.178561  1
  O  O42  1  0.728520  0.196316  0.849550  1
  O  O43  1  0.020623  0.096479  0.295492  1
  O  O44  1  0.767699  0.826749  0.293448  1
  O  O45  1  0.193873  0.764289  0.823837  1
  O  O46  1  0.271480  0.803684  0.150450  1
  O  O47  1  0.693873  0.235711  0.676163  1
  O  O48  1  0.978686  0.898319  0.176594  1
  O  O49  1  0.236381  0.365164  0.328679  1
  O  O50  1  0.521314  0.898319  0.676594  1
  O  O51  1  0.442575  0.501240  0.678561  1
  O  O52  1  0.306127  0.764289  0.323837  1
  O  O53  1  0.557425  0.498760  0.321439  1
  O  O54  1  0.732301  0.826749  0.793448  1
  O  O55  1  0.263619  0.365164  0.828679  1
  O  O56  1  0.479377  0.096479  0.795492  1
  O  O57  1  0.771480  0.196316  0.349550  1
  O  O58  1  0.988405  0.373516  0.647161  1
  O  O59  1  0.942575  0.498760  0.821439  1
  O  O60  1  0.478686  0.101681  0.323406  1
  O  O61  1  0.520623  0.903521  0.204508  1
  O  O62  1  0.488405  0.626484  0.852839  1
  O  O63  1  0.763619  0.634836  0.671321  1
