# generated using pymatgen
data_DyCrCo2P3Rh2
_symmetry_space_group_name_H-M   'P 1'
_cell_length_a   3.73091400
_cell_length_b   10.66442600
_cell_length_c   12.25765800
_cell_angle_alpha   90.00000000
_cell_angle_beta   90.00000000
_cell_angle_gamma   90.00000000
_symmetry_Int_Tables_number   1
_chemical_formula_structural   DyCrCo2P3Rh2
_chemical_formula_sum   'Dy4 Cr4 Co8 P12 Rh8'
_cell_volume   487.70838619
_cell_formula_units_Z   4
loop_
 _symmetry_equiv_pos_site_id
 _symmetry_equiv_pos_as_xyz
  1  'x, y, z'
loop_
 _atom_site_type_symbol
 _atom_site_label
 _atom_site_symmetry_multiplicity
 _atom_site_fract_x
 _atom_site_fract_y
 _atom_site_fract_z
 _atom_site_occupancy
  Dy  Dy0  1  0.250000  0.581904  0.710001  1
  Dy  Dy1  1  0.250000  0.918096  0.210001  1
  Dy  Dy2  1  0.750000  0.418096  0.289999  1
  Dy  Dy3  1  0.750000  0.081904  0.789999  1
  Cr  Cr4  1  0.250000  0.706503  0.990809  1
  Cr  Cr5  1  0.250000  0.793497  0.490809  1
  Cr  Cr6  1  0.750000  0.293497  0.009191  1
  Cr  Cr7  1  0.750000  0.206503  0.509191  1
  Co  Co8  1  0.250000  0.885364  0.694695  1
  Co  Co9  1  0.250000  0.614636  0.194695  1
  Co  Co10  1  0.750000  0.114636  0.305305  1
  Co  Co11  1  0.750000  0.385364  0.805305  1
  Co  Co12  1  0.250000  0.463846  0.933969  1
  Co  Co13  1  0.250000  0.036154  0.433969  1
  Co  Co14  1  0.750000  0.536154  0.066031  1
  Co  Co15  1  0.750000  0.963846  0.566031  1
  P  P16  1  0.250000  0.427958  0.109677  1
  P  P17  1  0.250000  0.072042  0.609677  1
  P  P18  1  0.750000  0.572042  0.890323  1
  P  P19  1  0.750000  0.927958  0.390323  1
  P  P20  1  0.250000  0.274257  0.870575  1
  P  P21  1  0.250000  0.225743  0.370575  1
  P  P22  1  0.750000  0.725743  0.129425  1
  P  P23  1  0.750000  0.774257  0.629425  1
  P  P24  1  0.250000  0.598657  0.382997  1
  P  P25  1  0.250000  0.901343  0.882997  1
  P  P26  1  0.750000  0.401343  0.617003  1
  P  P27  1  0.750000  0.098657  0.117003  1
  Rh  Rh28  1  0.250000  0.403732  0.484096  1
  Rh  Rh29  1  0.250000  0.096268  0.984096  1
  Rh  Rh30  1  0.750000  0.596268  0.515904  1
  Rh  Rh31  1  0.750000  0.903732  0.015904  1
  Rh  Rh32  1  0.250000  0.226197  0.179774  1
  Rh  Rh33  1  0.250000  0.273803  0.679774  1
  Rh  Rh34  1  0.750000  0.773803  0.820226  1
  Rh  Rh35  1  0.750000  0.726197  0.320226  1
