# generated using pymatgen
data_Ba2URhSe6
_symmetry_space_group_name_H-M   'P 1'
_cell_length_a   7.24863200
_cell_length_b   7.24863074
_cell_length_c   6.30561000
_cell_angle_alpha   90.00000000
_cell_angle_beta   90.00000000
_cell_angle_gamma   120.00000575
_symmetry_Int_Tables_number   1
_chemical_formula_structural   Ba2URhSe6
_chemical_formula_sum   'Ba2 U1 Rh1 Se6'
_cell_volume   286.92589252
_cell_formula_units_Z   1
loop_
 _symmetry_equiv_pos_site_id
 _symmetry_equiv_pos_as_xyz
  1  'x, y, z'
loop_
 _atom_site_type_symbol
 _atom_site_label
 _atom_site_symmetry_multiplicity
 _atom_site_fract_x
 _atom_site_fract_y
 _atom_site_fract_z
 _atom_site_occupancy
  Ba  Ba0  1  0.333333  0.666667  0.796230  1
  Ba  Ba1  1  0.666667  0.333333  0.203770  1
  U  U2  1  0.000000  0.000000  0.500000  1
  Rh  Rh3  1  0.000000  0.000000  0.000000  1
  Se  Se4  1  0.168945  0.831055  0.225478  1
  Se  Se5  1  0.168945  0.337889  0.225478  1
  Se  Se6  1  0.662111  0.831055  0.225478  1
  Se  Se7  1  0.831055  0.168945  0.774522  1
  Se  Se8  1  0.831055  0.662111  0.774522  1
  Se  Se9  1  0.337889  0.168945  0.774522  1
