# generated using pymatgen
data_GdDy7(TeO6)4
_symmetry_space_group_name_H-M   'P 1'
_cell_length_a   5.32188950
_cell_length_b   9.16905820
_cell_length_c   10.04372496
_cell_angle_alpha   90.09978972
_cell_angle_beta   89.98041082
_cell_angle_gamma   89.95432353
_symmetry_Int_Tables_number   1
_chemical_formula_structural   GdDy7(TeO6)4
_chemical_formula_sum   'Gd1 Dy7 Te4 O24'
_cell_volume   490.09985221
_cell_formula_units_Z   1
loop_
 _symmetry_equiv_pos_site_id
 _symmetry_equiv_pos_as_xyz
  1  'x, y, z'
loop_
 _atom_site_type_symbol
 _atom_site_label
 _atom_site_symmetry_multiplicity
 _atom_site_fract_x
 _atom_site_fract_y
 _atom_site_fract_z
 _atom_site_occupancy
  Gd  Gd0  1  0.036903  0.217335  0.136133  1
  Dy  Dy1  1  0.480032  0.896524  0.038495  1
  Dy  Dy2  1  0.979815  0.603839  0.960942  1
  Dy  Dy3  1  0.520560  0.396601  0.461559  1
  Dy  Dy4  1  0.019537  0.103297  0.539003  1
  Dy  Dy5  1  0.461295  0.782488  0.635341  1
  Dy  Dy6  1  0.961369  0.716920  0.365257  1
  Dy  Dy7  1  0.537928  0.283112  0.864177  1
  Te  Te8  1  0.961191  0.994319  0.851863  1
  Te  Te9  1  0.461629  0.506631  0.147273  1
  Te  Te10  1  0.038613  0.494939  0.647303  1
  Te  Te11  1  0.538405  0.003894  0.353924  1
  O  O12  1  0.244624  0.585389  0.504931  1
  O  O13  1  0.744132  0.913561  0.496031  1
  O  O14  1  0.753040  0.084863  0.993521  1
  O  O15  1  0.256370  0.416412  0.004289  1
  O  O16  1  0.267617  0.884843  0.433132  1
  O  O17  1  0.767670  0.614282  0.567283  1
  O  O18  1  0.730255  0.387012  0.065707  1
  O  O19  1  0.232885  0.113736  0.930872  1
  O  O20  1  0.180942  0.641270  0.178211  1
  O  O21  1  0.681606  0.858557  0.821257  1
  O  O22  1  0.817563  0.139797  0.324974  1
  O  O23  1  0.318968  0.359585  0.677967  1
  O  O24  1  0.316904  0.360289  0.261818  1
  O  O25  1  0.813513  0.141032  0.738448  1
  O  O26  1  0.688007  0.858721  0.239113  1
  O  O27  1  0.186402  0.641236  0.761287  1
  O  O28  1  0.332680  0.049259  0.202285  1
  O  O29  1  0.830218  0.449497  0.798188  1
  O  O30  1  0.670980  0.550884  0.298271  1
  O  O31  1  0.169415  0.948677  0.700978  1
  O  O32  1  0.411254  0.155415  0.471903  1
  O  O33  1  0.913120  0.344432  0.528181  1
  O  O34  1  0.587633  0.656711  0.028407  1
  O  O35  1  0.086928  0.844644  0.971672  1
