# generated using pymatgen
data_Cs3Rb5(ZrSe4)2
_symmetry_space_group_name_H-M   'P 1'
_cell_length_a   8.77331800
_cell_length_b   10.85785500
_cell_length_c   16.26550300
_cell_angle_alpha   90.00000000
_cell_angle_beta   90.00000000
_cell_angle_gamma   90.00000000
_symmetry_Int_Tables_number   1
_chemical_formula_structural   Cs3Rb5(ZrSe4)2
_chemical_formula_sum   'Cs6 Rb10 Zr4 Se16'
_cell_volume   1549.44229579
_cell_formula_units_Z   2
loop_
 _symmetry_equiv_pos_site_id
 _symmetry_equiv_pos_as_xyz
  1  'x, y, z'
loop_
 _atom_site_type_symbol
 _atom_site_label
 _atom_site_symmetry_multiplicity
 _atom_site_fract_x
 _atom_site_fract_y
 _atom_site_fract_z
 _atom_site_occupancy
  Cs  Cs0  1  0.000447  0.998463  0.998958  1
  Cs  Cs1  1  0.500447  0.001537  0.501042  1
  Cs  Cs2  1  0.000447  0.501537  0.998958  1
  Cs  Cs3  1  0.500447  0.498463  0.501042  1
  Cs  Cs4  1  0.990563  0.750000  0.428824  1
  Cs  Cs5  1  0.490563  0.250000  0.071176  1
  Rb  Rb6  1  0.024011  0.250000  0.570250  1
  Rb  Rb7  1  0.524011  0.750000  0.929750  1
  Rb  Rb8  1  0.830991  0.053927  0.269845  1
  Rb  Rb9  1  0.330991  0.946073  0.230155  1
  Rb  Rb10  1  0.167411  0.556536  0.730857  1
  Rb  Rb11  1  0.667411  0.443464  0.769143  1
  Rb  Rb12  1  0.167411  0.943464  0.730857  1
  Rb  Rb13  1  0.667411  0.056536  0.769143  1
  Rb  Rb14  1  0.830991  0.446073  0.269845  1
  Rb  Rb15  1  0.330991  0.553927  0.230155  1
  Zr  Zr16  1  0.767911  0.750000  0.672681  1
  Zr  Zr17  1  0.229713  0.250000  0.329237  1
  Zr  Zr18  1  0.729713  0.750000  0.170763  1
  Zr  Zr19  1  0.267911  0.250000  0.827319  1
  Se  Se20  1  0.976400  0.250000  0.822535  1
  Se  Se21  1  0.521400  0.250000  0.322331  1
  Se  Se22  1  0.476400  0.750000  0.677465  1
  Se  Se23  1  0.021400  0.750000  0.177669  1
  Se  Se24  1  0.637461  0.559327  0.095578  1
  Se  Se25  1  0.137461  0.440673  0.404422  1
  Se  Se26  1  0.361577  0.057844  0.901300  1
  Se  Se27  1  0.861577  0.942156  0.598700  1
  Se  Se28  1  0.361577  0.442156  0.901300  1
  Se  Se29  1  0.861577  0.557844  0.598700  1
  Se  Se30  1  0.637461  0.940673  0.095578  1
  Se  Se31  1  0.137461  0.059327  0.404422  1
  Se  Se32  1  0.617479  0.750000  0.317100  1
  Se  Se33  1  0.117479  0.250000  0.182900  1
  Se  Se34  1  0.376751  0.250000  0.680108  1
  Se  Se35  1  0.876751  0.750000  0.819892  1
