# generated using pymatgen
data_Lu6Al6GeAu5
_symmetry_space_group_name_H-M   'P 1'
_cell_length_a   7.03706800
_cell_length_b   7.03706757
_cell_length_c   8.40553400
_cell_angle_alpha   90.00000000
_cell_angle_beta   90.00000000
_cell_angle_gamma   119.99998828
_symmetry_Int_Tables_number   1
_chemical_formula_structural   Lu6Al6GeAu5
_chemical_formula_sum   'Lu6 Al6 Ge1 Au5'
_cell_volume   360.47857764
_cell_formula_units_Z   1
loop_
 _symmetry_equiv_pos_site_id
 _symmetry_equiv_pos_as_xyz
  1  'x, y, z'
loop_
 _atom_site_type_symbol
 _atom_site_label
 _atom_site_symmetry_multiplicity
 _atom_site_fract_x
 _atom_site_fract_y
 _atom_site_fract_z
 _atom_site_occupancy
  Lu  Lu0  1  0.581504  0.001581  0.747530  1
  Lu  Lu1  1  0.998419  0.579923  0.747530  1
  Lu  Lu2  1  0.420077  0.418496  0.747530  1
  Lu  Lu3  1  0.998379  0.579899  0.252549  1
  Lu  Lu4  1  0.581520  0.001621  0.252549  1
  Lu  Lu5  1  0.420101  0.418480  0.252549  1
  Al  Al6  1  0.751568  0.761456  0.999940  1
  Al  Al7  1  0.238544  0.990112  0.999940  1
  Al  Al8  1  0.009888  0.248432  0.999940  1
  Al  Al9  1  0.759023  0.758120  0.499927  1
  Al  Al10  1  0.241880  0.000903  0.499927  1
  Al  Al11  1  0.999097  0.240977  0.499927  1
  Ge  Ge12  1  0.666667  0.333333  0.000370  1
  Au  Au13  1  0.000000  0.000000  0.753795  1
  Au  Au14  1  0.000000  0.000000  0.246093  1
  Au  Au15  1  0.666667  0.333333  0.500062  1
  Au  Au16  1  0.333333  0.666667  0.500014  1
  Au  Au17  1  0.333333  0.666667  0.999832  1
