# generated using pymatgen
data_NdTh2Al2ZnPt3
_symmetry_space_group_name_H-M   'P 1'
_cell_length_a   7.30628417
_cell_length_b   7.30628358
_cell_length_c   4.15250000
_cell_angle_alpha   90.00000000
_cell_angle_beta   90.00000000
_cell_angle_gamma   119.47468704
_symmetry_Int_Tables_number   1
_chemical_formula_structural   NdTh2Al2ZnPt3
_chemical_formula_sum   'Nd1 Th2 Al2 Zn1 Pt3'
_cell_volume   192.97808796
_cell_formula_units_Z   1
loop_
 _symmetry_equiv_pos_site_id
 _symmetry_equiv_pos_as_xyz
  1  'x, y, z'
loop_
 _atom_site_type_symbol
 _atom_site_label
 _atom_site_symmetry_multiplicity
 _atom_site_fract_x
 _atom_site_fract_y
 _atom_site_fract_z
 _atom_site_occupancy
  Nd  Nd0  1  0.420700  0.420700  0.500000  1
  Th  Th1  1  0.584074  0.994549  0.500000  1
  Th  Th2  1  0.994549  0.584074  0.500000  1
  Al  Al3  1  0.232477  0.005662  0.000000  1
  Al  Al4  1  0.005662  0.232477  0.000000  1
  Zn  Zn5  1  0.758996  0.758996  0.000000  1
  Pt  Pt6  1  0.677938  0.318329  0.000000  1
  Pt  Pt7  1  0.318329  0.677938  0.000000  1
  Pt  Pt8  1  0.007278  0.007278  0.500000  1
