# generated using pymatgen
data_YbDy2Ho(B4Os)4
_symmetry_space_group_name_H-M   'P 1'
_cell_length_a   3.55845200
_cell_length_b   5.97108563
_cell_length_c   11.54187308
_cell_angle_alpha   89.98067692
_cell_angle_beta   90.00000000
_cell_angle_gamma   90.00000000
_symmetry_Int_Tables_number   1
_chemical_formula_structural   YbDy2Ho(B4Os)4
_chemical_formula_sum   'Yb1 Dy2 Ho1 B16 Os4'
_cell_volume   245.23964615
_cell_formula_units_Z   1
loop_
 _symmetry_equiv_pos_site_id
 _symmetry_equiv_pos_as_xyz
  1  'x, y, z'
loop_
 _atom_site_type_symbol
 _atom_site_label
 _atom_site_symmetry_multiplicity
 _atom_site_fract_x
 _atom_site_fract_y
 _atom_site_fract_z
 _atom_site_occupancy
  Yb  Yb0  1  0.000000  0.370793  0.149112  1
  Dy  Dy1  1  0.000000  0.127852  0.650372  1
  Dy  Dy2  1  0.000000  0.871782  0.348785  1
  Ho  Ho3  1  0.000000  0.627856  0.850901  1
  B  B4  1  0.500000  0.475098  0.691983  1
  B  B5  1  0.500000  0.525381  0.308060  1
  B  B6  1  0.500000  0.974252  0.809022  1
  B  B7  1  0.500000  0.025546  0.190727  1
  B  B8  1  0.500000  0.288978  0.815233  1
  B  B9  1  0.500000  0.711172  0.184829  1
  B  B10  1  0.500000  0.788215  0.686347  1
  B  B11  1  0.500000  0.212649  0.313579  1
  B  B12  1  0.500000  0.363724  0.970142  1
  B  B13  1  0.500000  0.635872  0.030141  1
  B  B14  1  0.500000  0.863507  0.530313  1
  B  B15  1  0.500000  0.136500  0.469964  1
  B  B16  1  0.500000  0.387479  0.547063  1
  B  B17  1  0.500000  0.611892  0.452834  1
  B  B18  1  0.500000  0.887303  0.953802  1
  B  B19  1  0.500000  0.114095  0.047049  1
  Os  Os20  1  0.000000  0.140406  0.907100  1
  Os  Os21  1  0.000000  0.859952  0.091642  1
  Os  Os22  1  0.000000  0.641101  0.593223  1
  Os  Os23  1  0.000000  0.358598  0.407778  1
