# generated using pymatgen
data_La12Fe(NiBr4)3
_symmetry_space_group_name_H-M   'P 1'
_cell_length_a   10.56516294
_cell_length_b   10.50327329
_cell_length_c   10.49296374
_cell_angle_alpha   107.85230158
_cell_angle_beta   108.09578065
_cell_angle_gamma   112.66180194
_symmetry_Int_Tables_number   1
_chemical_formula_structural   La12Fe(NiBr4)3
_chemical_formula_sum   'La12 Fe1 Ni3 Br12'
_cell_volume   892.65433548
_cell_formula_units_Z   1
loop_
 _symmetry_equiv_pos_site_id
 _symmetry_equiv_pos_as_xyz
  1  'x, y, z'
loop_
 _atom_site_type_symbol
 _atom_site_label
 _atom_site_symmetry_multiplicity
 _atom_site_fract_x
 _atom_site_fract_y
 _atom_site_fract_z
 _atom_site_occupancy
  La  La0  1  0.396494  0.615674  0.010831  1
  La  La1  1  0.614456  0.395241  0.010995  1
  La  La2  1  0.638050  0.138046  0.276099  1
  La  La3  1  0.861998  0.362009  0.723987  1
  La  La4  1  0.412104  0.408303  0.260962  1
  La  La5  1  0.139822  0.145038  0.735518  1
  La  La6  1  0.110020  0.346637  0.505524  1
  La  La7  1  0.837115  0.606223  0.489385  1
  La  La8  1  0.595602  0.590560  0.735492  1
  La  La9  1  0.848878  0.852628  0.260988  1
  La  La10  1  0.652302  0.883164  0.489427  1
  La  La11  1  0.395526  0.158898  0.505422  1
  Fe  Fe12  1  0.625104  0.625038  0.250162  1
  Ni  Ni13  1  0.371339  0.371796  0.743058  1
  Ni  Ni14  1  0.878060  0.126125  0.501380  1
  Ni  Ni15  1  0.623271  0.375136  0.501350  1
  Br  Br16  1  0.368233  0.633093  0.500677  1
  Br  Br17  1  0.132493  0.867570  0.500690  1
  Br  Br18  1  0.119201  0.119160  0.238414  1
  Br  Br19  1  0.882658  0.882627  0.765286  1
  Br  Br20  1  0.886822  0.634723  0.998270  1
  Br  Br21  1  0.636133  0.889412  0.000366  1
  Br  Br22  1  0.614690  0.116285  0.752019  1
  Br  Br23  1  0.360159  0.861665  0.246556  1
  Br  Br24  1  0.364249  0.110897  0.000342  1
  Br  Br25  1  0.111463  0.363485  0.998247  1
  Br  Br26  1  0.886404  0.384860  0.246522  1
  Br  Br27  1  0.137353  0.635706  0.752030  1
