# generated using pymatgen
data_Tb2Er3CuSi3
_symmetry_space_group_name_H-M   'P 1'
_cell_length_a   7.14365700
_cell_length_b   7.91546400
_cell_length_c   14.56113200
_cell_angle_alpha   90.00000000
_cell_angle_beta   90.00000000
_cell_angle_gamma   90.00000000
_symmetry_Int_Tables_number   1
_chemical_formula_structural   Tb2Er3CuSi3
_chemical_formula_sum   'Tb8 Er12 Cu4 Si12'
_cell_volume   823.36444821
_cell_formula_units_Z   4
loop_
 _symmetry_equiv_pos_site_id
 _symmetry_equiv_pos_as_xyz
  1  'x, y, z'
loop_
 _atom_site_type_symbol
 _atom_site_label
 _atom_site_symmetry_multiplicity
 _atom_site_fract_x
 _atom_site_fract_y
 _atom_site_fract_z
 _atom_site_occupancy
  Tb  Tb0  1  0.512777  0.686913  0.587476  1
  Tb  Tb1  1  0.012777  0.813087  0.912524  1
  Tb  Tb2  1  0.487223  0.313087  0.087476  1
  Tb  Tb3  1  0.987223  0.186913  0.412524  1
  Tb  Tb4  1  0.487223  0.313087  0.412524  1
  Tb  Tb5  1  0.987223  0.186913  0.087476  1
  Tb  Tb6  1  0.512777  0.686913  0.912524  1
  Tb  Tb7  1  0.012777  0.813087  0.587476  1
  Er  Er8  1  0.681678  0.174247  0.626351  1
  Er  Er9  1  0.181678  0.325753  0.873649  1
  Er  Er10  1  0.318322  0.825753  0.126351  1
  Er  Er11  1  0.818322  0.674247  0.373649  1
  Er  Er12  1  0.318322  0.825753  0.373649  1
  Er  Er13  1  0.818322  0.674247  0.126351  1
  Er  Er14  1  0.681678  0.174247  0.873649  1
  Er  Er15  1  0.181678  0.325753  0.626351  1
  Er  Er16  1  0.829466  0.523124  0.750000  1
  Er  Er17  1  0.329466  0.976876  0.750000  1
  Er  Er18  1  0.170534  0.476876  0.250000  1
  Er  Er19  1  0.670534  0.023124  0.250000  1
  Cu  Cu20  1  0.469370  0.401515  0.750000  1
  Cu  Cu21  1  0.969370  0.098485  0.750000  1
  Cu  Cu22  1  0.530630  0.598485  0.250000  1
  Cu  Cu23  1  0.030630  0.901515  0.250000  1
  Si  Si24  1  0.659454  0.970382  0.460608  1
  Si  Si25  1  0.159454  0.529618  0.039392  1
  Si  Si26  1  0.340546  0.029618  0.960608  1
  Si  Si27  1  0.840546  0.470382  0.539392  1
  Si  Si28  1  0.340546  0.029618  0.539392  1
  Si  Si29  1  0.840546  0.470382  0.960608  1
  Si  Si30  1  0.659454  0.970382  0.039392  1
  Si  Si31  1  0.159454  0.529618  0.460608  1
  Si  Si32  1  0.730641  0.876386  0.750000  1
  Si  Si33  1  0.230641  0.623614  0.750000  1
  Si  Si34  1  0.269359  0.123614  0.250000  1
  Si  Si35  1  0.769359  0.376386  0.250000  1
