# generated using pymatgen
data_La8YbGd11Si16
_symmetry_space_group_name_H-M   'P 1'
_cell_length_a   7.84016676
_cell_length_b   7.84016684
_cell_length_c   14.60347900
_cell_angle_alpha   90.03843998
_cell_angle_beta   89.96156002
_cell_angle_gamma   90.05073586
_symmetry_Int_Tables_number   1
_chemical_formula_structural   La8YbGd11Si16
_chemical_formula_sum   'La8 Yb1 Gd11 Si16'
_cell_volume   897.64903786
_cell_formula_units_Z   1
loop_
 _symmetry_equiv_pos_site_id
 _symmetry_equiv_pos_as_xyz
  1  'x, y, z'
loop_
 _atom_site_type_symbol
 _atom_site_label
 _atom_site_symmetry_multiplicity
 _atom_site_fract_x
 _atom_site_fract_y
 _atom_site_fract_z
 _atom_site_occupancy
  La  La0  1  0.990520  0.636138  0.043437  1
  La  La1  1  0.012469  0.363082  0.542660  1
  La  La2  1  0.636138  0.990520  0.956563  1
  La  La3  1  0.135395  0.509936  0.794373  1
  La  La4  1  0.863102  0.488845  0.292310  1
  La  La5  1  0.509936  0.135395  0.205627  1
  La  La6  1  0.488845  0.863102  0.707690  1
  La  La7  1  0.363082  0.012469  0.457340  1
  Yb  Yb8  1  0.314603  0.314603  0.000000  1
  Gd  Gd9  1  0.365117  0.489556  0.375971  1
  Gd  Gd10  1  0.864308  0.008809  0.374812  1
  Gd  Gd11  1  0.993509  0.133835  0.124371  1
  Gd  Gd12  1  0.008809  0.864308  0.625188  1
  Gd  Gd13  1  0.633665  0.508381  0.875918  1
  Gd  Gd14  1  0.489556  0.365117  0.624029  1
  Gd  Gd15  1  0.508381  0.633665  0.124082  1
  Gd  Gd16  1  0.133835  0.993509  0.875629  1
  Gd  Gd17  1  0.685283  0.685283  0.500000  1
  Gd  Gd18  1  0.814249  0.186397  0.748980  1
  Gd  Gd19  1  0.186397  0.814249  0.251020  1
  Si  Si20  1  0.070248  0.711558  0.439522  1
  Si  Si21  1  0.923446  0.287602  0.938899  1
  Si  Si22  1  0.711558  0.070248  0.560478  1
  Si  Si23  1  0.211397  0.429347  0.191732  1
  Si  Si24  1  0.787755  0.571135  0.690704  1
  Si  Si25  1  0.429347  0.211397  0.808268  1
  Si  Si26  1  0.571135  0.787755  0.309296  1
  Si  Si27  1  0.287602  0.923446  0.061101  1
  Si  Si28  1  0.843183  0.796775  0.807435  1
  Si  Si29  1  0.158049  0.202358  0.306186  1
  Si  Si30  1  0.796775  0.843183  0.192565  1
  Si  Si31  1  0.296452  0.659092  0.556620  1
  Si  Si32  1  0.709517  0.344886  0.058515  1
  Si  Si33  1  0.659092  0.296452  0.443380  1
  Si  Si34  1  0.344886  0.709517  0.941485  1
  Si  Si35  1  0.202358  0.158049  0.693814  1
