# generated using pymatgen
data_PuPaReB6
_symmetry_space_group_name_H-M   'P 1'
_cell_length_a   3.67964700
_cell_length_b   9.33758100
_cell_length_c   11.43246200
_cell_angle_alpha   90.00000000
_cell_angle_beta   90.00000000
_cell_angle_gamma   90.00000000
_symmetry_Int_Tables_number   1
_chemical_formula_structural   PuPaReB6
_chemical_formula_sum   'Pu4 Pa4 Re4 B24'
_cell_volume   392.80798374
_cell_formula_units_Z   4
loop_
 _symmetry_equiv_pos_site_id
 _symmetry_equiv_pos_as_xyz
  1  'x, y, z'
loop_
 _atom_site_type_symbol
 _atom_site_label
 _atom_site_symmetry_multiplicity
 _atom_site_fract_x
 _atom_site_fract_y
 _atom_site_fract_z
 _atom_site_occupancy
  Pu  Pu0  1  0.000000  0.954875  0.391145  1
  Pu  Pu1  1  0.000000  0.045125  0.608855  1
  Pu  Pu2  1  0.000000  0.454875  0.108855  1
  Pu  Pu3  1  0.000000  0.545125  0.891145  1
  Pa  Pa4  1  0.000000  0.335200  0.407258  1
  Pa  Pa5  1  0.000000  0.664800  0.592742  1
  Pa  Pa6  1  0.000000  0.835200  0.092742  1
  Pa  Pa7  1  0.000000  0.164800  0.907258  1
  Re  Re8  1  0.000000  0.646536  0.320447  1
  Re  Re9  1  0.000000  0.353464  0.679553  1
  Re  Re10  1  0.000000  0.146536  0.179553  1
  Re  Re11  1  0.000000  0.853464  0.820447  1
  B  B12  1  0.500000  0.551954  0.431477  1
  B  B13  1  0.500000  0.448046  0.568523  1
  B  B14  1  0.500000  0.051954  0.068523  1
  B  B15  1  0.500000  0.948046  0.931477  1
  B  B16  1  0.500000  0.744229  0.423497  1
  B  B17  1  0.500000  0.255771  0.576503  1
  B  B18  1  0.500000  0.244229  0.076503  1
  B  B19  1  0.500000  0.755771  0.923497  1
  B  B20  1  0.500000  0.804278  0.273855  1
  B  B21  1  0.500000  0.195722  0.726145  1
  B  B22  1  0.500000  0.304278  0.226145  1
  B  B23  1  0.500000  0.695722  0.773855  1
  B  B24  1  0.500000  0.646604  0.188434  1
  B  B25  1  0.500000  0.353396  0.811566  1
  B  B26  1  0.500000  0.146604  0.311566  1
  B  B27  1  0.500000  0.853396  0.688434  1
  B  B28  1  0.500000  0.989168  0.219182  1
  B  B29  1  0.500000  0.010832  0.780818  1
  B  B30  1  0.500000  0.489168  0.280818  1
  B  B31  1  0.500000  0.510832  0.719182  1
  B  B32  1  0.500000  0.643367  0.039942  1
  B  B33  1  0.500000  0.356633  0.960058  1
  B  B34  1  0.500000  0.143367  0.460058  1
  B  B35  1  0.500000  0.856633  0.539942  1
