# generated using pymatgen
data_Tb3Hf2(Co2Si5)2
_symmetry_space_group_name_H-M   'P 1'
_cell_length_a   12.22818500
_cell_length_b   12.22818500
_cell_length_c   4.01627500
_cell_angle_alpha   90.00000000
_cell_angle_beta   90.00000000
_cell_angle_gamma   90.00000000
_symmetry_Int_Tables_number   1
_chemical_formula_structural   Tb3Hf2(Co2Si5)2
_chemical_formula_sum   'Tb6 Hf4 Co8 Si20'
_cell_volume   600.54761005
_cell_formula_units_Z   2
loop_
 _symmetry_equiv_pos_site_id
 _symmetry_equiv_pos_as_xyz
  1  'x, y, z'
loop_
 _atom_site_type_symbol
 _atom_site_label
 _atom_site_symmetry_multiplicity
 _atom_site_fract_x
 _atom_site_fract_y
 _atom_site_fract_z
 _atom_site_occupancy
  Tb  Tb0  1  0.000000  0.000000  0.000000  1
  Tb  Tb1  1  0.500000  0.500000  0.000000  1
  Tb  Tb2  1  0.887517  0.387517  0.500000  1
  Tb  Tb3  1  0.387517  0.112483  0.500000  1
  Tb  Tb4  1  0.612483  0.887517  0.500000  1
  Tb  Tb5  1  0.112483  0.612483  0.500000  1
  Hf  Hf6  1  0.676365  0.176365  0.500000  1
  Hf  Hf7  1  0.176365  0.323635  0.500000  1
  Hf  Hf8  1  0.823635  0.676365  0.500000  1
  Hf  Hf9  1  0.323635  0.823635  0.500000  1
  Co  Co10  1  0.526925  0.255081  0.000000  1
  Co  Co11  1  0.255081  0.473075  0.000000  1
  Co  Co12  1  0.744919  0.526925  0.000000  1
  Co  Co13  1  0.473075  0.744919  0.000000  1
  Co  Co14  1  0.973075  0.755081  0.000000  1
  Co  Co15  1  0.026925  0.244919  0.000000  1
  Co  Co16  1  0.755081  0.026925  0.000000  1
  Co  Co17  1  0.244919  0.973075  0.000000  1
  Si  Si18  1  0.569757  0.069757  0.000000  1
  Si  Si19  1  0.069757  0.430243  0.000000  1
  Si  Si20  1  0.930243  0.569757  0.000000  1
  Si  Si21  1  0.430243  0.930243  0.000000  1
  Si  Si22  1  0.198181  0.156780  0.000000  1
  Si  Si23  1  0.156780  0.801819  0.000000  1
  Si  Si24  1  0.843220  0.198181  0.000000  1
  Si  Si25  1  0.801819  0.843220  0.000000  1
  Si  Si26  1  0.301819  0.656780  0.000000  1
  Si  Si27  1  0.698181  0.343220  0.000000  1
  Si  Si28  1  0.656780  0.698181  0.000000  1
  Si  Si29  1  0.343220  0.301819  0.000000  1
  Si  Si30  1  0.004791  0.167597  0.500000  1
  Si  Si31  1  0.167597  0.995209  0.500000  1
  Si  Si32  1  0.832403  0.004791  0.500000  1
  Si  Si33  1  0.995209  0.832403  0.500000  1
  Si  Si34  1  0.495209  0.667597  0.500000  1
  Si  Si35  1  0.504791  0.332403  0.500000  1
  Si  Si36  1  0.667597  0.504791  0.500000  1
  Si  Si37  1  0.332403  0.495209  0.500000  1
