# generated using pymatgen
data_Dy5Co2Au
_symmetry_space_group_name_H-M   'P 1'
_cell_length_a   8.48363736
_cell_length_b   8.48363797
_cell_length_c   8.48363750
_cell_angle_alpha   127.57073567
_cell_angle_beta   127.57073501
_cell_angle_gamma   77.32145541
_symmetry_Int_Tables_number   1
_chemical_formula_structural   Dy5Co2Au
_chemical_formula_sum   'Dy10 Co4 Au2'
_cell_volume   372.13661720
_cell_formula_units_Z   2
loop_
 _symmetry_equiv_pos_site_id
 _symmetry_equiv_pos_as_xyz
  1  'x, y, z'
loop_
 _atom_site_type_symbol
 _atom_site_label
 _atom_site_symmetry_multiplicity
 _atom_site_fract_x
 _atom_site_fract_y
 _atom_site_fract_z
 _atom_site_occupancy
  Dy  Dy0  1  0.000000  0.000000  0.000000  1
  Dy  Dy1  1  0.500000  0.500000  0.000000  1
  Dy  Dy2  1  0.802727  0.302727  0.833648  1
  Dy  Dy3  1  0.197273  0.697273  0.166353  1
  Dy  Dy4  1  0.469080  0.969080  0.166353  1
  Dy  Dy5  1  0.302727  0.469080  0.500000  1
  Dy  Dy6  1  0.030920  0.197273  0.500000  1
  Dy  Dy7  1  0.530920  0.030920  0.833647  1
  Dy  Dy8  1  0.697273  0.530920  0.500000  1
  Dy  Dy9  1  0.969080  0.802727  0.500000  1
  Co  Co10  1  0.123655  0.623655  0.747311  1
  Co  Co11  1  0.876345  0.376345  0.252689  1
  Co  Co12  1  0.623655  0.876345  0.500000  1
  Co  Co13  1  0.376345  0.123655  0.500000  1
  Au  Au14  1  0.250000  0.250000  0.000000  1
  Au  Au15  1  0.750000  0.750000  0.000000  1
