# generated using pymatgen
data_LiH3F4
_symmetry_space_group_name_H-M   'P 1'
_cell_length_a   3.07070679
_cell_length_b   5.01231189
_cell_length_c   5.60598690
_cell_angle_alpha   109.61727464
_cell_angle_beta   99.57557040
_cell_angle_gamma   107.91468162
_symmetry_Int_Tables_number   1
_chemical_formula_structural   LiH3F4
_chemical_formula_sum   'Li1 H3 F4'
_cell_volume   73.75276118
_cell_formula_units_Z   1
loop_
 _symmetry_equiv_pos_site_id
 _symmetry_equiv_pos_as_xyz
  1  'x, y, z'
loop_
 _atom_site_type_symbol
 _atom_site_label
 _atom_site_symmetry_multiplicity
 _atom_site_fract_x
 _atom_site_fract_y
 _atom_site_fract_z
 _atom_site_occupancy
  Li  Li0  1  0.899537  0.839891  0.551621  1
  H  H1  1  0.320273  0.545751  0.789231  1
  H  H2  1  0.460505  0.133688  0.313511  1
  H  H3  1  0.370304  0.339541  0.051890  1
  F  F4  1  0.393583  0.944144  0.355022  1
  F  F5  1  0.547369  0.389152  0.268343  1
  F  F6  1  0.199481  0.289918  0.835275  1
  F  F7  1  0.407243  0.735793  0.748092  1
