# generated using pymatgen
data_HoTm3(ScPt)4
_symmetry_space_group_name_H-M   'P 1'
_cell_length_a   4.61484600
_cell_length_b   6.91920502
_cell_length_c   8.35728631
_cell_angle_alpha   90.22417542
_cell_angle_beta   90.00000000
_cell_angle_gamma   90.00000000
_symmetry_Int_Tables_number   1
_chemical_formula_structural   HoTm3(ScPt)4
_chemical_formula_sum   'Ho1 Tm3 Sc4 Pt4'
_cell_volume   266.85501473
_cell_formula_units_Z   1
loop_
 _symmetry_equiv_pos_site_id
 _symmetry_equiv_pos_as_xyz
  1  'x, y, z'
loop_
 _atom_site_type_symbol
 _atom_site_label
 _atom_site_symmetry_multiplicity
 _atom_site_fract_x
 _atom_site_fract_y
 _atom_site_fract_z
 _atom_site_occupancy
  Ho  Ho0  1  0.750000  0.515343  0.824310  1
  Tm  Tm1  1  0.250000  0.984575  0.323776  1
  Tm  Tm2  1  0.750000  0.016810  0.675557  1
  Tm  Tm3  1  0.250000  0.483696  0.176312  1
  Sc  Sc4  1  0.750000  0.642153  0.426276  1
  Sc  Sc5  1  0.250000  0.358715  0.573244  1
  Sc  Sc6  1  0.750000  0.141385  0.073499  1
  Sc  Sc7  1  0.250000  0.857087  0.926047  1
  Pt  Pt8  1  0.250000  0.245977  0.902405  1
  Pt  Pt9  1  0.750000  0.752552  0.099298  1
  Pt  Pt10  1  0.250000  0.749431  0.596816  1
  Pt  Pt11  1  0.750000  0.252276  0.402459  1
