# generated using pymatgen
data_Dy3Ho8(Er3Bi4)3
_symmetry_space_group_name_H-M   'P 1'
_cell_length_a   8.22805324
_cell_length_b   9.48792900
_cell_length_c   11.99225400
_cell_angle_alpha   89.99915683
_cell_angle_beta   90.01244715
_cell_angle_gamma   89.99903652
_symmetry_Int_Tables_number   1
_chemical_formula_structural   Dy3Ho8(Er3Bi4)3
_chemical_formula_sum   'Dy3 Ho8 Er9 Bi12'
_cell_volume   936.20148852
_cell_formula_units_Z   1
loop_
 _symmetry_equiv_pos_site_id
 _symmetry_equiv_pos_as_xyz
  1  'x, y, z'
loop_
 _atom_site_type_symbol
 _atom_site_label
 _atom_site_symmetry_multiplicity
 _atom_site_fract_x
 _atom_site_fract_y
 _atom_site_fract_z
 _atom_site_occupancy
  Dy  Dy0  1  0.812930  0.250006  0.281694  1
  Dy  Dy1  1  0.686918  0.750015  0.781801  1
  Dy  Dy2  1  0.186792  0.750001  0.718255  1
  Ho  Ho3  1  0.353011  0.750025  0.216716  1
  Ho  Ho4  1  0.853014  0.750023  0.283255  1
  Ho  Ho5  1  0.646941  0.250007  0.783577  1
  Ho  Ho6  1  0.147183  0.249999  0.716584  1
  Ho  Ho7  1  0.692368  0.564925  0.059101  1
  Ho  Ho8  1  0.476006  0.250013  0.488342  1
  Ho  Ho9  1  0.976074  0.249996  0.011786  1
  Ho  Ho10  1  0.312675  0.250001  0.217798  1
  Er  Er11  1  0.192063  0.934974  0.440810  1
  Er  Er12  1  0.307803  0.064991  0.941022  1
  Er  Er13  1  0.808054  0.434968  0.559063  1
  Er  Er14  1  0.307809  0.434989  0.941020  1
  Er  Er15  1  0.808038  0.065028  0.559066  1
  Er  Er16  1  0.692348  0.935039  0.059093  1
  Er  Er17  1  0.192057  0.565028  0.440812  1
  Er  Er18  1  0.523896  0.750000  0.511419  1
  Er  Er19  1  0.024118  0.750020  0.988619  1
  Bi  Bi20  1  0.405636  0.750038  0.958048  1
  Bi  Bi21  1  0.905528  0.749998  0.541923  1
  Bi  Bi22  1  0.593750  0.249887  0.042541  1
  Bi  Bi23  1  0.094708  0.249996  0.457694  1
  Bi  Bi24  1  0.565214  0.995412  0.325617  1
  Bi  Bi25  1  0.066451  0.504661  0.174207  1
  Bi  Bi26  1  0.434299  0.495177  0.674059  1
  Bi  Bi27  1  0.934189  0.004943  0.826098  1
  Bi  Bi28  1  0.434303  0.004835  0.674064  1
  Bi  Bi29  1  0.934179  0.495067  0.826086  1
  Bi  Bi30  1  0.565205  0.504590  0.325634  1
  Bi  Bi31  1  0.066434  0.995347  0.174194  1
