# generated using pymatgen
data_Tm12AlNi4Pb
_symmetry_space_group_name_H-M   'P 1'
_cell_length_a   8.27867195
_cell_length_b   8.27867224
_cell_length_c   8.27867222
_cell_angle_alpha   112.43040561
_cell_angle_beta   110.16466645
_cell_angle_gamma   105.88572397
_symmetry_Int_Tables_number   1
_chemical_formula_structural   Tm12AlNi4Pb
_chemical_formula_sum   'Tm12 Al1 Ni4 Pb1'
_cell_volume   435.32271402
_cell_formula_units_Z   1
loop_
 _symmetry_equiv_pos_site_id
 _symmetry_equiv_pos_as_xyz
  1  'x, y, z'
loop_
 _atom_site_type_symbol
 _atom_site_label
 _atom_site_symmetry_multiplicity
 _atom_site_fract_x
 _atom_site_fract_y
 _atom_site_fract_z
 _atom_site_occupancy
  Tm  Tm0  1  0.432076  0.231791  0.200285  1
  Tm  Tm1  1  0.567924  0.768209  0.799715  1
  Tm  Tm2  1  0.031507  0.231791  0.799715  1
  Tm  Tm3  1  0.968493  0.768209  0.200285  1
  Tm  Tm4  1  0.179402  0.284874  0.464273  1
  Tm  Tm5  1  0.820598  0.715126  0.535727  1
  Tm  Tm6  1  0.179402  0.715126  0.894528  1
  Tm  Tm7  1  0.820598  0.284874  0.105472  1
  Tm  Tm8  1  0.323097  0.633975  0.310879  1
  Tm  Tm9  1  0.676903  0.366025  0.689121  1
  Tm  Tm10  1  0.323097  0.012217  0.689121  1
  Tm  Tm11  1  0.676903  0.987783  0.310879  1
  Al  Al12  1  0.000000  0.000000  0.000000  1
  Ni  Ni13  1  0.343004  0.000000  0.343004  1
  Ni  Ni14  1  0.656996  0.000000  0.656996  1
  Ni  Ni15  1  0.121964  0.621964  0.500000  1
  Ni  Ni16  1  0.878036  0.378036  0.500000  1
  Pb  Pb17  1  0.500000  0.500000  0.000000  1
