# generated using pymatgen
data_DyHoAl20RuRh3
_symmetry_space_group_name_H-M   'P 1'
_cell_length_a   6.84371694
_cell_length_b   6.84215158
_cell_length_c   9.14420711
_cell_angle_alpha   90.11927440
_cell_angle_beta   90.09396257
_cell_angle_gamma   97.22792800
_symmetry_Int_Tables_number   1
_chemical_formula_structural   DyHoAl20RuRh3
_chemical_formula_sum   'Dy1 Ho1 Al20 Ru1 Rh3'
_cell_volume   424.78007212
_cell_formula_units_Z   1
loop_
 _symmetry_equiv_pos_site_id
 _symmetry_equiv_pos_as_xyz
  1  'x, y, z'
loop_
 _atom_site_type_symbol
 _atom_site_label
 _atom_site_symmetry_multiplicity
 _atom_site_fract_x
 _atom_site_fract_y
 _atom_site_fract_z
 _atom_site_occupancy
  Dy  Dy0  1  0.868945  0.128047  0.749987  1
  Ho  Ho1  1  0.131291  0.871808  0.250096  1
  Al  Al2  1  0.621269  0.375897  0.548044  1
  Al  Al3  1  0.378639  0.624183  0.451883  1
  Al  Al4  1  0.378042  0.622600  0.049582  1
  Al  Al5  1  0.621868  0.377482  0.950479  1
  Al  Al6  1  0.221976  0.220491  0.499193  1
  Al  Al7  1  0.778065  0.779471  0.500674  1
  Al  Al8  1  0.777137  0.777439  0.000073  1
  Al  Al9  1  0.222901  0.222527  0.000054  1
  Al  Al10  1  0.845765  0.154779  0.103391  1
  Al  Al11  1  0.154325  0.845125  0.896726  1
  Al  Al12  1  0.155288  0.846343  0.602138  1
  Al  Al13  1  0.844798  0.153557  0.397736  1
  Al  Al14  1  0.856777  0.589441  0.749492  1
  Al  Al15  1  0.143256  0.410751  0.250501  1
  Al  Al16  1  0.410586  0.142507  0.749024  1
  Al  Al17  1  0.589222  0.857472  0.250968  1
  Al  Al18  1  0.225336  0.480387  0.749945  1
  Al  Al19  1  0.774769  0.519736  0.250051  1
  Al  Al20  1  0.519011  0.776067  0.746953  1
  Al  Al21  1  0.480859  0.223823  0.253040  1
  Ru  Ru22  1  0.499921  0.000001  0.499883  1
  Rh  Rh23  1  0.999989  0.500031  0.499929  1
  Rh  Rh24  1  0.999992  0.500032  0.000071  1
  Rh  Rh25  1  0.499974  0.000004  0.000085  1
