# generated using pymatgen
data_Tb9Y7(CdCo)4
_symmetry_space_group_name_H-M   'P 1'
_cell_length_a   9.56161590
_cell_length_b   9.56161593
_cell_length_c   9.56675600
_cell_angle_alpha   59.98221561
_cell_angle_beta   59.98221552
_cell_angle_gamma   60.05446193
_symmetry_Int_Tables_number   1
_chemical_formula_structural   Tb9Y7(CdCo)4
_chemical_formula_sum   'Tb9 Y7 Cd4 Co4'
_cell_volume   618.54860405
_cell_formula_units_Z   1
loop_
 _symmetry_equiv_pos_site_id
 _symmetry_equiv_pos_as_xyz
  1  'x, y, z'
loop_
 _atom_site_type_symbol
 _atom_site_label
 _atom_site_symmetry_multiplicity
 _atom_site_fract_x
 _atom_site_fract_y
 _atom_site_fract_z
 _atom_site_occupancy
  Tb  Tb0  1  0.596051  0.596051  0.596092  1
  Tb  Tb1  1  0.596051  0.596051  0.211808  1
  Tb  Tb2  1  0.598071  0.210657  0.595635  1
  Tb  Tb3  1  0.210657  0.598071  0.595635  1
  Tb  Tb4  1  0.059948  0.437855  0.439912  1
  Tb  Tb5  1  0.437855  0.059948  0.062284  1
  Tb  Tb6  1  0.437855  0.059948  0.439912  1
  Tb  Tb7  1  0.059948  0.437855  0.062284  1
  Tb  Tb8  1  0.438630  0.438630  0.061370  1
  Y  Y9  1  0.060766  0.060766  0.439234  1
  Y  Y10  1  0.188876  0.811476  0.812147  1
  Y  Y11  1  0.811476  0.188876  0.187500  1
  Y  Y12  1  0.811476  0.188876  0.812147  1
  Y  Y13  1  0.188876  0.811476  0.187500  1
  Y  Y14  1  0.810929  0.810929  0.189071  1
  Y  Y15  1  0.189027  0.189027  0.810973  1
  Cd  Cd16  1  0.830857  0.830857  0.830006  1
  Cd  Cd17  1  0.830857  0.830857  0.508278  1
  Cd  Cd18  1  0.830785  0.506877  0.831168  1
  Cd  Cd19  1  0.506877  0.830785  0.831168  1
  Co  Co20  1  0.391208  0.391208  0.390244  1
  Co  Co21  1  0.391208  0.391208  0.827340  1
  Co  Co22  1  0.394563  0.827152  0.389143  1
  Co  Co23  1  0.827152  0.394563  0.389143  1
