# generated using pymatgen
data_CaLa(SbPd)4
_symmetry_space_group_name_H-M   'P 1'
_cell_length_a   4.63254500
_cell_length_b   4.63254500
_cell_length_c   10.83795200
_cell_angle_alpha   90.00000000
_cell_angle_beta   90.00000000
_cell_angle_gamma   90.00000000
_symmetry_Int_Tables_number   1
_chemical_formula_structural   CaLa(SbPd)4
_chemical_formula_sum   'Ca1 La1 Sb4 Pd4'
_cell_volume   232.58757819
_cell_formula_units_Z   1
loop_
 _symmetry_equiv_pos_site_id
 _symmetry_equiv_pos_as_xyz
  1  'x, y, z'
loop_
 _atom_site_type_symbol
 _atom_site_label
 _atom_site_symmetry_multiplicity
 _atom_site_fract_x
 _atom_site_fract_y
 _atom_site_fract_z
 _atom_site_occupancy
  Ca  Ca0  1  0.000000  0.500000  0.235008  1
  La  La1  1  0.500000  0.000000  0.758019  1
  Sb  Sb2  1  0.000000  0.000000  0.499982  1
  Sb  Sb3  1  0.500000  0.500000  0.499982  1
  Sb  Sb4  1  0.000000  0.500000  0.872744  1
  Sb  Sb5  1  0.500000  0.000000  0.130462  1
  Pd  Pd6  1  0.000000  0.000000  0.000026  1
  Pd  Pd7  1  0.500000  0.500000  0.000026  1
  Pd  Pd8  1  0.000000  0.500000  0.631802  1
  Pd  Pd9  1  0.500000  0.000000  0.371948  1
