# generated using pymatgen
data_Tb10Nd6CdAg3Pt4
_symmetry_space_group_name_H-M   'P 1'
_cell_length_a   9.73463369
_cell_length_b   9.77804868
_cell_length_c   9.77804900
_cell_angle_alpha   59.99999553
_cell_angle_beta   59.85235493
_cell_angle_gamma   59.85235469
_symmetry_Int_Tables_number   1
_chemical_formula_structural   Tb10Nd6CdAg3Pt4
_chemical_formula_sum   'Tb10 Nd6 Cd1 Ag3 Pt4'
_cell_volume   656.65339836
_cell_formula_units_Z   1
loop_
 _symmetry_equiv_pos_site_id
 _symmetry_equiv_pos_as_xyz
  1  'x, y, z'
loop_
 _atom_site_type_symbol
 _atom_site_label
 _atom_site_symmetry_multiplicity
 _atom_site_fract_x
 _atom_site_fract_y
 _atom_site_fract_z
 _atom_site_occupancy
  Tb  Tb0  1  0.352920  0.351551  0.351551  1
  Tb  Tb1  1  0.352920  0.351551  0.943979  1
  Tb  Tb2  1  0.352920  0.943979  0.351551  1
  Tb  Tb3  1  0.939395  0.353535  0.353535  1
  Tb  Tb4  1  0.811553  0.188636  0.188636  1
  Tb  Tb5  1  0.188977  0.810955  0.810955  1
  Tb  Tb6  1  0.188977  0.810955  0.189113  1
  Tb  Tb7  1  0.811553  0.188636  0.811175  1
  Tb  Tb8  1  0.188977  0.189113  0.810955  1
  Tb  Tb9  1  0.811553  0.811175  0.188636  1
  Nd  Nd10  1  0.932921  0.564109  0.564109  1
  Nd  Nd11  1  0.563390  0.936565  0.936565  1
  Nd  Nd12  1  0.563390  0.936565  0.563480  1
  Nd  Nd13  1  0.932921  0.564109  0.938861  1
  Nd  Nd14  1  0.563390  0.563480  0.936565  1
  Nd  Nd15  1  0.932921  0.938861  0.564109  1
  Cd  Cd16  1  0.268676  0.577108  0.577108  1
  Ag  Ag17  1  0.580798  0.582110  0.582110  1
  Ag  Ag18  1  0.580798  0.582110  0.254984  1
  Ag  Ag19  1  0.580798  0.254984  0.582110  1
  Pt  Pt20  1  0.143086  0.143498  0.143498  1
  Pt  Pt21  1  0.143086  0.143498  0.569917  1
  Pt  Pt22  1  0.143086  0.569917  0.143498  1
  Pt  Pt23  1  0.570997  0.143001  0.143001  1
