# generated using pymatgen
data_Y2PaCoRh
_symmetry_space_group_name_H-M   'P 1'
_cell_length_a   3.69363505
_cell_length_b   6.26466255
_cell_length_c   6.05129722
_cell_angle_alpha   121.17337393
_cell_angle_beta   107.76981586
_cell_angle_gamma   90.00000588
_symmetry_Int_Tables_number   1
_chemical_formula_structural   Y2PaCoRh
_chemical_formula_sum   'Y2 Pa1 Co1 Rh1'
_cell_volume   111.92374020
_cell_formula_units_Z   1
loop_
 _symmetry_equiv_pos_site_id
 _symmetry_equiv_pos_as_xyz
  1  'x, y, z'
loop_
 _atom_site_type_symbol
 _atom_site_label
 _atom_site_symmetry_multiplicity
 _atom_site_fract_x
 _atom_site_fract_y
 _atom_site_fract_z
 _atom_site_occupancy
  Y  Y0  1  0.804719  0.308209  0.609439  1
  Y  Y1  1  0.195281  0.698771  0.390561  1
  Pa  Pa2  1  0.000000  0.983255  0.000000  1
  Co  Co3  1  0.500000  0.724244  0.000000  1
  Rh  Rh4  1  0.500000  0.285522  0.000000  1
