# generated using pymatgen
data_La6Al24Ir5Os3
_symmetry_space_group_name_H-M   'P 1'
_cell_length_a   8.95395100
_cell_length_b   8.98086151
_cell_length_c   9.69915880
_cell_angle_alpha   90.13585834
_cell_angle_beta   90.00000000
_cell_angle_gamma   119.90092467
_symmetry_Int_Tables_number   1
_chemical_formula_structural   La6Al24Ir5Os3
_chemical_formula_sum   'La6 Al24 Ir5 Os3'
_cell_volume   676.12734677
_cell_formula_units_Z   1
loop_
 _symmetry_equiv_pos_site_id
 _symmetry_equiv_pos_as_xyz
  1  'x, y, z'
loop_
 _atom_site_type_symbol
 _atom_site_label
 _atom_site_symmetry_multiplicity
 _atom_site_fract_x
 _atom_site_fract_y
 _atom_site_fract_z
 _atom_site_occupancy
  La  La0  1  0.190507  0.381015  0.250267  1
  La  La1  1  0.809493  0.618985  0.749733  1
  La  La2  1  0.617774  0.810191  0.250845  1
  La  La3  1  0.382226  0.189809  0.749155  1
  La  La4  1  0.192416  0.810191  0.250845  1
  La  La5  1  0.807584  0.189809  0.749155  1
  Al  Al6  1  0.333441  0.666882  0.010219  1
  Al  Al7  1  0.666559  0.333118  0.989781  1
  Al  Al8  1  0.665935  0.331868  0.509886  1
  Al  Al9  1  0.334065  0.668132  0.490114  1
  Al  Al10  1  0.163156  0.326311  0.575107  1
  Al  Al11  1  0.836844  0.673689  0.424893  1
  Al  Al12  1  0.673364  0.837870  0.575352  1
  Al  Al13  1  0.837147  0.674295  0.075397  1
  Al  Al14  1  0.326636  0.162130  0.424648  1
  Al  Al15  1  0.162853  0.325705  0.924603  1
  Al  Al16  1  0.164507  0.837870  0.575352  1
  Al  Al17  1  0.326253  0.163314  0.075709  1
  Al  Al18  1  0.835493  0.162130  0.424648  1
  Al  Al19  1  0.673747  0.836686  0.924291  1
  Al  Al20  1  0.837060  0.163314  0.075709  1
  Al  Al21  1  0.162940  0.836686  0.924291  1
  Al  Al22  1  0.563277  0.126556  0.250745  1
  Al  Al23  1  0.436723  0.873444  0.749255  1
  Al  Al24  1  0.873941  0.436854  0.249632  1
  Al  Al25  1  0.126059  0.563146  0.750368  1
  Al  Al26  1  0.562912  0.436854  0.249632  1
  Al  Al27  1  0.437088  0.563146  0.750368  1
  Al  Al28  1  0.000328  0.000655  0.250026  1
  Al  Al29  1  0.999672  0.999345  0.749974  1
  Ir  Ir30  1  0.500000  0.000000  0.000000  1
  Ir  Ir31  1  0.000000  0.500000  0.000000  1
  Ir  Ir32  1  0.500000  0.500000  0.000000  1
  Ir  Ir33  1  0.000000  0.500000  0.500000  1
  Ir  Ir34  1  0.500000  0.500000  0.500000  1
  Os  Os35  1  0.500000  0.000000  0.500000  1
  Os  Os36  1  0.000000  0.000000  0.000000  1
  Os  Os37  1  0.000000  0.000000  0.500000  1
