# generated using pymatgen
data_Sc12Tc3Os
_symmetry_space_group_name_H-M   'P 1'
_cell_length_a   5.79265489
_cell_length_b   7.07216810
_cell_length_c   8.44699400
_cell_angle_alpha   90.00000000
_cell_angle_beta   90.00000000
_cell_angle_gamma   90.07588956
_symmetry_Int_Tables_number   1
_chemical_formula_structural   Sc12Tc3Os
_chemical_formula_sum   'Sc12 Tc3 Os1'
_cell_volume   346.04456686
_cell_formula_units_Z   1
loop_
 _symmetry_equiv_pos_site_id
 _symmetry_equiv_pos_as_xyz
  1  'x, y, z'
loop_
 _atom_site_type_symbol
 _atom_site_label
 _atom_site_symmetry_multiplicity
 _atom_site_fract_x
 _atom_site_fract_y
 _atom_site_fract_z
 _atom_site_occupancy
  Sc  Sc0  1  0.351453  0.676660  0.060878  1
  Sc  Sc1  1  0.148747  0.176415  0.438235  1
  Sc  Sc2  1  0.649265  0.320568  0.561453  1
  Sc  Sc3  1  0.847929  0.826136  0.938033  1
  Sc  Sc4  1  0.649265  0.320568  0.938547  1
  Sc  Sc5  1  0.847929  0.826136  0.561967  1
  Sc  Sc6  1  0.351453  0.676660  0.439122  1
  Sc  Sc7  1  0.148747  0.176415  0.061765  1
  Sc  Sc8  1  0.878682  0.540159  0.250000  1
  Sc  Sc9  1  0.616870  0.036136  0.250000  1
  Sc  Sc10  1  0.122042  0.463512  0.750000  1
  Sc  Sc11  1  0.380428  0.958893  0.750000  1
  Tc  Tc12  1  0.045964  0.879916  0.250000  1
  Tc  Tc13  1  0.452765  0.381455  0.250000  1
  Tc  Tc14  1  0.958960  0.122362  0.750000  1
  Os  Os15  1  0.549503  0.618011  0.750000  1
