# generated using pymatgen
data_Sr5IrAu
_symmetry_space_group_name_H-M   'P 1'
_cell_length_a   9.42826635
_cell_length_b   9.42826727
_cell_length_c   8.19395075
_cell_angle_alpha   82.98782196
_cell_angle_beta   82.98782094
_cell_angle_gamma   45.05215394
_symmetry_Int_Tables_number   1
_chemical_formula_structural   Sr5IrAu
_chemical_formula_sum   'Sr10 Ir2 Au2'
_cell_volume   510.98783216
_cell_formula_units_Z   2
loop_
 _symmetry_equiv_pos_site_id
 _symmetry_equiv_pos_as_xyz
  1  'x, y, z'
loop_
 _atom_site_type_symbol
 _atom_site_label
 _atom_site_symmetry_multiplicity
 _atom_site_fract_x
 _atom_site_fract_y
 _atom_site_fract_z
 _atom_site_occupancy
  Sr  Sr0  1  0.355896  0.207218  0.810672  1
  Sr  Sr1  1  0.792782  0.644104  0.689328  1
  Sr  Sr2  1  0.628366  0.799021  0.168032  1
  Sr  Sr3  1  0.200979  0.371634  0.331968  1
  Sr  Sr4  1  0.415293  0.584707  0.250000  1
  Sr  Sr5  1  0.559740  0.440260  0.750000  1
  Sr  Sr6  1  0.815846  0.000234  0.427352  1
  Sr  Sr7  1  0.999766  0.184154  0.072648  1
  Sr  Sr8  1  0.205176  0.973427  0.591312  1
  Sr  Sr9  1  0.026573  0.794824  0.908688  1
  Ir  Ir10  1  0.176899  0.602160  0.584030  1
  Ir  Ir11  1  0.397840  0.823101  0.915970  1
  Au  Au12  1  0.823699  0.398856  0.416398  1
  Au  Au13  1  0.601144  0.176301  0.083602  1
