# generated using pymatgen
data_Ba4Hf(IrO6)2
_symmetry_space_group_name_H-M   'P 1'
_cell_length_a   9.98172995
_cell_length_b   9.98173070
_cell_length_c   9.98173100
_cell_angle_alpha   33.82389181
_cell_angle_beta   33.82388544
_cell_angle_gamma   33.82389052
_symmetry_Int_Tables_number   1
_chemical_formula_structural   Ba4Hf(IrO6)2
_chemical_formula_sum   'Ba4 Hf1 Ir2 O12'
_cell_volume   274.60190647
_cell_formula_units_Z   1
loop_
 _symmetry_equiv_pos_site_id
 _symmetry_equiv_pos_as_xyz
  1  'x, y, z'
loop_
 _atom_site_type_symbol
 _atom_site_label
 _atom_site_symmetry_multiplicity
 _atom_site_fract_x
 _atom_site_fract_y
 _atom_site_fract_z
 _atom_site_occupancy
  Ba  Ba0  1  0.711304  0.711304  0.711304  1
  Ba  Ba1  1  0.288696  0.288696  0.288696  1
  Ba  Ba2  1  0.867337  0.867337  0.867337  1
  Ba  Ba3  1  0.132663  0.132663  0.132663  1
  Hf  Hf4  1  0.000000  0.000000  0.000000  1
  Ir  Ir5  1  0.581072  0.581072  0.581072  1
  Ir  Ir6  1  0.418928  0.418928  0.418928  1
  O  O7  1  0.211525  0.703587  0.211525  1
  O  O8  1  0.211525  0.211525  0.703587  1
  O  O9  1  0.703587  0.211525  0.211525  1
  O  O10  1  0.788475  0.296413  0.788475  1
  O  O11  1  0.788475  0.788475  0.296413  1
  O  O12  1  0.296413  0.788475  0.788475  1
  O  O13  1  0.385975  0.866262  0.385975  1
  O  O14  1  0.385975  0.385975  0.866262  1
  O  O15  1  0.866262  0.385975  0.385975  1
  O  O16  1  0.614025  0.133738  0.614025  1
  O  O17  1  0.614025  0.614025  0.133738  1
  O  O18  1  0.133738  0.614025  0.614025  1
