# generated using pymatgen
data_TbYb4Ho5Ir4
_symmetry_space_group_name_H-M   'P 1'
_cell_length_a   6.51446657
_cell_length_b   7.26097074
_cell_length_c   8.48052509
_cell_angle_alpha   97.01070372
_cell_angle_beta   112.63079230
_cell_angle_gamma   90.05466234
_symmetry_Int_Tables_number   1
_chemical_formula_structural   TbYb4Ho5Ir4
_chemical_formula_sum   'Tb1 Yb4 Ho5 Ir4'
_cell_volume   366.98257363
_cell_formula_units_Z   1
loop_
 _symmetry_equiv_pos_site_id
 _symmetry_equiv_pos_as_xyz
  1  'x, y, z'
loop_
 _atom_site_type_symbol
 _atom_site_label
 _atom_site_symmetry_multiplicity
 _atom_site_fract_x
 _atom_site_fract_y
 _atom_site_fract_z
 _atom_site_occupancy
  Tb  Tb0  1  0.650959  0.817609  0.440050  1
  Yb  Yb1  1  0.973800  0.921095  0.182947  1
  Yb  Yb2  1  0.790788  0.578842  0.817149  1
  Yb  Yb3  1  0.026463  0.079122  0.817175  1
  Yb  Yb4  1  0.209059  0.420903  0.182900  1
  Ho  Ho5  1  0.211049  0.682118  0.560358  1
  Ho  Ho6  1  0.349215  0.182374  0.560357  1
  Ho  Ho7  1  0.789357  0.317752  0.439771  1
  Ho  Ho8  1  0.430941  0.749952  0.999581  1
  Ho  Ho9  1  0.568925  0.250020  0.999990  1
  Ir  Ir10  1  0.815455  0.571764  0.226130  1
  Ir  Ir11  1  0.588636  0.927927  0.774021  1
  Ir  Ir12  1  0.184630  0.427765  0.773470  1
  Ir  Ir13  1  0.410721  0.072757  0.226101  1
