# generated using pymatgen
data_Lu12Fe2Ag2Os
_symmetry_space_group_name_H-M   'P 1'
_cell_length_a   8.10845911
_cell_length_b   8.10845920
_cell_length_c   8.10845900
_cell_angle_alpha   108.52974146
_cell_angle_beta   108.52974169
_cell_angle_gamma   111.37104305
_symmetry_Int_Tables_number   1
_chemical_formula_structural   Lu12Fe2Ag2Os
_chemical_formula_sum   'Lu12 Fe2 Ag2 Os1'
_cell_volume   410.04689041
_cell_formula_units_Z   1
loop_
 _symmetry_equiv_pos_site_id
 _symmetry_equiv_pos_as_xyz
  1  'x, y, z'
loop_
 _atom_site_type_symbol
 _atom_site_label
 _atom_site_symmetry_multiplicity
 _atom_site_fract_x
 _atom_site_fract_y
 _atom_site_fract_z
 _atom_site_occupancy
  Lu  Lu0  1  0.310663  0.310663  0.621325  1
  Lu  Lu1  1  0.689337  0.689337  0.378675  1
  Lu  Lu2  1  0.689337  0.310663  0.000000  1
  Lu  Lu3  1  0.310663  0.689337  0.000000  1
  Lu  Lu4  1  0.191206  0.433892  0.242685  1
  Lu  Lu5  1  0.808794  0.566108  0.757315  1
  Lu  Lu6  1  0.191206  0.948520  0.757315  1
  Lu  Lu7  1  0.948520  0.191206  0.757315  1
  Lu  Lu8  1  0.808794  0.051480  0.242685  1
  Lu  Lu9  1  0.051480  0.808794  0.242685  1
  Lu  Lu10  1  0.433892  0.191206  0.242685  1
  Lu  Lu11  1  0.566108  0.808794  0.757315  1
  Fe  Fe12  1  0.379769  0.379769  0.000000  1
  Fe  Fe13  1  0.620231  0.620231  0.000000  1
  Ag  Ag14  1  0.000000  0.500000  0.500000  1
  Ag  Ag15  1  0.500000  0.000000  0.500000  1
  Os  Os16  1  0.000000  0.000000  0.000000  1
