# generated using pymatgen
data_Er5MnCoO12
_symmetry_space_group_name_H-M   'P 1'
_cell_length_a   6.70282199
_cell_length_b   6.70282311
_cell_length_c   7.14373700
_cell_angle_alpha   74.48282768
_cell_angle_beta   74.48282203
_cell_angle_gamma   50.57384721
_symmetry_Int_Tables_number   1
_chemical_formula_structural   Er5MnCoO12
_chemical_formula_sum   'Er5 Mn1 Co1 O12'
_cell_volume   236.81747946
_cell_formula_units_Z   1
loop_
 _symmetry_equiv_pos_site_id
 _symmetry_equiv_pos_as_xyz
  1  'x, y, z'
loop_
 _atom_site_type_symbol
 _atom_site_label
 _atom_site_symmetry_multiplicity
 _atom_site_fract_x
 _atom_site_fract_y
 _atom_site_fract_z
 _atom_site_occupancy
  Er  Er0  1  0.305278  0.303294  0.357710  1
  Er  Er1  1  0.696706  0.694722  0.642290  1
  Er  Er2  1  0.306582  0.309948  0.833129  1
  Er  Er3  1  0.690052  0.693418  0.166871  1
  Er  Er4  1  0.003523  0.996477  0.500000  1
  Mn  Mn5  1  0.752655  0.247345  0.000000  1
  Co  Co6  1  0.240669  0.759331  0.000000  1
  O  O7  1  0.904871  0.422360  0.919388  1
  O  O8  1  0.417484  0.897488  0.921197  1
  O  O9  1  0.102512  0.582516  0.078803  1
  O  O10  1  0.577640  0.095129  0.080612  1
  O  O11  1  0.097438  0.598082  0.574501  1
  O  O12  1  0.597745  0.097220  0.576194  1
  O  O13  1  0.902780  0.402255  0.423806  1
  O  O14  1  0.401918  0.902562  0.425499  1
  O  O15  1  0.005100  0.996117  0.822888  1
  O  O16  1  0.003883  0.994900  0.177112  1
  O  O17  1  0.496918  0.503754  0.819571  1
  O  O18  1  0.496246  0.503082  0.180429  1
