# generated using pymatgen
data_Ti3Al2CuN
_symmetry_space_group_name_H-M   'P 1'
_cell_length_a   8.10935264
_cell_length_b   8.10935256
_cell_length_c   8.10935200
_cell_angle_alpha   59.99999412
_cell_angle_beta   59.99999445
_cell_angle_gamma   59.99999127
_symmetry_Int_Tables_number   1
_chemical_formula_structural   Ti3Al2CuN
_chemical_formula_sum   'Ti12 Al8 Cu4 N4'
_cell_volume   377.08864626
_cell_formula_units_Z   4
loop_
 _symmetry_equiv_pos_site_id
 _symmetry_equiv_pos_as_xyz
  1  'x, y, z'
loop_
 _atom_site_type_symbol
 _atom_site_label
 _atom_site_symmetry_multiplicity
 _atom_site_fract_x
 _atom_site_fract_y
 _atom_site_fract_z
 _atom_site_occupancy
  Ti  Ti0  1  0.805579  0.444422  0.444422  1
  Ti  Ti1  1  0.444422  0.805579  0.805579  1
  Ti  Ti2  1  0.444422  0.805579  0.444422  1
  Ti  Ti3  1  0.444422  0.444422  0.805579  1
  Ti  Ti4  1  0.805579  0.444422  0.805579  1
  Ti  Ti5  1  0.805579  0.805579  0.444422  1
  Ti  Ti6  1  0.555579  0.194421  0.555579  1
  Ti  Ti7  1  0.194421  0.555579  0.194421  1
  Ti  Ti8  1  0.194421  0.555579  0.555579  1
  Ti  Ti9  1  0.555579  0.555579  0.194421  1
  Ti  Ti10  1  0.555579  0.194421  0.194421  1
  Ti  Ti11  1  0.194421  0.194421  0.555579  1
  Al  Al12  1  0.208963  0.208963  0.208963  1
  Al  Al13  1  0.208963  0.208963  0.873113  1
  Al  Al14  1  0.873113  0.208963  0.208963  1
  Al  Al15  1  0.208963  0.873113  0.208963  1
  Al  Al16  1  0.791038  0.791038  0.791038  1
  Al  Al17  1  0.791038  0.791038  0.126887  1
  Al  Al18  1  0.791038  0.126887  0.791038  1
  Al  Al19  1  0.126887  0.791038  0.791038  1
  Cu  Cu20  1  0.000000  0.000000  0.000000  1
  Cu  Cu21  1  0.000000  0.000000  0.500000  1
  Cu  Cu22  1  0.500000  0.000000  0.000000  1
  Cu  Cu23  1  0.000000  0.500000  0.000000  1
  N  N24  1  0.500000  0.500000  0.500000  1
  N  N25  1  0.500000  0.500000  0.000000  1
  N  N26  1  0.000000  0.500000  0.500000  1
  N  N27  1  0.500000  0.000000  0.500000  1
