# generated using pymatgen
data_Ce5Bi3S
_symmetry_space_group_name_H-M   'P 1'
_cell_length_a   9.53497200
_cell_length_b   9.53497202
_cell_length_c   6.75579300
_cell_angle_alpha   90.00000000
_cell_angle_beta   90.00000000
_cell_angle_gamma   119.99999993
_symmetry_Int_Tables_number   1
_chemical_formula_structural   Ce5Bi3S
_chemical_formula_sum   'Ce10 Bi6 S2'
_cell_volume   531.91937690
_cell_formula_units_Z   2
loop_
 _symmetry_equiv_pos_site_id
 _symmetry_equiv_pos_as_xyz
  1  'x, y, z'
loop_
 _atom_site_type_symbol
 _atom_site_label
 _atom_site_symmetry_multiplicity
 _atom_site_fract_x
 _atom_site_fract_y
 _atom_site_fract_z
 _atom_site_occupancy
  Ce  Ce0  1  0.755519  0.755519  0.750000  1
  Ce  Ce1  1  0.244481  0.000000  0.750000  1
  Ce  Ce2  1  0.000000  0.244481  0.750000  1
  Ce  Ce3  1  0.244481  0.244481  0.250000  1
  Ce  Ce4  1  0.755519  0.000000  0.250000  1
  Ce  Ce5  1  0.000000  0.755519  0.250000  1
  Ce  Ce6  1  0.666667  0.333333  0.000000  1
  Ce  Ce7  1  0.333333  0.666667  0.000000  1
  Ce  Ce8  1  0.333333  0.666667  0.500000  1
  Ce  Ce9  1  0.666667  0.333333  0.500000  1
  Bi  Bi10  1  0.393453  0.393453  0.750000  1
  Bi  Bi11  1  0.606547  0.000000  0.750000  1
  Bi  Bi12  1  0.000000  0.606547  0.750000  1
  Bi  Bi13  1  0.606547  0.606547  0.250000  1
  Bi  Bi14  1  0.393453  0.000000  0.250000  1
  Bi  Bi15  1  0.000000  0.393453  0.250000  1
  S  S16  1  0.000000  0.000000  0.000000  1
  S  S17  1  0.000000  0.000000  0.500000  1
