# generated using pymatgen
data_Y4BS3
_symmetry_space_group_name_H-M   'P 1'
_cell_length_a   6.75682015
_cell_length_b   6.75681986
_cell_length_c   6.75682020
_cell_angle_alpha   131.93739672
_cell_angle_beta   131.93739559
_cell_angle_gamma   70.32791589
_symmetry_Int_Tables_number   1
_chemical_formula_structural   Y4BS3
_chemical_formula_sum   'Y4 B1 S3'
_cell_volume   167.29013916
_cell_formula_units_Z   1
loop_
 _symmetry_equiv_pos_site_id
 _symmetry_equiv_pos_as_xyz
  1  'x, y, z'
loop_
 _atom_site_type_symbol
 _atom_site_label
 _atom_site_symmetry_multiplicity
 _atom_site_fract_x
 _atom_site_fract_y
 _atom_site_fract_z
 _atom_site_occupancy
  Y  Y0  1  0.234506  0.234506  0.000000  1
  Y  Y1  1  0.765494  0.765494  0.000000  1
  Y  Y2  1  0.500000  0.000000  0.500000  1
  Y  Y3  1  0.000000  0.500000  0.500000  1
  B  B4  1  0.000000  0.000000  0.000000  1
  S  S5  1  0.750000  0.250000  0.500000  1
  S  S6  1  0.250000  0.750000  0.500000  1
  S  S7  1  0.500000  0.500000  0.000000  1
