# generated using pymatgen
data_Eu2CoSi2Pd3
_symmetry_space_group_name_H-M   'P 1'
_cell_length_a   4.07165159
_cell_length_b   4.12245600
_cell_length_c   9.29877826
_cell_angle_alpha   90.00000000
_cell_angle_beta   102.64645395
_cell_angle_gamma   90.00000000
_symmetry_Int_Tables_number   1
_chemical_formula_structural   Eu2CoSi2Pd3
_chemical_formula_sum   'Eu2 Co1 Si2 Pd3'
_cell_volume   152.29528217
_cell_formula_units_Z   1
loop_
 _symmetry_equiv_pos_site_id
 _symmetry_equiv_pos_as_xyz
  1  'x, y, z'
loop_
 _atom_site_type_symbol
 _atom_site_label
 _atom_site_symmetry_multiplicity
 _atom_site_fract_x
 _atom_site_fract_y
 _atom_site_fract_z
 _atom_site_occupancy
  Eu  Eu0  1  0.603657  0.250000  0.207313  1
  Eu  Eu1  1  0.396204  0.750000  0.792408  1
  Co  Co2  1  0.750130  0.750000  0.500262  1
  Si  Si3  1  0.818528  0.250000  0.637056  1
  Si  Si4  1  0.181582  0.750000  0.363162  1
  Pd  Pd5  1  0.951718  0.250000  0.903436  1
  Pd  Pd6  1  0.048436  0.750000  0.096873  1
  Pd  Pd7  1  0.249745  0.250000  0.499489  1
