# generated using pymatgen
data_Ho6Al23VOs8
_symmetry_space_group_name_H-M   'P 1'
_cell_length_a   8.83257700
_cell_length_b   8.83257670
_cell_length_c   9.52047100
_cell_angle_alpha   90.00000000
_cell_angle_beta   90.00000000
_cell_angle_gamma   119.99999740
_symmetry_Int_Tables_number   1
_chemical_formula_structural   Ho6Al23VOs8
_chemical_formula_sum   'Ho6 Al23 V1 Os8'
_cell_volume   643.22649787
_cell_formula_units_Z   1
loop_
 _symmetry_equiv_pos_site_id
 _symmetry_equiv_pos_as_xyz
  1  'x, y, z'
loop_
 _atom_site_type_symbol
 _atom_site_label
 _atom_site_symmetry_multiplicity
 _atom_site_fract_x
 _atom_site_fract_y
 _atom_site_fract_z
 _atom_site_occupancy
  Ho  Ho0  1  0.195782  0.391564  0.246167  1
  Ho  Ho1  1  0.806937  0.613874  0.750273  1
  Ho  Ho2  1  0.608436  0.804218  0.246167  1
  Ho  Ho3  1  0.386126  0.193063  0.750273  1
  Ho  Ho4  1  0.195782  0.804218  0.246167  1
  Ho  Ho5  1  0.806937  0.193063  0.750273  1
  Al  Al6  1  0.666667  0.333333  0.977170  1
  Al  Al7  1  0.666667  0.333333  0.519206  1
  Al  Al8  1  0.333333  0.666667  0.482927  1
  Al  Al9  1  0.162111  0.324222  0.575709  1
  Al  Al10  1  0.837233  0.674467  0.424517  1
  Al  Al11  1  0.675778  0.837889  0.575709  1
  Al  Al12  1  0.835592  0.671184  0.076610  1
  Al  Al13  1  0.325533  0.162767  0.424517  1
  Al  Al14  1  0.160546  0.321093  0.925342  1
  Al  Al15  1  0.162111  0.837889  0.575709  1
  Al  Al16  1  0.328816  0.164408  0.076610  1
  Al  Al17  1  0.837233  0.162767  0.424517  1
  Al  Al18  1  0.678907  0.839454  0.925342  1
  Al  Al19  1  0.835592  0.164408  0.076610  1
  Al  Al20  1  0.160546  0.839454  0.925342  1
  Al  Al21  1  0.562003  0.124006  0.253318  1
  Al  Al22  1  0.441611  0.883220  0.751242  1
  Al  Al23  1  0.875994  0.437997  0.253318  1
  Al  Al24  1  0.116780  0.558389  0.751242  1
  Al  Al25  1  0.562003  0.437997  0.253318  1
  Al  Al26  1  0.441611  0.558389  0.751242  1
  Al  Al27  1  0.000000  0.000000  0.250045  1
  Al  Al28  1  0.000000  0.000000  0.749511  1
  V  V29  1  0.333333  0.666667  0.984170  1
  Os  Os30  1  0.495378  0.990756  0.005508  1
  Os  Os31  1  0.009244  0.504622  0.005508  1
  Os  Os32  1  0.499439  0.998879  0.503760  1
  Os  Os33  1  0.495378  0.504622  0.005508  1
  Os  Os34  1  0.001121  0.500561  0.503760  1
  Os  Os35  1  0.499439  0.500561  0.503760  1
  Os  Os36  1  0.000000  0.000000  0.000468  1
  Os  Os37  1  0.000000  0.000000  0.499162  1
