# generated using pymatgen
data_Ba2LaNd(USe5)2
_symmetry_space_group_name_H-M   'P 1'
_cell_length_a   8.03859600
_cell_length_b   8.78380055
_cell_length_c   12.59124569
_cell_angle_alpha   89.76119143
_cell_angle_beta   90.00000000
_cell_angle_gamma   90.00000000
_symmetry_Int_Tables_number   1
_chemical_formula_structural   Ba2LaNd(USe5)2
_chemical_formula_sum   'Ba4 La2 Nd2 U4 Se20'
_cell_volume   889.05288316
_cell_formula_units_Z   2
loop_
 _symmetry_equiv_pos_site_id
 _symmetry_equiv_pos_as_xyz
  1  'x, y, z'
loop_
 _atom_site_type_symbol
 _atom_site_label
 _atom_site_symmetry_multiplicity
 _atom_site_fract_x
 _atom_site_fract_y
 _atom_site_fract_z
 _atom_site_occupancy
  Ba  Ba0  1  0.058374  0.494224  0.332158  1
  Ba  Ba1  1  0.558374  0.505776  0.167842  1
  Ba  Ba2  1  0.941307  0.506113  0.669947  1
  Ba  Ba3  1  0.441307  0.493887  0.830053  1
  La  La4  1  0.049395  0.001297  0.326594  1
  La  La5  1  0.549395  0.998703  0.173406  1
  Nd  Nd6  1  0.951113  0.000358  0.676819  1
  Nd  Nd7  1  0.451113  0.999642  0.823181  1
  U  U8  1  0.058606  0.755372  0.004842  1
  U  U9  1  0.558606  0.244628  0.495158  1
  U  U10  1  0.941871  0.245370  0.994759  1
  U  U11  1  0.441871  0.754630  0.505241  1
  Se  Se12  1  0.669285  0.959977  0.414902  1
  Se  Se13  1  0.169285  0.040023  0.085098  1
  Se  Se14  1  0.328161  0.040327  0.583867  1
  Se  Se15  1  0.828161  0.959673  0.916133  1
  Se  Se16  1  0.437313  0.775189  0.002078  1
  Se  Se17  1  0.937313  0.224811  0.497922  1
  Se  Se18  1  0.560965  0.224549  0.993306  1
  Se  Se19  1  0.060965  0.775451  0.506694  1
  Se  Se20  1  0.858710  0.769133  0.189048  1
  Se  Se21  1  0.358710  0.230867  0.310952  1
  Se  Se22  1  0.144207  0.226832  0.810591  1
  Se  Se23  1  0.644207  0.773168  0.689409  1
  Se  Se24  1  0.333990  0.766986  0.293122  1
  Se  Se25  1  0.833990  0.233014  0.206878  1
  Se  Se26  1  0.666414  0.228537  0.708113  1
  Se  Se27  1  0.166414  0.771463  0.791887  1
  Se  Se28  1  0.172836  0.464337  0.071279  1
  Se  Se29  1  0.672836  0.535663  0.428721  1
  Se  Se30  1  0.827454  0.536612  0.927443  1
  Se  Se31  1  0.327454  0.463388  0.572557  1
