# generated using pymatgen
data_Nd5Mn2O11F
_symmetry_space_group_name_H-M   'P 1'
_cell_length_a   7.01085465
_cell_length_b   7.07051375
_cell_length_c   7.51011814
_cell_angle_alpha   74.82786162
_cell_angle_beta   74.65380792
_cell_angle_gamma   50.27185195
_symmetry_Int_Tables_number   1
_chemical_formula_structural   Nd5Mn2O11F
_chemical_formula_sum   'Nd5 Mn2 O11 F1'
_cell_volume   273.94673456
_cell_formula_units_Z   1
loop_
 _symmetry_equiv_pos_site_id
 _symmetry_equiv_pos_as_xyz
  1  'x, y, z'
loop_
 _atom_site_type_symbol
 _atom_site_label
 _atom_site_symmetry_multiplicity
 _atom_site_fract_x
 _atom_site_fract_y
 _atom_site_fract_z
 _atom_site_occupancy
  Nd  Nd0  1  0.321025  0.294867  0.345413  1
  Nd  Nd1  1  0.673492  0.700540  0.649999  1
  Nd  Nd2  1  0.697329  0.691822  0.157497  1
  Nd  Nd3  1  0.313053  0.290753  0.850889  1
  Nd  Nd4  1  0.984791  0.032885  0.496635  1
  Mn  Mn5  1  0.761133  0.241635  0.997488  1
  Mn  Mn6  1  0.242112  0.754138  0.002344  1
  O  O7  1  0.998747  0.000888  0.172566  1
  O  O8  1  0.398423  0.904399  0.421779  1
  O  O9  1  0.505239  0.495988  0.171504  1
  O  O10  1  0.102186  0.580131  0.080199  1
  O  O11  1  0.908747  0.407419  0.427528  1
  O  O12  1  0.001904  0.996265  0.827596  1
  O  O13  1  0.592942  0.096631  0.578548  1
  O  O14  1  0.497768  0.497900  0.827694  1
  O  O15  1  0.583851  0.097561  0.078935  1
  O  O16  1  0.417407  0.895220  0.924205  1
  O  O17  1  0.902420  0.416129  0.913871  1
  F  F18  1  0.097431  0.604829  0.575311  1
