# generated using pymatgen
data_Ba3TbTm3O9
_symmetry_space_group_name_H-M   'P 1'
_cell_length_a   9.13969204
_cell_length_b   9.13969155
_cell_length_c   9.13969122
_cell_angle_alpha   38.98587794
_cell_angle_beta   38.98587948
_cell_angle_gamma   38.98587869
_symmetry_Int_Tables_number   1
_chemical_formula_structural   Ba3TbTm3O9
_chemical_formula_sum   'Ba3 Tb1 Tm3 O9'
_cell_volume   271.75305887
_cell_formula_units_Z   1
loop_
 _symmetry_equiv_pos_site_id
 _symmetry_equiv_pos_as_xyz
  1  'x, y, z'
loop_
 _atom_site_type_symbol
 _atom_site_label
 _atom_site_symmetry_multiplicity
 _atom_site_fract_x
 _atom_site_fract_y
 _atom_site_fract_z
 _atom_site_occupancy
  Ba  Ba0  1  0.000815  0.000815  0.000815  1
  Ba  Ba1  1  0.835378  0.835378  0.835378  1
  Ba  Ba2  1  0.417608  0.417608  0.417608  1
  Tb  Tb3  1  0.574616  0.574616  0.574616  1
  Tm  Tm4  1  0.136045  0.136045  0.136045  1
  Tm  Tm5  1  0.261657  0.261657  0.261657  1
  Tm  Tm6  1  0.700169  0.700169  0.700169  1
  O  O7  1  0.532045  0.428677  0.964604  1
  O  O8  1  0.428677  0.964604  0.532045  1
  O  O9  1  0.964604  0.532045  0.428677  1
  O  O10  1  0.404375  0.300312  0.879847  1
  O  O11  1  0.300312  0.879847  0.404375  1
  O  O12  1  0.879847  0.404375  0.300312  1
  O  O13  1  0.971197  0.418834  0.864321  1
  O  O14  1  0.864321  0.971197  0.418834  1
  O  O15  1  0.418834  0.864321  0.971197  1
