# generated using pymatgen
data_RbCe(SO4)2
_symmetry_space_group_name_H-M   'P 1'
_cell_length_a   5.31933605
_cell_length_b   5.31933578
_cell_length_c   8.73506513
_cell_angle_alpha   92.38040960
_cell_angle_beta   92.38040868
_cell_angle_gamma   64.23424216
_symmetry_Int_Tables_number   1
_chemical_formula_structural   RbCe(SO4)2
_chemical_formula_sum   'Rb1 Ce1 S2 O8'
_cell_volume   222.32066742
_cell_formula_units_Z   1
loop_
 _symmetry_equiv_pos_site_id
 _symmetry_equiv_pos_as_xyz
  1  'x, y, z'
loop_
 _atom_site_type_symbol
 _atom_site_label
 _atom_site_symmetry_multiplicity
 _atom_site_fract_x
 _atom_site_fract_y
 _atom_site_fract_z
 _atom_site_occupancy
  Rb  Rb0  1  0.000000  0.000000  0.500000  1
  Ce  Ce1  1  0.000000  0.000000  0.000000  1
  S  S2  1  0.368975  0.368975  0.221539  1
  S  S3  1  0.631026  0.631026  0.778461  1
  O  O4  1  0.248627  0.248627  0.096234  1
  O  O5  1  0.678713  0.248377  0.198416  1
  O  O6  1  0.248377  0.678713  0.198416  1
  O  O7  1  0.310499  0.310499  0.374093  1
  O  O8  1  0.689502  0.689502  0.625907  1
  O  O9  1  0.751623  0.321287  0.801585  1
  O  O10  1  0.321287  0.751623  0.801585  1
  O  O11  1  0.751373  0.751373  0.903766  1
