# generated using pymatgen
data_Li12In3Ag
_symmetry_space_group_name_H-M   'P 1'
_cell_length_a   9.32145082
_cell_length_b   9.32145072
_cell_length_c   9.32772200
_cell_angle_alpha   59.97774214
_cell_angle_beta   59.97774249
_cell_angle_gamma   59.78181414
_symmetry_Int_Tables_number   1
_chemical_formula_structural   Li12In3Ag
_chemical_formula_sum   'Li24 In6 Ag2'
_cell_volume   571.95342082
_cell_formula_units_Z   2
loop_
 _symmetry_equiv_pos_site_id
 _symmetry_equiv_pos_as_xyz
  1  'x, y, z'
loop_
 _atom_site_type_symbol
 _atom_site_label
 _atom_site_symmetry_multiplicity
 _atom_site_fract_x
 _atom_site_fract_y
 _atom_site_fract_z
 _atom_site_occupancy
  Li  Li0  1  0.356418  0.884791  0.879395  1
  Li  Li1  1  0.884791  0.356418  0.879395  1
  Li  Li2  1  0.881558  0.881558  0.359885  1
  Li  Li3  1  0.881558  0.881558  0.876999  1
  Li  Li4  1  0.365210  0.893581  0.370606  1
  Li  Li5  1  0.893581  0.365210  0.370606  1
  Li  Li6  1  0.368443  0.368443  0.890114  1
  Li  Li7  1  0.368443  0.368443  0.373002  1
  Li  Li8  1  0.625001  0.625001  0.124999  1
  Li  Li9  1  0.625001  0.625001  0.625001  1
  Li  Li10  1  0.999170  0.999170  0.000830  1
  Li  Li11  1  0.250831  0.250831  0.249171  1
  Li  Li12  1  0.503141  0.503141  0.996860  1
  Li  Li13  1  0.001155  0.506465  0.505189  1
  Li  Li14  1  0.991573  0.991573  0.508427  1
  Li  Li15  1  0.506465  0.001154  0.987192  1
  Li  Li16  1  0.506465  0.001155  0.505189  1
  Li  Li17  1  0.001154  0.506465  0.987192  1
  Li  Li18  1  0.746859  0.746859  0.253140  1
  Li  Li19  1  0.743535  0.248845  0.744811  1
  Li  Li20  1  0.258426  0.258426  0.741573  1
  Li  Li21  1  0.248845  0.743535  0.262807  1
  Li  Li22  1  0.248845  0.743535  0.744811  1
  Li  Li23  1  0.743535  0.248845  0.262807  1
  In  In24  1  0.124999  0.625001  0.124999  1
  In  In25  1  0.625001  0.124999  0.124999  1
  In  In26  1  0.124999  0.124999  0.625001  1
  In  In27  1  0.124999  0.124999  0.124999  1
  In  In28  1  0.748067  0.748067  0.751933  1
  In  In29  1  0.501933  0.501933  0.498067  1
  Ag  Ag30  1  0.625001  0.124999  0.625001  1
  Ag  Ag31  1  0.124999  0.625001  0.625001  1
