# generated using pymatgen
data_Mn24Cr4Os
_symmetry_space_group_name_H-M   'P 1'
_cell_length_a   7.47388739
_cell_length_b   7.47384117
_cell_length_c   7.47396402
_cell_angle_alpha   109.47407131
_cell_angle_beta   109.46970007
_cell_angle_gamma   109.46372932
_symmetry_Int_Tables_number   1
_chemical_formula_structural   Mn24Cr4Os
_chemical_formula_sum   'Mn24 Cr4 Os1'
_cell_volume   321.40493594
_cell_formula_units_Z   1
loop_
 _symmetry_equiv_pos_site_id
 _symmetry_equiv_pos_as_xyz
  1  'x, y, z'
loop_
 _atom_site_type_symbol
 _atom_site_label
 _atom_site_symmetry_multiplicity
 _atom_site_fract_x
 _atom_site_fract_y
 _atom_site_fract_z
 _atom_site_occupancy
  Mn  Mn0  1  0.392388  0.680602  0.000122  1
  Mn  Mn1  1  0.711750  0.319591  0.319344  1
  Mn  Mn2  1  0.392272  0.999977  0.680493  1
  Mn  Mn3  1  0.680537  0.392325  0.000080  1
  Mn  Mn4  1  0.000117  0.392406  0.680531  1
  Mn  Mn5  1  0.319402  0.711700  0.319511  1
  Mn  Mn6  1  0.319518  0.319423  0.711780  1
  Mn  Mn7  1  0.000051  0.680426  0.392220  1
  Mn  Mn8  1  0.680415  0.999915  0.392264  1
  Mn  Mn9  1  0.607631  0.607551  0.288248  1
  Mn  Mn10  1  0.288271  0.607773  0.607615  1
  Mn  Mn11  1  0.607546  0.288282  0.607734  1
  Mn  Mn12  1  0.374981  0.194601  0.000060  1
  Mn  Mn13  1  0.180326  0.805539  0.805454  1
  Mn  Mn14  1  0.374735  0.999973  0.194397  1
  Mn  Mn15  1  0.194691  0.374934  0.000270  1
  Mn  Mn16  1  0.000059  0.374895  0.194548  1
  Mn  Mn17  1  0.805385  0.180258  0.805663  1
  Mn  Mn18  1  0.805429  0.805372  0.180291  1
  Mn  Mn19  1  0.000162  0.194543  0.374694  1
  Mn  Mn20  1  0.194599  0.000079  0.374909  1
  Mn  Mn21  1  0.625098  0.625110  0.819573  1
  Mn  Mn22  1  0.819679  0.625272  0.625131  1
  Mn  Mn23  1  0.625043  0.819547  0.625055  1
  Cr  Cr24  1  0.637242  0.000087  0.999942  1
  Cr  Cr25  1  0.000030  0.637341  0.000099  1
  Cr  Cr26  1  0.000059  0.999878  0.637389  1
  Cr  Cr27  1  0.362663  0.362684  0.362629  1
  Os  Os28  1  0.999924  0.999920  0.999951  1
