# generated using pymatgen
data_Sr3(AsRh)2
_symmetry_space_group_name_H-M   'P 1'
_cell_length_a   5.93620300
_cell_length_b   8.30925100
_cell_length_c   13.76332500
_cell_angle_alpha   90.00000000
_cell_angle_beta   90.00000000
_cell_angle_gamma   90.00000000
_symmetry_Int_Tables_number   1
_chemical_formula_structural   Sr3(AsRh)2
_chemical_formula_sum   'Sr12 As8 Rh8'
_cell_volume   678.88152078
_cell_formula_units_Z   4
loop_
 _symmetry_equiv_pos_site_id
 _symmetry_equiv_pos_as_xyz
  1  'x, y, z'
loop_
 _atom_site_type_symbol
 _atom_site_label
 _atom_site_symmetry_multiplicity
 _atom_site_fract_x
 _atom_site_fract_y
 _atom_site_fract_z
 _atom_site_occupancy
  Sr  Sr0  1  0.637536  0.248116  0.250000  1
  Sr  Sr1  1  0.362464  0.751884  0.750000  1
  Sr  Sr2  1  0.362464  0.748116  0.250000  1
  Sr  Sr3  1  0.637536  0.251884  0.750000  1
  Sr  Sr4  1  0.133643  0.389303  0.102349  1
  Sr  Sr5  1  0.866357  0.610697  0.897651  1
  Sr  Sr6  1  0.866357  0.610697  0.602349  1
  Sr  Sr7  1  0.866357  0.889303  0.397651  1
  Sr  Sr8  1  0.133643  0.389303  0.397651  1
  Sr  Sr9  1  0.133643  0.110697  0.602349  1
  Sr  Sr10  1  0.133643  0.110697  0.897651  1
  Sr  Sr11  1  0.866357  0.889303  0.102349  1
  As  As12  1  0.162241  0.096722  0.250000  1
  As  As13  1  0.837759  0.903278  0.750000  1
  As  As14  1  0.837759  0.596722  0.250000  1
  As  As15  1  0.162241  0.403278  0.750000  1
  As  As16  1  0.602570  0.250000  0.000000  1
  As  As17  1  0.397430  0.750000  0.000000  1
  As  As18  1  0.397430  0.750000  0.500000  1
  As  As19  1  0.602570  0.250000  0.500000  1
  Rh  Rh20  1  0.377642  0.027865  0.085314  1
  Rh  Rh21  1  0.622358  0.972135  0.914686  1
  Rh  Rh22  1  0.622358  0.972135  0.585314  1
  Rh  Rh23  1  0.622358  0.527865  0.414686  1
  Rh  Rh24  1  0.377642  0.027865  0.414686  1
  Rh  Rh25  1  0.377642  0.472135  0.585314  1
  Rh  Rh26  1  0.377642  0.472135  0.914686  1
  Rh  Rh27  1  0.622358  0.527865  0.085314  1
