# generated using pymatgen
data_Lu2Hf(GaPt)3
_symmetry_space_group_name_H-M   'P 1'
_cell_length_a   7.32133399
_cell_length_b   7.32794682
_cell_length_c   7.19399600
_cell_angle_alpha   90.00000000
_cell_angle_beta   90.00000000
_cell_angle_gamma   120.33925270
_symmetry_Int_Tables_number   1
_chemical_formula_structural   Lu2Hf(GaPt)3
_chemical_formula_sum   'Lu4 Hf2 Ga6 Pt6'
_cell_volume   333.10298727
_cell_formula_units_Z   2
loop_
 _symmetry_equiv_pos_site_id
 _symmetry_equiv_pos_as_xyz
  1  'x, y, z'
loop_
 _atom_site_type_symbol
 _atom_site_label
 _atom_site_symmetry_multiplicity
 _atom_site_fract_x
 _atom_site_fract_y
 _atom_site_fract_z
 _atom_site_occupancy
  Lu  Lu0  1  0.396416  0.396062  0.250000  1
  Lu  Lu1  1  0.596449  0.001105  0.750000  1
  Lu  Lu2  1  0.404573  0.405146  0.750000  1
  Lu  Lu3  1  0.002035  0.596567  0.750000  1
  Hf  Hf4  1  0.998395  0.604500  0.250000  1
  Hf  Hf5  1  0.605365  0.999983  0.250000  1
  Ga  Ga6  1  0.265221  0.999550  0.007021  1
  Ga  Ga7  1  0.265221  0.999550  0.492979  1
  Ga  Ga8  1  0.999999  0.264939  0.493275  1
  Ga  Ga9  1  0.999999  0.264939  0.006725  1
  Ga  Ga10  1  0.732739  0.733267  0.998036  1
  Ga  Ga11  1  0.732739  0.733267  0.501964  1
  Pt  Pt12  1  0.672881  0.332799  0.485131  1
  Pt  Pt13  1  0.001663  0.001003  0.750000  1
  Pt  Pt14  1  0.672881  0.332799  0.014869  1
  Pt  Pt15  1  0.332019  0.672264  0.016441  1
  Pt  Pt16  1  0.332019  0.672264  0.483559  1
  Pt  Pt17  1  0.989388  0.989997  0.250000  1
