# generated using pymatgen
data_Nd2Y2B4I5
_symmetry_space_group_name_H-M   'P 1'
_cell_length_a   9.76068079
_cell_length_b   9.76067905
_cell_length_c   9.77216682
_cell_angle_alpha   75.23444615
_cell_angle_beta   75.23444814
_cell_angle_gamma   25.45744331
_symmetry_Int_Tables_number   1
_chemical_formula_structural   Nd2Y2B4I5
_chemical_formula_sum   'Nd2 Y2 B4 I5'
_cell_volume   386.28105693
_cell_formula_units_Z   1
loop_
 _symmetry_equiv_pos_site_id
 _symmetry_equiv_pos_as_xyz
  1  'x, y, z'
loop_
 _atom_site_type_symbol
 _atom_site_label
 _atom_site_symmetry_multiplicity
 _atom_site_fract_x
 _atom_site_fract_y
 _atom_site_fract_z
 _atom_site_occupancy
  Nd  Nd0  1  0.133901  0.133901  0.932109  1
  Nd  Nd1  1  0.867708  0.867708  0.066547  1
  Y  Y2  1  0.504163  0.504163  0.753251  1
  Y  Y3  1  0.497666  0.497666  0.245642  1
  B  B4  1  0.315625  0.685976  0.999508  1
  B  B5  1  0.685976  0.315625  0.999508  1
  B  B6  1  0.000493  0.000493  0.097355  1
  B  B7  1  0.001107  0.001107  0.901649  1
  I  I8  1  0.673358  0.673358  0.672268  1
  I  I9  1  0.328528  0.328528  0.326964  1
  I  I10  1  0.330531  0.330531  0.839604  1
  I  I11  1  0.671642  0.671642  0.157743  1
  I  I12  1  0.003602  0.003602  0.498052  1
