# generated using pymatgen
data_Ho5InBiPb
_symmetry_space_group_name_H-M   'P 1'
_cell_length_a   9.01624724
_cell_length_b   9.00347305
_cell_length_c   6.59244700
_cell_angle_alpha   90.00000000
_cell_angle_beta   90.00000000
_cell_angle_gamma   119.95314166
_symmetry_Int_Tables_number   1
_chemical_formula_structural   Ho5InBiPb
_chemical_formula_sum   'Ho10 In2 Bi2 Pb2'
_cell_volume   463.67964313
_cell_formula_units_Z   2
loop_
 _symmetry_equiv_pos_site_id
 _symmetry_equiv_pos_as_xyz
  1  'x, y, z'
loop_
 _atom_site_type_symbol
 _atom_site_label
 _atom_site_symmetry_multiplicity
 _atom_site_fract_x
 _atom_site_fract_y
 _atom_site_fract_z
 _atom_site_occupancy
  Ho  Ho0  1  0.674534  0.338599  0.002129  1
  Ho  Ho1  1  0.325466  0.664066  0.002129  1
  Ho  Ho2  1  0.325466  0.664066  0.497871  1
  Ho  Ho3  1  0.674534  0.338599  0.497871  1
  Ho  Ho4  1  0.768986  0.759510  0.750000  1
  Ho  Ho5  1  0.231014  0.990525  0.750000  1
  Ho  Ho6  1  0.000000  0.241959  0.750000  1
  Ho  Ho7  1  0.234524  0.239733  0.250000  1
  Ho  Ho8  1  0.765476  0.005209  0.250000  1
  Ho  Ho9  1  0.000000  0.759776  0.250000  1
  In  In10  1  0.000000  0.600611  0.750000  1
  In  In11  1  0.000000  0.395614  0.250000  1
  Bi  Bi12  1  0.394442  0.392138  0.750000  1
  Bi  Bi13  1  0.605558  0.997695  0.750000  1
  Pb  Pb14  1  0.604809  0.608355  0.250000  1
  Pb  Pb15  1  0.395191  0.003546  0.250000  1
