# generated using pymatgen
data_HoTm3Cu3Sb8
_symmetry_space_group_name_H-M   'P 1'
_cell_length_a   10.53678004
_cell_length_b   10.53678085
_cell_length_c   10.52900100
_cell_angle_alpha   146.34872666
_cell_angle_beta   146.34872347
_cell_angle_gamma   48.32259734
_symmetry_Int_Tables_number   1
_chemical_formula_structural   HoTm3Cu3Sb8
_chemical_formula_sum   'Ho1 Tm3 Cu3 Sb8'
_cell_volume   357.45737043
_cell_formula_units_Z   1
loop_
 _symmetry_equiv_pos_site_id
 _symmetry_equiv_pos_as_xyz
  1  'x, y, z'
loop_
 _atom_site_type_symbol
 _atom_site_label
 _atom_site_symmetry_multiplicity
 _atom_site_fract_x
 _atom_site_fract_y
 _atom_site_fract_z
 _atom_site_occupancy
  Ho  Ho0  1  0.634277  0.634277  0.509325  1
  Tm  Tm1  1  0.124231  0.124231  0.489028  1
  Tm  Tm2  1  0.364892  0.875975  0.000570  1
  Tm  Tm3  1  0.875975  0.364892  0.000570  1
  Cu  Cu4  1  0.003009  0.003009  0.004692  1
  Cu  Cu5  1  0.000697  0.497840  0.497764  1
  Cu  Cu6  1  0.497840  0.000697  0.497764  1
  Sb  Sb7  1  0.337496  0.337496  0.519343  1
  Sb  Sb8  1  0.818560  0.818560  0.483853  1
  Sb  Sb9  1  0.664112  0.180243  0.998258  1
  Sb  Sb10  1  0.180243  0.664112  0.998258  1
  Sb  Sb11  1  0.249962  0.249962  0.999663  1
  Sb  Sb12  1  0.749491  0.749491  0.000485  1
  Sb  Sb13  1  0.749969  0.249245  0.500214  1
  Sb  Sb14  1  0.249245  0.749969  0.500214  1
