# generated using pymatgen
data_Ce(Al3Pd)3
_symmetry_space_group_name_H-M   'P 1'
_cell_length_a   10.44695598
_cell_length_b   10.44695574
_cell_length_c   10.44695600
_cell_angle_alpha   42.23536455
_cell_angle_beta   42.23535782
_cell_angle_gamma   42.23536421
_symmetry_Int_Tables_number   1
_chemical_formula_structural   Ce(Al3Pd)3
_chemical_formula_sum   'Ce2 Al18 Pd6'
_cell_volume   466.21367759
_cell_formula_units_Z   2
loop_
 _symmetry_equiv_pos_site_id
 _symmetry_equiv_pos_as_xyz
  1  'x, y, z'
loop_
 _atom_site_type_symbol
 _atom_site_label
 _atom_site_symmetry_multiplicity
 _atom_site_fract_x
 _atom_site_fract_y
 _atom_site_fract_z
 _atom_site_occupancy
  Ce  Ce0  1  0.166718  0.166718  0.166718  1
  Ce  Ce1  1  0.833282  0.833282  0.833282  1
  Al  Al2  1  0.107121  0.434274  0.761554  1
  Al  Al3  1  0.434274  0.761554  0.107121  1
  Al  Al4  1  0.565726  0.892879  0.238446  1
  Al  Al5  1  0.950354  0.950354  0.950354  1
  Al  Al6  1  0.049646  0.049646  0.049646  1
  Al  Al7  1  0.297253  0.702747  0.500000  1
  Al  Al8  1  0.892879  0.238446  0.565726  1
  Al  Al9  1  0.383882  0.383882  0.383882  1
  Al  Al10  1  0.500000  0.297253  0.702747  1
  Al  Al11  1  0.238446  0.565726  0.892879  1
  Al  Al12  1  0.716050  0.716050  0.716050  1
  Al  Al13  1  0.616118  0.616118  0.616118  1
  Al  Al14  1  0.334880  0.000000  0.665120  1
  Al  Al15  1  0.702747  0.500000  0.297253  1
  Al  Al16  1  0.665120  0.334880  0.000000  1
  Al  Al17  1  0.283950  0.283950  0.283950  1
  Al  Al18  1  0.000000  0.665120  0.334880  1
  Al  Al19  1  0.761554  0.107121  0.434274  1
  Pd  Pd20  1  0.418523  0.078132  0.758818  1
  Pd  Pd21  1  0.581477  0.241182  0.921868  1
  Pd  Pd22  1  0.078132  0.758818  0.418523  1
  Pd  Pd23  1  0.758818  0.418523  0.078132  1
  Pd  Pd24  1  0.921868  0.581477  0.241182  1
  Pd  Pd25  1  0.241182  0.921868  0.581477  1
