# generated using pymatgen
data_U(NbBr3)6
_symmetry_space_group_name_H-M   'P 1'
_cell_length_a   10.70117387
_cell_length_b   10.70117382
_cell_length_c   10.70117300
_cell_angle_alpha   56.01387421
_cell_angle_beta   56.01387439
_cell_angle_gamma   56.01387876
_symmetry_Int_Tables_number   1
_chemical_formula_structural   U(NbBr3)6
_chemical_formula_sum   'U1 Nb6 Br18'
_cell_volume   786.50582139
_cell_formula_units_Z   1
loop_
 _symmetry_equiv_pos_site_id
 _symmetry_equiv_pos_as_xyz
  1  'x, y, z'
loop_
 _atom_site_type_symbol
 _atom_site_label
 _atom_site_symmetry_multiplicity
 _atom_site_fract_x
 _atom_site_fract_y
 _atom_site_fract_z
 _atom_site_occupancy
  U  U0  1  0.000000  0.000000  0.000000  1
  Nb  Nb1  1  0.413313  0.311201  0.641719  1
  Nb  Nb2  1  0.358281  0.586687  0.688799  1
  Nb  Nb3  1  0.688799  0.358281  0.586687  1
  Nb  Nb4  1  0.311201  0.641719  0.413313  1
  Nb  Nb5  1  0.641719  0.413313  0.311201  1
  Nb  Nb6  1  0.586687  0.688799  0.358281  1
  Br  Br7  1  0.568749  0.160211  0.441609  1
  Br  Br8  1  0.222821  0.370067  0.910043  1
  Br  Br9  1  0.910043  0.222821  0.370067  1
  Br  Br10  1  0.370067  0.910043  0.222821  1
  Br  Br11  1  0.777179  0.629933  0.089957  1
  Br  Br12  1  0.089957  0.777179  0.629933  1
  Br  Br13  1  0.703383  0.961131  0.158361  1
  Br  Br14  1  0.961131  0.158361  0.703383  1
  Br  Br15  1  0.158361  0.703383  0.961131  1
  Br  Br16  1  0.296617  0.038869  0.841639  1
  Br  Br17  1  0.038869  0.841639  0.296617  1
  Br  Br18  1  0.841639  0.296617  0.038869  1
  Br  Br19  1  0.558391  0.431251  0.839789  1
  Br  Br20  1  0.160211  0.441609  0.568749  1
  Br  Br21  1  0.441609  0.568749  0.160211  1
  Br  Br22  1  0.431251  0.839789  0.558391  1
  Br  Br23  1  0.839789  0.558391  0.431251  1
  Br  Br24  1  0.629933  0.089957  0.777179  1
