# generated using pymatgen
data_Ti13Ga8Co8Cu
_symmetry_space_group_name_H-M   'P 1'
_cell_length_a   8.43841399
_cell_length_b   8.43841282
_cell_length_c   8.43841363
_cell_angle_alpha   59.98696608
_cell_angle_beta   59.98696558
_cell_angle_gamma   59.98697441
_symmetry_Int_Tables_number   1
_chemical_formula_structural   Ti13Ga8Co8Cu
_chemical_formula_sum   'Ti13 Ga8 Co8 Cu1'
_cell_volume   424.75555235
_cell_formula_units_Z   1
loop_
 _symmetry_equiv_pos_site_id
 _symmetry_equiv_pos_as_xyz
  1  'x, y, z'
loop_
 _atom_site_type_symbol
 _atom_site_label
 _atom_site_symmetry_multiplicity
 _atom_site_fract_x
 _atom_site_fract_y
 _atom_site_fract_z
 _atom_site_occupancy
  Ti  Ti0  1  0.208540  0.208540  0.792474  1
  Ti  Ti1  1  0.792474  0.208540  0.208540  1
  Ti  Ti2  1  0.208540  0.792474  0.208540  1
  Ti  Ti3  1  0.802190  0.802190  0.172203  1
  Ti  Ti4  1  0.172203  0.802190  0.802190  1
  Ti  Ti5  1  0.802190  0.172203  0.802190  1
  Ti  Ti6  1  0.379689  0.379689  0.379689  1
  Ti  Ti7  1  0.379942  0.864382  0.379942  1
  Ti  Ti8  1  0.864382  0.379942  0.379942  1
  Ti  Ti9  1  0.379942  0.379942  0.864382  1
  Ti  Ti10  1  0.842631  0.475438  0.842631  1
  Ti  Ti11  1  0.475438  0.842631  0.842631  1
  Ti  Ti12  1  0.842631  0.842631  0.475438  1
  Ga  Ga13  1  0.155417  0.155417  0.155417  1
  Ga  Ga14  1  0.160319  0.526908  0.160319  1
  Ga  Ga15  1  0.526908  0.160319  0.160319  1
  Ga  Ga16  1  0.160319  0.160319  0.526908  1
  Ga  Ga17  1  0.618612  0.618612  0.618612  1
  Ga  Ga18  1  0.621986  0.141642  0.621986  1
  Ga  Ga19  1  0.141642  0.621986  0.621986  1
  Ga  Ga20  1  0.621986  0.621986  0.141642  1
  Co  Co21  1  0.005853  0.005853  0.495927  1
  Co  Co22  1  0.495927  0.005853  0.005853  1
  Co  Co23  1  0.005853  0.495927  0.005853  1
  Co  Co24  1  0.501153  0.501153  0.001926  1
  Co  Co25  1  0.001926  0.501153  0.501153  1
  Co  Co26  1  0.501153  0.001926  0.501153  1
  Co  Co27  1  0.500653  0.500653  0.500653  1
  Co  Co28  1  0.004084  0.004084  0.004084  1
  Cu  Cu29  1  0.825418  0.825418  0.825418  1
