# generated using pymatgen
data_Er4Tm6Tl7InNi4
_symmetry_space_group_name_H-M   'P 1'
_cell_length_a   3.58895100
_cell_length_b   8.04006744
_cell_length_c   17.93422513
_cell_angle_alpha   89.89957095
_cell_angle_beta   90.00000000
_cell_angle_gamma   90.00000000
_symmetry_Int_Tables_number   1
_chemical_formula_structural   Er4Tm6Tl7InNi4
_chemical_formula_sum   'Er4 Tm6 Tl7 In1 Ni4'
_cell_volume   517.49858960
_cell_formula_units_Z   1
loop_
 _symmetry_equiv_pos_site_id
 _symmetry_equiv_pos_as_xyz
  1  'x, y, z'
loop_
 _atom_site_type_symbol
 _atom_site_label
 _atom_site_symmetry_multiplicity
 _atom_site_fract_x
 _atom_site_fract_y
 _atom_site_fract_z
 _atom_site_occupancy
  Er  Er0  1  0.000000  0.499943  0.499979  1
  Er  Er1  1  0.000000  0.000405  0.999741  1
  Er  Er2  1  0.000000  0.745927  0.277949  1
  Er  Er3  1  0.000000  0.253851  0.722336  1
  Tm  Tm4  1  0.000000  0.754753  0.778041  1
  Tm  Tm5  1  0.000000  0.245844  0.221973  1
  Tm  Tm6  1  0.000000  0.616505  0.089325  1
  Tm  Tm7  1  0.000000  0.382771  0.910649  1
  Tm  Tm8  1  0.000000  0.883228  0.589408  1
  Tm  Tm9  1  0.000000  0.116758  0.410628  1
  Tl  Tl10  1  0.500000  0.705328  0.931563  1
  Tl  Tl11  1  0.500000  0.296010  0.067987  1
  Tl  Tl12  1  0.500000  0.796308  0.432064  1
  Tl  Tl13  1  0.500000  0.203713  0.567869  1
  Tl  Tl14  1  0.500000  0.575512  0.651906  1
  Tl  Tl15  1  0.500000  0.424461  0.348135  1
  Tl  Tl16  1  0.500000  0.925386  0.151675  1
  In  In17  1  0.500000  0.074380  0.848000  1
  Ni  Ni18  1  0.500000  0.524375  0.195225  1
  Ni  Ni19  1  0.500000  0.474127  0.804780  1
  Ni  Ni20  1  0.500000  0.973985  0.696229  1
  Ni  Ni21  1  0.500000  0.026429  0.304539  1
