# generated using pymatgen
data_Lu2UO6
_symmetry_space_group_name_H-M   'P 1'
_cell_length_a   6.36298910
_cell_length_b   6.36298887
_cell_length_c   6.36298882
_cell_angle_alpha   145.41134784
_cell_angle_beta   131.19007730
_cell_angle_gamma   61.19644226
_symmetry_Int_Tables_number   1
_chemical_formula_structural   Lu2UO6
_chemical_formula_sum   'Lu2 U1 O6'
_cell_volume   108.95154352
_cell_formula_units_Z   1
loop_
 _symmetry_equiv_pos_site_id
 _symmetry_equiv_pos_as_xyz
  1  'x, y, z'
loop_
 _atom_site_type_symbol
 _atom_site_label
 _atom_site_symmetry_multiplicity
 _atom_site_fract_x
 _atom_site_fract_y
 _atom_site_fract_z
 _atom_site_occupancy
  Lu  Lu0  1  0.167826  0.667826  0.500000  1
  Lu  Lu1  1  0.832174  0.332174  0.500000  1
  U  U2  1  0.500000  0.000000  0.500000  1
  O  O3  1  0.415106  0.159446  0.255660  1
  O  O4  1  0.261347  0.500000  0.761347  1
  O  O5  1  0.903786  0.159446  0.744340  1
  O  O6  1  0.096214  0.840554  0.255660  1
  O  O7  1  0.738653  0.500000  0.238653  1
  O  O8  1  0.584894  0.840554  0.744340  1
