# generated using pymatgen
data_Nd2Zn(SiPd2)6
_symmetry_space_group_name_H-M   'P 1'
_cell_length_a   10.12215700
_cell_length_b   10.12215579
_cell_length_c   3.89166400
_cell_angle_alpha   90.00000000
_cell_angle_beta   90.00000000
_cell_angle_gamma   120.00000067
_symmetry_Int_Tables_number   1
_chemical_formula_structural   Nd2Zn(SiPd2)6
_chemical_formula_sum   'Nd2 Zn1 Si6 Pd12'
_cell_volume   345.31230329
_cell_formula_units_Z   1
loop_
 _symmetry_equiv_pos_site_id
 _symmetry_equiv_pos_as_xyz
  1  'x, y, z'
loop_
 _atom_site_type_symbol
 _atom_site_label
 _atom_site_symmetry_multiplicity
 _atom_site_fract_x
 _atom_site_fract_y
 _atom_site_fract_z
 _atom_site_occupancy
  Nd  Nd0  1  0.666667  0.333333  0.247848  1
  Nd  Nd1  1  0.000000  0.000000  0.750873  1
  Zn  Zn2  1  0.333333  0.666667  0.465879  1
  Si  Si3  1  0.735521  0.781796  0.252794  1
  Si  Si4  1  0.046275  0.264479  0.252794  1
  Si  Si5  1  0.218204  0.953725  0.252794  1
  Si  Si6  1  0.930614  0.552175  0.746427  1
  Si  Si7  1  0.621561  0.069386  0.746427  1
  Si  Si8  1  0.447825  0.378439  0.746427  1
  Pd  Pd9  1  0.776330  0.048998  0.249976  1
  Pd  Pd10  1  0.272668  0.223670  0.249976  1
  Pd  Pd11  1  0.951002  0.727332  0.249976  1
  Pd  Pd12  1  0.890451  0.282760  0.747152  1
  Pd  Pd13  1  0.392309  0.109549  0.747152  1
  Pd  Pd14  1  0.717240  0.607691  0.747152  1
  Pd  Pd15  1  0.487362  0.545372  0.244704  1
  Pd  Pd16  1  0.058009  0.512638  0.244704  1
  Pd  Pd17  1  0.454628  0.941991  0.244704  1
  Pd  Pd18  1  0.182742  0.785135  0.754586  1
  Pd  Pd19  1  0.602393  0.817258  0.754586  1
  Pd  Pd20  1  0.214865  0.397607  0.754586  1
