# generated using pymatgen
data_DyEr11(TcRu)2
_symmetry_space_group_name_H-M   'P 1'
_cell_length_a   6.24434702
_cell_length_b   7.32245802
_cell_length_c   9.04502000
_cell_angle_alpha   90.00000000
_cell_angle_beta   90.00000000
_cell_angle_gamma   89.99108976
_symmetry_Int_Tables_number   1
_chemical_formula_structural   DyEr11(TcRu)2
_chemical_formula_sum   'Dy1 Er11 Tc2 Ru2'
_cell_volume   413.57420837
_cell_formula_units_Z   1
loop_
 _symmetry_equiv_pos_site_id
 _symmetry_equiv_pos_as_xyz
  1  'x, y, z'
loop_
 _atom_site_type_symbol
 _atom_site_label
 _atom_site_symmetry_multiplicity
 _atom_site_fract_x
 _atom_site_fract_y
 _atom_site_fract_z
 _atom_site_occupancy
  Dy  Dy0  1  0.874628  0.539307  0.250000  1
  Er  Er1  1  0.334312  0.676393  0.063224  1
  Er  Er2  1  0.166083  0.176323  0.436675  1
  Er  Er3  1  0.664219  0.323907  0.562662  1
  Er  Er4  1  0.835566  0.824296  0.937411  1
  Er  Er5  1  0.664219  0.323907  0.937338  1
  Er  Er6  1  0.835566  0.824296  0.562589  1
  Er  Er7  1  0.334312  0.676393  0.436776  1
  Er  Er8  1  0.166083  0.176323  0.063325  1
  Er  Er9  1  0.625461  0.039132  0.250000  1
  Er  Er10  1  0.131430  0.457477  0.750000  1
  Er  Er11  1  0.368603  0.957486  0.750000  1
  Tc  Tc12  1  0.038391  0.886101  0.250000  1
  Tc  Tc13  1  0.461128  0.385719  0.250000  1
  Ru  Ru14  1  0.960808  0.116442  0.750000  1
  Ru  Ru15  1  0.539190  0.616499  0.750000  1
