# generated using pymatgen
data_MnIrBr18
_symmetry_space_group_name_H-M   'P 1'
_cell_length_a   9.02032789
_cell_length_b   9.02032576
_cell_length_c   9.02032532
_cell_angle_alpha   90.31833404
_cell_angle_beta   90.31833500
_cell_angle_gamma   90.31833541
_symmetry_Int_Tables_number   1
_chemical_formula_structural   MnIrBr18
_chemical_formula_sum   'Mn1 Ir1 Br18'
_cell_volume   733.91634914
_cell_formula_units_Z   1
loop_
 _symmetry_equiv_pos_site_id
 _symmetry_equiv_pos_as_xyz
  1  'x, y, z'
loop_
 _atom_site_type_symbol
 _atom_site_label
 _atom_site_symmetry_multiplicity
 _atom_site_fract_x
 _atom_site_fract_y
 _atom_site_fract_z
 _atom_site_occupancy
  Mn  Mn0  1  0.000000  0.000000  0.000000  1
  Ir  Ir1  1  0.500000  0.500000  0.500000  1
  Br  Br2  1  0.269556  0.985824  0.025777  1
  Br  Br3  1  0.025777  0.269556  0.985824  1
  Br  Br4  1  0.985824  0.025777  0.269556  1
  Br  Br5  1  0.730444  0.014176  0.974223  1
  Br  Br6  1  0.974223  0.730444  0.014176  1
  Br  Br7  1  0.014176  0.974223  0.730444  1
  Br  Br8  1  0.627360  0.241905  0.116284  1
  Br  Br9  1  0.116284  0.627360  0.241905  1
  Br  Br10  1  0.241905  0.116284  0.627360  1
  Br  Br11  1  0.372640  0.758095  0.883716  1
  Br  Br12  1  0.883716  0.372640  0.758095  1
  Br  Br13  1  0.758095  0.883716  0.372640  1
  Br  Br14  1  0.485026  0.224089  0.517035  1
  Br  Br15  1  0.517035  0.485026  0.224089  1
  Br  Br16  1  0.224089  0.517035  0.485026  1
  Br  Br17  1  0.514974  0.775911  0.482965  1
  Br  Br18  1  0.482965  0.514974  0.775911  1
  Br  Br19  1  0.775911  0.482965  0.514974  1
