# generated using pymatgen
data_Ho6Al24CuRu6Pt
_symmetry_space_group_name_H-M   'P 1'
_cell_length_a   8.77761033
_cell_length_b   8.78569035
_cell_length_c   9.54206031
_cell_angle_alpha   89.89895187
_cell_angle_beta   90.19973241
_cell_angle_gamma   119.29822760
_symmetry_Int_Tables_number   1
_chemical_formula_structural   Ho6Al24CuRu6Pt
_chemical_formula_sum   'Ho6 Al24 Cu1 Ru6 Pt1'
_cell_volume   641.72687926
_cell_formula_units_Z   1
loop_
 _symmetry_equiv_pos_site_id
 _symmetry_equiv_pos_as_xyz
  1  'x, y, z'
loop_
 _atom_site_type_symbol
 _atom_site_label
 _atom_site_symmetry_multiplicity
 _atom_site_fract_x
 _atom_site_fract_y
 _atom_site_fract_z
 _atom_site_occupancy
  Ho  Ho0  1  0.190786  0.385723  0.247956  1
  Ho  Ho1  1  0.809214  0.614277  0.752044  1
  Ho  Ho2  1  0.611847  0.809593  0.247279  1
  Ho  Ho3  1  0.388153  0.190407  0.752721  1
  Ho  Ho4  1  0.194490  0.807147  0.251733  1
  Ho  Ho5  1  0.805510  0.192853  0.748267  1
  Al  Al6  1  0.330144  0.668858  0.025344  1
  Al  Al7  1  0.669856  0.331142  0.974656  1
  Al  Al8  1  0.661603  0.330380  0.525041  1
  Al  Al9  1  0.338397  0.669620  0.474959  1
  Al  Al10  1  0.169541  0.325047  0.576331  1
  Al  Al11  1  0.830459  0.674953  0.423669  1
  Al  Al12  1  0.673531  0.834521  0.575851  1
  Al  Al13  1  0.843142  0.675542  0.077726  1
  Al  Al14  1  0.326469  0.165479  0.424149  1
  Al  Al15  1  0.156858  0.324458  0.922274  1
  Al  Al16  1  0.167995  0.841358  0.578870  1
  Al  Al17  1  0.325287  0.157688  0.078103  1
  Al  Al18  1  0.832005  0.158642  0.421130  1
  Al  Al19  1  0.674713  0.842312  0.921897  1
  Al  Al20  1  0.836071  0.164381  0.077436  1
  Al  Al21  1  0.163929  0.835619  0.922564  1
  Al  Al22  1  0.560150  0.123328  0.249402  1
  Al  Al23  1  0.439850  0.876672  0.750598  1
  Al  Al24  1  0.874011  0.437823  0.245933  1
  Al  Al25  1  0.125989  0.562177  0.754067  1
  Al  Al26  1  0.561013  0.438226  0.251924  1
  Al  Al27  1  0.438987  0.561774  0.748076  1
  Al  Al28  1  0.998671  0.002648  0.250301  1
  Al  Al29  1  0.001329  0.997352  0.749699  1
  Cu  Cu30  1  0.500000  0.500000  0.000000  1
  Ru  Ru31  1  0.500000  0.000000  0.000000  1
  Ru  Ru32  1  0.000000  0.500000  0.000000  1
  Ru  Ru33  1  0.500000  0.000000  0.500000  1
  Ru  Ru34  1  0.500000  0.500000  0.500000  1
  Ru  Ru35  1  0.000000  0.000000  0.000000  1
  Ru  Ru36  1  0.000000  0.000000  0.500000  1
  Pt  Pt37  1  0.000000  0.500000  0.500000  1
