# generated using pymatgen
data_TmLu9Si16Ge
_symmetry_space_group_name_H-M   'P 1'
_cell_length_a   10.87329405
_cell_length_b   10.87612963
_cell_length_c   10.88109900
_cell_angle_alpha   144.87164182
_cell_angle_beta   136.02005869
_cell_angle_gamma   57.50122095
_symmetry_Int_Tables_number   1
_chemical_formula_structural   TmLu9Si16Ge
_chemical_formula_sum   'Tm1 Lu9 Si16 Ge1'
_cell_volume   509.91623135
_cell_formula_units_Z   1
loop_
 _symmetry_equiv_pos_site_id
 _symmetry_equiv_pos_as_xyz
  1  'x, y, z'
loop_
 _atom_site_type_symbol
 _atom_site_label
 _atom_site_symmetry_multiplicity
 _atom_site_fract_x
 _atom_site_fract_y
 _atom_site_fract_z
 _atom_site_occupancy
  Tm  Tm0  1  0.647256  0.166361  0.015408  1
  Lu  Lu1  1  0.756077  0.757707  0.514596  1
  Lu  Lu2  1  0.448638  0.964159  0.013260  1
  Lu  Lu3  1  0.848764  0.369018  0.017561  1
  Lu  Lu4  1  0.950876  0.963417  0.515593  1
  Lu  Lu5  1  0.150753  0.166239  0.518889  1
  Lu  Lu6  1  0.351769  0.369331  0.520039  1
  Lu  Lu7  1  0.243229  0.757742  0.001180  1
  Lu  Lu8  1  0.549445  0.561194  0.508986  1
  Lu  Lu9  1  0.051764  0.560320  0.011311  1
  Si  Si10  1  0.199514  0.568402  0.368433  1
  Si  Si11  1  0.001615  0.077861  0.077437  1
  Si  Si12  1  0.697333  0.288633  0.591938  1
  Si  Si13  1  0.800780  0.173817  0.375874  1
  Si  Si14  1  0.896129  0.502917  0.608568  1
  Si  Si15  1  0.419626  0.879417  0.457131  1
  Si  Si16  1  0.105309  0.715577  0.610840  1
  Si  Si17  1  0.300138  0.895468  0.593411  1
  Si  Si18  1  0.575923  0.039692  0.463554  1
  Si  Si19  1  0.001032  0.430116  0.430593  1
  Si  Si20  1  0.880460  0.843642  0.966018  1
  Si  Si21  1  0.398419  0.500391  0.099166  1
  Si  Si22  1  0.124689  0.095905  0.971639  1
  Si  Si23  1  0.283102  0.242589  0.959068  1
  Si  Si24  1  0.498600  0.381771  0.880235  1
  Si  Si25  1  0.598700  0.704374  0.105390  1
  Ge  Ge26  1  0.720059  0.685436  0.965381  1
