# generated using pymatgen
data_Tb12Zn2Si3Tc
_symmetry_space_group_name_H-M   'P 1'
_cell_length_a   8.48244085
_cell_length_b   8.48244295
_cell_length_c   8.48244200
_cell_angle_alpha   110.85636587
_cell_angle_beta   111.71755046
_cell_angle_gamma   105.89898517
_symmetry_Int_Tables_number   1
_chemical_formula_structural   Tb12Zn2Si3Tc
_chemical_formula_sum   'Tb12 Zn2 Si3 Tc1'
_cell_volume   468.44302152
_cell_formula_units_Z   1
loop_
 _symmetry_equiv_pos_site_id
 _symmetry_equiv_pos_as_xyz
  1  'x, y, z'
loop_
 _atom_site_type_symbol
 _atom_site_label
 _atom_site_symmetry_multiplicity
 _atom_site_fract_x
 _atom_site_fract_y
 _atom_site_fract_z
 _atom_site_occupancy
  Tb  Tb0  1  0.044351  0.745493  0.298859  1
  Tb  Tb1  1  0.950265  0.256615  0.693650  1
  Tb  Tb2  1  0.553364  0.254507  0.298859  1
  Tb  Tb3  1  0.437036  0.743385  0.693650  1
  Tb  Tb4  1  0.675654  0.873847  0.204039  1
  Tb  Tb5  1  0.330193  0.528386  0.204039  1
  Tb  Tb6  1  0.330193  0.126153  0.801807  1
  Tb  Tb7  1  0.675654  0.471614  0.801807  1
  Tb  Tb8  1  0.176187  0.233407  0.409594  1
  Tb  Tb9  1  0.819128  0.231889  0.051017  1
  Tb  Tb10  1  0.176187  0.766593  0.942780  1
  Tb  Tb11  1  0.819128  0.768111  0.587240  1
  Zn  Zn12  1  0.979410  0.500000  0.479410  1
  Zn  Zn13  1  0.504983  0.000000  0.504983  1
  Si  Si14  1  0.365952  0.500000  0.865952  1
  Si  Si15  1  0.884939  0.884729  0.000210  1
  Si  Si16  1  0.115480  0.115271  0.000210  1
  Tc  Tc17  1  0.661896  0.500000  0.161896  1
