# generated using pymatgen
data_Tb10Cd3Co
_symmetry_space_group_name_H-M   'P 1'
_cell_length_a   9.61967200
_cell_length_b   9.61967258
_cell_length_c   9.83309400
_cell_angle_alpha   90.00000000
_cell_angle_beta   90.00000000
_cell_angle_gamma   119.99999800
_symmetry_Int_Tables_number   1
_chemical_formula_structural   Tb10Cd3Co
_chemical_formula_sum   'Tb20 Cd6 Co2'
_cell_volume   788.02752287
_cell_formula_units_Z   2
loop_
 _symmetry_equiv_pos_site_id
 _symmetry_equiv_pos_as_xyz
  1  'x, y, z'
loop_
 _atom_site_type_symbol
 _atom_site_label
 _atom_site_symmetry_multiplicity
 _atom_site_fract_x
 _atom_site_fract_y
 _atom_site_fract_z
 _atom_site_occupancy
  Tb  Tb0  1  0.000000  0.000000  0.500000  1
  Tb  Tb1  1  0.000000  0.000000  0.000000  1
  Tb  Tb2  1  0.543011  0.456989  0.250000  1
  Tb  Tb3  1  0.543011  0.086022  0.250000  1
  Tb  Tb4  1  0.913978  0.456989  0.250000  1
  Tb  Tb5  1  0.456989  0.543011  0.750000  1
  Tb  Tb6  1  0.456989  0.913978  0.750000  1
  Tb  Tb7  1  0.086022  0.543011  0.750000  1
  Tb  Tb8  1  0.211842  0.788158  0.435943  1
  Tb  Tb9  1  0.211842  0.423686  0.435943  1
  Tb  Tb10  1  0.576314  0.788158  0.435943  1
  Tb  Tb11  1  0.788158  0.211842  0.564057  1
  Tb  Tb12  1  0.788158  0.576314  0.564057  1
  Tb  Tb13  1  0.423686  0.211842  0.564057  1
  Tb  Tb14  1  0.788158  0.211842  0.935943  1
  Tb  Tb15  1  0.788158  0.576314  0.935943  1
  Tb  Tb16  1  0.423686  0.211842  0.935943  1
  Tb  Tb17  1  0.211842  0.788158  0.064057  1
  Tb  Tb18  1  0.211842  0.423686  0.064057  1
  Tb  Tb19  1  0.576314  0.788158  0.064057  1
  Cd  Cd20  1  0.884936  0.115064  0.250000  1
  Cd  Cd21  1  0.884936  0.769872  0.250000  1
  Cd  Cd22  1  0.230128  0.115064  0.250000  1
  Cd  Cd23  1  0.115064  0.884936  0.750000  1
  Cd  Cd24  1  0.115064  0.230128  0.750000  1
  Cd  Cd25  1  0.769872  0.884936  0.750000  1
  Co  Co26  1  0.333333  0.666667  0.250000  1
  Co  Co27  1  0.666667  0.333333  0.750000  1
