# generated using pymatgen
data_V4GaReSiTc
_symmetry_space_group_name_H-M   'P 1'
_cell_length_a   4.82413872
_cell_length_b   4.72403300
_cell_length_c   4.75495685
_cell_angle_alpha   90.00000000
_cell_angle_beta   89.83801297
_cell_angle_gamma   90.00000000
_symmetry_Int_Tables_number   1
_chemical_formula_structural   V4GaReSiTc
_chemical_formula_sum   'V4 Ga1 Re1 Si1 Tc1'
_cell_volume   108.36213545
_cell_formula_units_Z   1
loop_
 _symmetry_equiv_pos_site_id
 _symmetry_equiv_pos_as_xyz
  1  'x, y, z'
loop_
 _atom_site_type_symbol
 _atom_site_label
 _atom_site_symmetry_multiplicity
 _atom_site_fract_x
 _atom_site_fract_y
 _atom_site_fract_z
 _atom_site_occupancy
  V  V0  1  0.500199  0.243644  0.998891  1
  V  V1  1  0.998916  0.500000  0.248353  1
  V  V2  1  0.500199  0.756356  0.998891  1
  V  V3  1  0.249546  0.000000  0.499539  1
  Ga  Ga4  1  0.493557  0.500000  0.493933  1
  Re  Re5  1  0.752908  0.000000  0.499000  1
  Si  Si6  1  0.006243  0.000000  0.005151  1
  Tc  Tc7  1  0.998432  0.500000  0.756242  1
