# generated using pymatgen
data_Hf8Cu7Hg4Pt
_symmetry_space_group_name_H-M   'P 1'
_cell_length_a   7.22326136
_cell_length_b   7.22326139
_cell_length_c   6.79690217
_cell_angle_alpha   90.05397053
_cell_angle_beta   90.05396949
_cell_angle_gamma   90.05728791
_symmetry_Int_Tables_number   1
_chemical_formula_structural   Hf8Cu7Hg4Pt
_chemical_formula_sum   'Hf8 Cu7 Hg4 Pt1'
_cell_volume   354.63131014
_cell_formula_units_Z   1
loop_
 _symmetry_equiv_pos_site_id
 _symmetry_equiv_pos_as_xyz
  1  'x, y, z'
loop_
 _atom_site_type_symbol
 _atom_site_label
 _atom_site_symmetry_multiplicity
 _atom_site_fract_x
 _atom_site_fract_y
 _atom_site_fract_z
 _atom_site_occupancy
  Hf  Hf0  1  0.149717  0.149717  0.001227  1
  Hf  Hf1  1  0.853358  0.853358  0.996622  1
  Hf  Hf2  1  0.649774  0.348919  0.498101  1
  Hf  Hf3  1  0.348919  0.649774  0.498101  1
  Hf  Hf4  1  0.691134  0.306517  0.000910  1
  Hf  Hf5  1  0.306517  0.691134  0.000910  1
  Hf  Hf6  1  0.808739  0.808739  0.501407  1
  Hf  Hf7  1  0.191192  0.191192  0.499461  1
  Cu  Cu8  1  0.623478  0.623478  0.792744  1
  Cu  Cu9  1  0.631666  0.631666  0.201351  1
  Cu  Cu10  1  0.876271  0.123652  0.704817  1
  Cu  Cu11  1  0.876838  0.122668  0.295495  1
  Cu  Cu12  1  0.376563  0.376563  0.795064  1
  Cu  Cu13  1  0.122668  0.876838  0.295495  1
  Cu  Cu14  1  0.123652  0.876271  0.704817  1
  Hg  Hg15  1  0.503568  0.990100  0.249868  1
  Hg  Hg16  1  0.499127  0.999715  0.749340  1
  Hg  Hg17  1  0.990100  0.503568  0.249868  1
  Hg  Hg18  1  0.999715  0.499127  0.749340  1
  Pt  Pt19  1  0.377006  0.377006  0.215057  1
