# generated using pymatgen
data_TbY7(Si4Mo3)4
_symmetry_space_group_name_H-M   'P 1'
_cell_length_a   6.78502923
_cell_length_b   6.96493594
_cell_length_c   12.94909635
_cell_angle_alpha   90.01512607
_cell_angle_beta   90.00826812
_cell_angle_gamma   89.98691757
_symmetry_Int_Tables_number   1
_chemical_formula_structural   TbY7(Si4Mo3)4
_chemical_formula_sum   'Tb1 Y7 Si16 Mo12'
_cell_volume   611.93920889
_cell_formula_units_Z   1
loop_
 _symmetry_equiv_pos_site_id
 _symmetry_equiv_pos_as_xyz
  1  'x, y, z'
loop_
 _atom_site_type_symbol
 _atom_site_label
 _atom_site_symmetry_multiplicity
 _atom_site_fract_x
 _atom_site_fract_y
 _atom_site_fract_z
 _atom_site_occupancy
  Tb  Tb0  1  0.997304  0.166644  0.093934  1
  Y  Y1  1  0.497400  0.333142  0.094130  1
  Y  Y2  1  0.997574  0.166935  0.405863  1
  Y  Y3  1  0.502633  0.666859  0.594239  1
  Y  Y4  1  0.002386  0.833071  0.906036  1
  Y  Y5  1  0.502372  0.667110  0.906031  1
  Y  Y6  1  0.002327  0.833021  0.594213  1
  Y  Y7  1  0.497342  0.333074  0.405600  1
  Si  Si8  1  0.658180  0.042407  0.547711  1
  Si  Si9  1  0.158540  0.457802  0.952454  1
  Si  Si10  1  0.341760  0.957790  0.047755  1
  Si  Si11  1  0.841673  0.542234  0.452152  1
  Si  Si12  1  0.341790  0.957534  0.452126  1
  Si  Si13  1  0.841516  0.542366  0.047747  1
  Si  Si14  1  0.657996  0.042261  0.952424  1
  Si  Si15  1  0.158406  0.457839  0.547726  1
  Si  Si16  1  0.534838  0.364845  0.750148  1
  Si  Si17  1  0.034983  0.134926  0.750038  1
  Si  Si18  1  0.465214  0.635333  0.249707  1
  Si  Si19  1  0.965329  0.865099  0.249898  1
  Si  Si20  1  0.802963  0.627878  0.750240  1
  Si  Si21  1  0.302848  0.871820  0.750141  1
  Si  Si22  1  0.197110  0.372107  0.249954  1
  Si  Si23  1  0.696884  0.128108  0.250020  1
  Mo  Mo24  1  0.830897  0.335032  0.625399  1
  Mo  Mo25  1  0.330447  0.165043  0.874737  1
  Mo  Mo26  1  0.169358  0.664994  0.125309  1
  Mo  Mo27  1  0.669611  0.835047  0.374554  1
  Mo  Mo28  1  0.169279  0.665146  0.374462  1
  Mo  Mo29  1  0.669516  0.835098  0.125316  1
  Mo  Mo30  1  0.830741  0.334644  0.874678  1
  Mo  Mo31  1  0.330522  0.164740  0.625329  1
  Mo  Mo32  1  0.665932  0.999943  0.750070  1
  Mo  Mo33  1  0.165973  0.500043  0.750099  1
  Mo  Mo34  1  0.334275  0.000111  0.249903  1
  Mo  Mo35  1  0.834080  0.499952  0.249856  1
