# generated using pymatgen
data_Ho16In6OsPt
_symmetry_space_group_name_H-M   'P 1'
_cell_length_a   10.42104400
_cell_length_b   10.42104414
_cell_length_c   7.02469100
_cell_angle_alpha   90.00000000
_cell_angle_beta   90.00000000
_cell_angle_gamma   119.99999955
_symmetry_Int_Tables_number   1
_chemical_formula_structural   Ho16In6OsPt
_chemical_formula_sum   'Ho16 In6 Os1 Pt1'
_cell_volume   660.66351561
_cell_formula_units_Z   1
loop_
 _symmetry_equiv_pos_site_id
 _symmetry_equiv_pos_as_xyz
  1  'x, y, z'
loop_
 _atom_site_type_symbol
 _atom_site_label
 _atom_site_symmetry_multiplicity
 _atom_site_fract_x
 _atom_site_fract_y
 _atom_site_fract_z
 _atom_site_occupancy
  Ho  Ho0  1  0.530551  0.061101  0.508316  1
  Ho  Ho1  1  0.938899  0.469449  0.508316  1
  Ho  Ho2  1  0.530551  0.469449  0.508316  1
  Ho  Ho3  1  0.465682  0.931366  0.006728  1
  Ho  Ho4  1  0.068634  0.534318  0.006728  1
  Ho  Ho5  1  0.465682  0.534318  0.006728  1
  Ho  Ho6  1  0.176552  0.353103  0.715354  1
  Ho  Ho7  1  0.646897  0.823448  0.715354  1
  Ho  Ho8  1  0.176552  0.823448  0.715354  1
  Ho  Ho9  1  0.824609  0.649218  0.213647  1
  Ho  Ho10  1  0.350782  0.175391  0.213647  1
  Ho  Ho11  1  0.824609  0.175391  0.213647  1
  Ho  Ho12  1  0.666667  0.333333  0.884119  1
  Ho  Ho13  1  0.333333  0.666667  0.385194  1
  Ho  Ho14  1  0.000000  0.000000  0.491027  1
  Ho  Ho15  1  0.000000  0.000000  0.993910  1
  In  In16  1  0.837321  0.674643  0.750769  1
  In  In17  1  0.325357  0.162679  0.750769  1
  In  In18  1  0.837321  0.162679  0.750769  1
  In  In19  1  0.162308  0.324616  0.251748  1
  In  In20  1  0.675384  0.837692  0.251748  1
  In  In21  1  0.162308  0.837692  0.251748  1
  Os  Os22  1  0.333333  0.666667  0.781723  1
  Pt  Pt23  1  0.666667  0.333333  0.282378  1
