# generated using pymatgen
data_Y2Si6AsRh12
_symmetry_space_group_name_H-M   'P 1'
_cell_length_a   9.77113918
_cell_length_b   9.81290749
_cell_length_c   3.86806951
_cell_angle_alpha   89.99823870
_cell_angle_beta   90.05133713
_cell_angle_gamma   120.17498596
_symmetry_Int_Tables_number   1
_chemical_formula_structural   Y2Si6AsRh12
_chemical_formula_sum   'Y2 Si6 As1 Rh12'
_cell_volume   320.62626465
_cell_formula_units_Z   1
loop_
 _symmetry_equiv_pos_site_id
 _symmetry_equiv_pos_as_xyz
  1  'x, y, z'
loop_
 _atom_site_type_symbol
 _atom_site_label
 _atom_site_symmetry_multiplicity
 _atom_site_fract_x
 _atom_site_fract_y
 _atom_site_fract_z
 _atom_site_occupancy
  Y  Y0  1  0.339089  0.666959  0.749548  1
  Y  Y1  1  0.997755  0.000875  0.253031  1
  Si  Si2  1  0.665269  0.332955  0.578504  1
  Si  Si3  1  0.954859  0.221107  0.751395  1
  Si  Si4  1  0.774430  0.733144  0.753109  1
  Si  Si5  1  0.267986  0.045751  0.751102  1
  Si  Si6  1  0.375909  0.440482  0.249828  1
  Si  Si7  1  0.558000  0.934001  0.249652  1
  As  As8  1  0.071931  0.624195  0.249664  1
  Rh  Rh9  1  0.730833  0.953825  0.752235  1
  Rh  Rh10  1  0.044034  0.783156  0.752810  1
  Rh  Rh11  1  0.221848  0.266230  0.752260  1
  Rh  Rh12  1  0.603462  0.714196  0.249829  1
  Rh  Rh13  1  0.287134  0.894992  0.248714  1
  Rh  Rh14  1  0.109780  0.390423  0.249444  1
  Rh  Rh15  1  0.931119  0.450821  0.749247  1
  Rh  Rh16  1  0.543719  0.478267  0.747874  1
  Rh  Rh17  1  0.522059  0.066709  0.746894  1
  Rh  Rh18  1  0.412666  0.217219  0.254986  1
  Rh  Rh19  1  0.783056  0.194266  0.255271  1
  Rh  Rh20  1  0.805061  0.590427  0.258785  1
