# generated using pymatgen
data_Lu2Si2(Ni5H)3
_symmetry_space_group_name_H-M   'P 1'
_cell_length_a   6.28273359
_cell_length_b   6.28273458
_cell_length_c   6.26837300
_cell_angle_alpha   83.61636844
_cell_angle_beta   83.61637661
_cell_angle_gamma   84.24134482
_symmetry_Int_Tables_number   1
_chemical_formula_structural   Lu2Si2(Ni5H)3
_chemical_formula_sum   'Lu2 Si2 Ni15 H3'
_cell_volume   243.39970506
_cell_formula_units_Z   1
loop_
 _symmetry_equiv_pos_site_id
 _symmetry_equiv_pos_as_xyz
  1  'x, y, z'
loop_
 _atom_site_type_symbol
 _atom_site_label
 _atom_site_symmetry_multiplicity
 _atom_site_fract_x
 _atom_site_fract_y
 _atom_site_fract_z
 _atom_site_occupancy
  Lu  Lu0  1  0.658855  0.658855  0.647890  1
  Lu  Lu1  1  0.341145  0.341145  0.352110  1
  Si  Si2  1  0.500000  0.000000  0.000000  1
  Si  Si3  1  0.000000  0.500000  0.000000  1
  Ni  Ni4  1  0.000000  0.000000  0.500000  1
  Ni  Ni5  1  0.707175  0.292825  0.000000  1
  Ni  Ni6  1  0.000323  0.707766  0.287462  1
  Ni  Ni7  1  0.292234  0.999677  0.712538  1
  Ni  Ni8  1  0.999677  0.292234  0.712538  1
  Ni  Ni9  1  0.707766  0.000323  0.287462  1
  Ni  Ni10  1  0.292825  0.707175  0.000000  1
  Ni  Ni11  1  0.344353  0.344353  0.862565  1
  Ni  Ni12  1  0.855070  0.345665  0.344882  1
  Ni  Ni13  1  0.345665  0.855070  0.344882  1
  Ni  Ni14  1  0.655647  0.655647  0.137435  1
  Ni  Ni15  1  0.144930  0.654335  0.655118  1
  Ni  Ni16  1  0.654335  0.144930  0.655118  1
  Ni  Ni17  1  0.899708  0.899708  0.896475  1
  Ni  Ni18  1  0.100292  0.100292  0.103525  1
  H  H19  1  0.500000  0.500000  0.000000  1
  H  H20  1  0.000000  0.500000  0.500000  1
  H  H21  1  0.500000  0.000000  0.500000  1
