# generated using pymatgen
data_Ti12Al8Pt4CO3
_symmetry_space_group_name_H-M   'P 1'
_cell_length_a   8.21393360
_cell_length_b   8.21350943
_cell_length_c   8.21360000
_cell_angle_alpha   59.85803209
_cell_angle_beta   59.85897580
_cell_angle_gamma   59.85767327
_symmetry_Int_Tables_number   1
_chemical_formula_structural   Ti12Al8Pt4CO3
_chemical_formula_sum   'Ti12 Al8 Pt4 C1 O3'
_cell_volume   390.57013634
_cell_formula_units_Z   1
loop_
 _symmetry_equiv_pos_site_id
 _symmetry_equiv_pos_as_xyz
  1  'x, y, z'
loop_
 _atom_site_type_symbol
 _atom_site_label
 _atom_site_symmetry_multiplicity
 _atom_site_fract_x
 _atom_site_fract_y
 _atom_site_fract_z
 _atom_site_occupancy
  Ti  Ti0  1  0.816786  0.816672  0.183159  1
  Ti  Ti1  1  0.066885  0.433400  0.433146  1
  Ti  Ti2  1  0.431721  0.066287  0.066186  1
  Ti  Ti3  1  0.066179  0.066210  0.431796  1
  Ti  Ti4  1  0.066292  0.431723  0.066226  1
  Ti  Ti5  1  0.433367  0.066881  0.433227  1
  Ti  Ti6  1  0.183708  0.818277  0.183774  1
  Ti  Ti7  1  0.183115  0.816600  0.816854  1
  Ti  Ti8  1  0.818279  0.183713  0.183814  1
  Ti  Ti9  1  0.816633  0.183119  0.816773  1
  Ti  Ti10  1  0.433214  0.433328  0.066841  1
  Ti  Ti11  1  0.183821  0.183790  0.818204  1
  Al  Al12  1  0.414496  0.755880  0.414411  1
  Al  Al13  1  0.835602  0.835535  0.493990  1
  Al  Al14  1  0.494059  0.835483  0.835634  1
  Al  Al15  1  0.834899  0.834845  0.834988  1
  Al  Al16  1  0.755941  0.414517  0.414366  1
  Al  Al17  1  0.415101  0.415155  0.415012  1
  Al  Al18  1  0.414398  0.414465  0.756010  1
  Al  Al19  1  0.835504  0.494120  0.835589  1
  Pt  Pt20  1  0.625000  0.125000  0.625000  1
  Pt  Pt21  1  0.625000  0.625000  0.125000  1
  Pt  Pt22  1  0.125000  0.625000  0.625000  1
  Pt  Pt23  1  0.625000  0.625000  0.625000  1
  C  C24  1  0.125000  0.125000  0.125000  1
  O  O25  1  0.125000  0.625000  0.125000  1
  O  O26  1  0.125000  0.125000  0.625000  1
  O  O27  1  0.625000  0.125000  0.125000  1
