# generated using pymatgen
data_Dy5Tm11Cd4Ir3Ru
_symmetry_space_group_name_H-M   'P 1'
_cell_length_a   9.58047012
_cell_length_b   9.57333745
_cell_length_c   9.57333771
_cell_angle_alpha   59.70985127
_cell_angle_beta   59.72166209
_cell_angle_gamma   59.72166661
_symmetry_Int_Tables_number   1
_chemical_formula_structural   Dy5Tm11Cd4Ir3Ru
_chemical_formula_sum   'Dy5 Tm11 Cd4 Ir3 Ru1'
_cell_volume   616.88652628
_cell_formula_units_Z   1
loop_
 _symmetry_equiv_pos_site_id
 _symmetry_equiv_pos_as_xyz
  1  'x, y, z'
loop_
 _atom_site_type_symbol
 _atom_site_label
 _atom_site_symmetry_multiplicity
 _atom_site_fract_x
 _atom_site_fract_y
 _atom_site_fract_z
 _atom_site_occupancy
  Dy  Dy0  1  0.809312  0.189077  0.189077  1
  Dy  Dy1  1  0.811568  0.188707  0.810996  1
  Dy  Dy2  1  0.189046  0.809600  0.188300  1
  Dy  Dy3  1  0.811568  0.810996  0.188707  1
  Dy  Dy4  1  0.189046  0.188300  0.809600  1
  Tm  Tm5  1  0.598673  0.598764  0.598764  1
  Tm  Tm6  1  0.598193  0.598552  0.206285  1
  Tm  Tm7  1  0.598193  0.206285  0.598552  1
  Tm  Tm8  1  0.205660  0.598596  0.598596  1
  Tm  Tm9  1  0.062477  0.437962  0.437962  1
  Tm  Tm10  1  0.437686  0.061118  0.061118  1
  Tm  Tm11  1  0.437837  0.062196  0.438436  1
  Tm  Tm12  1  0.061104  0.438152  0.060719  1
  Tm  Tm13  1  0.437837  0.438436  0.062196  1
  Tm  Tm14  1  0.061104  0.060719  0.438152  1
  Tm  Tm15  1  0.189558  0.810693  0.810693  1
  Cd  Cd16  1  0.830404  0.829640  0.829640  1
  Cd  Cd17  1  0.830472  0.830524  0.507635  1
  Cd  Cd18  1  0.830472  0.507635  0.830524  1
  Cd  Cd19  1  0.507141  0.830459  0.830459  1
  Ir  Ir20  1  0.392482  0.393616  0.825845  1
  Ir  Ir21  1  0.392482  0.825845  0.393616  1
  Ir  Ir22  1  0.826212  0.392853  0.392853  1
  Ru  Ru23  1  0.391473  0.391273  0.391273  1
