# generated using pymatgen
data_Ti3GaMoC2N
_symmetry_space_group_name_H-M   'P 1'
_cell_length_a   3.04326000
_cell_length_b   3.04326132
_cell_length_c   23.32559000
_cell_angle_alpha   90.00000000
_cell_angle_beta   90.00000000
_cell_angle_gamma   119.99998560
_symmetry_Int_Tables_number   1
_chemical_formula_structural   Ti3GaMoC2N
_chemical_formula_sum   'Ti6 Ga2 Mo2 C4 N2'
_cell_volume   187.08614961
_cell_formula_units_Z   2
loop_
 _symmetry_equiv_pos_site_id
 _symmetry_equiv_pos_as_xyz
  1  'x, y, z'
loop_
 _atom_site_type_symbol
 _atom_site_label
 _atom_site_symmetry_multiplicity
 _atom_site_fract_x
 _atom_site_fract_y
 _atom_site_fract_z
 _atom_site_occupancy
  Ti  Ti0  1  0.000000  0.000000  0.844230  1
  Ti  Ti1  1  0.000000  0.000000  0.155770  1
  Ti  Ti2  1  0.333333  0.666667  0.445137  1
  Ti  Ti3  1  0.666667  0.333333  0.554863  1
  Ti  Ti4  1  0.666667  0.333333  0.946967  1
  Ti  Ti5  1  0.333333  0.666667  0.053033  1
  Ga  Ga6  1  0.333333  0.666667  0.249410  1
  Ga  Ga7  1  0.666667  0.333333  0.750590  1
  Mo  Mo8  1  0.000000  0.000000  0.343256  1
  Mo  Mo9  1  0.000000  0.000000  0.656744  1
  C  C10  1  0.666667  0.333333  0.392944  1
  C  C11  1  0.333333  0.666667  0.607056  1
  C  C12  1  0.333333  0.666667  0.892649  1
  C  C13  1  0.666667  0.333333  0.107351  1
  N  N14  1  0.000000  0.000000  0.500000  1
  N  N15  1  0.000000  0.000000  0.000000  1
