# generated using pymatgen
data_LaPr4(TcO6)2
_symmetry_space_group_name_H-M   'P 1'
_cell_length_a   7.12446508
_cell_length_b   7.12446507
_cell_length_c   7.93258234
_cell_angle_alpha   73.73159554
_cell_angle_beta   73.73159691
_cell_angle_gamma   48.12280492
_symmetry_Int_Tables_number   1
_chemical_formula_structural   LaPr4(TcO6)2
_chemical_formula_sum   'La1 Pr4 Tc2 O12'
_cell_volume   285.34053089
_cell_formula_units_Z   1
loop_
 _symmetry_equiv_pos_site_id
 _symmetry_equiv_pos_as_xyz
  1  'x, y, z'
loop_
 _atom_site_type_symbol
 _atom_site_label
 _atom_site_symmetry_multiplicity
 _atom_site_fract_x
 _atom_site_fract_y
 _atom_site_fract_z
 _atom_site_occupancy
  La  La0  1  0.000000  0.000000  0.500000  1
  Pr  Pr1  1  0.309222  0.309222  0.354340  1
  Pr  Pr2  1  0.690778  0.690778  0.645660  1
  Pr  Pr3  1  0.685203  0.685203  0.169696  1
  Pr  Pr4  1  0.314797  0.314797  0.830304  1
  Tc  Tc5  1  0.787186  0.212814  0.000000  1
  Tc  Tc6  1  0.212814  0.787186  0.000000  1
  O  O7  1  0.094689  0.592028  0.578693  1
  O  O8  1  0.999228  0.999228  0.195400  1
  O  O9  1  0.407972  0.905311  0.421307  1
  O  O10  1  0.499050  0.499050  0.165993  1
  O  O11  1  0.087313  0.596628  0.077439  1
  O  O12  1  0.905311  0.407972  0.421307  1
  O  O13  1  0.000772  0.000772  0.804600  1
  O  O14  1  0.592028  0.094688  0.578693  1
  O  O15  1  0.500950  0.500950  0.834007  1
  O  O16  1  0.596628  0.087313  0.077439  1
  O  O17  1  0.403372  0.912687  0.922561  1
  O  O18  1  0.912687  0.403372  0.922561  1
