# generated using pymatgen
data_DyCl15
_symmetry_space_group_name_H-M   'P 1'
_cell_length_a   8.70858929
_cell_length_b   11.78824334
_cell_length_c   14.85462641
_cell_angle_alpha   72.85588255
_cell_angle_beta   118.32528081
_cell_angle_gamma   102.68616213
_symmetry_Int_Tables_number   1
_chemical_formula_structural   DyCl15
_chemical_formula_sum   'Dy2 Cl30'
_cell_volume   1276.94990560
_cell_formula_units_Z   2
loop_
 _symmetry_equiv_pos_site_id
 _symmetry_equiv_pos_as_xyz
  1  'x, y, z'
loop_
 _atom_site_type_symbol
 _atom_site_label
 _atom_site_symmetry_multiplicity
 _atom_site_fract_x
 _atom_site_fract_y
 _atom_site_fract_z
 _atom_site_occupancy
  Dy  Dy0  1  0.142869  0.143877  0.930415  1
  Dy  Dy1  1  0.857131  0.856123  0.069585  1
  Cl  Cl2  1  0.113104  0.349660  0.936831  1
  Cl  Cl3  1  0.886896  0.650340  0.063169  1
  Cl  Cl4  1  0.170837  0.923604  0.057973  1
  Cl  Cl5  1  0.829163  0.076396  0.942027  1
  Cl  Cl6  1  0.089998  0.710256  0.254223  1
  Cl  Cl7  1  0.910002  0.289744  0.745777  1
  Cl  Cl8  1  0.239731  0.782839  0.384095  1
  Cl  Cl9  1  0.760269  0.217161  0.615905  1
  Cl  Cl10  1  0.187045  0.598769  0.702470  1
  Cl  Cl11  1  0.812955  0.401231  0.297530  1
  Cl  Cl12  1  0.997010  0.371931  0.446015  1
  Cl  Cl13  1  0.002990  0.628069  0.553985  1
  Cl  Cl14  1  0.381402  0.218921  0.838507  1
  Cl  Cl15  1  0.618598  0.781079  0.161493  1
  Cl  Cl16  1  0.317700  0.989126  0.534340  1
  Cl  Cl17  1  0.682300  0.010874  0.465660  1
  Cl  Cl18  1  0.315187  0.406742  0.307718  1
  Cl  Cl19  1  0.684813  0.593258  0.692282  1
  Cl  Cl20  1  0.021979  0.956496  0.692306  1
  Cl  Cl21  1  0.978021  0.043504  0.307694  1
  Cl  Cl22  1  0.763020  0.611680  0.838314  1
  Cl  Cl23  1  0.236980  0.388320  0.161686  1
  Cl  Cl24  1  0.704138  0.749118  0.323183  1
  Cl  Cl25  1  0.295862  0.250882  0.676817  1
  Cl  Cl26  1  0.464922  0.921864  0.685858  1
  Cl  Cl27  1  0.535078  0.078136  0.314142  1
  Cl  Cl28  1  0.071775  0.932504  0.844851  1
  Cl  Cl29  1  0.928225  0.067496  0.155149  1
  Cl  Cl30  1  0.527964  0.831397  0.957654  1
  Cl  Cl31  1  0.472036  0.168603  0.042346  1
