# generated using pymatgen
data_Pr2NiIrBr
_symmetry_space_group_name_H-M   'P 1'
_cell_length_a   4.17911900
_cell_length_b   4.17911993
_cell_length_c   16.77846600
_cell_angle_alpha   90.00000000
_cell_angle_beta   90.00000000
_cell_angle_gamma   120.00000059
_symmetry_Int_Tables_number   1
_chemical_formula_structural   Pr2NiIrBr
_chemical_formula_sum   'Pr4 Ni2 Ir2 Br2'
_cell_volume   253.77711340
_cell_formula_units_Z   2
loop_
 _symmetry_equiv_pos_site_id
 _symmetry_equiv_pos_as_xyz
  1  'x, y, z'
loop_
 _atom_site_type_symbol
 _atom_site_label
 _atom_site_symmetry_multiplicity
 _atom_site_fract_x
 _atom_site_fract_y
 _atom_site_fract_z
 _atom_site_occupancy
  Pr  Pr0  1  0.000000  0.000000  0.611353  1
  Pr  Pr1  1  0.000000  0.000000  0.387865  1
  Pr  Pr2  1  0.000000  0.000000  0.111353  1
  Pr  Pr3  1  0.000000  0.000000  0.887865  1
  Ni  Ni4  1  0.666667  0.333333  0.000849  1
  Ni  Ni5  1  0.333333  0.666667  0.500849  1
  Ir  Ir6  1  0.666667  0.333333  0.499873  1
  Ir  Ir7  1  0.333333  0.666667  0.999873  1
  Br  Br8  1  0.666667  0.333333  0.250058  1
  Br  Br9  1  0.333333  0.666667  0.750058  1
