# generated using pymatgen
data_Ho2Mn11FeP7
_symmetry_space_group_name_H-M   'P 1'
_cell_length_a   9.27602537
_cell_length_b   9.28072577
_cell_length_c   3.57345200
_cell_angle_alpha   90.00000000
_cell_angle_beta   90.00000000
_cell_angle_gamma   119.97033418
_symmetry_Int_Tables_number   1
_chemical_formula_structural   Ho2Mn11FeP7
_chemical_formula_sum   'Ho2 Mn11 Fe1 P7'
_cell_volume   266.49692340
_cell_formula_units_Z   1
loop_
 _symmetry_equiv_pos_site_id
 _symmetry_equiv_pos_as_xyz
  1  'x, y, z'
loop_
 _atom_site_type_symbol
 _atom_site_label
 _atom_site_symmetry_multiplicity
 _atom_site_fract_x
 _atom_site_fract_y
 _atom_site_fract_z
 _atom_site_occupancy
  Ho  Ho0  1  0.001023  0.000505  0.000000  1
  Ho  Ho1  1  0.333434  0.666670  0.500000  1
  Mn  Mn2  1  0.091961  0.381797  0.000000  1
  Mn  Mn3  1  0.289609  0.906871  0.000000  1
  Mn  Mn4  1  0.616742  0.708791  0.000000  1
  Mn  Mn5  1  0.822859  0.608484  0.000000  1
  Mn  Mn6  1  0.785444  0.176271  0.000000  1
  Mn  Mn7  1  0.060135  0.772012  0.500000  1
  Mn  Mn8  1  0.711123  0.940710  0.500000  1
  Mn  Mn9  1  0.228898  0.289079  0.500000  1
  Mn  Mn10  1  0.895137  0.436003  0.500000  1
  Mn  Mn11  1  0.539720  0.103565  0.500000  1
  Mn  Mn12  1  0.563751  0.459257  0.500000  1
  Fe  Fe13  1  0.392396  0.216534  0.000000  1
  P  P14  1  0.077177  0.623598  0.000000  1
  P  P15  1  0.546061  0.922524  0.000000  1
  P  P16  1  0.375897  0.453017  0.000000  1
  P  P17  1  0.794634  0.742009  0.500000  1
  P  P18  1  0.946938  0.204667  0.500000  1
  P  P19  1  0.261657  0.055488  0.500000  1
  P  P20  1  0.665405  0.332145  0.000000  1
