# generated using pymatgen
data_TbPa(CuRh)2
_symmetry_space_group_name_H-M   'P 1'
_cell_length_a   3.79045900
_cell_length_b   7.07738251
_cell_length_c   8.24894251
_cell_angle_alpha   92.35694022
_cell_angle_beta   90.00000000
_cell_angle_gamma   90.00000000
_symmetry_Int_Tables_number   1
_chemical_formula_structural   TbPa(CuRh)2
_chemical_formula_sum   'Tb2 Pa2 Cu4 Rh4'
_cell_volume   221.10328158
_cell_formula_units_Z   2
loop_
 _symmetry_equiv_pos_site_id
 _symmetry_equiv_pos_as_xyz
  1  'x, y, z'
loop_
 _atom_site_type_symbol
 _atom_site_label
 _atom_site_symmetry_multiplicity
 _atom_site_fract_x
 _atom_site_fract_y
 _atom_site_fract_z
 _atom_site_occupancy
  Tb  Tb0  1  0.250000  0.057555  0.309175  1
  Tb  Tb1  1  0.750000  0.942445  0.690825  1
  Pa  Pa2  1  0.250000  0.551116  0.195250  1
  Pa  Pa3  1  0.750000  0.448884  0.804750  1
  Cu  Cu4  1  0.250000  0.104966  0.937196  1
  Cu  Cu5  1  0.750000  0.895034  0.062804  1
  Cu  Cu6  1  0.250000  0.622897  0.558798  1
  Cu  Cu7  1  0.750000  0.377103  0.441202  1
  Rh  Rh8  1  0.750000  0.745928  0.360036  1
  Rh  Rh9  1  0.250000  0.254072  0.639964  1
  Rh  Rh10  1  0.750000  0.284695  0.111748  1
  Rh  Rh11  1  0.250000  0.715305  0.888252  1
