# generated using pymatgen
data_RbUSe3
_symmetry_space_group_name_H-M   'P 1'
_cell_length_a   7.72633300
_cell_length_b   7.74154600
_cell_length_c   10.95712100
_cell_angle_alpha   90.00000000
_cell_angle_beta   90.00000000
_cell_angle_gamma   90.00000000
_symmetry_Int_Tables_number   1
_chemical_formula_structural   RbUSe3
_chemical_formula_sum   'Rb4 U4 Se12'
_cell_volume   655.38663132
_cell_formula_units_Z   4
loop_
 _symmetry_equiv_pos_site_id
 _symmetry_equiv_pos_as_xyz
  1  'x, y, z'
loop_
 _atom_site_type_symbol
 _atom_site_label
 _atom_site_symmetry_multiplicity
 _atom_site_fract_x
 _atom_site_fract_y
 _atom_site_fract_z
 _atom_site_occupancy
  Rb  Rb0  1  0.992983  0.019115  0.250000  1
  Rb  Rb1  1  0.492983  0.480885  0.750000  1
  Rb  Rb2  1  0.507017  0.519115  0.250000  1
  Rb  Rb3  1  0.007017  0.980885  0.750000  1
  U  U4  1  0.500000  0.000000  0.000000  1
  U  U5  1  0.000000  0.500000  0.000000  1
  U  U6  1  0.000000  0.500000  0.500000  1
  U  U7  1  0.500000  0.000000  0.500000  1
  Se  Se8  1  0.731195  0.268889  0.488091  1
  Se  Se9  1  0.231195  0.231111  0.511909  1
  Se  Se10  1  0.768805  0.768889  0.011909  1
  Se  Se11  1  0.268805  0.731111  0.988091  1
  Se  Se12  1  0.268805  0.731111  0.511909  1
  Se  Se13  1  0.768805  0.768889  0.488091  1
  Se  Se14  1  0.231195  0.231111  0.988091  1
  Se  Se15  1  0.731195  0.268889  0.011909  1
  Se  Se16  1  0.024055  0.502923  0.250000  1
  Se  Se17  1  0.524055  0.997077  0.750000  1
  Se  Se18  1  0.475945  0.002923  0.250000  1
  Se  Se19  1  0.975945  0.497077  0.750000  1
