# generated using pymatgen
data_TbTm5Al24(Ir3Ru)2
_symmetry_space_group_name_H-M   'P 1'
_cell_length_a   8.80982311
_cell_length_b   8.80982183
_cell_length_c   9.46695900
_cell_angle_alpha   90.00000000
_cell_angle_beta   90.00000000
_cell_angle_gamma   119.98161303
_symmetry_Int_Tables_number   1
_chemical_formula_structural   TbTm5Al24(Ir3Ru)2
_chemical_formula_sum   'Tb1 Tm5 Al24 Ir6 Ru2'
_cell_volume   636.43767076
_cell_formula_units_Z   1
loop_
 _symmetry_equiv_pos_site_id
 _symmetry_equiv_pos_as_xyz
  1  'x, y, z'
loop_
 _atom_site_type_symbol
 _atom_site_label
 _atom_site_symmetry_multiplicity
 _atom_site_fract_x
 _atom_site_fract_y
 _atom_site_fract_z
 _atom_site_occupancy
  Tb  Tb0  1  0.807053  0.192947  0.750000  1
  Tm  Tm1  1  0.194658  0.805342  0.250000  1
  Tm  Tm2  1  0.388978  0.194513  0.750000  1
  Tm  Tm3  1  0.610459  0.805430  0.250000  1
  Tm  Tm4  1  0.805487  0.611022  0.750000  1
  Tm  Tm5  1  0.194570  0.389541  0.250000  1
  Al  Al6  1  0.666417  0.333583  0.971719  1
  Al  Al7  1  0.333221  0.666779  0.029235  1
  Al  Al8  1  0.333221  0.666779  0.470765  1
  Al  Al9  1  0.666417  0.333583  0.528281  1
  Al  Al10  1  0.837222  0.162778  0.422397  1
  Al  Al11  1  0.162717  0.837283  0.576469  1
  Al  Al12  1  0.325374  0.162587  0.423107  1
  Al  Al13  1  0.162717  0.837283  0.923531  1
  Al  Al14  1  0.674108  0.836651  0.576108  1
  Al  Al15  1  0.837222  0.162778  0.077603  1
  Al  Al16  1  0.837413  0.674626  0.423107  1
  Al  Al17  1  0.674108  0.836651  0.923892  1
  Al  Al18  1  0.163349  0.325892  0.576108  1
  Al  Al19  1  0.325374  0.162587  0.076893  1
  Al  Al20  1  0.163349  0.325892  0.923892  1
  Al  Al21  1  0.837413  0.674626  0.076893  1
  Al  Al22  1  0.437731  0.562269  0.750000  1
  Al  Al23  1  0.562288  0.437712  0.250000  1
  Al  Al24  1  0.125214  0.563318  0.750000  1
  Al  Al25  1  0.875468  0.437809  0.250000  1
  Al  Al26  1  0.436682  0.874786  0.750000  1
  Al  Al27  1  0.562191  0.124532  0.250000  1
  Al  Al28  1  0.001101  0.998899  0.750000  1
  Al  Al29  1  0.000029  0.999971  0.250000  1
  Ir  Ir30  1  0.499738  0.500262  0.000164  1
  Ir  Ir31  1  0.000384  0.500803  0.000648  1
  Ir  Ir32  1  0.499738  0.500262  0.499836  1
  Ir  Ir33  1  0.499197  0.999616  0.000648  1
  Ir  Ir34  1  0.000384  0.500803  0.499352  1
  Ir  Ir35  1  0.499197  0.999616  0.499352  1
  Ru  Ru36  1  0.999907  0.000093  0.999991  1
  Ru  Ru37  1  0.999907  0.000093  0.500009  1
