# generated using pymatgen
data_Y20Al3Cd3Os2
_symmetry_space_group_name_H-M   'P 1'
_cell_length_a   9.60515500
_cell_length_b   9.60515591
_cell_length_c   9.82531700
_cell_angle_alpha   90.00000000
_cell_angle_beta   90.00000000
_cell_angle_gamma   120.00000031
_symmetry_Int_Tables_number   1
_chemical_formula_structural   Y20Al3Cd3Os2
_chemical_formula_sum   'Y20 Al3 Cd3 Os2'
_cell_volume   785.02953743
_cell_formula_units_Z   1
loop_
 _symmetry_equiv_pos_site_id
 _symmetry_equiv_pos_as_xyz
  1  'x, y, z'
loop_
 _atom_site_type_symbol
 _atom_site_label
 _atom_site_symmetry_multiplicity
 _atom_site_fract_x
 _atom_site_fract_y
 _atom_site_fract_z
 _atom_site_occupancy
  Y  Y0  1  0.000000  0.000000  0.496176  1
  Y  Y1  1  0.000000  0.000000  0.003824  1
  Y  Y2  1  0.207737  0.792263  0.438370  1
  Y  Y3  1  0.207737  0.415474  0.438370  1
  Y  Y4  1  0.584526  0.792263  0.438370  1
  Y  Y5  1  0.790885  0.209115  0.555884  1
  Y  Y6  1  0.790885  0.581769  0.555884  1
  Y  Y7  1  0.418231  0.209115  0.555884  1
  Y  Y8  1  0.790885  0.209115  0.944116  1
  Y  Y9  1  0.790885  0.581769  0.944116  1
  Y  Y10  1  0.418231  0.209115  0.944116  1
  Y  Y11  1  0.207737  0.792263  0.061630  1
  Y  Y12  1  0.207737  0.415474  0.061630  1
  Y  Y13  1  0.584526  0.792263  0.061630  1
  Y  Y14  1  0.538802  0.461198  0.250000  1
  Y  Y15  1  0.538802  0.077604  0.250000  1
  Y  Y16  1  0.922396  0.461198  0.250000  1
  Y  Y17  1  0.460363  0.539637  0.750000  1
  Y  Y18  1  0.460363  0.920727  0.750000  1
  Y  Y19  1  0.079273  0.539637  0.750000  1
  Al  Al20  1  0.888230  0.111770  0.250000  1
  Al  Al21  1  0.888230  0.776461  0.250000  1
  Al  Al22  1  0.223539  0.111770  0.250000  1
  Cd  Cd23  1  0.113086  0.886914  0.750000  1
  Cd  Cd24  1  0.113086  0.226171  0.750000  1
  Cd  Cd25  1  0.773829  0.886914  0.750000  1
  Os  Os26  1  0.333333  0.666667  0.250000  1
  Os  Os27  1  0.666667  0.333333  0.750000  1
