# generated using pymatgen
data_Ho4TaReOs6
_symmetry_space_group_name_H-M   'P 1'
_cell_length_a   5.27130745
_cell_length_b   5.27130637
_cell_length_c   8.98474100
_cell_angle_alpha   90.00000000
_cell_angle_beta   90.00000000
_cell_angle_gamma   116.54459046
_symmetry_Int_Tables_number   1
_chemical_formula_structural   Ho4TaReOs6
_chemical_formula_sum   'Ho4 Ta1 Re1 Os6'
_cell_volume   223.33905395
_cell_formula_units_Z   1
loop_
 _symmetry_equiv_pos_site_id
 _symmetry_equiv_pos_as_xyz
  1  'x, y, z'
loop_
 _atom_site_type_symbol
 _atom_site_label
 _atom_site_symmetry_multiplicity
 _atom_site_fract_x
 _atom_site_fract_y
 _atom_site_fract_z
 _atom_site_occupancy
  Ho  Ho0  1  0.328587  0.671413  0.439158  1
  Ho  Ho1  1  0.667328  0.332672  0.567058  1
  Ho  Ho2  1  0.667328  0.332672  0.932942  1
  Ho  Ho3  1  0.328587  0.671413  0.060842  1
  Ta  Ta4  1  0.837830  0.162170  0.250000  1
  Re  Re5  1  0.171550  0.828450  0.750000  1
  Os  Os6  1  0.000268  0.999732  0.505200  1
  Os  Os7  1  0.000268  0.999732  0.994800  1
  Os  Os8  1  0.822405  0.652143  0.250000  1
  Os  Os9  1  0.347857  0.177595  0.250000  1
  Os  Os10  1  0.172555  0.344566  0.750000  1
  Os  Os11  1  0.655434  0.827445  0.750000  1
