# generated using pymatgen
data_Sm3Th(Ga8Pd3)3
_symmetry_space_group_name_H-M   'P 1'
_cell_length_a   7.59904190
_cell_length_b   7.63316249
_cell_length_c   13.42082984
_cell_angle_alpha   84.89598360
_cell_angle_beta   100.43668909
_cell_angle_gamma   119.79917621
_symmetry_Int_Tables_number   1
_chemical_formula_structural   Sm3Th(Ga8Pd3)3
_chemical_formula_sum   'Sm3 Th1 Ga24 Pd9'
_cell_volume   664.35943189
_cell_formula_units_Z   1
loop_
 _symmetry_equiv_pos_site_id
 _symmetry_equiv_pos_as_xyz
  1  'x, y, z'
loop_
 _atom_site_type_symbol
 _atom_site_label
 _atom_site_symmetry_multiplicity
 _atom_site_fract_x
 _atom_site_fract_y
 _atom_site_fract_z
 _atom_site_occupancy
  Sm  Sm0  1  0.562636  0.168799  0.190254  1
  Sm  Sm1  1  0.771103  0.503021  0.810432  1
  Sm  Sm2  1  0.229052  0.497154  0.190036  1
  Th  Th3  1  0.437148  0.830854  0.809001  1
  Ga  Ga4  1  0.479393  0.168753  0.941648  1
  Ga  Ga5  1  0.521348  0.833542  0.061279  1
  Ga  Ga6  1  0.021526  0.166004  0.557768  1
  Ga  Ga7  1  0.978039  0.833987  0.441399  1
  Ga  Ga8  1  0.353954  0.832785  0.555150  1
  Ga  Ga9  1  0.646527  0.168107  0.443278  1
  Ga  Ga10  1  0.615264  0.835070  0.327204  1
  Ga  Ga11  1  0.384099  0.168040  0.671170  1
  Ga  Ga12  1  0.055346  0.492634  0.670361  1
  Ga  Ga13  1  0.940697  0.503931  0.327657  1
  Ga  Ga14  1  0.732575  0.838061  0.668530  1
  Ga  Ga15  1  0.270230  0.162568  0.328924  1
  Ga  Ga16  1  0.143502  0.496908  0.942312  1
  Ga  Ga17  1  0.854482  0.500204  0.059327  1
  Ga  Ga18  1  0.817470  0.833127  0.949155  1
  Ga  Ga19  1  0.185470  0.167074  0.053629  1
  Ga  Ga20  1  0.312533  0.499458  0.442333  1
  Ga  Ga21  1  0.687306  0.500047  0.557128  1
  Ga  Ga22  1  0.101620  0.836363  0.183027  1
  Ga  Ga23  1  0.900486  0.165182  0.817336  1
  Ga  Ga24  1  0.307528  0.366994  0.816340  1
  Ga  Ga25  1  0.692621  0.630631  0.184173  1
  Ga  Ga26  1  0.100642  0.960858  0.816766  1
  Ga  Ga27  1  0.897888  0.039588  0.184057  1
  Pd  Pd28  1  0.384867  0.503991  0.637338  1
  Pd  Pd29  1  0.614917  0.497582  0.362685  1
  Pd  Pd30  1  0.171750  0.830280  0.999241  1
  Pd  Pd31  1  0.828268  0.168948  0.001020  1
  Pd  Pd32  1  0.290423  0.832961  0.361514  1
  Pd  Pd33  1  0.708346  0.165872  0.638087  1
  Pd  Pd34  1  0.049752  0.829424  0.637123  1
  Pd  Pd35  1  0.951621  0.170546  0.363090  1
  Pd  Pd36  1  0.499571  0.500654  0.000225  1
