# generated using pymatgen
data_CePa3(TcB4)4
_symmetry_space_group_name_H-M   'P 1'
_cell_length_a   3.66293600
_cell_length_b   5.97293511
_cell_length_c   11.57470921
_cell_angle_alpha   89.97802207
_cell_angle_beta   90.00000000
_cell_angle_gamma   90.00000000
_symmetry_Int_Tables_number   1
_chemical_formula_structural   CePa3(TcB4)4
_chemical_formula_sum   'Ce1 Pa3 Tc4 B16'
_cell_volume   253.23701427
_cell_formula_units_Z   1
loop_
 _symmetry_equiv_pos_site_id
 _symmetry_equiv_pos_as_xyz
  1  'x, y, z'
loop_
 _atom_site_type_symbol
 _atom_site_label
 _atom_site_symmetry_multiplicity
 _atom_site_fract_x
 _atom_site_fract_y
 _atom_site_fract_z
 _atom_site_occupancy
  Ce  Ce0  1  0.000000  0.627731  0.350226  1
  Pa  Pa1  1  0.000000  0.372684  0.649554  1
  Pa  Pa2  1  0.000000  0.127587  0.150362  1
  Pa  Pa3  1  0.000000  0.872077  0.850200  1
  Tc  Tc4  1  0.000000  0.638316  0.091731  1
  Tc  Tc5  1  0.000000  0.361217  0.905570  1
  Tc  Tc6  1  0.000000  0.137514  0.407914  1
  Tc  Tc7  1  0.000000  0.862925  0.595080  1
  B  B8  1  0.500000  0.788888  0.185833  1
  B  B9  1  0.500000  0.211077  0.812726  1
  B  B10  1  0.500000  0.285191  0.312819  1
  B  B11  1  0.500000  0.711486  0.687053  1
  B  B12  1  0.500000  0.865195  0.031898  1
  B  B13  1  0.500000  0.135686  0.967968  1
  B  B14  1  0.500000  0.362954  0.468860  1
  B  B15  1  0.500000  0.636200  0.532731  1
  B  B16  1  0.500000  0.888096  0.454287  1
  B  B17  1  0.500000  0.112430  0.546083  1
  B  B18  1  0.500000  0.387425  0.046002  1
  B  B19  1  0.500000  0.612871  0.953939  1
  B  B20  1  0.500000  0.975180  0.308441  1
  B  B21  1  0.500000  0.027539  0.691668  1
  B  B22  1  0.500000  0.472189  0.190410  1
  B  B23  1  0.500000  0.527541  0.808643  1
