# generated using pymatgen
data_Pr3Y2Sn15Rh8
_symmetry_space_group_name_H-M   'P 1'
_cell_length_a   4.52846600
_cell_length_b   7.30446908
_cell_length_c   18.68183040
_cell_angle_alpha   89.84348464
_cell_angle_beta   90.00000000
_cell_angle_gamma   90.00000000
_symmetry_Int_Tables_number   1
_chemical_formula_structural   Pr3Y2Sn15Rh8
_chemical_formula_sum   'Pr3 Y2 Sn15 Rh8'
_cell_volume   617.95602499
_cell_formula_units_Z   1
loop_
 _symmetry_equiv_pos_site_id
 _symmetry_equiv_pos_as_xyz
  1  'x, y, z'
loop_
 _atom_site_type_symbol
 _atom_site_label
 _atom_site_symmetry_multiplicity
 _atom_site_fract_x
 _atom_site_fract_y
 _atom_site_fract_z
 _atom_site_occupancy
  Pr  Pr0  1  0.500000  0.999520  0.854738  1
  Pr  Pr1  1  0.500000  0.502887  0.358266  1
  Pr  Pr2  1  0.000000  0.003512  0.142814  1
  Y  Y3  1  0.000000  0.498286  0.643172  1
  Y  Y4  1  0.500000  0.490563  0.930152  1
  Sn  Sn5  1  0.000000  0.715931  0.805643  1
  Sn  Sn6  1  0.000000  0.783577  0.305991  1
  Sn  Sn7  1  0.500000  0.281476  0.194150  1
  Sn  Sn8  1  0.500000  0.220433  0.692221  1
  Sn  Sn9  1  0.000000  0.851226  0.968381  1
  Sn  Sn10  1  0.000000  0.629709  0.470008  1
  Sn  Sn11  1  0.500000  0.132551  0.030436  1
  Sn  Sn12  1  0.500000  0.365949  0.533660  1
  Sn  Sn13  1  0.000000  0.305679  0.819926  1
  Sn  Sn14  1  0.000000  0.202933  0.318175  1
  Sn  Sn15  1  0.500000  0.701107  0.184864  1
  Sn  Sn16  1  0.500000  0.803096  0.678920  1
  Sn  Sn17  1  0.500000  0.019896  0.434556  1
  Sn  Sn18  1  0.000000  0.510389  0.065626  1
  Sn  Sn19  1  0.000000  0.978031  0.568290  1
  Rh  Rh20  1  0.000000  0.231793  0.964548  1
  Rh  Rh21  1  0.000000  0.247582  0.466222  1
  Rh  Rh22  1  0.500000  0.758949  0.041993  1
  Rh  Rh23  1  0.500000  0.746518  0.534792  1
  Rh  Rh24  1  0.000000  0.020073  0.715284  1
  Rh  Rh25  1  0.000000  0.487746  0.212948  1
  Rh  Rh26  1  0.500000  0.991252  0.289731  1
  Rh  Rh27  1  0.500000  0.519333  0.774491  1
