# generated using pymatgen
data_Ba4CdHg3(GeSe4)4
_symmetry_space_group_name_H-M   'P 1'
_cell_length_a   6.82538968
_cell_length_b   11.27113176
_cell_length_c   11.56558601
_cell_angle_alpha   90.00382858
_cell_angle_beta   89.99997237
_cell_angle_gamma   90.08025372
_symmetry_Int_Tables_number   1
_chemical_formula_structural   Ba4CdHg3(GeSe4)4
_chemical_formula_sum   'Ba4 Cd1 Hg3 Ge4 Se16'
_cell_volume   889.73811151
_cell_formula_units_Z   1
loop_
 _symmetry_equiv_pos_site_id
 _symmetry_equiv_pos_as_xyz
  1  'x, y, z'
loop_
 _atom_site_type_symbol
 _atom_site_label
 _atom_site_symmetry_multiplicity
 _atom_site_fract_x
 _atom_site_fract_y
 _atom_site_fract_z
 _atom_site_occupancy
  Ba  Ba0  1  0.054544  0.000499  0.499505  1
  Ba  Ba1  1  0.554850  0.499994  0.999861  1
  Ba  Ba2  1  0.059137  0.000367  0.000589  1
  Ba  Ba3  1  0.559361  0.499928  0.500104  1
  Cd  Cd4  1  0.487053  0.167111  0.253063  1
  Hg  Hg5  1  0.492216  0.832097  0.745895  1
  Hg  Hg6  1  0.992258  0.332030  0.754046  1
  Hg  Hg7  1  0.991646  0.667788  0.245920  1
  Ge  Ge8  1  0.040554  0.284202  0.249557  1
  Ge  Ge9  1  0.039947  0.714575  0.750794  1
  Ge  Ge10  1  0.539757  0.214447  0.749171  1
  Ge  Ge11  1  0.540868  0.786256  0.250805  1
  Se  Se12  1  0.257705  0.269290  0.086086  1
  Se  Se13  1  0.255299  0.729890  0.914534  1
  Se  Se14  1  0.755005  0.229820  0.585470  1
  Se  Se15  1  0.755801  0.769974  0.414513  1
  Se  Se16  1  0.253758  0.271164  0.415237  1
  Se  Se17  1  0.251723  0.728155  0.584682  1
  Se  Se18  1  0.751569  0.228095  0.915252  1
  Se  Se19  1  0.752140  0.771742  0.084653  1
  Se  Se20  1  0.855099  0.101631  0.249348  1
  Se  Se21  1  0.857282  0.898733  0.750743  1
  Se  Se22  1  0.357249  0.398729  0.749298  1
  Se  Se23  1  0.356687  0.602322  0.250699  1
  Se  Se24  1  0.805649  0.438539  0.248923  1
  Se  Se25  1  0.805688  0.559980  0.751017  1
  Se  Se26  1  0.305486  0.059943  0.749028  1
  Se  Se27  1  0.310070  0.942700  0.251207  1
