# generated using pymatgen
data_Y8Pd12Pt12Pb
_symmetry_space_group_name_H-M   'P 1'
_cell_length_a   8.44484900
_cell_length_b   8.44484900
_cell_length_c   8.44484900
_cell_angle_alpha   90.00000000
_cell_angle_beta   90.00000000
_cell_angle_gamma   90.00000000
_symmetry_Int_Tables_number   1
_chemical_formula_structural   Y8Pd12Pt12Pb
_chemical_formula_sum   'Y8 Pd12 Pt12 Pb1'
_cell_volume   602.24841464
_cell_formula_units_Z   1
loop_
 _symmetry_equiv_pos_site_id
 _symmetry_equiv_pos_as_xyz
  1  'x, y, z'
loop_
 _atom_site_type_symbol
 _atom_site_label
 _atom_site_symmetry_multiplicity
 _atom_site_fract_x
 _atom_site_fract_y
 _atom_site_fract_z
 _atom_site_occupancy
  Y  Y0  1  0.252786  0.252786  0.252786  1
  Y  Y1  1  0.747214  0.747214  0.747214  1
  Y  Y2  1  0.747214  0.747214  0.252786  1
  Y  Y3  1  0.747214  0.252786  0.747214  1
  Y  Y4  1  0.252786  0.252786  0.747214  1
  Y  Y5  1  0.252786  0.747214  0.252786  1
  Y  Y6  1  0.252786  0.747214  0.747214  1
  Y  Y7  1  0.747214  0.252786  0.252786  1
  Pd  Pd8  1  0.255537  0.500000  0.500000  1
  Pd  Pd9  1  0.744463  0.500000  0.500000  1
  Pd  Pd10  1  0.500000  0.255537  0.500000  1
  Pd  Pd11  1  0.500000  0.744463  0.500000  1
  Pd  Pd12  1  0.500000  0.500000  0.255537  1
  Pd  Pd13  1  0.500000  0.500000  0.744463  1
  Pd  Pd14  1  0.316287  0.000000  0.000000  1
  Pd  Pd15  1  0.683713  0.000000  0.000000  1
  Pd  Pd16  1  0.000000  0.316287  0.000000  1
  Pd  Pd17  1  0.000000  0.683713  0.000000  1
  Pd  Pd18  1  0.000000  0.000000  0.316287  1
  Pd  Pd19  1  0.000000  0.000000  0.683713  1
  Pt  Pt20  1  0.266829  0.500000  0.000000  1
  Pt  Pt21  1  0.733171  0.500000  0.000000  1
  Pt  Pt22  1  0.000000  0.266829  0.500000  1
  Pt  Pt23  1  0.500000  0.266829  0.000000  1
  Pt  Pt24  1  0.000000  0.733171  0.500000  1
  Pt  Pt25  1  0.500000  0.733171  0.000000  1
  Pt  Pt26  1  0.500000  0.000000  0.266829  1
  Pt  Pt27  1  0.266829  0.000000  0.500000  1
  Pt  Pt28  1  0.500000  0.000000  0.733171  1
  Pt  Pt29  1  0.733171  0.000000  0.500000  1
  Pt  Pt30  1  0.000000  0.500000  0.266829  1
  Pt  Pt31  1  0.000000  0.500000  0.733171  1
  Pb  Pb32  1  0.000000  0.000000  0.000000  1
