# generated using pymatgen
data_CsBa3(MnN2)4
_symmetry_space_group_name_H-M   'P 1'
_cell_length_a   6.55324265
_cell_length_b   6.55324274
_cell_length_c   7.87046762
_cell_angle_alpha   90.76566926
_cell_angle_beta   89.23433224
_cell_angle_gamma   127.22722299
_symmetry_Int_Tables_number   1
_chemical_formula_structural   CsBa3(MnN2)4
_chemical_formula_sum   'Cs1 Ba3 Mn4 N8'
_cell_volume   269.09777377
_cell_formula_units_Z   1
loop_
 _symmetry_equiv_pos_site_id
 _symmetry_equiv_pos_as_xyz
  1  'x, y, z'
loop_
 _atom_site_type_symbol
 _atom_site_label
 _atom_site_symmetry_multiplicity
 _atom_site_fract_x
 _atom_site_fract_y
 _atom_site_fract_z
 _atom_site_occupancy
  Cs  Cs0  1  0.835990  0.164010  0.564961  1
  Ba  Ba1  1  0.154481  0.845519  0.449384  1
  Ba  Ba2  1  0.655291  0.344709  0.056966  1
  Ba  Ba3  1  0.347612  0.652388  0.945862  1
  Mn  Mn4  1  0.543155  0.456845  0.633519  1
  Mn  Mn5  1  0.452393  0.547607  0.362301  1
  Mn  Mn6  1  0.956635  0.043365  0.135889  1
  Mn  Mn7  1  0.048812  0.951188  0.866559  1
  N  N8  1  0.895835  0.104165  0.927232  1
  N  N9  1  0.113420  0.886580  0.080853  1
  N  N10  1  0.602157  0.397843  0.413804  1
  N  N11  1  0.394009  0.605991  0.579903  1
  N  N12  1  0.331406  0.171967  0.750635  1
  N  N13  1  0.177189  0.336418  0.240748  1
  N  N14  1  0.663582  0.822811  0.240748  1
  N  N15  1  0.828033  0.668594  0.750635  1
