# generated using pymatgen
data_Ho9Tm(AlBi2)2
_symmetry_space_group_name_H-M   'P 1'
_cell_length_a   8.98918900
_cell_length_b   8.98304344
_cell_length_c   6.45423200
_cell_angle_alpha   89.99957904
_cell_angle_beta   90.00031869
_cell_angle_gamma   119.83650255
_symmetry_Int_Tables_number   1
_chemical_formula_structural   Ho9Tm(AlBi2)2
_chemical_formula_sum   'Ho9 Tm1 Al2 Bi4'
_cell_volume   452.09776966
_cell_formula_units_Z   1
loop_
 _symmetry_equiv_pos_site_id
 _symmetry_equiv_pos_as_xyz
  1  'x, y, z'
loop_
 _atom_site_type_symbol
 _atom_site_label
 _atom_site_symmetry_multiplicity
 _atom_site_fract_x
 _atom_site_fract_y
 _atom_site_fract_z
 _atom_site_occupancy
  Ho  Ho0  1  0.669114  0.325993  0.507139  1
  Ho  Ho1  1  0.325998  0.669181  0.507121  1
  Ho  Ho2  1  0.326002  0.669185  0.992878  1
  Ho  Ho3  1  0.669115  0.325999  0.992861  1
  Ho  Ho4  1  0.761916  0.761875  0.250000  1
  Ho  Ho5  1  0.236747  0.998474  0.250000  1
  Ho  Ho6  1  0.232919  0.232962  0.750004  1
  Ho  Ho7  1  0.765655  0.013518  0.750002  1
  Ho  Ho8  1  0.013600  0.765832  0.749997  1
  Tm  Tm9  1  0.998531  0.236519  0.250000  1
  Al  Al10  1  0.397244  0.001490  0.749998  1
  Al  Al11  1  0.001412  0.397326  0.750002  1
  Bi  Bi12  1  0.394518  0.394773  0.250005  1
  Bi  Bi13  1  0.601304  0.995703  0.250000  1
  Bi  Bi14  1  0.995461  0.600632  0.249995  1
  Bi  Bi15  1  0.610462  0.610540  0.750001  1
