# generated using pymatgen
data_V12Zn3Ga5N4
_symmetry_space_group_name_H-M   'P 1'
_cell_length_a   6.59476689
_cell_length_b   6.59476689
_cell_length_c   6.59476689
_cell_angle_alpha   90.07576962
_cell_angle_beta   89.92423038
_cell_angle_gamma   89.92423038
_symmetry_Int_Tables_number   1
_chemical_formula_structural   V12Zn3Ga5N4
_chemical_formula_sum   'V12 Zn3 Ga5 N4'
_cell_volume   286.81192560
_cell_formula_units_Z   1
loop_
 _symmetry_equiv_pos_site_id
 _symmetry_equiv_pos_as_xyz
  1  'x, y, z'
loop_
 _atom_site_type_symbol
 _atom_site_label
 _atom_site_symmetry_multiplicity
 _atom_site_fract_x
 _atom_site_fract_y
 _atom_site_fract_z
 _atom_site_occupancy
  V  V0  1  0.790382  0.960310  0.375274  1
  V  V1  1  0.709022  0.041240  0.875804  1
  V  V2  1  0.210952  0.460480  0.123271  1
  V  V3  1  0.291219  0.538538  0.626620  1
  V  V4  1  0.958760  0.375804  0.790978  1
  V  V5  1  0.039690  0.875274  0.709618  1
  V  V6  1  0.461462  0.126620  0.208781  1
  V  V7  1  0.539520  0.623271  0.289048  1
  V  V8  1  0.376729  0.789048  0.960480  1
  V  V9  1  0.873380  0.708781  0.038538  1
  V  V10  1  0.124726  0.209618  0.460310  1
  V  V11  1  0.624196  0.290978  0.541240  1
  Zn  Zn12  1  0.429339  0.930263  0.568360  1
  Zn  Zn13  1  0.931640  0.570661  0.430263  1
  Zn  Zn14  1  0.069737  0.068360  0.070661  1
  Ga  Ga15  1  0.178140  0.821860  0.321860  1
  Ga  Ga16  1  0.317361  0.173745  0.820879  1
  Ga  Ga17  1  0.826255  0.320879  0.182639  1
  Ga  Ga18  1  0.679121  0.682639  0.673745  1
  Ga  Ga19  1  0.570930  0.429070  0.929070  1
  N  N20  1  0.873976  0.126024  0.626024  1
  N  N21  1  0.625547  0.875343  0.126739  1
  N  N22  1  0.124657  0.626739  0.874453  1
  N  N23  1  0.373261  0.374453  0.375343  1
