# generated using pymatgen
data_Ca10MnFe3N14
_symmetry_space_group_name_H-M   'P 1'
_cell_length_a   6.00825435
_cell_length_b   8.55527794
_cell_length_c   8.58092339
_cell_angle_alpha   114.64891699
_cell_angle_beta   97.61738743
_cell_angle_gamma   89.53308832
_symmetry_Int_Tables_number   1
_chemical_formula_structural   Ca10MnFe3N14
_chemical_formula_sum   'Ca10 Mn1 Fe3 N14'
_cell_volume   396.80615711
_cell_formula_units_Z   1
loop_
 _symmetry_equiv_pos_site_id
 _symmetry_equiv_pos_as_xyz
  1  'x, y, z'
loop_
 _atom_site_type_symbol
 _atom_site_label
 _atom_site_symmetry_multiplicity
 _atom_site_fract_x
 _atom_site_fract_y
 _atom_site_fract_z
 _atom_site_occupancy
  Ca  Ca0  1  0.847865  0.594423  0.334312  1
  Ca  Ca1  1  0.270257  0.985450  0.575868  1
  Ca  Ca2  1  0.715556  0.416188  0.856924  1
  Ca  Ca3  1  0.285455  0.584443  0.145476  1
  Ca  Ca4  1  0.406063  0.790161  0.916209  1
  Ca  Ca5  1  0.593599  0.208964  0.080193  1
  Ca  Ca6  1  0.152806  0.407875  0.667836  1
  Ca  Ca7  1  0.896645  0.852668  0.769057  1
  Ca  Ca8  1  0.102876  0.146859  0.229299  1
  Ca  Ca9  1  0.729477  0.010276  0.425367  1
  Mn  Mn10  1  0.573484  0.357886  0.472991  1
  Fe  Fe11  1  0.426834  0.639358  0.525544  1
  Fe  Fe12  1  0.120878  0.219547  0.912938  1
  Fe  Fe13  1  0.878913  0.780928  0.087095  1
  N  N14  1  0.539954  0.545909  0.671587  1
  N  N15  1  0.460473  0.449454  0.326584  1
  N  N16  1  0.160152  0.706331  0.571380  1
  N  N17  1  0.838819  0.297259  0.431827  1
  N  N18  1  0.410483  0.189467  0.465490  1
  N  N19  1  0.589050  0.813210  0.533522  1
  N  N20  1  0.949057  0.147655  0.715409  1
  N  N21  1  0.050929  0.853749  0.284593  1
  N  N22  1  0.235140  0.047891  0.951343  1
  N  N23  1  0.765197  0.952960  0.048764  1
  N  N24  1  0.357917  0.327248  0.896077  1
  N  N25  1  0.971078  0.348829  0.081085  1
  N  N26  1  0.028720  0.651544  0.919254  1
  N  N27  1  0.642324  0.673467  0.103976  1
