# generated using pymatgen
data_K6UO6
_symmetry_space_group_name_H-M   'P 1'
_cell_length_a   6.59336311
_cell_length_b   6.59336260
_cell_length_c   6.59336302
_cell_angle_alpha   101.90967692
_cell_angle_beta   101.90968414
_cell_angle_gamma   101.90967192
_symmetry_Int_Tables_number   1
_chemical_formula_structural   K6UO6
_chemical_formula_sum   'K6 U1 O6'
_cell_volume   264.98231276
_cell_formula_units_Z   1
loop_
 _symmetry_equiv_pos_site_id
 _symmetry_equiv_pos_as_xyz
  1  'x, y, z'
loop_
 _atom_site_type_symbol
 _atom_site_label
 _atom_site_symmetry_multiplicity
 _atom_site_fract_x
 _atom_site_fract_y
 _atom_site_fract_z
 _atom_site_occupancy
  K  K0  1  0.277033  0.583261  0.119899  1
  K  K1  1  0.583261  0.119900  0.277033  1
  K  K2  1  0.880100  0.722967  0.416739  1
  K  K3  1  0.119899  0.277033  0.583261  1
  K  K4  1  0.416739  0.880100  0.722967  1
  K  K5  1  0.722967  0.416739  0.880100  1
  U  U6  1  0.000000  0.000000  0.000000  1
  O  O7  1  0.713040  0.819297  0.046202  1
  O  O8  1  0.953798  0.286960  0.180703  1
  O  O9  1  0.180702  0.953798  0.286960  1
  O  O10  1  0.819297  0.046202  0.713040  1
  O  O11  1  0.046202  0.713040  0.819297  1
  O  O12  1  0.286960  0.180703  0.953797  1
