# generated using pymatgen
data_Tb6YCo6Sn23
_symmetry_space_group_name_H-M   'P 1'
_cell_length_a   9.71837300
_cell_length_b   9.71837334
_cell_length_c   9.97984500
_cell_angle_alpha   90.00000000
_cell_angle_beta   90.00000000
_cell_angle_gamma   120.00000226
_symmetry_Int_Tables_number   1
_chemical_formula_structural   Tb6YCo6Sn23
_chemical_formula_sum   'Tb6 Y1 Co6 Sn23'
_cell_volume   816.28451937
_cell_formula_units_Z   1
loop_
 _symmetry_equiv_pos_site_id
 _symmetry_equiv_pos_as_xyz
  1  'x, y, z'
loop_
 _atom_site_type_symbol
 _atom_site_label
 _atom_site_symmetry_multiplicity
 _atom_site_fract_x
 _atom_site_fract_y
 _atom_site_fract_z
 _atom_site_occupancy
  Tb  Tb0  1  0.478468  0.521532  0.305851  1
  Tb  Tb1  1  0.521532  0.478468  0.694149  1
  Tb  Tb2  1  0.478468  0.956938  0.305851  1
  Tb  Tb3  1  0.521532  0.043062  0.694149  1
  Tb  Tb4  1  0.043062  0.521532  0.305851  1
  Tb  Tb5  1  0.956938  0.478468  0.694149  1
  Y  Y6  1  0.000000  0.000000  0.000000  1
  Co  Co7  1  0.832590  0.167410  0.196770  1
  Co  Co8  1  0.167410  0.832590  0.803230  1
  Co  Co9  1  0.832590  0.665181  0.196770  1
  Co  Co10  1  0.167410  0.334819  0.803230  1
  Co  Co11  1  0.334819  0.167410  0.196770  1
  Co  Co12  1  0.665181  0.832590  0.803230  1
  Sn  Sn13  1  0.117934  0.882066  0.274834  1
  Sn  Sn14  1  0.882066  0.117934  0.725166  1
  Sn  Sn15  1  0.117934  0.235868  0.274834  1
  Sn  Sn16  1  0.882066  0.764132  0.725166  1
  Sn  Sn17  1  0.764132  0.882066  0.274834  1
  Sn  Sn18  1  0.235868  0.117934  0.725166  1
  Sn  Sn19  1  0.781136  0.218864  0.451582  1
  Sn  Sn20  1  0.218864  0.781136  0.548418  1
  Sn  Sn21  1  0.781136  0.562272  0.451582  1
  Sn  Sn22  1  0.218864  0.437728  0.548418  1
  Sn  Sn23  1  0.437728  0.218864  0.451582  1
  Sn  Sn24  1  0.562272  0.781136  0.548418  1
  Sn  Sn25  1  0.345863  0.000000  0.000000  1
  Sn  Sn26  1  0.654137  0.000000  0.000000  1
  Sn  Sn27  1  0.000000  0.345863  0.000000  1
  Sn  Sn28  1  0.000000  0.654137  0.000000  1
  Sn  Sn29  1  0.654137  0.654137  0.000000  1
  Sn  Sn30  1  0.345863  0.345863  0.000000  1
  Sn  Sn31  1  0.333333  0.666667  0.116624  1
  Sn  Sn32  1  0.666667  0.333333  0.883376  1
  Sn  Sn33  1  0.333333  0.666667  0.818348  1
  Sn  Sn34  1  0.666667  0.333333  0.181652  1
  Sn  Sn35  1  0.000000  0.000000  0.500000  1
