# generated using pymatgen
data_Sc(TiTc6)4
_symmetry_space_group_name_H-M   'P 1'
_cell_length_a   8.32036528
_cell_length_b   8.32036435
_cell_length_c   8.32036500
_cell_angle_alpha   109.47121491
_cell_angle_beta   109.47121265
_cell_angle_gamma   109.47123087
_symmetry_Int_Tables_number   1
_chemical_formula_structural   Sc(TiTc6)4
_chemical_formula_sum   'Sc1 Ti4 Tc24'
_cell_volume   443.40975546
_cell_formula_units_Z   1
loop_
 _symmetry_equiv_pos_site_id
 _symmetry_equiv_pos_as_xyz
  1  'x, y, z'
loop_
 _atom_site_type_symbol
 _atom_site_label
 _atom_site_symmetry_multiplicity
 _atom_site_fract_x
 _atom_site_fract_y
 _atom_site_fract_z
 _atom_site_occupancy
  Sc  Sc0  1  0.000000  0.000000  0.000000  1
  Ti  Ti1  1  0.373731  0.373731  0.373731  1
  Ti  Ti2  1  0.000000  0.626269  0.000000  1
  Ti  Ti3  1  0.626269  0.000000  0.000000  1
  Ti  Ti4  1  0.000000  0.000000  0.626269  1
  Tc  Tc5  1  0.000000  0.397515  0.678940  1
  Tc  Tc6  1  0.281426  0.602485  0.602485  1
  Tc  Tc7  1  0.718574  0.321060  0.321060  1
  Tc  Tc8  1  0.321060  0.718574  0.321060  1
  Tc  Tc9  1  0.678940  0.000000  0.397515  1
  Tc  Tc10  1  0.000000  0.678940  0.397515  1
  Tc  Tc11  1  0.602485  0.602485  0.281426  1
  Tc  Tc12  1  0.806300  0.806300  0.180426  1
  Tc  Tc13  1  0.374125  0.193700  0.000000  1
  Tc  Tc14  1  0.193700  0.374125  0.000000  1
  Tc  Tc15  1  0.625875  0.819574  0.625875  1
  Tc  Tc16  1  0.374125  0.000000  0.193700  1
  Tc  Tc17  1  0.000000  0.374125  0.193700  1
  Tc  Tc18  1  0.819574  0.625875  0.625875  1
  Tc  Tc19  1  0.180426  0.806300  0.806300  1
  Tc  Tc20  1  0.806300  0.180426  0.806300  1
  Tc  Tc21  1  0.193700  0.000000  0.374125  1
  Tc  Tc22  1  0.000000  0.193700  0.374125  1
  Tc  Tc23  1  0.625875  0.625875  0.819574  1
  Tc  Tc24  1  0.397515  0.000000  0.678940  1
  Tc  Tc25  1  0.602485  0.281426  0.602485  1
  Tc  Tc26  1  0.678940  0.397515  0.000000  1
  Tc  Tc27  1  0.397515  0.678940  0.000000  1
  Tc  Tc28  1  0.321060  0.321060  0.718574  1
