# generated using pymatgen
data_YbBi4I3
_symmetry_space_group_name_H-M   'P 1'
_cell_length_a   23.87829095
_cell_length_b   23.87829045
_cell_length_c   6.75835026
_cell_angle_alpha   80.23048417
_cell_angle_beta   80.23048363
_cell_angle_gamma   14.37552754
_symmetry_Int_Tables_number   1
_chemical_formula_structural   YbBi4I3
_chemical_formula_sum   'Yb3 Bi12 I9'
_cell_volume   942.61784767
_cell_formula_units_Z   3
loop_
 _symmetry_equiv_pos_site_id
 _symmetry_equiv_pos_as_xyz
  1  'x, y, z'
loop_
 _atom_site_type_symbol
 _atom_site_label
 _atom_site_symmetry_multiplicity
 _atom_site_fract_x
 _atom_site_fract_y
 _atom_site_fract_z
 _atom_site_occupancy
  Yb  Yb0  1  0.929103  0.929103  0.152055  1
  Yb  Yb1  1  0.483090  0.483090  0.644082  1
  Yb  Yb2  1  0.613332  0.613332  0.578237  1
  Bi  Bi3  1  0.088450  0.088450  0.045363  1
  Bi  Bi4  1  0.739344  0.739344  0.008282  1
  Bi  Bi5  1  0.242943  0.242943  0.504913  1
  Bi  Bi6  1  0.236419  0.236419  0.014436  1
  Bi  Bi7  1  0.742650  0.742650  0.506327  1
  Bi  Bi8  1  0.870213  0.870213  0.944899  1
  Bi  Bi9  1  0.300785  0.300785  0.153474  1
  Bi  Bi10  1  0.171448  0.171448  0.280346  1
  Bi  Bi11  1  0.676424  0.676424  0.775199  1
  Bi  Bi12  1  0.802523  0.802523  0.148694  1
  Bi  Bi13  1  0.173840  0.173840  0.780732  1
  Bi  Bi14  1  0.673220  0.673220  0.270486  1
  I  I15  1  0.086365  0.086365  0.540395  1
  I  I16  1  0.590882  0.590882  0.055660  1
  I  I17  1  0.875489  0.875489  0.452785  1
  I  I18  1  0.375634  0.375634  0.949630  1
  I  I19  1  0.461891  0.461891  0.132822  1
  I  I20  1  0.953826  0.953826  0.677518  1
  I  I21  1  0.542964  0.542964  0.620433  1
  I  I22  1  0.024309  0.024309  0.130831  1
  I  I23  1  0.312941  0.312941  0.632403  1
