# generated using pymatgen
data_Er2HfSn3Rh10
_symmetry_space_group_name_H-M   'P 1'
_cell_length_a   4.17698300
_cell_length_b   5.64995122
_cell_length_c   11.15006900
_cell_angle_alpha   90.83516587
_cell_angle_beta   90.00000000
_cell_angle_gamma   90.00000000
_symmetry_Int_Tables_number   1
_chemical_formula_structural   Er2HfSn3Rh10
_chemical_formula_sum   'Er2 Hf1 Sn3 Rh10'
_cell_volume   263.11088864
_cell_formula_units_Z   1
loop_
 _symmetry_equiv_pos_site_id
 _symmetry_equiv_pos_as_xyz
  1  'x, y, z'
loop_
 _atom_site_type_symbol
 _atom_site_label
 _atom_site_symmetry_multiplicity
 _atom_site_fract_x
 _atom_site_fract_y
 _atom_site_fract_z
 _atom_site_occupancy
  Er  Er0  1  0.500000  0.826729  0.360304  1
  Er  Er1  1  0.500000  0.674404  0.861398  1
  Hf  Hf2  1  0.500000  0.318488  0.141780  1
  Sn  Sn3  1  0.500000  0.171562  0.645120  1
  Sn  Sn4  1  0.000000  0.518084  0.495603  1
  Sn  Sn5  1  0.000000  0.995703  0.001082  1
  Rh  Rh6  1  0.500000  0.191981  0.889244  1
  Rh  Rh7  1  0.500000  0.797873  0.113925  1
  Rh  Rh8  1  0.500000  0.695571  0.613264  1
  Rh  Rh9  1  0.500000  0.312682  0.384479  1
  Rh  Rh10  1  0.000000  0.423774  0.737340  1
  Rh  Rh11  1  0.000000  0.558875  0.247206  1
  Rh  Rh12  1  0.000000  0.028775  0.506272  1
  Rh  Rh13  1  0.000000  0.488413  0.002412  1
  Rh  Rh14  1  0.000000  0.068886  0.245751  1
  Rh  Rh15  1  0.000000  0.928202  0.754822  1
