# generated using pymatgen
data_Tb10Nd6MgCo4Hg3
_symmetry_space_group_name_H-M   'P 1'
_cell_length_a   9.68946249
_cell_length_b   9.69569850
_cell_length_c   9.69475174
_cell_angle_alpha   59.64707374
_cell_angle_beta   60.14958921
_cell_angle_gamma   60.14948275
_symmetry_Int_Tables_number   1
_chemical_formula_structural   Tb10Nd6MgCo4Hg3
_chemical_formula_sum   'Tb10 Nd6 Mg1 Co4 Hg3'
_cell_volume   643.72661034
_cell_formula_units_Z   1
loop_
 _symmetry_equiv_pos_site_id
 _symmetry_equiv_pos_as_xyz
  1  'x, y, z'
loop_
 _atom_site_type_symbol
 _atom_site_label
 _atom_site_symmetry_multiplicity
 _atom_site_fract_x
 _atom_site_fract_y
 _atom_site_fract_z
 _atom_site_occupancy
  Tb  Tb0  1  0.342953  0.345038  0.344910  1
  Tb  Tb1  1  0.347758  0.344851  0.966341  1
  Tb  Tb2  1  0.347805  0.966291  0.344809  1
  Tb  Tb3  1  0.954913  0.348988  0.348893  1
  Tb  Tb4  1  0.810479  0.187947  0.187961  1
  Tb  Tb5  1  0.179447  0.815385  0.815532  1
  Tb  Tb6  1  0.184977  0.812731  0.185305  1
  Tb  Tb7  1  0.808353  0.188233  0.812188  1
  Tb  Tb8  1  0.184980  0.185324  0.812787  1
  Tb  Tb9  1  0.808421  0.812138  0.188232  1
  Nd  Nd10  1  0.941554  0.558965  0.558980  1
  Nd  Nd11  1  0.555342  0.941681  0.941685  1
  Nd  Nd12  1  0.558105  0.941538  0.560458  1
  Nd  Nd13  1  0.943387  0.557626  0.940803  1
  Nd  Nd14  1  0.558131  0.560457  0.941495  1
  Nd  Nd15  1  0.943403  0.940776  0.557640  1
  Mg  Mg16  1  0.287304  0.569893  0.569891  1
  Co  Co17  1  0.140265  0.141616  0.141599  1
  Co  Co18  1  0.139130  0.143060  0.578388  1
  Co  Co19  1  0.139126  0.578395  0.143059  1
  Co  Co20  1  0.577722  0.142277  0.142274  1
  Hg  Hg21  1  0.581321  0.583237  0.583229  1
  Hg  Hg22  1  0.582558  0.583490  0.250065  1
  Hg  Hg23  1  0.582568  0.250066  0.583479  1
