# generated using pymatgen
data_Nb6GaNi6
_symmetry_space_group_name_H-M   'P 1'
_cell_length_a   9.29427410
_cell_length_b   9.29427393
_cell_length_c   9.29427297
_cell_angle_alpha   30.68287598
_cell_angle_beta   30.68287996
_cell_angle_gamma   30.68287141
_symmetry_Int_Tables_number   1
_chemical_formula_structural   Nb6GaNi6
_chemical_formula_sum   'Nb6 Ga1 Ni6'
_cell_volume   185.37222775
_cell_formula_units_Z   1
loop_
 _symmetry_equiv_pos_site_id
 _symmetry_equiv_pos_as_xyz
  1  'x, y, z'
loop_
 _atom_site_type_symbol
 _atom_site_label
 _atom_site_symmetry_multiplicity
 _atom_site_fract_x
 _atom_site_fract_y
 _atom_site_fract_z
 _atom_site_occupancy
  Nb  Nb0  1  0.829678  0.829678  0.829678  1
  Nb  Nb1  1  0.170322  0.170322  0.170322  1
  Nb  Nb2  1  0.656204  0.656204  0.656204  1
  Nb  Nb3  1  0.343796  0.343796  0.343796  1
  Nb  Nb4  1  0.549983  0.549983  0.549983  1
  Nb  Nb5  1  0.450017  0.450017  0.450017  1
  Ga  Ga6  1  0.000000  0.000000  0.000000  1
  Ni  Ni7  1  0.413156  0.909185  0.909185  1
  Ni  Ni8  1  0.909185  0.909185  0.413156  1
  Ni  Ni9  1  0.909185  0.413156  0.909185  1
  Ni  Ni10  1  0.586844  0.090815  0.090815  1
  Ni  Ni11  1  0.090815  0.090815  0.586844  1
  Ni  Ni12  1  0.090815  0.586844  0.090815  1
