# generated using pymatgen
data_PrDyNCl3
_symmetry_space_group_name_H-M   'P 1'
_cell_length_a   8.60813871
_cell_length_b   8.60814030
_cell_length_c   11.00601000
_cell_angle_alpha   60.16886129
_cell_angle_beta   60.16885448
_cell_angle_gamma   26.68055691
_symmetry_Int_Tables_number   1
_chemical_formula_structural   PrDyNCl3
_chemical_formula_sum   'Pr2 Dy2 N2 Cl6'
_cell_volume   314.72015781
_cell_formula_units_Z   2
loop_
 _symmetry_equiv_pos_site_id
 _symmetry_equiv_pos_as_xyz
  1  'x, y, z'
loop_
 _atom_site_type_symbol
 _atom_site_label
 _atom_site_symmetry_multiplicity
 _atom_site_fract_x
 _atom_site_fract_y
 _atom_site_fract_z
 _atom_site_occupancy
  Pr  Pr0  1  0.862661  0.862661  0.291496  1
  Pr  Pr1  1  0.137339  0.137339  0.708504  1
  Dy  Dy2  1  0.582301  0.582301  0.044264  1
  Dy  Dy3  1  0.417699  0.417699  0.955736  1
  N  N4  1  0.427387  0.427387  0.150948  1
  N  N5  1  0.572613  0.572613  0.849052  1
  Cl  Cl6  1  0.050629  0.050629  0.239516  1
  Cl  Cl7  1  0.949371  0.949371  0.760484  1
  Cl  Cl8  1  0.664393  0.664393  0.486830  1
  Cl  Cl9  1  0.335607  0.335607  0.513170  1
  Cl  Cl10  1  0.785895  0.785895  0.105347  1
  Cl  Cl11  1  0.214105  0.214105  0.894653  1
