# generated using pymatgen
data_Sc3InNi(SnPt)2
_symmetry_space_group_name_H-M   'P 1'
_cell_length_a   7.54170400
_cell_length_b   7.53546406
_cell_length_c   3.47375500
_cell_angle_alpha   90.00000000
_cell_angle_beta   90.00000000
_cell_angle_gamma   120.02739631
_symmetry_Int_Tables_number   1
_chemical_formula_structural   Sc3InNi(SnPt)2
_chemical_formula_sum   'Sc3 In1 Ni1 Sn2 Pt2'
_cell_volume   170.91860663
_cell_formula_units_Z   1
loop_
 _symmetry_equiv_pos_site_id
 _symmetry_equiv_pos_as_xyz
  1  'x, y, z'
loop_
 _atom_site_type_symbol
 _atom_site_label
 _atom_site_symmetry_multiplicity
 _atom_site_fract_x
 _atom_site_fract_y
 _atom_site_fract_z
 _atom_site_occupancy
  Sc  Sc0  1  0.598908  0.000000  0.000000  1
  Sc  Sc1  1  0.400191  0.396962  0.000000  1
  Sc  Sc2  1  0.003229  0.603038  0.000000  1
  In  In3  1  0.261054  0.000000  0.500000  1
  Ni  Ni4  1  0.990339  0.000000  0.000000  1
  Sn  Sn5  1  0.739659  0.736789  0.500000  1
  Sn  Sn6  1  0.002870  0.263211  0.500000  1
  Pt  Pt7  1  0.668613  0.333475  0.500000  1
  Pt  Pt8  1  0.335137  0.666525  0.500000  1
