# generated using pymatgen
data_Y16MgTl(AgRh2)2
_symmetry_space_group_name_H-M   'P 1'
_cell_length_a   9.67183723
_cell_length_b   9.67028660
_cell_length_c   9.67057806
_cell_angle_alpha   59.71754315
_cell_angle_beta   59.71355132
_cell_angle_gamma   59.71458083
_symmetry_Int_Tables_number   1
_chemical_formula_structural   Y16MgTl(AgRh2)2
_chemical_formula_sum   'Y16 Mg1 Tl1 Ag2 Rh4'
_cell_volume   635.42984541
_cell_formula_units_Z   1
loop_
 _symmetry_equiv_pos_site_id
 _symmetry_equiv_pos_as_xyz
  1  'x, y, z'
loop_
 _atom_site_type_symbol
 _atom_site_label
 _atom_site_symmetry_multiplicity
 _atom_site_fract_x
 _atom_site_fract_y
 _atom_site_fract_z
 _atom_site_occupancy
  Y  Y0  1  0.597680  0.597539  0.597494  1
  Y  Y1  1  0.600084  0.600399  0.203617  1
  Y  Y2  1  0.600097  0.203583  0.600395  1
  Y  Y3  1  0.192704  0.603516  0.603493  1
  Y  Y4  1  0.058595  0.439572  0.439577  1
  Y  Y5  1  0.440126  0.059493  0.059503  1
  Y  Y6  1  0.436201  0.061885  0.437483  1
  Y  Y7  1  0.058206  0.440414  0.059001  1
  Y  Y8  1  0.436204  0.437488  0.061891  1
  Y  Y9  1  0.058215  0.058988  0.440413  1
  Y  Y10  1  0.186546  0.815247  0.815250  1
  Y  Y11  1  0.813197  0.187551  0.187559  1
  Y  Y12  1  0.814375  0.191456  0.815940  1
  Y  Y13  1  0.186130  0.813459  0.189091  1
  Y  Y14  1  0.814370  0.815947  0.191458  1
  Y  Y15  1  0.186125  0.189090  0.813462  1
  Mg  Mg16  1  0.535542  0.817200  0.817187  1
  Tl  Tl17  1  0.832555  0.833055  0.833052  1
  Ag  Ag18  1  0.831251  0.833301  0.497479  1
  Ag  Ag19  1  0.831244  0.497478  0.833305  1
  Rh  Rh20  1  0.388431  0.394015  0.394012  1
  Rh  Rh21  1  0.389289  0.393508  0.823598  1
  Rh  Rh22  1  0.389302  0.823588  0.393506  1
  Rh  Rh23  1  0.823531  0.392230  0.392233  1
