# generated using pymatgen
data_Hf4Al4V3Au
_symmetry_space_group_name_H-M   'P 1'
_cell_length_a   5.26498103
_cell_length_b   5.26498151
_cell_length_c   8.66393300
_cell_angle_alpha   90.00000000
_cell_angle_beta   90.00000000
_cell_angle_gamma   119.79685139
_symmetry_Int_Tables_number   1
_chemical_formula_structural   Hf4Al4V3Au
_chemical_formula_sum   'Hf4 Al4 V3 Au1'
_cell_volume   208.41298346
_cell_formula_units_Z   1
loop_
 _symmetry_equiv_pos_site_id
 _symmetry_equiv_pos_as_xyz
  1  'x, y, z'
loop_
 _atom_site_type_symbol
 _atom_site_label
 _atom_site_symmetry_multiplicity
 _atom_site_fract_x
 _atom_site_fract_y
 _atom_site_fract_z
 _atom_site_occupancy
  Hf  Hf0  1  0.665480  0.334520  0.301522  1
  Hf  Hf1  1  0.334775  0.665225  0.175231  1
  Hf  Hf2  1  0.334775  0.665225  0.824769  1
  Hf  Hf3  1  0.665480  0.334520  0.698478  1
  Al  Al4  1  0.000154  0.999846  0.241891  1
  Al  Al5  1  0.000154  0.999846  0.758109  1
  Al  Al6  1  0.655725  0.831293  0.500000  1
  Al  Al7  1  0.168707  0.344275  0.500000  1
  V  V8  1  0.362126  0.176073  0.000000  1
  V  V9  1  0.823927  0.637874  0.000000  1
  V  V10  1  0.821456  0.178544  0.000000  1
  Au  Au11  1  0.167095  0.832905  0.500000  1
