# generated using pymatgen
data_Dy2Mn2P6N13
_symmetry_space_group_name_H-M   'P 1'
_cell_length_a   7.19433230
_cell_length_b   7.22982679
_cell_length_c   7.19433400
_cell_angle_alpha   109.08936837
_cell_angle_beta   110.04073197
_cell_angle_gamma   109.08937453
_symmetry_Int_Tables_number   1
_chemical_formula_structural   Dy2Mn2P6N13
_chemical_formula_sum   'Dy2 Mn2 P6 N13'
_cell_volume   288.73105967
_cell_formula_units_Z   1
loop_
 _symmetry_equiv_pos_site_id
 _symmetry_equiv_pos_as_xyz
  1  'x, y, z'
loop_
 _atom_site_type_symbol
 _atom_site_label
 _atom_site_symmetry_multiplicity
 _atom_site_fract_x
 _atom_site_fract_y
 _atom_site_fract_z
 _atom_site_occupancy
  Dy  Dy0  1  0.709404  0.000000  0.016077  1
  Dy  Dy1  1  0.016077  0.000000  0.709404  1
  Mn  Mn2  1  0.996182  0.708149  0.996182  1
  Mn  Mn3  1  0.288033  0.291851  0.288033  1
  P  P4  1  0.248834  0.747494  0.494068  1
  P  P5  1  0.746574  0.252506  0.501340  1
  P  P6  1  0.746421  0.500000  0.246421  1
  P  P7  1  0.246421  0.500000  0.746421  1
  P  P8  1  0.494068  0.747494  0.248834  1
  P  P9  1  0.501340  0.252506  0.746574  1
  N  N10  1  0.014516  0.000000  0.014516  1
  N  N11  1  0.717501  0.283118  0.281116  1
  N  N12  1  0.271776  0.720855  0.271776  1
  N  N13  1  0.295905  0.566752  0.564289  1
  N  N14  1  0.564289  0.566752  0.295905  1
  N  N15  1  0.434383  0.716882  0.997999  1
  N  N16  1  0.997999  0.716882  0.434383  1
  N  N17  1  0.550921  0.279145  0.550921  1
  N  N18  1  0.723011  0.000000  0.428541  1
  N  N19  1  0.428541  0.000000  0.723011  1
  N  N20  1  0.729152  0.433248  0.997537  1
  N  N21  1  0.281116  0.283118  0.717501  1
  N  N22  1  0.997537  0.433248  0.729152  1
