# generated using pymatgen
data_Sm3Th(B4W)4
_symmetry_space_group_name_H-M   'P 1'
_cell_length_a   6.10324635
_cell_length_b   11.80966438
_cell_length_c   3.69294400
_cell_angle_alpha   90.00000000
_cell_angle_beta   90.00000000
_cell_angle_gamma   90.08286245
_symmetry_Int_Tables_number   1
_chemical_formula_structural   Sm3Th(B4W)4
_chemical_formula_sum   'Sm3 Th1 B16 W4'
_cell_volume   266.17712084
_cell_formula_units_Z   1
loop_
 _symmetry_equiv_pos_site_id
 _symmetry_equiv_pos_as_xyz
  1  'x, y, z'
loop_
 _atom_site_type_symbol
 _atom_site_label
 _atom_site_symmetry_multiplicity
 _atom_site_fract_x
 _atom_site_fract_y
 _atom_site_fract_z
 _atom_site_occupancy
  Sm  Sm0  1  0.625779  0.349885  0.000000  1
  Sm  Sm1  1  0.374811  0.648868  0.000000  1
  Sm  Sm2  1  0.126012  0.151591  0.000000  1
  Th  Th3  1  0.875103  0.848690  0.000000  1
  B  B4  1  0.783761  0.185924  0.500000  1
  B  B5  1  0.216689  0.814896  0.500000  1
  B  B6  1  0.284381  0.315018  0.500000  1
  B  B7  1  0.715359  0.684123  0.500000  1
  B  B8  1  0.862793  0.033034  0.500000  1
  B  B9  1  0.137098  0.967707  0.500000  1
  B  B10  1  0.364131  0.467528  0.500000  1
  B  B11  1  0.635691  0.531998  0.500000  1
  B  B12  1  0.886783  0.453306  0.500000  1
  B  B13  1  0.113002  0.545811  0.500000  1
  B  B14  1  0.386203  0.047050  0.500000  1
  B  B15  1  0.611378  0.954301  0.500000  1
  B  B16  1  0.975674  0.308540  0.500000  1
  B  B17  1  0.024429  0.690243  0.500000  1
  B  B18  1  0.475791  0.192158  0.500000  1
  B  B19  1  0.524872  0.808733  0.500000  1
  W  W20  1  0.629461  0.084705  0.000000  1
  W  W21  1  0.369891  0.915918  0.000000  1
  W  W22  1  0.129587  0.415923  0.000000  1
  W  W23  1  0.871320  0.584050  0.000000  1
