# generated using pymatgen
data_TbHo14Er(Tl3Co)2
_symmetry_space_group_name_H-M   'P 1'
_cell_length_a   10.32124200
_cell_length_b   10.31979846
_cell_length_c   7.12950800
_cell_angle_alpha   89.99673228
_cell_angle_beta   90.00017722
_cell_angle_gamma   120.00434834
_symmetry_Int_Tables_number   1
_chemical_formula_structural   TbHo14Er(Tl3Co)2
_chemical_formula_sum   'Tb1 Ho14 Er1 Tl6 Co2'
_cell_volume   657.61897755
_cell_formula_units_Z   1
loop_
 _symmetry_equiv_pos_site_id
 _symmetry_equiv_pos_as_xyz
  1  'x, y, z'
loop_
 _atom_site_type_symbol
 _atom_site_label
 _atom_site_symmetry_multiplicity
 _atom_site_fract_x
 _atom_site_fract_y
 _atom_site_fract_z
 _atom_site_occupancy
  Tb  Tb0  1  0.999968  0.999938  0.272459  1
  Ho  Ho1  1  0.000011  0.000020  0.772246  1
  Ho  Ho2  1  0.178251  0.822151  0.990679  1
  Ho  Ho3  1  0.821861  0.177854  0.491726  1
  Ho  Ho4  1  0.177981  0.355962  0.990856  1
  Ho  Ho5  1  0.643904  0.822154  0.990682  1
  Ho  Ho6  1  0.355991  0.177854  0.491722  1
  Ho  Ho7  1  0.822023  0.644049  0.491471  1
  Ho  Ho8  1  0.333426  0.666851  0.681620  1
  Ho  Ho9  1  0.666564  0.333132  0.180815  1
  Ho  Ho10  1  0.462109  0.537913  0.288656  1
  Ho  Ho11  1  0.537826  0.462102  0.788624  1
  Ho  Ho12  1  0.462185  0.924368  0.288754  1
  Ho  Ho13  1  0.075804  0.537914  0.288659  1
  Ho  Ho14  1  0.924277  0.462103  0.788624  1
  Er  Er15  1  0.538037  0.076075  0.788836  1
  Tl  Tl16  1  0.163569  0.836429  0.540612  1
  Tl  Tl17  1  0.836288  0.163626  0.039206  1
  Tl  Tl18  1  0.163535  0.327071  0.540478  1
  Tl  Tl19  1  0.672857  0.836422  0.540628  1
  Tl  Tl20  1  0.327343  0.163629  0.039209  1
  Tl  Tl21  1  0.836403  0.672804  0.039347  1
  Co  Co22  1  0.333337  0.666674  0.060299  1
  Co  Co23  1  0.666450  0.332903  0.559908  1
