# generated using pymatgen
data_LiLuNi3Ir
_symmetry_space_group_name_H-M   'P 1'
_cell_length_a   4.88057531
_cell_length_b   5.02416459
_cell_length_c   4.88057400
_cell_angle_alpha   60.94098656
_cell_angle_beta   59.99999530
_cell_angle_gamma   60.94098430
_symmetry_Int_Tables_number   1
_chemical_formula_structural   LiLuNi3Ir
_chemical_formula_sum   'Li1 Lu1 Ni3 Ir1'
_cell_volume   85.80714938
_cell_formula_units_Z   1
loop_
 _symmetry_equiv_pos_site_id
 _symmetry_equiv_pos_as_xyz
  1  'x, y, z'
loop_
 _atom_site_type_symbol
 _atom_site_label
 _atom_site_symmetry_multiplicity
 _atom_site_fract_x
 _atom_site_fract_y
 _atom_site_fract_z
 _atom_site_occupancy
  Li  Li0  1  0.747978  0.756066  0.747978  1
  Lu  Lu1  1  0.499411  0.501766  0.499411  1
  Ni  Ni2  1  0.125684  0.122238  0.125684  1
  Ni  Ni3  1  0.626393  0.122238  0.125684  1
  Ni  Ni4  1  0.125684  0.122238  0.626393  1
  Ir  Ir5  1  0.124849  0.625453  0.124849  1
