# generated using pymatgen
data_Ce8Zn(Si4Pd)3
_symmetry_space_group_name_H-M   'P 1'
_cell_length_a   8.23167500
_cell_length_b   8.23167504
_cell_length_c   8.39477700
_cell_angle_alpha   90.00000000
_cell_angle_beta   90.00000000
_cell_angle_gamma   119.99999582
_symmetry_Int_Tables_number   1
_chemical_formula_structural   Ce8Zn(Si4Pd)3
_chemical_formula_sum   'Ce8 Zn1 Si12 Pd3'
_cell_volume   492.62477204
_cell_formula_units_Z   1
loop_
 _symmetry_equiv_pos_site_id
 _symmetry_equiv_pos_as_xyz
  1  'x, y, z'
loop_
 _atom_site_type_symbol
 _atom_site_label
 _atom_site_symmetry_multiplicity
 _atom_site_fract_x
 _atom_site_fract_y
 _atom_site_fract_z
 _atom_site_occupancy
  Ce  Ce0  1  0.000000  0.000000  0.249475  1
  Ce  Ce1  1  0.000000  0.000000  0.750552  1
  Ce  Ce2  1  0.499731  0.500269  0.250424  1
  Ce  Ce3  1  0.499731  0.999461  0.250424  1
  Ce  Ce4  1  0.000539  0.500269  0.250424  1
  Ce  Ce5  1  0.500886  0.499114  0.749579  1
  Ce  Ce6  1  0.500886  0.001772  0.749579  1
  Ce  Ce7  1  0.998228  0.499114  0.749579  1
  Zn  Zn8  1  0.333333  0.666667  0.997895  1
  Si  Si9  1  0.164856  0.835144  0.500689  1
  Si  Si10  1  0.164856  0.329713  0.500689  1
  Si  Si11  1  0.670287  0.835144  0.500689  1
  Si  Si12  1  0.835368  0.164632  0.499372  1
  Si  Si13  1  0.835368  0.670736  0.499372  1
  Si  Si14  1  0.329264  0.164632  0.499372  1
  Si  Si15  1  0.834649  0.165351  0.000544  1
  Si  Si16  1  0.834649  0.669298  0.000544  1
  Si  Si17  1  0.330702  0.165351  0.000544  1
  Si  Si18  1  0.165311  0.834689  0.999426  1
  Si  Si19  1  0.165311  0.330621  0.999426  1
  Si  Si20  1  0.669379  0.834689  0.999426  1
  Pd  Pd21  1  0.333333  0.666667  0.501944  1
  Pd  Pd22  1  0.666667  0.333333  0.498469  1
  Pd  Pd23  1  0.666667  0.333333  0.001565  1
