# generated using pymatgen
data_Nd4Ga9Cu6Ge
_symmetry_space_group_name_H-M   'P 1'
_cell_length_a   5.96697189
_cell_length_b   8.44358021
_cell_length_c   8.44358302
_cell_angle_alpha   74.24548652
_cell_angle_beta   69.49589377
_cell_angle_gamma   69.49611625
_symmetry_Int_Tables_number   1
_chemical_formula_structural   Nd4Ga9Cu6Ge
_chemical_formula_sum   'Nd4 Ga9 Cu6 Ge1'
_cell_volume   367.80653866
_cell_formula_units_Z   1
loop_
 _symmetry_equiv_pos_site_id
 _symmetry_equiv_pos_as_xyz
  1  'x, y, z'
loop_
 _atom_site_type_symbol
 _atom_site_label
 _atom_site_symmetry_multiplicity
 _atom_site_fract_x
 _atom_site_fract_y
 _atom_site_fract_z
 _atom_site_occupancy
  Nd  Nd0  1  0.628033  0.106017  0.635176  1
  Nd  Nd1  1  0.369632  0.894474  0.363910  1
  Nd  Nd2  1  0.130364  0.636095  0.105517  1
  Nd  Nd3  1  0.871969  0.364825  0.893984  1
  Ga  Ga4  1  0.480223  0.269016  0.270265  1
  Ga  Ga5  1  0.522048  0.728620  0.727198  1
  Ga  Ga6  1  0.019781  0.729733  0.730985  1
  Ga  Ga7  1  0.977950  0.272805  0.271381  1
  Ga  Ga8  1  0.892590  0.761014  0.454412  1
  Ga  Ga9  1  0.107496  0.238430  0.545914  1
  Ga  Ga10  1  0.392504  0.454087  0.761569  1
  Ga  Ga11  1  0.607411  0.545590  0.238986  1
  Ga  Ga12  1  0.749997  0.001859  0.998143  1
  Cu  Cu13  1  0.867023  0.022456  0.244640  1
  Cu  Cu14  1  0.136451  0.977327  0.755572  1
  Cu  Cu15  1  0.363551  0.244425  0.022673  1
  Cu  Cu16  1  0.632977  0.755358  0.977544  1
  Cu  Cu17  1  0.750001  0.498901  0.501098  1
  Cu  Cu18  1  0.249998  0.500535  0.499466  1
  Ge  Ge19  1  0.250003  0.998431  0.001567  1
