# generated using pymatgen
data_Dy2U2ReB12Ru
_symmetry_space_group_name_H-M   'P 1'
_cell_length_a   3.61847800
_cell_length_b   9.30978896
_cell_length_c   11.43736239
_cell_angle_alpha   90.07422938
_cell_angle_beta   90.00000000
_cell_angle_gamma   90.00000000
_symmetry_Int_Tables_number   1
_chemical_formula_structural   Dy2U2ReB12Ru
_chemical_formula_sum   'Dy4 U4 Re2 B24 Ru2'
_cell_volume   385.29315200
_cell_formula_units_Z   2
loop_
 _symmetry_equiv_pos_site_id
 _symmetry_equiv_pos_as_xyz
  1  'x, y, z'
loop_
 _atom_site_type_symbol
 _atom_site_label
 _atom_site_symmetry_multiplicity
 _atom_site_fract_x
 _atom_site_fract_y
 _atom_site_fract_z
 _atom_site_occupancy
  Dy  Dy0  1  0.000000  0.335342  0.406628  1
  Dy  Dy1  1  0.000000  0.664658  0.593372  1
  Dy  Dy2  1  0.000000  0.837508  0.091655  1
  Dy  Dy3  1  0.000000  0.162492  0.908345  1
  U  U4  1  0.000000  0.959041  0.396997  1
  U  U5  1  0.000000  0.040959  0.603003  1
  U  U6  1  0.000000  0.455505  0.101716  1
  U  U7  1  0.000000  0.544495  0.898284  1
  Re  Re8  1  0.000000  0.145684  0.181502  1
  Re  Re9  1  0.000000  0.854316  0.818498  1
  B  B10  1  0.500000  0.551590  0.430691  1
  B  B11  1  0.500000  0.448410  0.569309  1
  B  B12  1  0.500000  0.051809  0.068967  1
  B  B13  1  0.500000  0.948191  0.931033  1
  B  B14  1  0.500000  0.742808  0.422773  1
  B  B15  1  0.500000  0.257192  0.577227  1
  B  B16  1  0.500000  0.243000  0.076898  1
  B  B17  1  0.500000  0.757000  0.923102  1
  B  B18  1  0.500000  0.801506  0.274577  1
  B  B19  1  0.500000  0.198494  0.725423  1
  B  B20  1  0.500000  0.302074  0.225336  1
  B  B21  1  0.500000  0.697926  0.774664  1
  B  B22  1  0.500000  0.644133  0.188778  1
  B  B23  1  0.500000  0.355867  0.811222  1
  B  B24  1  0.500000  0.143837  0.311654  1
  B  B25  1  0.500000  0.856163  0.688346  1
  B  B26  1  0.500000  0.988078  0.219489  1
  B  B27  1  0.500000  0.011922  0.780511  1
  B  B28  1  0.500000  0.489007  0.281111  1
  B  B29  1  0.500000  0.510993  0.718889  1
  B  B30  1  0.500000  0.640790  0.039685  1
  B  B31  1  0.500000  0.359210  0.960315  1
  B  B32  1  0.500000  0.141644  0.461589  1
  B  B33  1  0.500000  0.858356  0.538411  1
  Ru  Ru34  1  0.000000  0.644518  0.319524  1
  Ru  Ru35  1  0.000000  0.355482  0.680476  1
