# generated using pymatgen
data_Cs4PrNd3(GeSe4)4
_symmetry_space_group_name_H-M   'P 1'
_cell_length_a   7.22516609
_cell_length_b   6.92468861
_cell_length_c   19.86788434
_cell_angle_alpha   71.34635314
_cell_angle_beta   89.98333307
_cell_angle_gamma   89.98906587
_symmetry_Int_Tables_number   1
_chemical_formula_structural   Cs4PrNd3(GeSe4)4
_chemical_formula_sum   'Cs4 Pr1 Nd3 Ge4 Se16'
_cell_volume   941.81337846
_cell_formula_units_Z   1
loop_
 _symmetry_equiv_pos_site_id
 _symmetry_equiv_pos_as_xyz
  1  'x, y, z'
loop_
 _atom_site_type_symbol
 _atom_site_label
 _atom_site_symmetry_multiplicity
 _atom_site_fract_x
 _atom_site_fract_y
 _atom_site_fract_z
 _atom_site_occupancy
  Cs  Cs0  1  0.749941  0.727612  0.033149  1
  Cs  Cs1  1  0.250065  0.272403  0.966829  1
  Cs  Cs2  1  0.750054  0.727570  0.533162  1
  Cs  Cs3  1  0.249945  0.272415  0.466863  1
  Pr  Pr4  1  0.233709  0.226993  0.227154  1
  Nd  Nd5  1  0.733148  0.772594  0.272898  1
  Nd  Nd6  1  0.766817  0.772612  0.772875  1
  Nd  Nd7  1  0.266823  0.227384  0.727125  1
  Ge  Ge8  1  0.732762  0.213369  0.833816  1
  Ge  Ge9  1  0.767276  0.213353  0.333874  1
  Ge  Ge10  1  0.232779  0.786635  0.666179  1
  Ge  Ge11  1  0.267245  0.786668  0.166116  1
  Se  Se12  1  0.507115  0.038245  0.143951  1
  Se  Se13  1  0.758841  0.415592  0.409328  1
  Se  Se14  1  0.005252  0.007897  0.847224  1
  Se  Se15  1  0.837933  0.429332  0.217104  1
  Se  Se16  1  0.993622  0.038867  0.644194  1
  Se  Se17  1  0.258912  0.585916  0.090148  1
  Se  Se18  1  0.741161  0.415562  0.909342  1
  Se  Se19  1  0.339263  0.572587  0.283084  1
  Se  Se20  1  0.241168  0.584434  0.590657  1
  Se  Se21  1  0.493616  0.961142  0.855806  1
  Se  Se22  1  0.661056  0.428890  0.717123  1
  Se  Se23  1  0.161046  0.571108  0.782884  1
  Se  Se24  1  0.005720  0.960362  0.356176  1
  Se  Se25  1  0.993930  0.991203  0.152515  1
  Se  Se26  1  0.495541  0.007164  0.347654  1
  Se  Se27  1  0.505259  0.992092  0.652769  1
