# generated using pymatgen
data_Pr4ErPb3
_symmetry_space_group_name_H-M   'P 1'
_cell_length_a   9.39040800
_cell_length_b   9.39040897
_cell_length_c   6.89869600
_cell_angle_alpha   90.00000000
_cell_angle_beta   90.00000000
_cell_angle_gamma   119.99999658
_symmetry_Int_Tables_number   1
_chemical_formula_structural   Pr4ErPb3
_chemical_formula_sum   'Pr8 Er2 Pb6'
_cell_volume   526.82530038
_cell_formula_units_Z   2
loop_
 _symmetry_equiv_pos_site_id
 _symmetry_equiv_pos_as_xyz
  1  'x, y, z'
loop_
 _atom_site_type_symbol
 _atom_site_label
 _atom_site_symmetry_multiplicity
 _atom_site_fract_x
 _atom_site_fract_y
 _atom_site_fract_z
 _atom_site_occupancy
  Pr  Pr0  1  0.333333  0.666667  0.500000  1
  Pr  Pr1  1  0.666667  0.333333  0.500000  1
  Pr  Pr2  1  0.759162  0.759162  0.752014  1
  Pr  Pr3  1  0.240838  0.000000  0.752014  1
  Pr  Pr4  1  0.000000  0.240838  0.752014  1
  Pr  Pr5  1  0.240838  0.240838  0.247986  1
  Pr  Pr6  1  0.759162  0.000000  0.247986  1
  Pr  Pr7  1  0.000000  0.759162  0.247986  1
  Er  Er8  1  0.666667  0.333333  0.000000  1
  Er  Er9  1  0.333333  0.666667  0.000000  1
  Pb  Pb10  1  0.396515  0.396515  0.756521  1
  Pb  Pb11  1  0.603485  0.000000  0.756521  1
  Pb  Pb12  1  0.000000  0.603485  0.756521  1
  Pb  Pb13  1  0.603485  0.603485  0.243479  1
  Pb  Pb14  1  0.396515  0.000000  0.243479  1
  Pb  Pb15  1  0.000000  0.396515  0.243479  1
