# generated using pymatgen
data_LaTmCoNi7B2
_symmetry_space_group_name_H-M   'P 1'
_cell_length_a   4.98423800
_cell_length_b   5.00974511
_cell_length_c   6.98393400
_cell_angle_alpha   90.00000000
_cell_angle_beta   90.00000000
_cell_angle_gamma   119.83169063
_symmetry_Int_Tables_number   1
_chemical_formula_structural   LaTmCoNi7B2
_chemical_formula_sum   'La1 Tm1 Co1 Ni7 B2'
_cell_volume   151.27920270
_cell_formula_units_Z   1
loop_
 _symmetry_equiv_pos_site_id
 _symmetry_equiv_pos_as_xyz
  1  'x, y, z'
loop_
 _atom_site_type_symbol
 _atom_site_label
 _atom_site_symmetry_multiplicity
 _atom_site_fract_x
 _atom_site_fract_y
 _atom_site_fract_z
 _atom_site_occupancy
  La  La0  1  0.000000  0.000000  0.997728  1
  Tm  Tm1  1  0.000000  0.000000  0.501873  1
  Co  Co2  1  0.500000  0.000000  0.700109  1
  Ni  Ni3  1  0.000000  0.500000  0.296869  1
  Ni  Ni4  1  0.500000  0.500000  0.296869  1
  Ni  Ni5  1  0.500000  0.500000  0.703999  1
  Ni  Ni6  1  0.000000  0.500000  0.703999  1
  Ni  Ni7  1  0.664863  0.329726  0.999566  1
  Ni  Ni8  1  0.335137  0.670274  0.999566  1
  Ni  Ni9  1  0.500000  0.000000  0.296557  1
  B  B10  1  0.664048  0.328095  0.501433  1
  B  B11  1  0.335952  0.671905  0.501433  1
