# generated using pymatgen
data_RbPS6
_symmetry_space_group_name_H-M   'P 1'
_cell_length_a   6.79846000
_cell_length_b   11.94309300
_cell_length_c   11.50176600
_cell_angle_alpha   90.00000000
_cell_angle_beta   90.00000000
_cell_angle_gamma   90.00000000
_symmetry_Int_Tables_number   1
_chemical_formula_structural   RbPS6
_chemical_formula_sum   'Rb4 P4 S24'
_cell_volume   933.88175016
_cell_formula_units_Z   4
loop_
 _symmetry_equiv_pos_site_id
 _symmetry_equiv_pos_as_xyz
  1  'x, y, z'
loop_
 _atom_site_type_symbol
 _atom_site_label
 _atom_site_symmetry_multiplicity
 _atom_site_fract_x
 _atom_site_fract_y
 _atom_site_fract_z
 _atom_site_occupancy
  Rb  Rb0  1  0.699713  0.631723  0.373298  1
  Rb  Rb1  1  0.300287  0.131723  0.626702  1
  Rb  Rb2  1  0.300287  0.631723  0.873298  1
  Rb  Rb3  1  0.699713  0.131723  0.126702  1
  P  P4  1  0.298716  0.814812  0.166337  1
  P  P5  1  0.298716  0.314812  0.333663  1
  P  P6  1  0.701284  0.814812  0.666337  1
  P  P7  1  0.701284  0.314812  0.833663  1
  S  S8  1  0.095200  0.197516  0.350668  1
  S  S9  1  0.095200  0.697516  0.149332  1
  S  S10  1  0.904800  0.197516  0.850668  1
  S  S11  1  0.904800  0.697516  0.649332  1
  S  S12  1  0.209301  0.971992  0.081842  1
  S  S13  1  0.790699  0.471992  0.918158  1
  S  S14  1  0.790699  0.971992  0.581842  1
  S  S15  1  0.209301  0.471992  0.418158  1
  S  S16  1  0.258947  0.937561  0.909366  1
  S  S17  1  0.741053  0.437561  0.090634  1
  S  S18  1  0.741053  0.937561  0.409366  1
  S  S19  1  0.258947  0.437561  0.590634  1
  S  S20  1  0.541109  0.997058  0.866378  1
  S  S21  1  0.458891  0.497058  0.133622  1
  S  S22  1  0.458891  0.997058  0.366378  1
  S  S23  1  0.541109  0.497058  0.633622  1
  S  S24  1  0.734854  0.865344  0.844976  1
  S  S25  1  0.265146  0.365344  0.155024  1
  S  S26  1  0.265146  0.865344  0.344976  1
  S  S27  1  0.734854  0.365344  0.655024  1
  S  S28  1  0.576066  0.785905  0.125091  1
  S  S29  1  0.423934  0.285905  0.874909  1
  S  S30  1  0.423934  0.785905  0.625091  1
  S  S31  1  0.576066  0.285905  0.374909  1
