# generated using pymatgen
data_Er7Tm3OsRu3
_symmetry_space_group_name_H-M   'P 1'
_cell_length_a   6.27026514
_cell_length_b   7.28126660
_cell_length_c   8.35922715
_cell_angle_alpha   96.84322723
_cell_angle_beta   112.08568262
_cell_angle_gamma   90.04160351
_symmetry_Int_Tables_number   1
_chemical_formula_structural   Er7Tm3OsRu3
_chemical_formula_sum   'Er7 Tm3 Os1 Ru3'
_cell_volume   350.69085624
_cell_formula_units_Z   1
loop_
 _symmetry_equiv_pos_site_id
 _symmetry_equiv_pos_as_xyz
  1  'x, y, z'
loop_
 _atom_site_type_symbol
 _atom_site_label
 _atom_site_symmetry_multiplicity
 _atom_site_fract_x
 _atom_site_fract_y
 _atom_site_fract_z
 _atom_site_occupancy
  Er  Er0  1  0.791925  0.083138  0.813834  1
  Er  Er1  1  0.975903  0.415666  0.183663  1
  Er  Er2  1  0.207943  0.915603  0.185908  1
  Er  Er3  1  0.023795  0.584284  0.814338  1
  Er  Er4  1  0.206251  0.184463  0.565516  1
  Er  Er5  1  0.640165  0.316749  0.436368  1
  Er  Er6  1  0.794669  0.815812  0.434759  1
  Tm  Tm7  1  0.358772  0.683904  0.564522  1
  Tm  Tm8  1  0.419445  0.249946  0.999431  1
  Tm  Tm9  1  0.580807  0.750296  0.999959  1
  Os  Os10  1  0.602563  0.423505  0.781066  1
  Ru  Ru11  1  0.823494  0.076664  0.220565  1
  Ru  Ru12  1  0.397084  0.576839  0.220109  1
  Ru  Ru13  1  0.177182  0.923130  0.779964  1
