# generated using pymatgen
data_Y10BiPb5Se2
_symmetry_space_group_name_H-M   'P 1'
_cell_length_a   9.19582000
_cell_length_b   9.21627206
_cell_length_c   6.70925900
_cell_angle_alpha   90.00000000
_cell_angle_beta   90.00000000
_cell_angle_gamma   119.92661906
_symmetry_Int_Tables_number   1
_chemical_formula_structural   Y10BiPb5Se2
_chemical_formula_sum   'Y10 Bi1 Pb5 Se2'
_cell_volume   492.80101648
_cell_formula_units_Z   1
loop_
 _symmetry_equiv_pos_site_id
 _symmetry_equiv_pos_as_xyz
  1  'x, y, z'
loop_
 _atom_site_type_symbol
 _atom_site_label
 _atom_site_symmetry_multiplicity
 _atom_site_fract_x
 _atom_site_fract_y
 _atom_site_fract_z
 _atom_site_occupancy
  Y  Y0  1  0.251987  0.251754  0.750000  1
  Y  Y1  1  0.000233  0.748246  0.750000  1
  Y  Y2  1  0.250645  0.000000  0.250000  1
  Y  Y3  1  0.748509  0.000000  0.750000  1
  Y  Y4  1  0.332011  0.664833  0.500540  1
  Y  Y5  1  0.667178  0.335167  0.500540  1
  Y  Y6  1  0.749648  0.746628  0.250000  1
  Y  Y7  1  0.003020  0.253372  0.250000  1
  Y  Y8  1  0.332011  0.664833  0.999460  1
  Y  Y9  1  0.667178  0.335167  0.999460  1
  Bi  Bi10  1  0.603945  0.000000  0.250000  1
  Pb  Pb11  1  0.000155  0.603516  0.250000  1
  Pb  Pb12  1  0.603874  0.604729  0.750000  1
  Pb  Pb13  1  0.396639  0.396484  0.250000  1
  Pb  Pb14  1  0.999145  0.395271  0.750000  1
  Pb  Pb15  1  0.395293  0.000000  0.750000  1
  Se  Se16  1  0.999265  0.000000  0.000108  1
  Se  Se17  1  0.999265  0.000000  0.499892  1
