# generated using pymatgen
data_Tb8ErTm(SiB4)4
_symmetry_space_group_name_H-M   'P 1'
_cell_length_a   7.24682900
_cell_length_b   7.24682900
_cell_length_c   8.10418500
_cell_angle_alpha   90.00000000
_cell_angle_beta   90.00000000
_cell_angle_gamma   90.00000000
_symmetry_Int_Tables_number   1
_chemical_formula_structural   Tb8ErTm(SiB4)4
_chemical_formula_sum   'Tb8 Er1 Tm1 Si4 B16'
_cell_volume   425.60367918
_cell_formula_units_Z   1
loop_
 _symmetry_equiv_pos_site_id
 _symmetry_equiv_pos_as_xyz
  1  'x, y, z'
loop_
 _atom_site_type_symbol
 _atom_site_label
 _atom_site_symmetry_multiplicity
 _atom_site_fract_x
 _atom_site_fract_y
 _atom_site_fract_z
 _atom_site_occupancy
  Tb  Tb0  1  0.680264  0.180363  0.225316  1
  Tb  Tb1  1  0.319736  0.819637  0.774684  1
  Tb  Tb2  1  0.319736  0.819637  0.225316  1
  Tb  Tb3  1  0.819637  0.680264  0.225316  1
  Tb  Tb4  1  0.819637  0.680264  0.774684  1
  Tb  Tb5  1  0.680264  0.180363  0.774684  1
  Tb  Tb6  1  0.180363  0.319736  0.774684  1
  Tb  Tb7  1  0.180363  0.319736  0.225316  1
  Er  Er8  1  0.000000  0.000000  0.500000  1
  Tm  Tm9  1  0.500000  0.500000  0.500000  1
  Si  Si10  1  0.115423  0.615113  0.500000  1
  Si  Si11  1  0.884577  0.384887  0.500000  1
  Si  Si12  1  0.384887  0.115423  0.500000  1
  Si  Si13  1  0.615113  0.884577  0.500000  1
  B  B14  1  0.172320  0.039117  0.000000  1
  B  B15  1  0.827680  0.960883  0.000000  1
  B  B16  1  0.960883  0.172320  0.000000  1
  B  B17  1  0.327667  0.539087  0.000000  1
  B  B18  1  0.039117  0.827680  0.000000  1
  B  B19  1  0.672333  0.460913  0.000000  1
  B  B20  1  0.539087  0.672333  0.000000  1
  B  B21  1  0.460913  0.327667  0.000000  1
  B  B22  1  0.089854  0.589891  0.000000  1
  B  B23  1  0.910146  0.410109  0.000000  1
  B  B24  1  0.410109  0.089854  0.000000  1
  B  B25  1  0.589891  0.910146  0.000000  1
  B  B26  1  0.000000  0.000000  0.161984  1
  B  B27  1  0.000000  0.000000  0.838016  1
  B  B28  1  0.500000  0.500000  0.837849  1
  B  B29  1  0.500000  0.500000  0.162151  1
