# generated using pymatgen
data_Ce2NdLu7Pt8
_symmetry_space_group_name_H-M   'P 1'
_cell_length_a   7.39786000
_cell_length_b   7.48217423
_cell_length_c   14.66037100
_cell_angle_alpha   89.92036054
_cell_angle_beta   90.00000000
_cell_angle_gamma   90.00000000
_symmetry_Int_Tables_number   1
_chemical_formula_structural   Ce2NdLu7Pt8
_chemical_formula_sum   'Ce4 Nd2 Lu14 Pt16'
_cell_volume   811.48120689
_cell_formula_units_Z   2
loop_
 _symmetry_equiv_pos_site_id
 _symmetry_equiv_pos_as_xyz
  1  'x, y, z'
loop_
 _atom_site_type_symbol
 _atom_site_label
 _atom_site_symmetry_multiplicity
 _atom_site_fract_x
 _atom_site_fract_y
 _atom_site_fract_z
 _atom_site_occupancy
  Ce  Ce0  1  0.519607  0.327974  0.406255  1
  Ce  Ce1  1  0.019607  0.172026  0.093745  1
  Ce  Ce2  1  0.480294  0.680608  0.904414  1
  Ce  Ce3  1  0.980294  0.819392  0.595586  1
  Nd  Nd4  1  0.518826  0.325730  0.094644  1
  Nd  Nd5  1  0.018826  0.174270  0.405356  1
  Lu  Lu6  1  0.641001  0.167741  0.623979  1
  Lu  Lu7  1  0.141001  0.332259  0.876021  1
  Lu  Lu8  1  0.360816  0.834344  0.123432  1
  Lu  Lu9  1  0.860816  0.665656  0.376568  1
  Lu  Lu10  1  0.364331  0.829160  0.379667  1
  Lu  Lu11  1  0.864331  0.670840  0.120333  1
  Lu  Lu12  1  0.639939  0.166786  0.877239  1
  Lu  Lu13  1  0.139939  0.333214  0.622761  1
  Lu  Lu14  1  0.481432  0.676077  0.599468  1
  Lu  Lu15  1  0.981432  0.823923  0.900532  1
  Lu  Lu16  1  0.800738  0.505347  0.750619  1
  Lu  Lu17  1  0.300738  0.994653  0.749381  1
  Lu  Lu18  1  0.198183  0.493024  0.249218  1
  Lu  Lu19  1  0.698183  0.006976  0.250782  1
  Pt  Pt20  1  0.688306  0.961819  0.461227  1
  Pt  Pt21  1  0.188306  0.538181  0.038773  1
  Pt  Pt22  1  0.300500  0.025483  0.956105  1
  Pt  Pt23  1  0.800500  0.474517  0.543895  1
  Pt  Pt24  1  0.312188  0.025538  0.546750  1
  Pt  Pt25  1  0.812188  0.474462  0.953250  1
  Pt  Pt26  1  0.693733  0.960961  0.037664  1
  Pt  Pt27  1  0.193733  0.539039  0.462336  1
  Pt  Pt28  1  0.435245  0.378618  0.749081  1
  Pt  Pt29  1  0.935245  0.121382  0.750919  1
  Pt  Pt30  1  0.565936  0.627397  0.250289  1
  Pt  Pt31  1  0.065936  0.872603  0.249711  1
  Pt  Pt32  1  0.662496  0.858129  0.751040  1
  Pt  Pt33  1  0.162496  0.641871  0.748960  1
  Pt  Pt34  1  0.336428  0.138956  0.253684  1
  Pt  Pt35  1  0.836428  0.361044  0.246316  1
