# generated using pymatgen
data_Yb2Y5Ho(B6Os)4
_symmetry_space_group_name_H-M   'P 1'
_cell_length_a   3.64924400
_cell_length_b   9.16347291
_cell_length_c   11.55303454
_cell_angle_alpha   90.00787085
_cell_angle_beta   90.00000000
_cell_angle_gamma   90.00000000
_symmetry_Int_Tables_number   1
_chemical_formula_structural   Yb2Y5Ho(B6Os)4
_chemical_formula_sum   'Yb2 Y5 Ho1 B24 Os4'
_cell_volume   386.33056605
_cell_formula_units_Z   1
loop_
 _symmetry_equiv_pos_site_id
 _symmetry_equiv_pos_as_xyz
  1  'x, y, z'
loop_
 _atom_site_type_symbol
 _atom_site_label
 _atom_site_symmetry_multiplicity
 _atom_site_fract_x
 _atom_site_fract_y
 _atom_site_fract_z
 _atom_site_occupancy
  Yb  Yb0  1  0.000000  0.676901  0.586113  1
  Yb  Yb1  1  0.000000  0.823066  0.086142  1
  Y  Y2  1  0.000000  0.175831  0.914293  1
  Y  Y3  1  0.000000  0.940852  0.369790  1
  Y  Y4  1  0.000000  0.056489  0.629169  1
  Y  Y5  1  0.000000  0.443583  0.129464  1
  Y  Y6  1  0.000000  0.559103  0.869718  1
  Ho  Ho7  1  0.000000  0.324480  0.414406  1
  B  B8  1  0.500000  0.553347  0.433636  1
  B  B9  1  0.500000  0.446599  0.567342  1
  B  B10  1  0.500000  0.053394  0.067763  1
  B  B11  1  0.500000  0.946300  0.933414  1
  B  B12  1  0.500000  0.746755  0.418304  1
  B  B13  1  0.500000  0.252198  0.581198  1
  B  B14  1  0.500000  0.247888  0.081830  1
  B  B15  1  0.500000  0.753134  0.918273  1
  B  B16  1  0.500000  0.789059  0.265293  1
  B  B17  1  0.500000  0.209404  0.734295  1
  B  B18  1  0.500000  0.290839  0.234909  1
  B  B19  1  0.500000  0.710820  0.765103  1
  B  B20  1  0.500000  0.630897  0.186189  1
  B  B21  1  0.500000  0.368949  0.813591  1
  B  B22  1  0.500000  0.131305  0.313946  1
  B  B23  1  0.500000  0.868905  0.685952  1
  B  B24  1  0.500000  0.983145  0.211523  1
  B  B25  1  0.500000  0.016463  0.788371  1
  B  B26  1  0.500000  0.483079  0.288799  1
  B  B27  1  0.500000  0.516887  0.711393  1
  B  B28  1  0.500000  0.602018  0.028121  1
  B  B29  1  0.500000  0.397617  0.971242  1
  B  B30  1  0.500000  0.103000  0.470996  1
  B  B31  1  0.500000  0.897877  0.527997  1
  Os  Os32  1  0.000000  0.635863  0.321654  1
  Os  Os33  1  0.000000  0.361250  0.678846  1
  Os  Os34  1  0.000000  0.139063  0.179554  1
  Os  Os35  1  0.000000  0.863640  0.821370  1
