# generated using pymatgen
data_AuBr11
_symmetry_space_group_name_H-M   'P 1'
_cell_length_a   8.94016008
_cell_length_b   8.45338276
_cell_length_c   9.05709530
_cell_angle_alpha   75.84488769
_cell_angle_beta   110.11349308
_cell_angle_gamma   119.51671535
_symmetry_Int_Tables_number   1
_chemical_formula_structural   AuBr11
_chemical_formula_sum   'Au1 Br11'
_cell_volume   556.95275427
_cell_formula_units_Z   1
loop_
 _symmetry_equiv_pos_site_id
 _symmetry_equiv_pos_as_xyz
  1  'x, y, z'
loop_
 _atom_site_type_symbol
 _atom_site_label
 _atom_site_symmetry_multiplicity
 _atom_site_fract_x
 _atom_site_fract_y
 _atom_site_fract_z
 _atom_site_occupancy
  Au  Au0  1  0.000000  0.500000  0.500000  1
  Br  Br1  1  0.000000  0.000000  0.000000  1
  Br  Br2  1  0.700570  0.793718  0.063822  1
  Br  Br3  1  0.522715  0.203255  0.192489  1
  Br  Br4  1  0.065470  0.472449  0.136076  1
  Br  Br5  1  0.754805  0.185037  0.460407  1
  Br  Br6  1  0.789059  0.611127  0.494922  1
  Br  Br7  1  0.210941  0.388873  0.505079  1
  Br  Br8  1  0.245195  0.814963  0.539593  1
  Br  Br9  1  0.934531  0.527551  0.863924  1
  Br  Br10  1  0.477284  0.796745  0.807511  1
  Br  Br11  1  0.299431  0.206282  0.936179  1
