# generated using pymatgen
data_Ca6PrNdAs6
_symmetry_space_group_name_H-M   'P 1'
_cell_length_a   7.82910557
_cell_length_b   7.84873842
_cell_length_c   7.80855970
_cell_angle_alpha   109.52957546
_cell_angle_beta   109.43054533
_cell_angle_gamma   109.58269487
_symmetry_Int_Tables_number   1
_chemical_formula_structural   Ca6PrNdAs6
_chemical_formula_sum   'Ca6 Pr1 Nd1 As6'
_cell_volume   368.77908789
_cell_formula_units_Z   1
loop_
 _symmetry_equiv_pos_site_id
 _symmetry_equiv_pos_as_xyz
  1  'x, y, z'
loop_
 _atom_site_type_symbol
 _atom_site_label
 _atom_site_symmetry_multiplicity
 _atom_site_fract_x
 _atom_site_fract_y
 _atom_site_fract_z
 _atom_site_occupancy
  Ca  Ca0  1  0.127939  0.132346  0.129031  1
  Ca  Ca1  1  0.498856  0.003380  0.871032  1
  Ca  Ca2  1  0.868254  0.499322  0.003679  1
  Ca  Ca3  1  0.002749  0.868027  0.498363  1
  Ca  Ca4  1  0.364551  0.495776  0.996366  1
  Ca  Ca5  1  0.004173  0.369468  0.501557  1
  Pr  Pr6  1  0.634939  0.633429  0.634482  1
  Nd  Nd7  1  0.500448  0.998867  0.365971  1
  As  As8  1  0.626184  0.374429  0.253538  1
  As  As9  1  0.252767  0.627653  0.375188  1
  As  As10  1  0.746555  0.874372  0.124102  1
  As  As11  1  0.123389  0.750733  0.876703  1
  As  As12  1  0.377201  0.251036  0.624236  1
  As  As13  1  0.871995  0.121164  0.745753  1
