# generated using pymatgen
data_Li6(CuO2)5
_symmetry_space_group_name_H-M   'P 1'
_cell_length_a   5.32335215
_cell_length_b   5.65955608
_cell_length_c   8.35859699
_cell_angle_alpha   85.75662101
_cell_angle_beta   79.29766923
_cell_angle_gamma   71.03261203
_symmetry_Int_Tables_number   1
_chemical_formula_structural   Li6(CuO2)5
_chemical_formula_sum   'Li6 Cu5 O10'
_cell_volume   233.98519934
_cell_formula_units_Z   1
loop_
 _symmetry_equiv_pos_site_id
 _symmetry_equiv_pos_as_xyz
  1  'x, y, z'
loop_
 _atom_site_type_symbol
 _atom_site_label
 _atom_site_symmetry_multiplicity
 _atom_site_fract_x
 _atom_site_fract_y
 _atom_site_fract_z
 _atom_site_occupancy
  Li  Li0  1  0.051873  0.271198  0.428637  1
  Li  Li1  1  0.048840  0.199442  0.056838  1
  Li  Li2  1  0.064527  0.738702  0.247552  1
  Li  Li3  1  0.935473  0.261298  0.752448  1
  Li  Li4  1  0.948127  0.728802  0.571363  1
  Li  Li5  1  0.951160  0.800558  0.943162  1
  Cu  Cu6  1  0.500000  0.500000  0.500000  1
  Cu  Cu7  1  0.513667  0.289476  0.092596  1
  Cu  Cu8  1  0.526036  0.888683  0.295228  1
  Cu  Cu9  1  0.473964  0.111317  0.704772  1
  Cu  Cu10  1  0.486333  0.710524  0.907404  1
  O  O11  1  0.227813  0.367330  0.600482  1
  O  O12  1  0.248058  0.575088  0.041773  1
  O  O13  1  0.267743  0.158924  0.220171  1
  O  O14  1  0.259099  0.773343  0.417235  1
  O  O15  1  0.220555  0.999444  0.852797  1
  O  O16  1  0.740901  0.226657  0.582765  1
  O  O17  1  0.751942  0.424912  0.958227  1
  O  O18  1  0.779445  0.000556  0.147203  1
  O  O19  1  0.772187  0.632670  0.399518  1
  O  O20  1  0.732257  0.841076  0.779829  1
