# generated using pymatgen
data_Lu7(CoSe)2
_symmetry_space_group_name_H-M   'P 1'
_cell_length_a   8.83778289
_cell_length_b   8.83778359
_cell_length_c   8.83778353
_cell_angle_alpha   155.41910871
_cell_angle_beta   118.38888145
_cell_angle_gamma   67.36691592
_symmetry_Int_Tables_number   1
_chemical_formula_structural   Lu7(CoSe)2
_chemical_formula_sum   'Lu7 Co2 Se2'
_cell_volume   250.47205878
_cell_formula_units_Z   1
loop_
 _symmetry_equiv_pos_site_id
 _symmetry_equiv_pos_as_xyz
  1  'x, y, z'
loop_
 _atom_site_type_symbol
 _atom_site_label
 _atom_site_symmetry_multiplicity
 _atom_site_fract_x
 _atom_site_fract_y
 _atom_site_fract_z
 _atom_site_occupancy
  Lu  Lu0  1  0.311870  0.684228  0.627641  1
  Lu  Lu1  1  0.943414  0.315772  0.627641  1
  Lu  Lu2  1  0.003723  0.000000  0.003723  1
  Lu  Lu3  1  0.546421  0.128419  0.418001  1
  Lu  Lu4  1  0.289582  0.871581  0.418001  1
  Lu  Lu5  1  0.623378  0.358130  0.265248  1
  Lu  Lu6  1  0.907117  0.641870  0.265248  1
  Co  Co7  1  0.166787  0.236019  0.930767  1
  Co  Co8  1  0.694748  0.763981  0.930767  1
  Se  Se9  1  0.660956  0.000000  0.660956  1
  Se  Se10  1  0.263803  0.500000  0.763803  1
