# generated using pymatgen
data_Cs6Ho3BiI18
_symmetry_space_group_name_H-M   'P 1'
_cell_length_a   8.61551716
_cell_length_b   8.60470834
_cell_length_c   22.08075706
_cell_angle_alpha   91.12203404
_cell_angle_beta   89.02674971
_cell_angle_gamma   60.07448236
_symmetry_Int_Tables_number   1
_chemical_formula_structural   Cs6Ho3BiI18
_chemical_formula_sum   'Cs6 Ho3 Bi1 I18'
_cell_volume   1417.74186829
_cell_formula_units_Z   1
loop_
 _symmetry_equiv_pos_site_id
 _symmetry_equiv_pos_as_xyz
  1  'x, y, z'
loop_
 _atom_site_type_symbol
 _atom_site_label
 _atom_site_symmetry_multiplicity
 _atom_site_fract_x
 _atom_site_fract_y
 _atom_site_fract_z
 _atom_site_occupancy
  Cs  Cs0  1  0.327947  0.332869  0.062997  1
  Cs  Cs1  1  0.331779  0.328659  0.429497  1
  Cs  Cs2  1  0.674052  0.664549  0.933011  1
  Cs  Cs3  1  0.661878  0.677466  0.565527  1
  Cs  Cs4  1  0.009197  0.000562  0.758860  1
  Cs  Cs5  1  0.993114  0.995802  0.248090  1
  Ho  Ho6  1  0.652129  0.675889  0.157695  1
  Ho  Ho7  1  0.676123  0.651969  0.342571  1
  Ho  Ho8  1  0.348097  0.323971  0.842907  1
  Bi  Bi9  1  0.324107  0.347972  0.655244  1
  I  I10  1  0.499566  0.009819  0.744779  1
  I  I11  1  0.011735  0.496691  0.761879  1
  I  I12  1  0.505277  0.982835  0.258808  1
  I  I13  1  0.982416  0.505352  0.242373  1
  I  I14  1  0.192139  0.145668  0.913851  1
  I  I15  1  0.144883  0.191037  0.581942  1
  I  I16  1  0.808280  0.855215  0.088855  1
  I  I17  1  0.854982  0.808611  0.412316  1
  I  I18  1  0.499563  0.497671  0.753508  1
  I  I19  1  0.505037  0.504361  0.250352  1
  I  I20  1  0.650452  0.187725  0.573745  1
  I  I21  1  0.188132  0.650300  0.921714  1
  I  I22  1  0.349833  0.812513  0.420375  1
  I  I23  1  0.812697  0.349361  0.080127  1
  I  I24  1  0.687904  0.150303  0.907027  1
  I  I25  1  0.148335  0.693476  0.591235  1
  I  I26  1  0.308899  0.851076  0.097046  1
  I  I27  1  0.851440  0.308283  0.403668  1
