# generated using pymatgen
data_Hf2Be2GeIr5
_symmetry_space_group_name_H-M   'P 1'
_cell_length_a   9.28647500
_cell_length_b   9.28647500
_cell_length_c   3.31009400
_cell_angle_alpha   90.00000000
_cell_angle_beta   90.00000000
_cell_angle_gamma   90.00000000
_symmetry_Int_Tables_number   1
_chemical_formula_structural   Hf2Be2GeIr5
_chemical_formula_sum   'Hf4 Be4 Ge2 Ir10'
_cell_volume   285.45793176
_cell_formula_units_Z   2
loop_
 _symmetry_equiv_pos_site_id
 _symmetry_equiv_pos_as_xyz
  1  'x, y, z'
loop_
 _atom_site_type_symbol
 _atom_site_label
 _atom_site_symmetry_multiplicity
 _atom_site_fract_x
 _atom_site_fract_y
 _atom_site_fract_z
 _atom_site_occupancy
  Hf  Hf0  1  0.674907  0.174907  0.000000  1
  Hf  Hf1  1  0.325093  0.825093  0.000000  1
  Hf  Hf2  1  0.174907  0.325093  0.000000  1
  Hf  Hf3  1  0.825093  0.674907  0.000000  1
  Be  Be4  1  0.122148  0.622148  0.000000  1
  Be  Be5  1  0.877852  0.377852  0.000000  1
  Be  Be6  1  0.622148  0.877852  0.000000  1
  Be  Be7  1  0.377852  0.122148  0.000000  1
  Ge  Ge8  1  0.000000  0.000000  0.000000  1
  Ge  Ge9  1  0.500000  0.500000  0.000000  1
  Ir  Ir10  1  0.210382  0.070410  0.500000  1
  Ir  Ir11  1  0.789618  0.929590  0.500000  1
  Ir  Ir12  1  0.070410  0.789618  0.500000  1
  Ir  Ir13  1  0.710382  0.429590  0.500000  1
  Ir  Ir14  1  0.929590  0.210382  0.500000  1
  Ir  Ir15  1  0.289618  0.570410  0.500000  1
  Ir  Ir16  1  0.570410  0.710382  0.500000  1
  Ir  Ir17  1  0.429590  0.289618  0.500000  1
  Ir  Ir18  1  0.500000  0.000000  0.500000  1
  Ir  Ir19  1  0.000000  0.500000  0.500000  1
