# generated using pymatgen
data_TbLuFe12P7
_symmetry_space_group_name_H-M   'P 1'
_cell_length_a   8.94792100
_cell_length_b   8.94792134
_cell_length_c   3.63759900
_cell_angle_alpha   90.00000000
_cell_angle_beta   90.00000000
_cell_angle_gamma   120.00000244
_symmetry_Int_Tables_number   1
_chemical_formula_structural   TbLuFe12P7
_chemical_formula_sum   'Tb1 Lu1 Fe12 P7'
_cell_volume   252.22593550
_cell_formula_units_Z   1
loop_
 _symmetry_equiv_pos_site_id
 _symmetry_equiv_pos_as_xyz
  1  'x, y, z'
loop_
 _atom_site_type_symbol
 _atom_site_label
 _atom_site_symmetry_multiplicity
 _atom_site_fract_x
 _atom_site_fract_y
 _atom_site_fract_z
 _atom_site_occupancy
  Tb  Tb0  1  0.333333  0.666667  0.000000  1
  Lu  Lu1  1  0.000000  0.000000  0.500000  1
  Fe  Fe2  1  0.724079  0.758842  0.000000  1
  Fe  Fe3  1  0.241158  0.965237  0.000000  1
  Fe  Fe4  1  0.034763  0.275921  0.000000  1
  Fe  Fe5  1  0.942121  0.490460  0.000000  1
  Fe  Fe6  1  0.509540  0.451660  0.000000  1
  Fe  Fe7  1  0.548340  0.057879  0.000000  1
  Fe  Fe8  1  0.098446  0.719106  0.500000  1
  Fe  Fe9  1  0.280894  0.379340  0.500000  1
  Fe  Fe10  1  0.620660  0.901554  0.500000  1
  Fe  Fe11  1  0.761307  0.546143  0.500000  1
  Fe  Fe12  1  0.453857  0.215165  0.500000  1
  Fe  Fe13  1  0.784835  0.238693  0.500000  1
  P  P14  1  0.966121  0.747774  0.000000  1
  P  P15  1  0.252226  0.218348  0.000000  1
  P  P16  1  0.781652  0.033879  0.000000  1
  P  P17  1  0.066649  0.445026  0.500000  1
  P  P18  1  0.554974  0.621621  0.500000  1
  P  P19  1  0.378379  0.933351  0.500000  1
  P  P20  1  0.666667  0.333333  0.000000  1
