# generated using pymatgen
data_Gd6Y6Ni5Hg
_symmetry_space_group_name_H-M   'P 1'
_cell_length_a   8.31926177
_cell_length_b   8.31638135
_cell_length_c   8.31926200
_cell_angle_alpha   110.52557554
_cell_angle_beta   110.03273451
_cell_angle_gamma   107.88125422
_symmetry_Int_Tables_number   1
_chemical_formula_structural   Gd6Y6Ni5Hg
_chemical_formula_sum   'Gd6 Y6 Ni5 Hg1'
_cell_volume   442.73932388
_cell_formula_units_Z   1
loop_
 _symmetry_equiv_pos_site_id
 _symmetry_equiv_pos_as_xyz
  1  'x, y, z'
loop_
 _atom_site_type_symbol
 _atom_site_label
 _atom_site_symmetry_multiplicity
 _atom_site_fract_x
 _atom_site_fract_y
 _atom_site_fract_z
 _atom_site_occupancy
  Gd  Gd0  1  0.676677  0.980481  0.303805  1
  Gd  Gd1  1  0.323323  0.019519  0.696195  1
  Gd  Gd2  1  0.595085  0.785514  0.809289  1
  Gd  Gd3  1  0.404915  0.214486  0.190711  1
  Gd  Gd4  1  0.976224  0.785514  0.190427  1
  Gd  Gd5  1  0.023776  0.214486  0.809573  1
  Y  Y6  1  0.817162  0.704815  0.523337  1
  Y  Y7  1  0.182838  0.295185  0.476663  1
  Y  Y8  1  0.181477  0.704815  0.887653  1
  Y  Y9  1  0.818523  0.295185  0.112347  1
  Y  Y10  1  0.676685  0.374440  0.697756  1
  Y  Y11  1  0.323315  0.625560  0.302244  1
  Ni  Ni12  1  0.636201  0.000000  0.636201  1
  Ni  Ni13  1  0.363799  0.000000  0.363799  1
  Ni  Ni14  1  0.124210  0.624271  0.500060  1
  Ni  Ni15  1  0.875790  0.375729  0.499940  1
  Ni  Ni16  1  0.000000  0.000000  0.000000  1
  Hg  Hg17  1  0.500000  0.500000  0.000000  1
