# generated using pymatgen
data_CdIn3P6N13
_symmetry_space_group_name_H-M   'P 1'
_cell_length_a   7.32232749
_cell_length_b   7.32232773
_cell_length_c   7.32232865
_cell_angle_alpha   109.52834664
_cell_angle_beta   109.52834672
_cell_angle_gamma   109.52834457
_symmetry_Int_Tables_number   1
_chemical_formula_structural   CdIn3P6N13
_chemical_formula_sum   'Cd1 In3 P6 N13'
_cell_volume   301.58080074
_cell_formula_units_Z   1
loop_
 _symmetry_equiv_pos_site_id
 _symmetry_equiv_pos_as_xyz
  1  'x, y, z'
loop_
 _atom_site_type_symbol
 _atom_site_label
 _atom_site_symmetry_multiplicity
 _atom_site_fract_x
 _atom_site_fract_y
 _atom_site_fract_z
 _atom_site_occupancy
  Cd  Cd0  1  0.289774  0.289774  0.289774  1
  In  In1  1  0.699160  0.001913  0.001913  1
  In  In2  1  0.001913  0.001913  0.699160  1
  In  In3  1  0.001913  0.699160  0.001913  1
  P  P4  1  0.251253  0.749809  0.501382  1
  P  P5  1  0.749809  0.251253  0.501382  1
  P  P6  1  0.749809  0.501382  0.251253  1
  P  P7  1  0.251253  0.501382  0.749809  1
  P  P8  1  0.501382  0.749809  0.251253  1
  P  P9  1  0.501382  0.251253  0.749809  1
  N  N10  1  0.984503  0.984503  0.984503  1
  N  N11  1  0.713332  0.281085  0.281085  1
  N  N12  1  0.281085  0.713332  0.281085  1
  N  N13  1  0.289516  0.569496  0.569496  1
  N  N14  1  0.569496  0.569496  0.289516  1
  N  N15  1  0.432329  0.723181  0.001410  1
  N  N16  1  0.001410  0.723181  0.432329  1
  N  N17  1  0.569496  0.289516  0.569496  1
  N  N18  1  0.723181  0.001410  0.432329  1
  N  N19  1  0.432329  0.001410  0.723181  1
  N  N20  1  0.723181  0.432329  0.001410  1
  N  N21  1  0.281085  0.281085  0.713332  1
  N  N22  1  0.001410  0.432329  0.723181  1
