# generated using pymatgen
data_TmCoNiB2
_symmetry_space_group_name_H-M   'P 1'
_cell_length_a   4.88260734
_cell_length_b   4.88260841
_cell_length_c   6.97238603
_cell_angle_alpha   58.88538930
_cell_angle_beta   58.88538369
_cell_angle_gamma   61.94874108
_symmetry_Int_Tables_number   1
_chemical_formula_structural   TmCoNiB2
_chemical_formula_sum   'Tm2 Co2 Ni2 B4'
_cell_volume   117.05757216
_cell_formula_units_Z   2
loop_
 _symmetry_equiv_pos_site_id
 _symmetry_equiv_pos_as_xyz
  1  'x, y, z'
loop_
 _atom_site_type_symbol
 _atom_site_label
 _atom_site_symmetry_multiplicity
 _atom_site_fract_x
 _atom_site_fract_y
 _atom_site_fract_z
 _atom_site_occupancy
  Tm  Tm0  1  0.124484  0.875516  0.750000  1
  Tm  Tm1  1  0.873999  0.126001  0.250000  1
  Co  Co2  1  0.466636  0.269718  0.703078  1
  Co  Co3  1  0.730282  0.533364  0.796922  1
  Ni  Ni4  1  0.531348  0.733257  0.294447  1
  Ni  Ni5  1  0.266743  0.468652  0.205553  1
  B  B6  1  0.163153  0.496586  0.523558  1
  B  B7  1  0.503414  0.836847  0.976442  1
  B  B8  1  0.831052  0.491109  0.486998  1
  B  B9  1  0.508891  0.168948  0.013002  1
