# generated using pymatgen
data_Er3Sn3IrRuPt
_symmetry_space_group_name_H-M   'P 1'
_cell_length_a   7.65035700
_cell_length_b   7.65035767
_cell_length_c   3.75401800
_cell_angle_alpha   90.00000000
_cell_angle_beta   90.00000000
_cell_angle_gamma   120.00000141
_symmetry_Int_Tables_number   1
_chemical_formula_structural   Er3Sn3IrRuPt
_chemical_formula_sum   'Er3 Sn3 Ir1 Ru1 Pt1'
_cell_volume   190.27880619
_cell_formula_units_Z   1
loop_
 _symmetry_equiv_pos_site_id
 _symmetry_equiv_pos_as_xyz
  1  'x, y, z'
loop_
 _atom_site_type_symbol
 _atom_site_label
 _atom_site_symmetry_multiplicity
 _atom_site_fract_x
 _atom_site_fract_y
 _atom_site_fract_z
 _atom_site_occupancy
  Er  Er0  1  0.400994  0.408905  0.500000  1
  Er  Er1  1  0.591095  0.992089  0.500000  1
  Er  Er2  1  0.007911  0.599006  0.500000  1
  Sn  Sn3  1  0.738138  0.738922  0.000000  1
  Sn  Sn4  1  0.261078  0.999215  0.000000  1
  Sn  Sn5  1  0.000785  0.261862  0.000000  1
  Ir  Ir6  1  0.333333  0.666667  0.000000  1
  Ru  Ru7  1  0.000000  0.000000  0.500000  1
  Pt  Pt8  1  0.666667  0.333333  0.000000  1
