# generated using pymatgen
data_Tb10NiAg3
_symmetry_space_group_name_H-M   'P 1'
_cell_length_a   9.53549400
_cell_length_b   9.53549483
_cell_length_c   9.63524200
_cell_angle_alpha   90.00000000
_cell_angle_beta   90.00000000
_cell_angle_gamma   119.99999712
_symmetry_Int_Tables_number   1
_chemical_formula_structural   Tb10NiAg3
_chemical_formula_sum   'Tb20 Ni2 Ag6'
_cell_volume   758.71680499
_cell_formula_units_Z   2
loop_
 _symmetry_equiv_pos_site_id
 _symmetry_equiv_pos_as_xyz
  1  'x, y, z'
loop_
 _atom_site_type_symbol
 _atom_site_label
 _atom_site_symmetry_multiplicity
 _atom_site_fract_x
 _atom_site_fract_y
 _atom_site_fract_z
 _atom_site_occupancy
  Tb  Tb0  1  0.000000  0.000000  0.500000  1
  Tb  Tb1  1  0.000000  0.000000  0.000000  1
  Tb  Tb2  1  0.543975  0.456025  0.250000  1
  Tb  Tb3  1  0.543975  0.087951  0.250000  1
  Tb  Tb4  1  0.912049  0.456025  0.250000  1
  Tb  Tb5  1  0.456025  0.543975  0.750000  1
  Tb  Tb6  1  0.456025  0.912049  0.750000  1
  Tb  Tb7  1  0.087951  0.543975  0.750000  1
  Tb  Tb8  1  0.209934  0.790066  0.438989  1
  Tb  Tb9  1  0.209934  0.419868  0.438989  1
  Tb  Tb10  1  0.580132  0.790066  0.438989  1
  Tb  Tb11  1  0.790066  0.209934  0.561011  1
  Tb  Tb12  1  0.790066  0.580132  0.561011  1
  Tb  Tb13  1  0.419868  0.209934  0.561011  1
  Tb  Tb14  1  0.790066  0.209934  0.938989  1
  Tb  Tb15  1  0.790066  0.580132  0.938989  1
  Tb  Tb16  1  0.419868  0.209934  0.938989  1
  Tb  Tb17  1  0.209934  0.790066  0.061011  1
  Tb  Tb18  1  0.209934  0.419868  0.061011  1
  Tb  Tb19  1  0.580132  0.790066  0.061011  1
  Ni  Ni20  1  0.333333  0.666667  0.250000  1
  Ni  Ni21  1  0.666667  0.333333  0.750000  1
  Ag  Ag22  1  0.883409  0.116591  0.250000  1
  Ag  Ag23  1  0.883409  0.766818  0.250000  1
  Ag  Ag24  1  0.233182  0.116591  0.250000  1
  Ag  Ag25  1  0.116591  0.883409  0.750000  1
  Ag  Ag26  1  0.116591  0.233182  0.750000  1
  Ag  Ag27  1  0.766818  0.883409  0.750000  1
