# generated using pymatgen
data_ReTc(IrRu2)2
_symmetry_space_group_name_H-M   'P 1'
_cell_length_a   5.50161500
_cell_length_b   5.49219651
_cell_length_c   4.34581200
_cell_angle_alpha   90.00000000
_cell_angle_beta   90.00000000
_cell_angle_gamma   120.05673815
_symmetry_Int_Tables_number   1
_chemical_formula_structural   ReTc(IrRu2)2
_chemical_formula_sum   'Re1 Tc1 Ir2 Ru4'
_cell_volume   113.65518319
_cell_formula_units_Z   1
loop_
 _symmetry_equiv_pos_site_id
 _symmetry_equiv_pos_as_xyz
  1  'x, y, z'
loop_
 _atom_site_type_symbol
 _atom_site_label
 _atom_site_symmetry_multiplicity
 _atom_site_fract_x
 _atom_site_fract_y
 _atom_site_fract_z
 _atom_site_occupancy
  Re  Re0  1  0.835287  0.670574  0.750000  1
  Tc  Tc1  1  0.165037  0.330075  0.250000  1
  Ir  Ir2  1  0.331858  0.663718  0.750000  1
  Ir  Ir3  1  0.666599  0.333197  0.250000  1
  Ru  Ru4  1  0.668613  0.834890  0.250000  1
  Ru  Ru5  1  0.166278  0.834890  0.250000  1
  Ru  Ru6  1  0.330154  0.166328  0.750000  1
  Ru  Ru7  1  0.836174  0.166328  0.750000  1
