# generated using pymatgen
data_Ho6MnCo16MoP12
_symmetry_space_group_name_H-M   'P 1'
_cell_length_a   3.68983700
_cell_length_b   10.52463500
_cell_length_c   12.19265900
_cell_angle_alpha   90.00000000
_cell_angle_beta   90.00000000
_cell_angle_gamma   90.00000000
_symmetry_Int_Tables_number   1
_chemical_formula_structural   Ho6MnCo16MoP12
_chemical_formula_sum   'Ho6 Mn1 Co16 Mo1 P12'
_cell_volume   473.49200737
_cell_formula_units_Z   1
loop_
 _symmetry_equiv_pos_site_id
 _symmetry_equiv_pos_as_xyz
  1  'x, y, z'
loop_
 _atom_site_type_symbol
 _atom_site_label
 _atom_site_symmetry_multiplicity
 _atom_site_fract_x
 _atom_site_fract_y
 _atom_site_fract_z
 _atom_site_occupancy
  Ho  Ho0  1  0.000000  0.500000  0.523034  1
  Ho  Ho1  1  0.500000  0.000000  0.475480  1
  Ho  Ho2  1  0.500000  0.818119  0.204808  1
  Ho  Ho3  1  0.500000  0.181881  0.204808  1
  Ho  Ho4  1  0.000000  0.681263  0.794167  1
  Ho  Ho5  1  0.000000  0.318737  0.794167  1
  Mn  Mn6  1  0.500000  0.500000  0.159702  1
  Co  Co7  1  0.000000  0.500000  0.985834  1
  Co  Co8  1  0.500000  0.000000  0.013929  1
  Co  Co9  1  0.500000  0.297102  0.430390  1
  Co  Co10  1  0.500000  0.702898  0.430390  1
  Co  Co11  1  0.000000  0.204131  0.568142  1
  Co  Co12  1  0.000000  0.795869  0.568142  1
  Co  Co13  1  0.500000  0.877936  0.706524  1
  Co  Co14  1  0.500000  0.122064  0.706524  1
  Co  Co15  1  0.000000  0.620634  0.291416  1
  Co  Co16  1  0.000000  0.379366  0.291416  1
  Co  Co17  1  0.500000  0.334018  0.993764  1
  Co  Co18  1  0.500000  0.665982  0.993764  1
  Co  Co19  1  0.000000  0.168642  0.009876  1
  Co  Co20  1  0.000000  0.831358  0.009876  1
  Co  Co21  1  0.500000  0.500000  0.702445  1
  Co  Co22  1  0.000000  0.000000  0.298498  1
  Mo  Mo23  1  0.000000  0.000000  0.843562  1
  P  P24  1  0.500000  0.311808  0.615610  1
  P  P25  1  0.500000  0.688192  0.615610  1
  P  P26  1  0.000000  0.188718  0.383529  1
  P  P27  1  0.000000  0.811282  0.383529  1
  P  P28  1  0.500000  0.500000  0.882115  1
  P  P29  1  0.000000  0.000000  0.119183  1
  P  P30  1  0.500000  0.843120  0.893620  1
  P  P31  1  0.500000  0.156880  0.893620  1
  P  P32  1  0.000000  0.651034  0.108665  1
  P  P33  1  0.000000  0.348966  0.108665  1
  P  P34  1  0.500000  0.500000  0.345547  1
  P  P35  1  0.000000  0.000000  0.649645  1
