# generated using pymatgen
data_Y4Ga10Co5Ni
_symmetry_space_group_name_H-M   'P 1'
_cell_length_a   5.50942997
_cell_length_b   8.32472912
_cell_length_c   8.32592419
_cell_angle_alpha   96.13325998
_cell_angle_beta   109.31557375
_cell_angle_gamma   109.31547399
_symmetry_Int_Tables_number   1
_chemical_formula_structural   Y4Ga10Co5Ni
_chemical_formula_sum   'Y4 Ga10 Co5 Ni1'
_cell_volume   329.90712219
_cell_formula_units_Z   1
loop_
 _symmetry_equiv_pos_site_id
 _symmetry_equiv_pos_as_xyz
  1  'x, y, z'
loop_
 _atom_site_type_symbol
 _atom_site_label
 _atom_site_symmetry_multiplicity
 _atom_site_fract_x
 _atom_site_fract_y
 _atom_site_fract_z
 _atom_site_occupancy
  Y  Y0  1  0.776113  0.418640  0.133542  1
  Y  Y1  1  0.724068  0.868617  0.579512  1
  Y  Y2  1  0.225488  0.581580  0.869448  1
  Y  Y3  1  0.273873  0.129929  0.417878  1
  Ga  Ga4  1  0.823066  0.740074  0.906492  1
  Ga  Ga5  1  0.679493  0.094646  0.263974  1
  Ga  Ga6  1  0.179174  0.263878  0.094787  1
  Ga  Ga7  1  0.320256  0.904491  0.735668  1
  Ga  Ga8  1  0.750266  0.203206  0.794462  1
  Ga  Ga9  1  0.249730  0.794733  0.205375  1
  Ga  Ga10  1  0.750372  0.499593  0.498537  1
  Ga  Ga11  1  0.247806  0.499885  0.498263  1
  Ga  Ga12  1  0.750337  0.795160  0.204928  1
  Ga  Ga13  1  0.247459  0.202983  0.794697  1
  Co  Co14  1  0.915669  0.265851  0.564326  1
  Co  Co15  1  0.414330  0.562835  0.264865  1
  Co  Co16  1  0.085039  0.734477  0.436558  1
  Co  Co17  1  0.749649  0.000580  0.999924  1
  Co  Co18  1  0.250876  0.000378  0.000128  1
  Ni  Ni19  1  0.586936  0.438463  0.736636  1
