# generated using pymatgen
data_Zr10CdSn4Bi3
_symmetry_space_group_name_H-M   'P 1'
_cell_length_a   5.98199700
_cell_length_b   8.91641347
_cell_length_c   8.91640101
_cell_angle_alpha   119.99601686
_cell_angle_beta   90.00053657
_cell_angle_gamma   90.00223132
_symmetry_Int_Tables_number   1
_chemical_formula_structural   Zr10CdSn4Bi3
_chemical_formula_sum   'Zr10 Cd1 Sn4 Bi3'
_cell_volume   411.88316715
_cell_formula_units_Z   1
loop_
 _symmetry_equiv_pos_site_id
 _symmetry_equiv_pos_as_xyz
  1  'x, y, z'
loop_
 _atom_site_type_symbol
 _atom_site_label
 _atom_site_symmetry_multiplicity
 _atom_site_fract_x
 _atom_site_fract_y
 _atom_site_fract_z
 _atom_site_occupancy
  Zr  Zr0  1  0.495897  0.333319  0.666664  1
  Zr  Zr1  1  0.495903  0.666664  0.333317  1
  Zr  Zr2  1  0.004569  0.666662  0.333320  1
  Zr  Zr3  1  0.004563  0.333320  0.666660  1
  Zr  Zr4  1  0.751719  0.281260  0.000012  1
  Zr  Zr5  1  0.751721  0.718762  0.718756  1
  Zr  Zr6  1  0.751725  0.000008  0.281252  1
  Zr  Zr7  1  0.248367  0.717802  0.000023  1
  Zr  Zr8  1  0.248360  0.282209  0.282212  1
  Zr  Zr9  1  0.248367  0.000010  0.717798  1
  Cd  Cd10  1  0.498635  0.999995  0.999997  1
  Sn  Sn11  1  0.252103  0.381846  0.999949  1
  Sn  Sn12  1  0.252100  0.618115  0.618129  1
  Sn  Sn13  1  0.252112  0.999978  0.381869  1
  Sn  Sn14  1  0.000987  0.000003  0.000003  1
  Bi  Bi15  1  0.747627  0.616830  0.000006  1
  Bi  Bi16  1  0.747617  0.383200  0.383206  1
  Bi  Bi17  1  0.747626  0.000017  0.616828  1
