# generated using pymatgen
data_LiYHo2In3Pd2
_symmetry_space_group_name_H-M   'P 1'
_cell_length_a   7.84443454
_cell_length_b   7.82828193
_cell_length_c   3.70529900
_cell_angle_alpha   90.00000000
_cell_angle_beta   90.00000000
_cell_angle_gamma   119.93190505
_symmetry_Int_Tables_number   1
_chemical_formula_structural   LiYHo2In3Pd2
_chemical_formula_sum   'Li1 Y1 Ho2 In3 Pd2'
_cell_volume   197.18759190
_cell_formula_units_Z   1
loop_
 _symmetry_equiv_pos_site_id
 _symmetry_equiv_pos_as_xyz
  1  'x, y, z'
loop_
 _atom_site_type_symbol
 _atom_site_label
 _atom_site_symmetry_multiplicity
 _atom_site_fract_x
 _atom_site_fract_y
 _atom_site_fract_z
 _atom_site_occupancy
  Li  Li0  1  0.000000  0.000040  0.000000  1
  Y  Y1  1  0.000000  0.587973  0.000000  1
  Ho  Ho2  1  0.412555  0.412538  0.000000  1
  Ho  Ho3  1  0.587445  0.999984  0.000000  1
  In  In4  1  0.741056  0.741371  0.500000  1
  In  In5  1  0.000000  0.258450  0.500000  1
  In  In6  1  0.258944  0.000314  0.500000  1
  Pd  Pd7  1  0.334518  0.666924  0.500000  1
  Pd  Pd8  1  0.665482  0.332405  0.500000  1
