# generated using pymatgen
data_Sr2LiHoO4
_symmetry_space_group_name_H-M   'P 1'
_cell_length_a   11.55267500
_cell_length_b   3.45641200
_cell_length_c   11.54505800
_cell_angle_alpha   90.00000000
_cell_angle_beta   90.00000000
_cell_angle_gamma   90.00000000
_symmetry_Int_Tables_number   1
_chemical_formula_structural   Sr2LiHoO4
_chemical_formula_sum   'Sr8 Li4 Ho4 O16'
_cell_volume   461.00345396
_cell_formula_units_Z   4
loop_
 _symmetry_equiv_pos_site_id
 _symmetry_equiv_pos_as_xyz
  1  'x, y, z'
loop_
 _atom_site_type_symbol
 _atom_site_label
 _atom_site_symmetry_multiplicity
 _atom_site_fract_x
 _atom_site_fract_y
 _atom_site_fract_z
 _atom_site_occupancy
  Sr  Sr0  1  0.636131  0.499999  0.071499  1
  Sr  Sr1  1  0.098097  0.000000  0.116826  1
  Sr  Sr2  1  0.598097  0.000000  0.383174  1
  Sr  Sr3  1  0.136132  0.499999  0.428501  1
  Sr  Sr4  1  0.863868  0.000000  0.571499  1
  Sr  Sr5  1  0.401902  0.499999  0.616825  1
  Sr  Sr6  1  0.901902  0.499999  0.883174  1
  Sr  Sr7  1  0.363867  0.000000  0.928500  1
  Li  Li8  1  0.847667  0.000000  0.090076  1
  Li  Li9  1  0.347667  0.000000  0.409924  1
  Li  Li10  1  0.652333  0.499999  0.590075  1
  Li  Li11  1  0.152332  0.499999  0.909924  1
  Ho  Ho12  1  0.357978  0.499999  0.206518  1
  Ho  Ho13  1  0.857979  0.499999  0.293481  1
  Ho  Ho14  1  0.142021  0.000000  0.706519  1
  Ho  Ho15  1  0.642021  0.000000  0.793480  1
  O  O16  1  0.246124  0.499999  0.047538  1
  O  O17  1  0.936927  0.499999  0.112114  1
  O  O18  1  0.471345  0.000000  0.134069  1
  O  O19  1  0.744232  0.000000  0.220417  1
  O  O20  1  0.244232  0.000000  0.279582  1
  O  O21  1  0.971345  0.000000  0.365930  1
  O  O22  1  0.436926  0.499999  0.387885  1
  O  O23  1  0.746124  0.499999  0.452461  1
  O  O24  1  0.253875  0.000000  0.547538  1
  O  O25  1  0.563073  0.000000  0.612115  1
  O  O26  1  0.028654  0.499999  0.634069  1
  O  O27  1  0.755767  0.499999  0.720418  1
  O  O28  1  0.255768  0.499999  0.779582  1
  O  O29  1  0.528653  0.499999  0.865930  1
  O  O30  1  0.063073  0.000000  0.887885  1
  O  O31  1  0.753875  0.000000  0.952461  1
