# generated using pymatgen
data_Er4B8Os3Ru
_symmetry_space_group_name_H-M   'P 1'
_cell_length_a   5.30422600
_cell_length_b   5.88311209
_cell_length_c   6.35241259
_cell_angle_alpha   89.79974007
_cell_angle_beta   90.00000000
_cell_angle_gamma   90.00000000
_symmetry_Int_Tables_number   1
_chemical_formula_structural   Er4B8Os3Ru
_chemical_formula_sum   'Er4 B8 Os3 Ru1'
_cell_volume   198.22808609
_cell_formula_units_Z   1
loop_
 _symmetry_equiv_pos_site_id
 _symmetry_equiv_pos_as_xyz
  1  'x, y, z'
loop_
 _atom_site_type_symbol
 _atom_site_label
 _atom_site_symmetry_multiplicity
 _atom_site_fract_x
 _atom_site_fract_y
 _atom_site_fract_z
 _atom_site_occupancy
  Er  Er0  1  0.250000  0.510625  0.835351  1
  Er  Er1  1  0.250000  0.011764  0.666186  1
  Er  Er2  1  0.750000  0.489231  0.164048  1
  Er  Er3  1  0.750000  0.989108  0.335625  1
  B  B4  1  0.082475  0.864545  0.038268  1
  B  B5  1  0.418230  0.363590  0.461364  1
  B  B6  1  0.581746  0.136678  0.961348  1
  B  B7  1  0.916402  0.634549  0.536043  1
  B  B8  1  0.918254  0.136678  0.961348  1
  B  B9  1  0.583598  0.634549  0.536043  1
  B  B10  1  0.417525  0.864545  0.038268  1
  B  B11  1  0.081770  0.363590  0.461364  1
  Os  Os12  1  0.250000  0.679072  0.319315  1
  Os  Os13  1  0.250000  0.178185  0.183005  1
  Os  Os14  1  0.750000  0.321409  0.682564  1
  Ru  Ru15  1  0.750000  0.821882  0.819858  1
