# generated using pymatgen
data_Tb2Ho7Lu3(GaCo2)2
_symmetry_space_group_name_H-M   'P 1'
_cell_length_a   8.20163701
_cell_length_b   8.21381795
_cell_length_c   8.21709983
_cell_angle_alpha   112.10034245
_cell_angle_beta   109.43214062
_cell_angle_gamma   106.98782009
_symmetry_Int_Tables_number   1
_chemical_formula_structural   Tb2Ho7Lu3(GaCo2)2
_chemical_formula_sum   'Tb2 Ho7 Lu3 Ga2 Co4'
_cell_volume   424.93233407
_cell_formula_units_Z   1
loop_
 _symmetry_equiv_pos_site_id
 _symmetry_equiv_pos_as_xyz
  1  'x, y, z'
loop_
 _atom_site_type_symbol
 _atom_site_label
 _atom_site_symmetry_multiplicity
 _atom_site_fract_x
 _atom_site_fract_y
 _atom_site_fract_z
 _atom_site_occupancy
  Tb  Tb0  1  0.960066  0.261075  0.698150  1
  Tb  Tb1  1  0.042046  0.739479  0.303694  1
  Ho  Ho2  1  0.671883  0.484771  0.811539  1
  Ho  Ho3  1  0.562447  0.260977  0.300600  1
  Ho  Ho4  1  0.436271  0.739661  0.697721  1
  Ho  Ho5  1  0.181973  0.781259  0.961490  1
  Ho  Ho6  1  0.819076  0.780548  0.599334  1
  Ho  Ho7  1  0.179692  0.219225  0.399131  1
  Ho  Ho8  1  0.819404  0.218506  0.039632  1
  Lu  Lu9  1  0.671667  0.858845  0.185720  1
  Lu  Lu10  1  0.328236  0.513298  0.186502  1
  Lu  Lu11  1  0.327463  0.141040  0.814906  1
  Ga  Ga12  1  0.999648  0.499732  0.500088  1
  Ga  Ga13  1  0.499691  0.999107  0.499427  1
  Co  Co14  1  0.116364  0.115590  0.999899  1
  Co  Co15  1  0.884890  0.885546  0.000069  1
  Co  Co16  1  0.659441  0.500260  0.161280  1
  Co  Co17  1  0.339742  0.501078  0.840820  1
