# generated using pymatgen
data_Cs6Na4TiNbAs6
_symmetry_space_group_name_H-M   'P 1'
_cell_length_a   10.91122927
_cell_length_b   10.91122759
_cell_length_c   16.90973100
_cell_angle_alpha   90.00000000
_cell_angle_beta   90.00000000
_cell_angle_gamma   142.53003039
_symmetry_Int_Tables_number   1
_chemical_formula_structural   Cs6Na4TiNbAs6
_chemical_formula_sum   'Cs12 Na8 Ti2 Nb2 As12'
_cell_volume   1224.71295867
_cell_formula_units_Z   2
loop_
 _symmetry_equiv_pos_site_id
 _symmetry_equiv_pos_as_xyz
  1  'x, y, z'
loop_
 _atom_site_type_symbol
 _atom_site_label
 _atom_site_symmetry_multiplicity
 _atom_site_fract_x
 _atom_site_fract_y
 _atom_site_fract_z
 _atom_site_occupancy
  Cs  Cs0  1  0.945952  0.609423  0.825959  1
  Cs  Cs1  1  0.554048  0.890577  0.325959  1
  Cs  Cs2  1  0.390577  0.054048  0.174041  1
  Cs  Cs3  1  0.056749  0.391237  0.172528  1
  Cs  Cs4  1  0.891237  0.556749  0.327472  1
  Cs  Cs5  1  0.443251  0.108763  0.672528  1
  Cs  Cs6  1  0.608763  0.943251  0.827472  1
  Cs  Cs7  1  0.279209  0.277425  0.316484  1
  Cs  Cs8  1  0.777425  0.779209  0.183516  1
  Cs  Cs9  1  0.220791  0.222575  0.816484  1
  Cs  Cs10  1  0.722575  0.720791  0.683516  1
  Cs  Cs11  1  0.109423  0.445952  0.674041  1
  Na  Na12  1  0.919974  0.080026  0.000000  1
  Na  Na13  1  0.580026  0.419974  0.500000  1
  Na  Na14  1  0.079090  0.920910  0.000000  1
  Na  Na15  1  0.420910  0.579090  0.500000  1
  Na  Na16  1  0.755599  0.244401  0.000000  1
  Na  Na17  1  0.744401  0.255599  0.500000  1
  Na  Na18  1  0.246375  0.753625  0.000000  1
  Na  Na19  1  0.253625  0.746375  0.500000  1
  Ti  Ti20  1  0.415409  0.584591  0.000000  1
  Ti  Ti21  1  0.084591  0.915409  0.500000  1
  Nb  Nb22  1  0.582868  0.417132  0.000000  1
  Nb  Nb23  1  0.917132  0.082868  0.500000  1
  As  As24  1  0.860319  0.554011  0.088298  1
  As  As25  1  0.445989  0.139681  0.911702  1
  As  As26  1  0.639681  0.945989  0.588298  1
  As  As27  1  0.945480  0.637631  0.588760  1
  As  As28  1  0.137631  0.445480  0.911240  1
  As  As29  1  0.554520  0.862369  0.088760  1
  As  As30  1  0.362369  0.054520  0.411240  1
  As  As31  1  0.192599  0.194405  0.581957  1
  As  As32  1  0.694405  0.692599  0.918043  1
  As  As33  1  0.307401  0.305595  0.081957  1
  As  As34  1  0.054011  0.360319  0.411702  1
  As  As35  1  0.805595  0.807401  0.418043  1
