# generated using pymatgen
data_LiSc(PaH4)6
_symmetry_space_group_name_H-M   'P 1'
_cell_length_a   6.43488600
_cell_length_b   6.43488600
_cell_length_c   6.43488600
_cell_angle_alpha   90.00000000
_cell_angle_beta   90.00000000
_cell_angle_gamma   90.00000000
_symmetry_Int_Tables_number   1
_chemical_formula_structural   LiSc(PaH4)6
_chemical_formula_sum   'Li1 Sc1 Pa6 H24'
_cell_volume   266.45420117
_cell_formula_units_Z   1
loop_
 _symmetry_equiv_pos_site_id
 _symmetry_equiv_pos_as_xyz
  1  'x, y, z'
loop_
 _atom_site_type_symbol
 _atom_site_label
 _atom_site_symmetry_multiplicity
 _atom_site_fract_x
 _atom_site_fract_y
 _atom_site_fract_z
 _atom_site_occupancy
  Li  Li0  1  0.000000  0.000000  0.000000  1
  Sc  Sc1  1  0.500000  0.500000  0.500000  1
  Pa  Pa2  1  0.247949  0.000000  0.500000  1
  Pa  Pa3  1  0.752051  0.000000  0.500000  1
  Pa  Pa4  1  0.000000  0.500000  0.247949  1
  Pa  Pa5  1  0.000000  0.500000  0.752051  1
  Pa  Pa6  1  0.500000  0.752051  0.000000  1
  Pa  Pa7  1  0.500000  0.247949  0.000000  1
  H  H8  1  0.000000  0.153214  0.303101  1
  H  H9  1  0.500000  0.203057  0.651079  1
  H  H10  1  0.500000  0.796943  0.348921  1
  H  H11  1  0.796943  0.651079  0.500000  1
  H  H12  1  0.203057  0.651079  0.500000  1
  H  H13  1  0.348921  0.500000  0.796943  1
  H  H14  1  0.651079  0.500000  0.796943  1
  H  H15  1  0.303101  0.000000  0.153214  1
  H  H16  1  0.153214  0.303101  0.000000  1
  H  H17  1  0.846786  0.696899  0.000000  1
  H  H18  1  0.303101  0.000000  0.846786  1
  H  H19  1  0.846786  0.303101  0.000000  1
  H  H20  1  0.696899  0.000000  0.153214  1
  H  H21  1  0.696899  0.000000  0.846786  1
  H  H22  1  0.153214  0.696899  0.000000  1
  H  H23  1  0.000000  0.846786  0.696899  1
  H  H24  1  0.000000  0.153214  0.696899  1
  H  H25  1  0.000000  0.846786  0.303101  1
  H  H26  1  0.651079  0.500000  0.203057  1
  H  H27  1  0.348921  0.500000  0.203057  1
  H  H28  1  0.796943  0.348921  0.500000  1
  H  H29  1  0.203057  0.348921  0.500000  1
  H  H30  1  0.500000  0.796943  0.651079  1
  H  H31  1  0.500000  0.203057  0.348921  1
