# generated using pymatgen
data_Ho2InCuPd
_symmetry_space_group_name_H-M   'P 1'
_cell_length_a   7.65710300
_cell_length_b   7.64846500
_cell_length_c   3.67639000
_cell_angle_alpha   90.00000000
_cell_angle_beta   90.00000000
_cell_angle_gamma   90.00000000
_symmetry_Int_Tables_number   1
_chemical_formula_structural   Ho2InCuPd
_chemical_formula_sum   'Ho4 In2 Cu2 Pd2'
_cell_volume   215.30809026
_cell_formula_units_Z   2
loop_
 _symmetry_equiv_pos_site_id
 _symmetry_equiv_pos_as_xyz
  1  'x, y, z'
loop_
 _atom_site_type_symbol
 _atom_site_label
 _atom_site_symmetry_multiplicity
 _atom_site_fract_x
 _atom_site_fract_y
 _atom_site_fract_z
 _atom_site_occupancy
  Ho  Ho0  1  0.327857  0.823601  0.500000  1
  Ho  Ho1  1  0.827857  0.676399  0.500000  1
  Ho  Ho2  1  0.174123  0.330623  0.500000  1
  Ho  Ho3  1  0.674123  0.169377  0.500000  1
  In  In4  1  0.004673  0.005643  0.000000  1
  In  In5  1  0.504673  0.494357  0.000000  1
  Cu  Cu6  1  0.373349  0.124791  0.000000  1
  Cu  Cu7  1  0.873349  0.375209  0.000000  1
  Pd  Pd8  1  0.119998  0.622076  0.000000  1
  Pd  Pd9  1  0.619998  0.877924  0.000000  1
