# generated using pymatgen
data_Sm2DyMg3Sn2Au
_symmetry_space_group_name_H-M   'P 1'
_cell_length_a   7.60923444
_cell_length_b   7.60923485
_cell_length_c   4.47893600
_cell_angle_alpha   90.00000000
_cell_angle_beta   90.00000000
_cell_angle_gamma   119.68122208
_symmetry_Int_Tables_number   1
_chemical_formula_structural   Sm2DyMg3Sn2Au
_chemical_formula_sum   'Sm2 Dy1 Mg3 Sn2 Au1'
_cell_volume   225.30640967
_cell_formula_units_Z   1
loop_
 _symmetry_equiv_pos_site_id
 _symmetry_equiv_pos_as_xyz
  1  'x, y, z'
loop_
 _atom_site_type_symbol
 _atom_site_label
 _atom_site_symmetry_multiplicity
 _atom_site_fract_x
 _atom_site_fract_y
 _atom_site_fract_z
 _atom_site_occupancy
  Sm  Sm0  1  0.593475  0.998973  0.000000  1
  Sm  Sm1  1  0.998973  0.593475  0.000000  1
  Dy  Dy2  1  0.404271  0.404271  0.000000  1
  Mg  Mg3  1  0.237211  0.000847  0.500000  1
  Mg  Mg4  1  0.000847  0.237211  0.500000  1
  Mg  Mg5  1  0.762714  0.762714  0.500000  1
  Sn  Sn6  1  0.334850  0.664442  0.500000  1
  Sn  Sn7  1  0.664442  0.334850  0.500000  1
  Au  Au8  1  0.003217  0.003217  0.000000  1
