# generated using pymatgen
data_Ba3MnCdO6
_symmetry_space_group_name_H-M   'P 1'
_cell_length_a   7.11155422
_cell_length_b   7.11155388
_cell_length_c   7.11155494
_cell_angle_alpha   92.37459481
_cell_angle_beta   92.37459467
_cell_angle_gamma   92.37459507
_symmetry_Int_Tables_number   1
_chemical_formula_structural   Ba3MnCdO6
_chemical_formula_sum   'Ba6 Mn2 Cd2 O12'
_cell_volume   358.70823957
_cell_formula_units_Z   2
loop_
 _symmetry_equiv_pos_site_id
 _symmetry_equiv_pos_as_xyz
  1  'x, y, z'
loop_
 _atom_site_type_symbol
 _atom_site_label
 _atom_site_symmetry_multiplicity
 _atom_site_fract_x
 _atom_site_fract_y
 _atom_site_fract_z
 _atom_site_occupancy
  Ba  Ba0  1  0.109644  0.750000  0.390356  1
  Ba  Ba1  1  0.390356  0.109644  0.750000  1
  Ba  Ba2  1  0.890356  0.250000  0.609644  1
  Ba  Ba3  1  0.609644  0.890356  0.250000  1
  Ba  Ba4  1  0.750000  0.390356  0.109644  1
  Ba  Ba5  1  0.250000  0.609644  0.890356  1
  Mn  Mn6  1  0.000000  0.000000  0.000000  1
  Mn  Mn7  1  0.500000  0.500000  0.500000  1
  Cd  Cd8  1  0.250000  0.250000  0.250000  1
  Cd  Cd9  1  0.750000  0.750000  0.750000  1
  O  O10  1  0.453795  0.764030  0.584517  1
  O  O11  1  0.584517  0.453795  0.764030  1
  O  O12  1  0.764030  0.584517  0.453795  1
  O  O13  1  0.046205  0.915483  0.735970  1
  O  O14  1  0.735970  0.046205  0.915483  1
  O  O15  1  0.915483  0.735970  0.046205  1
  O  O16  1  0.546205  0.235970  0.415483  1
  O  O17  1  0.415483  0.546205  0.235970  1
  O  O18  1  0.235970  0.415483  0.546205  1
  O  O19  1  0.953795  0.084517  0.264030  1
  O  O20  1  0.084517  0.264030  0.953795  1
  O  O21  1  0.264030  0.953795  0.084517  1
