# generated using pymatgen
data_YThBe2(Re2C)2
_symmetry_space_group_name_H-M   'P 1'
_cell_length_a   5.63319812
_cell_length_b   5.63319626
_cell_length_c   7.32182400
_cell_angle_alpha   90.00000000
_cell_angle_beta   90.00000000
_cell_angle_gamma   139.45195584
_symmetry_Int_Tables_number   1
_chemical_formula_structural   YThBe2(Re2C)2
_chemical_formula_sum   'Y1 Th1 Be2 Re4 C2'
_cell_volume   151.04266294
_cell_formula_units_Z   1
loop_
 _symmetry_equiv_pos_site_id
 _symmetry_equiv_pos_as_xyz
  1  'x, y, z'
loop_
 _atom_site_type_symbol
 _atom_site_label
 _atom_site_symmetry_multiplicity
 _atom_site_fract_x
 _atom_site_fract_y
 _atom_site_fract_z
 _atom_site_occupancy
  Y  Y0  1  0.464949  0.535051  0.750000  1
  Th  Th1  1  0.535440  0.464560  0.250000  1
  Be  Be2  1  0.257606  0.742394  0.250000  1
  Be  Be3  1  0.741233  0.258767  0.750000  1
  Re  Re4  1  0.817614  0.182386  0.062222  1
  Re  Re5  1  0.183174  0.816826  0.934577  1
  Re  Re6  1  0.183174  0.816826  0.565423  1
  Re  Re7  1  0.817614  0.182386  0.437778  1
  C  C8  1  0.999598  0.000402  0.996310  1
  C  C9  1  0.999598  0.000402  0.503690  1
