# generated using pymatgen
data_PrNd4Sn2BiBr
_symmetry_space_group_name_H-M   'P 1'
_cell_length_a   9.61135304
_cell_length_b   9.61135329
_cell_length_c   6.80791400
_cell_angle_alpha   90.00000000
_cell_angle_beta   90.00000000
_cell_angle_gamma   120.39610679
_symmetry_Int_Tables_number   1
_chemical_formula_structural   PrNd4Sn2BiBr
_chemical_formula_sum   'Pr2 Nd8 Sn4 Bi2 Br2'
_cell_volume   542.45839028
_cell_formula_units_Z   2
loop_
 _symmetry_equiv_pos_site_id
 _symmetry_equiv_pos_as_xyz
  1  'x, y, z'
loop_
 _atom_site_type_symbol
 _atom_site_label
 _atom_site_symmetry_multiplicity
 _atom_site_fract_x
 _atom_site_fract_y
 _atom_site_fract_z
 _atom_site_occupancy
  Pr  Pr0  1  0.733906  0.733906  0.750000  1
  Pr  Pr1  1  0.266094  0.266094  0.250000  1
  Nd  Nd2  1  0.268978  0.995075  0.750000  1
  Nd  Nd3  1  0.731022  0.004925  0.250000  1
  Nd  Nd4  1  0.995075  0.268978  0.750000  1
  Nd  Nd5  1  0.004925  0.731022  0.250000  1
  Nd  Nd6  1  0.330113  0.669887  0.500000  1
  Nd  Nd7  1  0.669887  0.330113  0.500000  1
  Nd  Nd8  1  0.669887  0.330113  0.000000  1
  Nd  Nd9  1  0.330113  0.669887  0.000000  1
  Sn  Sn10  1  0.613244  0.999596  0.750000  1
  Sn  Sn11  1  0.386756  0.000404  0.250000  1
  Sn  Sn12  1  0.999596  0.613244  0.750000  1
  Sn  Sn13  1  0.000404  0.386756  0.250000  1
  Bi  Bi14  1  0.384298  0.384298  0.750000  1
  Bi  Bi15  1  0.615702  0.615702  0.250000  1
  Br  Br16  1  0.000000  0.000000  0.500000  1
  Br  Br17  1  0.000000  0.000000  0.000000  1
