# generated using pymatgen
data_Y3Sc7Co5Si20Ir3
_symmetry_space_group_name_H-M   'P 1'
_cell_length_a   12.24456773
_cell_length_b   12.23604835
_cell_length_c   4.03461000
_cell_angle_alpha   90.00000000
_cell_angle_beta   90.00000000
_cell_angle_gamma   89.88400072
_symmetry_Int_Tables_number   1
_chemical_formula_structural   Y3Sc7Co5Si20Ir3
_chemical_formula_sum   'Y3 Sc7 Co5 Si20 Ir3'
_cell_volume   604.48469984
_cell_formula_units_Z   1
loop_
 _symmetry_equiv_pos_site_id
 _symmetry_equiv_pos_as_xyz
  1  'x, y, z'
loop_
 _atom_site_type_symbol
 _atom_site_label
 _atom_site_symmetry_multiplicity
 _atom_site_fract_x
 _atom_site_fract_y
 _atom_site_fract_z
 _atom_site_occupancy
  Y  Y0  1  0.113284  0.615859  0.500000  1
  Y  Y1  1  0.886597  0.382551  0.500000  1
  Y  Y2  1  0.614356  0.890768  0.500000  1
  Sc  Sc3  1  0.387308  0.112635  0.500000  1
  Sc  Sc4  1  0.674087  0.173176  0.500000  1
  Sc  Sc5  1  0.321374  0.830111  0.500000  1
  Sc  Sc6  1  0.176145  0.319438  0.500000  1
  Sc  Sc7  1  0.828755  0.679236  0.500000  1
  Sc  Sc8  1  0.000280  0.000333  0.000000  1
  Sc  Sc9  1  0.500736  0.492795  0.000000  1
  Co  Co10  1  0.022017  0.240120  0.000000  1
  Co  Co11  1  0.977978  0.759588  0.000000  1
  Co  Co12  1  0.242097  0.978828  0.000000  1
  Co  Co13  1  0.523212  0.252632  0.000000  1
  Co  Co14  1  0.756283  0.022962  0.000000  1
  Si  Si15  1  0.568564  0.070983  0.000000  1
  Si  Si16  1  0.425099  0.940240  0.000000  1
  Si  Si17  1  0.064931  0.424673  0.000000  1
  Si  Si18  1  0.936828  0.573326  0.000000  1
  Si  Si19  1  0.195059  0.155780  0.000000  1
  Si  Si20  1  0.808943  0.845558  0.000000  1
  Si  Si21  1  0.155833  0.810127  0.000000  1
  Si  Si22  1  0.696551  0.331365  0.000000  1
  Si  Si23  1  0.841832  0.191237  0.000000  1
  Si  Si24  1  0.294938  0.667020  0.000000  1
  Si  Si25  1  0.667527  0.705822  0.000000  1
  Si  Si26  1  0.343273  0.292089  0.000000  1
  Si  Si27  1  0.005071  0.159286  0.500000  1
  Si  Si28  1  0.995953  0.840211  0.500000  1
  Si  Si29  1  0.163011  0.001816  0.500000  1
  Si  Si30  1  0.502758  0.333192  0.500000  1
  Si  Si31  1  0.838259  0.008158  0.500000  1
  Si  Si32  1  0.491519  0.649984  0.500000  1
  Si  Si33  1  0.651195  0.510143  0.500000  1
  Si  Si34  1  0.349271  0.494773  0.500000  1
  Ir  Ir35  1  0.477138  0.747470  0.000000  1
  Ir  Ir36  1  0.746481  0.521245  0.000000  1
  Ir  Ir37  1  0.255456  0.474470  0.000000  1
