# generated using pymatgen
data_SmLu2RuO7
_symmetry_space_group_name_H-M   'P 1'
_cell_length_a   6.33574352
_cell_length_b   6.33574305
_cell_length_c   7.39869400
_cell_angle_alpha   90.00000000
_cell_angle_beta   90.00000000
_cell_angle_gamma   109.68627015
_symmetry_Int_Tables_number   1
_chemical_formula_structural   SmLu2RuO7
_chemical_formula_sum   'Sm2 Lu4 Ru2 O14'
_cell_volume   279.63671713
_cell_formula_units_Z   2
loop_
 _symmetry_equiv_pos_site_id
 _symmetry_equiv_pos_as_xyz
  1  'x, y, z'
loop_
 _atom_site_type_symbol
 _atom_site_label
 _atom_site_symmetry_multiplicity
 _atom_site_fract_x
 _atom_site_fract_y
 _atom_site_fract_z
 _atom_site_occupancy
  Sm  Sm0  1  0.000000  0.000000  0.500000  1
  Sm  Sm1  1  0.000000  0.000000  0.000000  1
  Lu  Lu2  1  0.484832  0.937097  0.750000  1
  Lu  Lu3  1  0.515168  0.062903  0.250000  1
  Lu  Lu4  1  0.937097  0.484832  0.750000  1
  Lu  Lu5  1  0.062903  0.515168  0.250000  1
  Ru  Ru6  1  0.500000  0.500000  0.500000  1
  Ru  Ru7  1  0.500000  0.500000  0.000000  1
  O  O8  1  0.594928  0.594928  0.750000  1
  O  O9  1  0.405072  0.405072  0.250000  1
  O  O10  1  0.837048  0.120783  0.750000  1
  O  O11  1  0.162952  0.879217  0.250000  1
  O  O12  1  0.120783  0.837048  0.750000  1
  O  O13  1  0.879217  0.162952  0.250000  1
  O  O14  1  0.438811  0.177022  0.962929  1
  O  O15  1  0.561189  0.822978  0.462929  1
  O  O16  1  0.177022  0.438811  0.962929  1
  O  O17  1  0.822978  0.561189  0.462929  1
  O  O18  1  0.438811  0.177022  0.537071  1
  O  O19  1  0.561189  0.822978  0.037071  1
  O  O20  1  0.822978  0.561189  0.037071  1
  O  O21  1  0.177022  0.438811  0.537071  1
