# generated using pymatgen
data_Tb4TmRuRh
_symmetry_space_group_name_H-M   'P 1'
_cell_length_a   6.38499283
_cell_length_b   7.23147079
_cell_length_c   8.59327696
_cell_angle_alpha   96.60758668
_cell_angle_beta   111.80883603
_cell_angle_gamma   90.00000234
_symmetry_Int_Tables_number   1
_chemical_formula_structural   Tb4TmRuRh
_chemical_formula_sum   'Tb8 Tm2 Ru2 Rh2'
_cell_volume   365.53829082
_cell_formula_units_Z   2
loop_
 _symmetry_equiv_pos_site_id
 _symmetry_equiv_pos_as_xyz
  1  'x, y, z'
loop_
 _atom_site_type_symbol
 _atom_site_label
 _atom_site_symmetry_multiplicity
 _atom_site_fract_x
 _atom_site_fract_y
 _atom_site_fract_z
 _atom_site_occupancy
  Tb  Tb0  1  0.793556  0.081380  0.812999  1
  Tb  Tb1  1  0.980557  0.418620  0.187001  1
  Tb  Tb2  1  0.208896  0.915614  0.184183  1
  Tb  Tb3  1  0.024713  0.584386  0.815817  1
  Tb  Tb4  1  0.208275  0.184652  0.567637  1
  Tb  Tb5  1  0.640638  0.315348  0.432363  1
  Tb  Tb6  1  0.791836  0.811755  0.435682  1
  Tb  Tb7  1  0.356154  0.688245  0.564318  1
  Tm  Tm8  1  0.424173  0.250000  0.000000  1
  Tm  Tm9  1  0.574024  0.750000  0.000000  1
  Ru  Ru10  1  0.398321  0.573090  0.217766  1
  Ru  Ru11  1  0.180556  0.926910  0.782234  1
  Rh  Rh12  1  0.600262  0.425528  0.782222  1
  Rh  Rh13  1  0.818039  0.074472  0.217778  1
