# generated using pymatgen
data_Lu6ReBiPb
_symmetry_space_group_name_H-M   'P 1'
_cell_length_a   8.05829000
_cell_length_b   8.05828926
_cell_length_c   4.33341200
_cell_angle_alpha   90.00000000
_cell_angle_beta   90.00000000
_cell_angle_gamma   120.00000303
_symmetry_Int_Tables_number   1
_chemical_formula_structural   Lu6ReBiPb
_chemical_formula_sum   'Lu6 Re1 Bi1 Pb1'
_cell_volume   243.69484679
_cell_formula_units_Z   1
loop_
 _symmetry_equiv_pos_site_id
 _symmetry_equiv_pos_as_xyz
  1  'x, y, z'
loop_
 _atom_site_type_symbol
 _atom_site_label
 _atom_site_symmetry_multiplicity
 _atom_site_fract_x
 _atom_site_fract_y
 _atom_site_fract_z
 _atom_site_occupancy
  Lu  Lu0  1  0.234704  0.996640  0.500000  1
  Lu  Lu1  1  0.003360  0.238063  0.500000  1
  Lu  Lu2  1  0.761937  0.765296  0.500000  1
  Lu  Lu3  1  0.615779  0.995855  0.000000  1
  Lu  Lu4  1  0.004145  0.619924  0.000000  1
  Lu  Lu5  1  0.380076  0.384221  0.000000  1
  Re  Re6  1  0.000000  0.000000  0.000000  1
  Bi  Bi7  1  0.666667  0.333333  0.500000  1
  Pb  Pb8  1  0.333333  0.666667  0.500000  1
