# generated using pymatgen
data_Tb3Er(Mn5P3)4
_symmetry_space_group_name_H-M   'P 1'
_cell_length_a   3.60024600
_cell_length_b   10.71883306
_cell_length_c   12.21332707
_cell_angle_alpha   89.98798235
_cell_angle_beta   90.00000000
_cell_angle_gamma   90.00000000
_symmetry_Int_Tables_number   1
_chemical_formula_structural   Tb3Er(Mn5P3)4
_chemical_formula_sum   'Tb3 Er1 Mn20 P12'
_cell_volume   471.31760427
_cell_formula_units_Z   1
loop_
 _symmetry_equiv_pos_site_id
 _symmetry_equiv_pos_as_xyz
  1  'x, y, z'
loop_
 _atom_site_type_symbol
 _atom_site_label
 _atom_site_symmetry_multiplicity
 _atom_site_fract_x
 _atom_site_fract_y
 _atom_site_fract_z
 _atom_site_occupancy
  Tb  Tb0  1  0.750000  0.412643  0.294301  1
  Tb  Tb1  1  0.750000  0.087475  0.794210  1
  Tb  Tb2  1  0.250000  0.912506  0.205731  1
  Er  Er3  1  0.250000  0.587236  0.705739  1
  Mn  Mn4  1  0.250000  0.409771  0.493955  1
  Mn  Mn5  1  0.750000  0.711503  0.319386  1
  Mn  Mn6  1  0.750000  0.787957  0.819115  1
  Mn  Mn7  1  0.250000  0.288917  0.680626  1
  Mn  Mn8  1  0.250000  0.616828  0.192037  1
  Mn  Mn9  1  0.750000  0.383730  0.807529  1
  Mn  Mn10  1  0.750000  0.116863  0.307953  1
  Mn  Mn11  1  0.250000  0.882547  0.692208  1
  Mn  Mn12  1  0.250000  0.033237  0.434771  1
  Mn  Mn13  1  0.750000  0.966312  0.565525  1
  Mn  Mn14  1  0.750000  0.533283  0.064802  1
  Mn  Mn15  1  0.250000  0.467105  0.934182  1
  Mn  Mn16  1  0.750000  0.909637  0.006439  1
  Mn  Mn17  1  0.250000  0.090279  0.993461  1
  Mn  Mn18  1  0.250000  0.717962  0.982173  1
  Mn  Mn19  1  0.750000  0.282149  0.017804  1
  Mn  Mn20  1  0.750000  0.218208  0.518070  1
  Mn  Mn21  1  0.250000  0.782074  0.482235  1
  Mn  Mn22  1  0.250000  0.211577  0.180511  1
  Mn  Mn23  1  0.750000  0.590274  0.507260  1
  P  P24  1  0.250000  0.591334  0.383334  1
  P  P25  1  0.750000  0.409876  0.617406  1
  P  P26  1  0.750000  0.091306  0.116780  1
  P  P27  1  0.250000  0.908518  0.883216  1
  P  P28  1  0.750000  0.764310  0.624839  1
  P  P29  1  0.250000  0.234351  0.375847  1
  P  P30  1  0.250000  0.410262  0.114742  1
  P  P31  1  0.750000  0.589889  0.883811  1
  P  P32  1  0.750000  0.910141  0.385109  1
  P  P33  1  0.250000  0.089862  0.614982  1
  P  P34  1  0.250000  0.265792  0.875784  1
  P  P35  1  0.750000  0.734285  0.124127  1
