# generated using pymatgen
data_LiAl3Pd8
_symmetry_space_group_name_H-M   'P 1'
_cell_length_a   4.11658700
_cell_length_b   5.42875816
_cell_length_c   7.84137941
_cell_angle_alpha   89.87739880
_cell_angle_beta   90.00000000
_cell_angle_gamma   90.00000000
_symmetry_Int_Tables_number   1
_chemical_formula_structural   LiAl3Pd8
_chemical_formula_sum   'Li1 Al3 Pd8'
_cell_volume   175.23839515
_cell_formula_units_Z   1
loop_
 _symmetry_equiv_pos_site_id
 _symmetry_equiv_pos_as_xyz
  1  'x, y, z'
loop_
 _atom_site_type_symbol
 _atom_site_label
 _atom_site_symmetry_multiplicity
 _atom_site_fract_x
 _atom_site_fract_y
 _atom_site_fract_z
 _atom_site_occupancy
  Li  Li0  1  0.750000  0.814043  0.896957  1
  Al  Al1  1  0.250000  0.182212  0.094797  1
  Al  Al2  1  0.750000  0.303764  0.609470  1
  Al  Al3  1  0.250000  0.690585  0.397985  1
  Pd  Pd4  1  0.750000  0.463415  0.284877  1
  Pd  Pd5  1  0.250000  0.541215  0.717924  1
  Pd  Pd6  1  0.750000  0.964468  0.217624  1
  Pd  Pd7  1  0.250000  0.041024  0.778601  1
  Pd  Pd8  1  0.750000  0.333673  0.934969  1
  Pd  Pd9  1  0.250000  0.667334  0.070983  1
  Pd  Pd10  1  0.750000  0.829976  0.564835  1
  Pd  Pd11  1  0.250000  0.168290  0.430978  1
