# generated using pymatgen
data_YbHo2(Al3Pd2)3
_symmetry_space_group_name_H-M   'P 1'
_cell_length_a   9.39831000
_cell_length_b   9.39831068
_cell_length_c   4.21336400
_cell_angle_alpha   90.00000000
_cell_angle_beta   90.00000000
_cell_angle_gamma   119.99999760
_symmetry_Int_Tables_number   1
_chemical_formula_structural   YbHo2(Al3Pd2)3
_chemical_formula_sum   'Yb1 Ho2 Al9 Pd6'
_cell_volume   322.29916910
_cell_formula_units_Z   1
loop_
 _symmetry_equiv_pos_site_id
 _symmetry_equiv_pos_as_xyz
  1  'x, y, z'
loop_
 _atom_site_type_symbol
 _atom_site_label
 _atom_site_symmetry_multiplicity
 _atom_site_fract_x
 _atom_site_fract_y
 _atom_site_fract_z
 _atom_site_occupancy
  Yb  Yb0  1  0.000000  0.000000  0.000000  1
  Ho  Ho1  1  0.333333  0.666667  0.500000  1
  Ho  Ho2  1  0.666667  0.333333  0.500000  1
  Al  Al3  1  0.500000  0.000000  0.000000  1
  Al  Al4  1  0.000000  0.500000  0.000000  1
  Al  Al5  1  0.500000  0.500000  0.000000  1
  Al  Al6  1  0.306138  0.000000  0.500000  1
  Al  Al7  1  0.693862  0.000000  0.500000  1
  Al  Al8  1  0.000000  0.306138  0.500000  1
  Al  Al9  1  0.000000  0.693862  0.500000  1
  Al  Al10  1  0.693862  0.693862  0.500000  1
  Al  Al11  1  0.306138  0.306138  0.500000  1
  Pd  Pd12  1  0.184317  0.368634  0.000000  1
  Pd  Pd13  1  0.815683  0.631366  0.000000  1
  Pd  Pd14  1  0.631366  0.815683  0.000000  1
  Pd  Pd15  1  0.368634  0.184317  0.000000  1
  Pd  Pd16  1  0.184317  0.815683  0.000000  1
  Pd  Pd17  1  0.815683  0.184317  0.000000  1
