# generated using pymatgen
data_RbV4I11
_symmetry_space_group_name_H-M   'P 1'
_cell_length_a   7.48328000
_cell_length_b   8.23784300
_cell_length_c   19.88796000
_cell_angle_alpha   90.00000000
_cell_angle_beta   90.00000000
_cell_angle_gamma   90.00000000
_symmetry_Int_Tables_number   1
_chemical_formula_structural   RbV4I11
_chemical_formula_sum   'Rb2 V8 I22'
_cell_volume   1226.01488785
_cell_formula_units_Z   2
loop_
 _symmetry_equiv_pos_site_id
 _symmetry_equiv_pos_as_xyz
  1  'x, y, z'
loop_
 _atom_site_type_symbol
 _atom_site_label
 _atom_site_symmetry_multiplicity
 _atom_site_fract_x
 _atom_site_fract_y
 _atom_site_fract_z
 _atom_site_occupancy
  Rb  Rb0  1  0.092479  0.500000  0.750000  1
  Rb  Rb1  1  0.907521  0.500000  0.250000  1
  V  V2  1  0.350724  0.000000  0.669451  1
  V  V3  1  0.649276  0.000000  0.330549  1
  V  V4  1  0.350724  0.000000  0.830549  1
  V  V5  1  0.649276  0.000000  0.169451  1
  V  V6  1  0.500000  0.256066  0.500000  1
  V  V7  1  0.500000  0.256066  0.000000  1
  V  V8  1  0.500000  0.743934  0.500000  1
  V  V9  1  0.500000  0.743934  0.000000  1
  I  I10  1  0.647131  0.000000  0.579798  1
  I  I11  1  0.352869  0.000000  0.420202  1
  I  I12  1  0.647131  0.000000  0.920202  1
  I  I13  1  0.352869  0.000000  0.079798  1
  I  I14  1  0.205506  0.760885  0.586633  1
  I  I15  1  0.794494  0.760885  0.413367  1
  I  I16  1  0.205506  0.760885  0.913367  1
  I  I17  1  0.794494  0.760885  0.086633  1
  I  I18  1  0.794494  0.239115  0.413367  1
  I  I19  1  0.205506  0.239115  0.586633  1
  I  I20  1  0.794494  0.239115  0.086633  1
  I  I21  1  0.205506  0.239115  0.913367  1
  I  I22  1  0.333099  0.500000  0.426802  1
  I  I23  1  0.666901  0.500000  0.573198  1
  I  I24  1  0.333099  0.500000  0.073198  1
  I  I25  1  0.666901  0.500000  0.926802  1
  I  I26  1  0.048573  0.000000  0.750000  1
  I  I27  1  0.951427  0.000000  0.250000  1
  I  I28  1  0.510253  0.234856  0.750000  1
  I  I29  1  0.489747  0.234856  0.250000  1
  I  I30  1  0.489747  0.765144  0.250000  1
  I  I31  1  0.510253  0.765144  0.750000  1
