# generated using pymatgen
data_TbDy5(CI5)2
_symmetry_space_group_name_H-M   'P 1'
_cell_length_a   7.66858509
_cell_length_b   9.50606978
_cell_length_c   9.58129364
_cell_angle_alpha   106.97340593
_cell_angle_beta   96.45093315
_cell_angle_gamma   104.32640272
_symmetry_Int_Tables_number   1
_chemical_formula_structural   TbDy5(CI5)2
_chemical_formula_sum   'Tb1 Dy5 C2 I10'
_cell_volume   634.28846295
_cell_formula_units_Z   1
loop_
 _symmetry_equiv_pos_site_id
 _symmetry_equiv_pos_as_xyz
  1  'x, y, z'
loop_
 _atom_site_type_symbol
 _atom_site_label
 _atom_site_symmetry_multiplicity
 _atom_site_fract_x
 _atom_site_fract_y
 _atom_site_fract_z
 _atom_site_occupancy
  Tb  Tb0  1  0.104027  0.038470  0.781283  1
  Dy  Dy1  1  0.373732  0.131659  0.177165  1
  Dy  Dy2  1  0.896542  0.961719  0.218050  1
  Dy  Dy3  1  0.028763  0.743531  0.925550  1
  Dy  Dy4  1  0.971368  0.256391  0.074245  1
  Dy  Dy5  1  0.626190  0.868286  0.822831  1
  C  C6  1  0.908063  0.969766  0.958964  1
  C  C7  1  0.091509  0.030009  0.041911  1
  I  I8  1  0.192435  0.735536  0.649094  1
  I  I9  1  0.086832  0.365362  0.822850  1
  I  I10  1  0.456426  0.810153  0.093345  1
  I  I11  1  0.254219  0.084361  0.457355  1
  I  I12  1  0.544397  0.190212  0.907063  1
  I  I13  1  0.807936  0.263217  0.350678  1
  I  I14  1  0.344485  0.452217  0.272280  1
  I  I15  1  0.912937  0.636103  0.177669  1
  I  I16  1  0.655502  0.547782  0.727699  1
  I  I17  1  0.744637  0.915228  0.541968  1
