# generated using pymatgen
data_La2Ho(TmPb2)2
_symmetry_space_group_name_H-M   'P 1'
_cell_length_a   8.26819200
_cell_length_b   15.73128200
_cell_length_c   8.30674000
_cell_angle_alpha   90.00000000
_cell_angle_beta   90.00000000
_cell_angle_gamma   90.00000000
_symmetry_Int_Tables_number   1
_chemical_formula_structural   La2Ho(TmPb2)2
_chemical_formula_sum   'La8 Ho4 Tm8 Pb16'
_cell_volume   1080.45152466
_cell_formula_units_Z   4
loop_
 _symmetry_equiv_pos_site_id
 _symmetry_equiv_pos_as_xyz
  1  'x, y, z'
loop_
 _atom_site_type_symbol
 _atom_site_label
 _atom_site_symmetry_multiplicity
 _atom_site_fract_x
 _atom_site_fract_y
 _atom_site_fract_z
 _atom_site_occupancy
  La  La0  1  0.476592  0.596369  0.676357  1
  La  La1  1  0.976592  0.903631  0.823643  1
  La  La2  1  0.523408  0.096369  0.323643  1
  La  La3  1  0.023408  0.403631  0.176357  1
  La  La4  1  0.523408  0.403631  0.323643  1
  La  La5  1  0.023408  0.096369  0.176357  1
  La  La6  1  0.476592  0.903631  0.676357  1
  La  La7  1  0.976592  0.596369  0.823643  1
  Ho  Ho8  1  0.799514  0.750000  0.495002  1
  Ho  Ho9  1  0.299514  0.750000  0.004998  1
  Ho  Ho10  1  0.200486  0.250000  0.504998  1
  Ho  Ho11  1  0.700486  0.250000  0.995002  1
  Tm  Tm12  1  0.636051  0.622915  0.156924  1
  Tm  Tm13  1  0.136051  0.877085  0.343076  1
  Tm  Tm14  1  0.363949  0.122915  0.843076  1
  Tm  Tm15  1  0.863949  0.377085  0.656924  1
  Tm  Tm16  1  0.363949  0.377085  0.843076  1
  Tm  Tm17  1  0.863949  0.122915  0.656924  1
  Tm  Tm18  1  0.636051  0.877085  0.156924  1
  Tm  Tm19  1  0.136051  0.622915  0.343076  1
  Pb  Pb20  1  0.699906  0.455738  0.956054  1
  Pb  Pb21  1  0.199906  0.044262  0.543946  1
  Pb  Pb22  1  0.300094  0.955738  0.043946  1
  Pb  Pb23  1  0.800094  0.544262  0.456054  1
  Pb  Pb24  1  0.300094  0.544262  0.043946  1
  Pb  Pb25  1  0.800094  0.955738  0.456054  1
  Pb  Pb26  1  0.699906  0.044262  0.956054  1
  Pb  Pb27  1  0.199906  0.455738  0.543946  1
  Pb  Pb28  1  0.439059  0.750000  0.367800  1
  Pb  Pb29  1  0.939059  0.750000  0.132200  1
  Pb  Pb30  1  0.560941  0.250000  0.632200  1
  Pb  Pb31  1  0.060941  0.250000  0.867800  1
  Pb  Pb32  1  0.664406  0.750000  0.853557  1
  Pb  Pb33  1  0.164406  0.750000  0.646443  1
  Pb  Pb34  1  0.335594  0.250000  0.146443  1
  Pb  Pb35  1  0.835594  0.250000  0.353557  1
