# generated using pymatgen
data_Lu4Ga2Os5W
_symmetry_space_group_name_H-M   'P 1'
_cell_length_a   5.42735182
_cell_length_b   5.26256296
_cell_length_c   8.80326500
_cell_angle_alpha   90.00000000
_cell_angle_beta   90.00000000
_cell_angle_gamma   120.94785059
_symmetry_Int_Tables_number   1
_chemical_formula_structural   Lu4Ga2Os5W
_chemical_formula_sum   'Lu4 Ga2 Os5 W1'
_cell_volume   215.64128787
_cell_formula_units_Z   1
loop_
 _symmetry_equiv_pos_site_id
 _symmetry_equiv_pos_as_xyz
  1  'x, y, z'
loop_
 _atom_site_type_symbol
 _atom_site_label
 _atom_site_symmetry_multiplicity
 _atom_site_fract_x
 _atom_site_fract_y
 _atom_site_fract_z
 _atom_site_occupancy
  Lu  Lu0  1  0.328406  0.669291  0.441831  1
  Lu  Lu1  1  0.669820  0.342346  0.566068  1
  Lu  Lu2  1  0.669820  0.342346  0.933932  1
  Lu  Lu3  1  0.328406  0.669291  0.058169  1
  Ga  Ga4  1  0.343806  0.161282  0.250000  1
  Ga  Ga5  1  0.837056  0.651791  0.250000  1
  Os  Os6  1  0.173525  0.821315  0.750000  1
  Os  Os7  1  0.651870  0.825742  0.750000  1
  Os  Os8  1  0.002885  0.016444  0.004172  1
  Os  Os9  1  0.829151  0.159253  0.250000  1
  Os  Os10  1  0.002885  0.016444  0.495828  1
  W  W11  1  0.162368  0.324460  0.750000  1
