# generated using pymatgen
data_Dy7Ho3(InBi)3
_symmetry_space_group_name_H-M   'P 1'
_cell_length_a   9.06618400
_cell_length_b   9.06618293
_cell_length_c   6.56612800
_cell_angle_alpha   90.00000000
_cell_angle_beta   90.00000000
_cell_angle_gamma   119.99999661
_symmetry_Int_Tables_number   1
_chemical_formula_structural   Dy7Ho3(InBi)3
_chemical_formula_sum   'Dy7 Ho3 In3 Bi3'
_cell_volume   467.40031166
_cell_formula_units_Z   1
loop_
 _symmetry_equiv_pos_site_id
 _symmetry_equiv_pos_as_xyz
  1  'x, y, z'
loop_
 _atom_site_type_symbol
 _atom_site_label
 _atom_site_symmetry_multiplicity
 _atom_site_fract_x
 _atom_site_fract_y
 _atom_site_fract_z
 _atom_site_occupancy
  Dy  Dy0  1  0.666667  0.333333  0.006446  1
  Dy  Dy1  1  0.762998  0.763008  0.749943  1
  Dy  Dy2  1  0.236992  0.999990  0.749943  1
  Dy  Dy3  1  0.000010  0.237002  0.749943  1
  Dy  Dy4  1  0.237899  0.237946  0.250029  1
  Dy  Dy5  1  0.762054  0.999953  0.250029  1
  Dy  Dy6  1  0.000047  0.762101  0.250029  1
  Ho  Ho7  1  0.333333  0.666667  0.006540  1
  Ho  Ho8  1  0.333333  0.666667  0.493489  1
  Ho  Ho9  1  0.666667  0.333333  0.493493  1
  In  In10  1  0.606410  0.606541  0.250147  1
  In  In11  1  0.393459  0.999870  0.250147  1
  In  In12  1  0.000130  0.393590  0.250147  1
  Bi  Bi13  1  0.395809  0.395977  0.749892  1
  Bi  Bi14  1  0.604023  0.999832  0.749892  1
  Bi  Bi15  1  0.000168  0.604191  0.749892  1
