# generated using pymatgen
data_Yb12Dy5Tm3Si16
_symmetry_space_group_name_H-M   'P 1'
_cell_length_a   7.38832655
_cell_length_b   7.79952137
_cell_length_c   15.10301263
_cell_angle_alpha   90.01403044
_cell_angle_beta   89.96998798
_cell_angle_gamma   90.03257336
_symmetry_Int_Tables_number   1
_chemical_formula_structural   Yb12Dy5Tm3Si16
_chemical_formula_sum   'Yb12 Dy5 Tm3 Si16'
_cell_volume   870.31702194
_cell_formula_units_Z   1
loop_
 _symmetry_equiv_pos_site_id
 _symmetry_equiv_pos_as_xyz
  1  'x, y, z'
loop_
 _atom_site_type_symbol
 _atom_site_label
 _atom_site_symmetry_multiplicity
 _atom_site_fract_x
 _atom_site_fract_y
 _atom_site_fract_z
 _atom_site_occupancy
  Yb  Yb0  1  0.973730  0.815937  0.404078  1
  Yb  Yb1  1  0.474182  0.683768  0.095801  1
  Yb  Yb2  1  0.526139  0.316256  0.596197  1
  Yb  Yb3  1  0.025852  0.183774  0.904048  1
  Yb  Yb4  1  0.026832  0.183987  0.596285  1
  Yb  Yb5  1  0.527025  0.316134  0.903890  1
  Yb  Yb6  1  0.473269  0.683803  0.403910  1
  Yb  Yb7  1  0.972723  0.815896  0.095911  1
  Yb  Yb8  1  0.352491  0.020321  0.749871  1
  Yb  Yb9  1  0.852393  0.479608  0.750187  1
  Yb  Yb10  1  0.147457  0.520676  0.249908  1
  Yb  Yb11  1  0.647715  0.979403  0.249628  1
  Dy  Dy12  1  0.314605  0.176895  0.120746  1
  Dy  Dy13  1  0.814584  0.323469  0.379023  1
  Dy  Dy14  1  0.185283  0.677049  0.878928  1
  Dy  Dy15  1  0.685686  0.822743  0.621428  1
  Dy  Dy16  1  0.313987  0.176723  0.378944  1
  Tm  Tm17  1  0.814385  0.324114  0.121045  1
  Tm  Tm18  1  0.185777  0.675977  0.621479  1
  Tm  Tm19  1  0.685768  0.823979  0.878741  1
  Si  Si20  1  0.859579  0.534101  0.538816  1
  Si  Si21  1  0.360197  0.966358  0.961337  1
  Si  Si22  1  0.641483  0.032812  0.462001  1
  Si  Si23  1  0.139862  0.466308  0.038517  1
  Si  Si24  1  0.143540  0.467502  0.462717  1
  Si  Si25  1  0.645119  0.033511  0.037788  1
  Si  Si26  1  0.355892  0.965457  0.538672  1
  Si  Si27  1  0.854797  0.533638  0.962178  1
  Si  Si28  1  0.977371  0.881608  0.750488  1
  Si  Si29  1  0.477297  0.618312  0.749644  1
  Si  Si30  1  0.523473  0.382708  0.249149  1
  Si  Si31  1  0.021828  0.117724  0.249597  1
  Si  Si32  1  0.249332  0.395581  0.749410  1
  Si  Si33  1  0.749509  0.104286  0.750689  1
  Si  Si34  1  0.249645  0.894837  0.249769  1
  Si  Si35  1  0.751191  0.604745  0.249179  1
