# generated using pymatgen
data_Tm2Th5PaH24
_symmetry_space_group_name_H-M   'P 1'
_cell_length_a   6.74935000
_cell_length_b   6.71248100
_cell_length_c   6.74935000
_cell_angle_alpha   90.00000000
_cell_angle_beta   90.00000000
_cell_angle_gamma   90.00000000
_symmetry_Int_Tables_number   1
_chemical_formula_structural   Tm2Th5PaH24
_chemical_formula_sum   'Tm2 Th5 Pa1 H24'
_cell_volume   305.77851638
_cell_formula_units_Z   1
loop_
 _symmetry_equiv_pos_site_id
 _symmetry_equiv_pos_as_xyz
  1  'x, y, z'
loop_
 _atom_site_type_symbol
 _atom_site_label
 _atom_site_symmetry_multiplicity
 _atom_site_fract_x
 _atom_site_fract_y
 _atom_site_fract_z
 _atom_site_occupancy
  Tm  Tm0  1  0.000000  0.002253  0.000000  1
  Tm  Tm1  1  0.500000  0.497747  0.500000  1
  Th  Th2  1  0.249804  0.000210  0.500000  1
  Th  Th3  1  0.750196  0.000210  0.500000  1
  Th  Th4  1  0.000000  0.499790  0.250196  1
  Th  Th5  1  0.000000  0.499790  0.749804  1
  Th  Th6  1  0.500000  0.750000  0.000000  1
  Pa  Pa7  1  0.500000  0.250000  0.000000  1
  H  H8  1  0.000000  0.151807  0.299325  1
  H  H9  1  0.500000  0.201685  0.658369  1
  H  H10  1  0.500000  0.796176  0.347693  1
  H  H11  1  0.797176  0.652045  0.500000  1
  H  H12  1  0.202824  0.652045  0.500000  1
  H  H13  1  0.349854  0.491542  0.802127  1
  H  H14  1  0.650146  0.491542  0.802127  1
  H  H15  1  0.302127  0.008458  0.150146  1
  H  H16  1  0.158369  0.298315  0.000000  1
  H  H17  1  0.847693  0.703824  0.000000  1
  H  H18  1  0.302127  0.008458  0.849854  1
  H  H19  1  0.841631  0.298315  0.000000  1
  H  H20  1  0.697873  0.008458  0.150146  1
  H  H21  1  0.697873  0.008458  0.849854  1
  H  H22  1  0.152307  0.703824  0.000000  1
  H  H23  1  0.000000  0.847955  0.702824  1
  H  H24  1  0.000000  0.151807  0.700675  1
  H  H25  1  0.000000  0.847955  0.297176  1
  H  H26  1  0.650146  0.491542  0.197873  1
  H  H27  1  0.349854  0.491542  0.197873  1
  H  H28  1  0.799325  0.348193  0.500000  1
  H  H29  1  0.200675  0.348193  0.500000  1
  H  H30  1  0.500000  0.796176  0.652307  1
  H  H31  1  0.500000  0.201685  0.341631  1
