# generated using pymatgen
data_Li2Y4Co17P12Ru
_symmetry_space_group_name_H-M   'P 1'
_cell_length_a   3.68717200
_cell_length_b   10.30381844
_cell_length_c   11.84064226
_cell_angle_alpha   89.84064086
_cell_angle_beta   90.00000000
_cell_angle_gamma   90.00000000
_symmetry_Int_Tables_number   1
_chemical_formula_structural   Li2Y4Co17P12Ru
_chemical_formula_sum   'Li2 Y4 Co17 P12 Ru1'
_cell_volume   449.84735840
_cell_formula_units_Z   1
loop_
 _symmetry_equiv_pos_site_id
 _symmetry_equiv_pos_as_xyz
  1  'x, y, z'
loop_
 _atom_site_type_symbol
 _atom_site_label
 _atom_site_symmetry_multiplicity
 _atom_site_fract_x
 _atom_site_fract_y
 _atom_site_fract_z
 _atom_site_occupancy
  Li  Li0  1  0.750000  0.203571  0.509001  1
  Li  Li1  1  0.750000  0.296549  0.009337  1
  Y  Y2  1  0.250000  0.917631  0.203294  1
  Y  Y3  1  0.750000  0.081620  0.797962  1
  Y  Y4  1  0.750000  0.416712  0.296042  1
  Y  Y5  1  0.250000  0.580504  0.701562  1
  Co  Co6  1  0.250000  0.711708  0.991051  1
  Co  Co7  1  0.250000  0.090815  0.986709  1
  Co  Co8  1  0.750000  0.903391  0.012282  1
  Co  Co9  1  0.750000  0.594259  0.510790  1
  Co  Co10  1  0.250000  0.408759  0.485551  1
  Co  Co11  1  0.250000  0.281910  0.675117  1
  Co  Co12  1  0.750000  0.722374  0.324514  1
  Co  Co13  1  0.750000  0.776070  0.824870  1
  Co  Co14  1  0.250000  0.219349  0.173963  1
  Co  Co15  1  0.250000  0.618935  0.199374  1
  Co  Co16  1  0.750000  0.382973  0.802227  1
  Co  Co17  1  0.750000  0.117536  0.300547  1
  Co  Co18  1  0.250000  0.883340  0.702749  1
  Co  Co19  1  0.250000  0.035994  0.433978  1
  Co  Co20  1  0.750000  0.965017  0.569597  1
  Co  Co21  1  0.750000  0.535494  0.068187  1
  Co  Co22  1  0.250000  0.468038  0.933773  1
  P  P23  1  0.250000  0.080484  0.615521  1
  P  P24  1  0.750000  0.923364  0.387801  1
  P  P25  1  0.750000  0.578517  0.888326  1
  P  P26  1  0.250000  0.421431  0.114935  1
  P  P27  1  0.250000  0.229115  0.362277  1
  P  P28  1  0.750000  0.769591  0.634594  1
  P  P29  1  0.750000  0.730418  0.132176  1
  P  P30  1  0.250000  0.272266  0.862523  1
  P  P31  1  0.250000  0.896970  0.894151  1
  P  P32  1  0.750000  0.100174  0.106782  1
  P  P33  1  0.750000  0.398159  0.607031  1
  P  P34  1  0.250000  0.598011  0.390176  1
  Ru  Ru35  1  0.250000  0.788957  0.491232  1
