# generated using pymatgen
data_Ba3CeLuS6
_symmetry_space_group_name_H-M   'P 1'
_cell_length_a   8.54808313
_cell_length_b   8.54808277
_cell_length_c   8.54808400
_cell_angle_alpha   92.00572909
_cell_angle_beta   92.00572901
_cell_angle_gamma   92.00573656
_symmetry_Int_Tables_number   1
_chemical_formula_structural   Ba3CeLuS6
_chemical_formula_sum   'Ba6 Ce2 Lu2 S12'
_cell_volume   623.43055859
_cell_formula_units_Z   2
loop_
 _symmetry_equiv_pos_site_id
 _symmetry_equiv_pos_as_xyz
  1  'x, y, z'
loop_
 _atom_site_type_symbol
 _atom_site_label
 _atom_site_symmetry_multiplicity
 _atom_site_fract_x
 _atom_site_fract_y
 _atom_site_fract_z
 _atom_site_occupancy
  Ba  Ba0  1  0.375044  0.750000  0.124956  1
  Ba  Ba1  1  0.124956  0.375044  0.750000  1
  Ba  Ba2  1  0.750000  0.124956  0.375044  1
  Ba  Ba3  1  0.624956  0.250000  0.875044  1
  Ba  Ba4  1  0.875044  0.624956  0.250000  1
  Ba  Ba5  1  0.250000  0.875044  0.624956  1
  Ce  Ce6  1  0.250000  0.250000  0.250000  1
  Ce  Ce7  1  0.750000  0.750000  0.750000  1
  Lu  Lu8  1  0.500000  0.500000  0.500000  1
  Lu  Lu9  1  0.000000  0.000000  0.000000  1
  S  S10  1  0.544501  0.409602  0.202492  1
  S  S11  1  0.202492  0.544501  0.409602  1
  S  S12  1  0.409602  0.202492  0.544501  1
  S  S13  1  0.955499  0.297508  0.090398  1
  S  S14  1  0.090398  0.955499  0.297508  1
  S  S15  1  0.297508  0.090398  0.955499  1
  S  S16  1  0.455499  0.590398  0.797508  1
  S  S17  1  0.797508  0.455499  0.590398  1
  S  S18  1  0.590398  0.797508  0.455499  1
  S  S19  1  0.044501  0.702492  0.909602  1
  S  S20  1  0.702492  0.909602  0.044501  1
  S  S21  1  0.909602  0.044501  0.702492  1
