# generated using pymatgen
data_V20Zn(WC3)2
_symmetry_space_group_name_H-M   'P 1'
_cell_length_a   7.81271490
_cell_length_b   7.81108099
_cell_length_c   7.81048610
_cell_angle_alpha   60.01127306
_cell_angle_beta   59.99725472
_cell_angle_gamma   59.99355618
_symmetry_Int_Tables_number   1
_chemical_formula_structural   V20Zn(WC3)2
_chemical_formula_sum   'V20 Zn1 W2 C6'
_cell_volume   337.04120606
_cell_formula_units_Z   1
loop_
 _symmetry_equiv_pos_site_id
 _symmetry_equiv_pos_as_xyz
  1  'x, y, z'
loop_
 _atom_site_type_symbol
 _atom_site_label
 _atom_site_symmetry_multiplicity
 _atom_site_fract_x
 _atom_site_fract_y
 _atom_site_fract_z
 _atom_site_occupancy
  V  V0  1  0.614292  0.614237  0.157268  1
  V  V1  1  0.614291  0.157256  0.614223  1
  V  V2  1  0.157368  0.614176  0.614254  1
  V  V3  1  0.614295  0.614217  0.614134  1
  V  V4  1  0.385697  0.385771  0.842745  1
  V  V5  1  0.385703  0.842752  0.385766  1
  V  V6  1  0.842646  0.385834  0.385747  1
  V  V7  1  0.385720  0.385770  0.385854  1
  V  V8  1  0.999866  0.000118  0.339963  1
  V  V9  1  0.659919  0.000380  0.340160  1
  V  V10  1  0.000289  0.659777  0.340212  1
  V  V11  1  0.660169  0.339940  0.000103  1
  V  V12  1  0.999606  0.340190  0.000394  1
  V  V13  1  0.999685  0.340218  0.659790  1
  V  V14  1  0.339812  0.660081  0.999915  1
  V  V15  1  0.340073  0.999626  0.659865  1
  V  V16  1  0.340065  0.999801  0.000280  1
  V  V17  1  0.000155  0.999863  0.660035  1
  V  V18  1  0.000422  0.659799  0.999590  1
  V  V19  1  0.659877  0.000184  0.999726  1
  Zn  Zn20  1  0.000030  0.000004  0.999985  1
  W  W21  1  0.749992  0.749985  0.749999  1
  W  W22  1  0.250022  0.250018  0.249997  1
  C  C23  1  0.725913  0.725780  0.274193  1
  C  C24  1  0.274321  0.725634  0.274421  1
  C  C25  1  0.725569  0.274444  0.274484  1
  C  C26  1  0.274097  0.274200  0.725815  1
  C  C27  1  0.725700  0.274389  0.725557  1
  C  C28  1  0.274408  0.725554  0.725525  1
