# generated using pymatgen
data_Li2Pr8Sc10Si15Ge
_symmetry_space_group_name_H-M   'P 1'
_cell_length_a   7.18497165
_cell_length_b   7.58727079
_cell_length_c   14.30149600
_cell_angle_alpha   90.00000000
_cell_angle_beta   90.00000000
_cell_angle_gamma   90.09839418
_symmetry_Int_Tables_number   1
_chemical_formula_structural   Li2Pr8Sc10Si15Ge
_chemical_formula_sum   'Li2 Pr8 Sc10 Si15 Ge1'
_cell_volume   779.63525942
_cell_formula_units_Z   1
loop_
 _symmetry_equiv_pos_site_id
 _symmetry_equiv_pos_as_xyz
  1  'x, y, z'
loop_
 _atom_site_type_symbol
 _atom_site_label
 _atom_site_symmetry_multiplicity
 _atom_site_fract_x
 _atom_site_fract_y
 _atom_site_fract_z
 _atom_site_occupancy
  Li  Li0  1  0.655216  0.004615  0.750000  1
  Li  Li1  1  0.845690  0.504347  0.250000  1
  Pr  Pr2  1  0.009804  0.181502  0.400147  1
  Pr  Pr3  1  0.518952  0.328830  0.398553  1
  Pr  Pr4  1  0.491025  0.680315  0.901051  1
  Pr  Pr5  1  0.491025  0.680315  0.598949  1
  Pr  Pr6  1  0.980188  0.828697  0.600894  1
  Pr  Pr7  1  0.980188  0.828697  0.899106  1
  Pr  Pr8  1  0.518952  0.328830  0.101447  1
  Pr  Pr9  1  0.009804  0.181502  0.099853  1
  Sc  Sc10  1  0.334720  0.174405  0.624840  1
  Sc  Sc11  1  0.673872  0.815117  0.374036  1
  Sc  Sc12  1  0.165126  0.673272  0.374708  1
  Sc  Sc13  1  0.826027  0.315299  0.874217  1
  Sc  Sc14  1  0.826027  0.315299  0.625783  1
  Sc  Sc15  1  0.340865  0.995655  0.250000  1
  Sc  Sc16  1  0.334720  0.174405  0.875160  1
  Sc  Sc17  1  0.165126  0.673272  0.125292  1
  Sc  Sc18  1  0.673872  0.815117  0.125964  1
  Sc  Sc19  1  0.158295  0.494036  0.750000  1
  Si  Si20  1  0.459139  0.623544  0.250000  1
  Si  Si21  1  0.038022  0.126642  0.750000  1
  Si  Si22  1  0.531180  0.383692  0.750000  1
  Si  Si23  1  0.153043  0.465614  0.540767  1
  Si  Si24  1  0.968667  0.883661  0.250000  1
  Si  Si25  1  0.709842  0.098745  0.250000  1
  Si  Si26  1  0.848826  0.539742  0.031711  1
  Si  Si27  1  0.346996  0.965457  0.040730  1
  Si  Si28  1  0.153043  0.465614  0.959233  1
  Si  Si29  1  0.650904  0.039665  0.531726  1
  Si  Si30  1  0.346996  0.965457  0.459270  1
  Si  Si31  1  0.848826  0.539742  0.468289  1
  Si  Si32  1  0.790233  0.598900  0.750000  1
  Si  Si33  1  0.218992  0.386724  0.250000  1
  Si  Si34  1  0.650904  0.039665  0.968274  1
  Ge  Ge35  1  0.284891  0.883607  0.750000  1
