# generated using pymatgen
data_Dy3Ho3(ScAu5)2
_symmetry_space_group_name_H-M   'P 1'
_cell_length_a   7.90882032
_cell_length_b   7.90882026
_cell_length_c   7.90881803
_cell_angle_alpha   66.25839779
_cell_angle_beta   66.25839956
_cell_angle_gamma   66.25838754
_symmetry_Int_Tables_number   1
_chemical_formula_structural   Dy3Ho3(ScAu5)2
_chemical_formula_sum   'Dy3 Ho3 Sc2 Au10'
_cell_volume   397.06057042
_cell_formula_units_Z   1
loop_
 _symmetry_equiv_pos_site_id
 _symmetry_equiv_pos_as_xyz
  1  'x, y, z'
loop_
 _atom_site_type_symbol
 _atom_site_label
 _atom_site_symmetry_multiplicity
 _atom_site_fract_x
 _atom_site_fract_y
 _atom_site_fract_z
 _atom_site_occupancy
  Dy  Dy0  1  0.891527  0.189069  0.618549  1
  Dy  Dy1  1  0.618549  0.891527  0.189069  1
  Dy  Dy2  1  0.189069  0.618549  0.891527  1
  Ho  Ho3  1  0.108487  0.810923  0.381291  1
  Ho  Ho4  1  0.381291  0.108487  0.810923  1
  Ho  Ho5  1  0.810923  0.381291  0.108487  1
  Sc  Sc6  1  0.658555  0.658555  0.658555  1
  Sc  Sc7  1  0.341520  0.341520  0.341520  1
  Au  Au8  1  0.000123  0.000123  0.000123  1
  Au  Au9  1  0.499982  0.499982  0.499982  1
  Au  Au10  1  0.806625  0.806625  0.806625  1
  Au  Au11  1  0.193201  0.193201  0.193201  1
  Au  Au12  1  0.937292  0.551112  0.317860  1
  Au  Au13  1  0.317860  0.937292  0.551112  1
  Au  Au14  1  0.551112  0.317860  0.937292  1
  Au  Au15  1  0.062833  0.448930  0.682120  1
  Au  Au16  1  0.682120  0.062833  0.448930  1
  Au  Au17  1  0.448930  0.682120  0.062833  1
