# generated using pymatgen
data_Lu2Pa(AlNi)3
_symmetry_space_group_name_H-M   'P 1'
_cell_length_a   6.95194554
_cell_length_b   7.03996739
_cell_length_c   3.74380800
_cell_angle_alpha   90.00000000
_cell_angle_beta   90.00000000
_cell_angle_gamma   120.41972178
_symmetry_Int_Tables_number   1
_chemical_formula_structural   Lu2Pa(AlNi)3
_chemical_formula_sum   'Lu2 Pa1 Al3 Ni3'
_cell_volume   158.00427009
_cell_formula_units_Z   1
loop_
 _symmetry_equiv_pos_site_id
 _symmetry_equiv_pos_as_xyz
  1  'x, y, z'
loop_
 _atom_site_type_symbol
 _atom_site_label
 _atom_site_symmetry_multiplicity
 _atom_site_fract_x
 _atom_site_fract_y
 _atom_site_fract_z
 _atom_site_occupancy
  Lu  Lu0  1  0.585486  0.584656  0.500000  1
  Lu  Lu1  1  0.414514  0.999170  0.500000  1
  Pa  Pa2  1  0.000000  0.422926  0.500000  1
  Al  Al3  1  0.000000  0.771337  0.000000  1
  Al  Al4  1  0.246235  0.239470  0.000000  1
  Al  Al5  1  0.753765  0.993235  0.000000  1
  Ni  Ni6  1  0.312462  0.646609  0.000000  1
  Ni  Ni7  1  0.687538  0.334146  0.000000  1
  Ni  Ni8  1  0.000000  0.008451  0.500000  1
