# generated using pymatgen
data_Yb11Ag12SnGe12
_symmetry_space_group_name_H-M   'P 1'
_cell_length_a   4.57167500
_cell_length_b   7.85971004
_cell_length_c   21.43701331
_cell_angle_alpha   89.71447478
_cell_angle_beta   90.00000000
_cell_angle_gamma   90.00000000
_symmetry_Int_Tables_number   1
_chemical_formula_structural   Yb11Ag12SnGe12
_chemical_formula_sum   'Yb11 Ag12 Sn1 Ge12'
_cell_volume   770.26605291
_cell_formula_units_Z   1
loop_
 _symmetry_equiv_pos_site_id
 _symmetry_equiv_pos_as_xyz
  1  'x, y, z'
loop_
 _atom_site_type_symbol
 _atom_site_label
 _atom_site_symmetry_multiplicity
 _atom_site_fract_x
 _atom_site_fract_y
 _atom_site_fract_z
 _atom_site_occupancy
  Yb  Yb0  1  0.250000  0.219901  0.000110  1
  Yb  Yb1  1  0.250000  0.279392  0.500139  1
  Yb  Yb2  1  0.750000  0.780961  0.998636  1
  Yb  Yb3  1  0.750000  0.720922  0.500215  1
  Yb  Yb4  1  0.250000  0.209571  0.333600  1
  Yb  Yb5  1  0.250000  0.296012  0.833150  1
  Yb  Yb6  1  0.750000  0.790624  0.668684  1
  Yb  Yb7  1  0.750000  0.711813  0.166195  1
  Yb  Yb8  1  0.250000  0.207850  0.666761  1
  Yb  Yb9  1  0.250000  0.287367  0.166976  1
  Yb  Yb10  1  0.750000  0.788958  0.333150  1
  Ag  Ag11  1  0.250000  0.909002  0.763473  1
  Ag  Ag12  1  0.250000  0.586604  0.261758  1
  Ag  Ag13  1  0.750000  0.087608  0.237664  1
  Ag  Ag14  1  0.750000  0.415947  0.737794  1
  Ag  Ag15  1  0.250000  0.920514  0.904068  1
  Ag  Ag16  1  0.250000  0.580712  0.405455  1
  Ag  Ag17  1  0.750000  0.081787  0.093785  1
  Ag  Ag18  1  0.750000  0.417865  0.594985  1
  Ag  Ag19  1  0.250000  0.917423  0.564667  1
  Ag  Ag20  1  0.250000  0.584316  0.067925  1
  Ag  Ag21  1  0.750000  0.082018  0.435330  1
  Ag  Ag22  1  0.750000  0.415403  0.935871  1
  Sn  Sn23  1  0.750000  0.703521  0.835614  1
  Ge  Ge24  1  0.250000  0.577419  0.722673  1
  Ge  Ge25  1  0.250000  0.917213  0.227585  1
  Ge  Ge26  1  0.750000  0.417394  0.271705  1
  Ge  Ge27  1  0.750000  0.086174  0.772509  1
  Ge  Ge28  1  0.250000  0.912557  0.102485  1
  Ge  Ge29  1  0.250000  0.587668  0.599471  1
  Ge  Ge30  1  0.750000  0.091928  0.898190  1
  Ge  Ge31  1  0.750000  0.411413  0.396639  1
  Ge  Ge32  1  0.250000  0.590504  0.931174  1
  Ge  Ge33  1  0.250000  0.908996  0.427168  1
  Ge  Ge34  1  0.750000  0.411833  0.071622  1
  Ge  Ge35  1  0.750000  0.090813  0.572776  1
