# generated using pymatgen
data_Hf5Al16SiIr7
_symmetry_space_group_name_H-M   'P 1'
_cell_length_a   8.64586935
_cell_length_b   8.73404126
_cell_length_c   8.73404260
_cell_angle_alpha   59.33321477
_cell_angle_beta   60.33339011
_cell_angle_gamma   60.33339644
_symmetry_Int_Tables_number   1
_chemical_formula_structural   Hf5Al16SiIr7
_chemical_formula_sum   'Hf5 Al16 Si1 Ir7'
_cell_volume   466.26903105
_cell_formula_units_Z   1
loop_
 _symmetry_equiv_pos_site_id
 _symmetry_equiv_pos_as_xyz
  1  'x, y, z'
loop_
 _atom_site_type_symbol
 _atom_site_label
 _atom_site_symmetry_multiplicity
 _atom_site_fract_x
 _atom_site_fract_y
 _atom_site_fract_z
 _atom_site_occupancy
  Hf  Hf0  1  0.315938  0.684062  0.684062  1
  Hf  Hf1  1  0.289233  0.710767  0.290826  1
  Hf  Hf2  1  0.709174  0.290826  0.710767  1
  Hf  Hf3  1  0.289233  0.290826  0.710767  1
  Hf  Hf4  1  0.709174  0.710767  0.290826  1
  Al  Al5  1  0.379386  0.335252  0.335252  1
  Al  Al6  1  0.677059  0.654010  0.654010  1
  Al  Al7  1  0.345990  0.322941  0.985079  1
  Al  Al8  1  0.345990  0.985079  0.322941  1
  Al  Al9  1  0.664748  0.620614  0.049888  1
  Al  Al10  1  0.664748  0.049888  0.620614  1
  Al  Al11  1  0.950112  0.335252  0.335252  1
  Al  Al12  1  0.014921  0.654010  0.654010  1
  Al  Al13  1  0.112338  0.118989  0.118989  1
  Al  Al14  1  0.883612  0.870927  0.870927  1
  Al  Al15  1  0.129073  0.116388  0.625467  1
  Al  Al16  1  0.129073  0.625467  0.116388  1
  Al  Al17  1  0.881011  0.887662  0.350314  1
  Al  Al18  1  0.881011  0.350314  0.887662  1
  Al  Al19  1  0.649686  0.118989  0.118989  1
  Al  Al20  1  0.374533  0.870927  0.870927  1
  Si  Si21  1  0.535556  0.464444  0.464444  1
  Ir  Ir22  1  0.511820  0.988180  0.988180  1
  Ir  Ir23  1  0.011820  0.488180  0.488180  1
  Ir  Ir24  1  0.013146  0.496233  0.986854  1
  Ir  Ir25  1  0.503767  0.986854  0.496233  1
  Ir  Ir26  1  0.013146  0.986854  0.496233  1
  Ir  Ir27  1  0.503767  0.496233  0.986854  1
  Ir  Ir28  1  0.010935  0.989065  0.989065  1
