# generated using pymatgen
data_Nd8Dy2Ir3Os
_symmetry_space_group_name_H-M   'P 1'
_cell_length_a   6.65683724
_cell_length_b   7.31387558
_cell_length_c   8.85644217
_cell_angle_alpha   96.48831238
_cell_angle_beta   112.03394724
_cell_angle_gamma   90.03023020
_symmetry_Int_Tables_number   1
_chemical_formula_structural   Nd8Dy2Ir3Os
_chemical_formula_sum   'Nd8 Dy2 Ir3 Os1'
_cell_volume   396.71068418
_cell_formula_units_Z   1
loop_
 _symmetry_equiv_pos_site_id
 _symmetry_equiv_pos_as_xyz
  1  'x, y, z'
loop_
 _atom_site_type_symbol
 _atom_site_label
 _atom_site_symmetry_multiplicity
 _atom_site_fract_x
 _atom_site_fract_y
 _atom_site_fract_z
 _atom_site_occupancy
  Nd  Nd0  1  0.791180  0.080268  0.816570  1
  Nd  Nd1  1  0.974012  0.420887  0.179432  1
  Nd  Nd2  1  0.206276  0.921304  0.182615  1
  Nd  Nd3  1  0.021955  0.577870  0.817239  1
  Nd  Nd4  1  0.217008  0.187553  0.567964  1
  Nd  Nd5  1  0.646888  0.314056  0.435825  1
  Nd  Nd6  1  0.787058  0.812705  0.433394  1
  Nd  Nd7  1  0.353300  0.685811  0.568298  1
  Dy  Dy8  1  0.436134  0.250586  0.999639  1
  Dy  Dy9  1  0.564023  0.748623  0.998510  1
  Ir  Ir10  1  0.812666  0.069552  0.213618  1
  Ir  Ir11  1  0.400595  0.571661  0.213122  1
  Ir  Ir12  1  0.186999  0.929132  0.787003  1
  Os  Os13  1  0.601905  0.429992  0.786771  1
