# generated using pymatgen
data_Dy8CdHg3Au8
_symmetry_space_group_name_H-M   'P 1'
_cell_length_a   7.98695900
_cell_length_b   7.98695900
_cell_length_c   7.40666500
_cell_angle_alpha   90.00000000
_cell_angle_beta   90.00000000
_cell_angle_gamma   90.00000000
_symmetry_Int_Tables_number   1
_chemical_formula_structural   Dy8CdHg3Au8
_chemical_formula_sum   'Dy8 Cd1 Hg3 Au8'
_cell_volume   472.48237454
_cell_formula_units_Z   1
loop_
 _symmetry_equiv_pos_site_id
 _symmetry_equiv_pos_as_xyz
  1  'x, y, z'
loop_
 _atom_site_type_symbol
 _atom_site_label
 _atom_site_symmetry_multiplicity
 _atom_site_fract_x
 _atom_site_fract_y
 _atom_site_fract_z
 _atom_site_occupancy
  Dy  Dy0  1  0.836080  0.159778  0.500146  1
  Dy  Dy1  1  0.163920  0.840222  0.500146  1
  Dy  Dy2  1  0.340222  0.336080  0.999854  1
  Dy  Dy3  1  0.659778  0.663920  0.999854  1
  Dy  Dy4  1  0.679143  0.685345  0.500293  1
  Dy  Dy5  1  0.320857  0.314655  0.500293  1
  Dy  Dy6  1  0.185345  0.820857  0.999707  1
  Dy  Dy7  1  0.814655  0.179143  0.999707  1
  Cd  Cd8  1  0.000000  0.500000  0.250000  1
  Hg  Hg9  1  0.500000  0.000000  0.250000  1
  Hg  Hg10  1  0.000000  0.500000  0.750000  1
  Hg  Hg11  1  0.500000  0.000000  0.750000  1
  Au  Au12  1  0.631067  0.376337  0.270835  1
  Au  Au13  1  0.368933  0.623663  0.270835  1
  Au  Au14  1  0.126210  0.128076  0.770780  1
  Au  Au15  1  0.873790  0.871924  0.770780  1
  Au  Au16  1  0.371924  0.626210  0.729220  1
  Au  Au17  1  0.628076  0.373790  0.729220  1
  Au  Au18  1  0.876337  0.868933  0.229165  1
  Au  Au19  1  0.123663  0.131067  0.229165  1
