# generated using pymatgen
data_Y6HoTm(InAu2)4
_symmetry_space_group_name_H-M   'P 1'
_cell_length_a   8.03157884
_cell_length_b   8.03158021
_cell_length_c   7.36374400
_cell_angle_alpha   90.00000000
_cell_angle_beta   90.00000000
_cell_angle_gamma   89.66896904
_symmetry_Int_Tables_number   1
_chemical_formula_structural   Y6HoTm(InAu2)4
_chemical_formula_sum   'Y6 Ho1 Tm1 In4 Au8'
_cell_volume   474.99972815
_cell_formula_units_Z   1
loop_
 _symmetry_equiv_pos_site_id
 _symmetry_equiv_pos_as_xyz
  1  'x, y, z'
loop_
 _atom_site_type_symbol
 _atom_site_label
 _atom_site_symmetry_multiplicity
 _atom_site_fract_x
 _atom_site_fract_y
 _atom_site_fract_z
 _atom_site_occupancy
  Y  Y0  1  0.837777  0.162223  0.500000  1
  Y  Y1  1  0.161295  0.838705  0.500000  1
  Y  Y2  1  0.338314  0.338348  0.000000  1
  Y  Y3  1  0.661652  0.661686  0.000000  1
  Y  Y4  1  0.677733  0.676267  0.500000  1
  Y  Y5  1  0.323733  0.322267  0.500000  1
  Ho  Ho6  1  0.176227  0.823773  0.000000  1
  Tm  Tm7  1  0.824241  0.175759  0.000000  1
  In  In8  1  0.500171  0.999994  0.249392  1
  In  In9  1  0.000006  0.499829  0.750608  1
  In  In10  1  0.500171  0.999994  0.750608  1
  In  In11  1  0.000006  0.499829  0.249392  1
  Au  Au12  1  0.630106  0.369894  0.261448  1
  Au  Au13  1  0.371046  0.628954  0.264777  1
  Au  Au14  1  0.127063  0.128878  0.768515  1
  Au  Au15  1  0.871122  0.872937  0.768515  1
  Au  Au16  1  0.371046  0.628954  0.735223  1
  Au  Au17  1  0.630106  0.369894  0.738552  1
  Au  Au18  1  0.871122  0.872937  0.231485  1
  Au  Au19  1  0.127063  0.128878  0.231485  1
