# generated using pymatgen
data_Zr6ZnSi12Rh5
_symmetry_space_group_name_H-M   'P 1'
_cell_length_a   10.05094441
_cell_length_b   10.09028459
_cell_length_c   10.07195485
_cell_angle_alpha   149.06578503
_cell_angle_beta   133.69494209
_cell_angle_gamma   56.87324003
_symmetry_Int_Tables_number   1
_chemical_formula_structural   Zr6ZnSi12Rh5
_chemical_formula_sum   'Zr6 Zn1 Si12 Rh5'
_cell_volume   376.72688177
_cell_formula_units_Z   1
loop_
 _symmetry_equiv_pos_site_id
 _symmetry_equiv_pos_as_xyz
  1  'x, y, z'
loop_
 _atom_site_type_symbol
 _atom_site_label
 _atom_site_symmetry_multiplicity
 _atom_site_fract_x
 _atom_site_fract_y
 _atom_site_fract_z
 _atom_site_occupancy
  Zr  Zr0  1  0.847782  0.601451  0.260196  1
  Zr  Zr1  1  0.152218  0.398549  0.739804  1
  Zr  Zr2  1  0.662686  0.408763  0.257589  1
  Zr  Zr3  1  0.337314  0.591237  0.742411  1
  Zr  Zr4  1  0.135345  0.129066  0.986747  1
  Zr  Zr5  1  0.864655  0.870934  0.013253  1
  Zn  Zn6  1  0.000000  0.000000  0.500000  1
  Si  Si7  1  0.490205  0.137757  0.351039  1
  Si  Si8  1  0.509795  0.862243  0.648961  1
  Si  Si9  1  0.222093  0.859389  0.346285  1
  Si  Si10  1  0.777907  0.140611  0.653715  1
  Si  Si11  1  0.697332  0.689077  0.982525  1
  Si  Si12  1  0.302668  0.310923  0.017475  1
  Si  Si13  1  0.497304  0.718789  0.220774  1
  Si  Si14  1  0.502696  0.281211  0.779226  1
  Si  Si15  1  0.000881  0.271008  0.270122  1
  Si  Si16  1  0.207933  0.693353  0.493375  1
  Si  Si17  1  0.999119  0.728992  0.729878  1
  Si  Si18  1  0.792067  0.306647  0.506625  1
  Rh  Rh19  1  0.741914  0.000520  0.746359  1
  Rh  Rh20  1  0.500000  0.500000  0.500000  1
  Rh  Rh21  1  0.500000  0.000000  0.000000  1
  Rh  Rh22  1  0.258086  0.999480  0.253641  1
  Rh  Rh23  1  0.000000  0.500000  0.000000  1
