# generated using pymatgen
data_La8Si12Ni3Ag
_symmetry_space_group_name_H-M   'P 1'
_cell_length_a   8.19738700
_cell_length_b   8.19738728
_cell_length_c   8.73282600
_cell_angle_alpha   90.00000000
_cell_angle_beta   90.00000000
_cell_angle_gamma   119.99999483
_symmetry_Int_Tables_number   1
_chemical_formula_structural   La8Si12Ni3Ag
_chemical_formula_sum   'La8 Si12 Ni3 Ag1'
_cell_volume   508.20198097
_cell_formula_units_Z   1
loop_
 _symmetry_equiv_pos_site_id
 _symmetry_equiv_pos_as_xyz
  1  'x, y, z'
loop_
 _atom_site_type_symbol
 _atom_site_label
 _atom_site_symmetry_multiplicity
 _atom_site_fract_x
 _atom_site_fract_y
 _atom_site_fract_z
 _atom_site_occupancy
  La  La0  1  0.000000  0.000000  0.251850  1
  La  La1  1  0.000000  0.000000  0.747951  1
  La  La2  1  0.502901  0.497099  0.254470  1
  La  La3  1  0.502901  0.005802  0.254470  1
  La  La4  1  0.994198  0.497099  0.254470  1
  La  La5  1  0.502767  0.497233  0.745846  1
  La  La6  1  0.502767  0.005532  0.745846  1
  La  La7  1  0.994468  0.497233  0.745846  1
  Si  Si8  1  0.171035  0.828965  0.500586  1
  Si  Si9  1  0.171035  0.342070  0.500586  1
  Si  Si10  1  0.657930  0.828965  0.500586  1
  Si  Si11  1  0.830327  0.169673  0.499525  1
  Si  Si12  1  0.830327  0.660654  0.499525  1
  Si  Si13  1  0.339346  0.169673  0.499525  1
  Si  Si14  1  0.827722  0.172278  0.000760  1
  Si  Si15  1  0.827722  0.655443  0.000760  1
  Si  Si16  1  0.344557  0.172278  0.000760  1
  Si  Si17  1  0.160560  0.839440  0.999160  1
  Si  Si18  1  0.160560  0.321120  0.999160  1
  Si  Si19  1  0.678880  0.839440  0.999160  1
  Ni  Ni20  1  0.333333  0.666667  0.497495  1
  Ni  Ni21  1  0.666667  0.333333  0.502231  1
  Ni  Ni22  1  0.666667  0.333333  0.998345  1
  Ag  Ag23  1  0.333333  0.666667  0.001095  1
