# generated using pymatgen
data_Zr7Ta3(Si3N)2
_symmetry_space_group_name_H-M   'P 1'
_cell_length_a   7.83478900
_cell_length_b   7.83478985
_cell_length_c   5.48913300
_cell_angle_alpha   90.00000000
_cell_angle_beta   90.00000000
_cell_angle_gamma   120.00000063
_symmetry_Int_Tables_number   1
_chemical_formula_structural   Zr7Ta3(Si3N)2
_chemical_formula_sum   'Zr7 Ta3 Si6 N2'
_cell_volume   291.80252097
_cell_formula_units_Z   1
loop_
 _symmetry_equiv_pos_site_id
 _symmetry_equiv_pos_as_xyz
  1  'x, y, z'
loop_
 _atom_site_type_symbol
 _atom_site_label
 _atom_site_symmetry_multiplicity
 _atom_site_fract_x
 _atom_site_fract_y
 _atom_site_fract_z
 _atom_site_occupancy
  Zr  Zr0  1  0.236303  0.000465  0.749198  1
  Zr  Zr1  1  0.764162  0.000465  0.250802  1
  Zr  Zr2  1  0.999535  0.235838  0.749198  1
  Zr  Zr3  1  0.999535  0.763697  0.250802  1
  Zr  Zr4  1  0.764162  0.763697  0.749198  1
  Zr  Zr5  1  0.236303  0.235838  0.250802  1
  Zr  Zr6  1  0.333333  0.666667  0.000000  1
  Ta  Ta7  1  0.333333  0.666667  0.500000  1
  Ta  Ta8  1  0.666667  0.333333  0.500000  1
  Ta  Ta9  1  0.666667  0.333333  0.000000  1
  Si  Si10  1  0.592225  0.003417  0.741670  1
  Si  Si11  1  0.411192  0.003417  0.258330  1
  Si  Si12  1  0.996583  0.588808  0.741670  1
  Si  Si13  1  0.996583  0.407775  0.258330  1
  Si  Si14  1  0.411192  0.407775  0.741670  1
  Si  Si15  1  0.592225  0.588808  0.258330  1
  N  N16  1  0.000000  0.000000  0.500000  1
  N  N17  1  0.000000  0.000000  0.000000  1
