# generated using pymatgen
data_Ho7Lu5ZnInCo4
_symmetry_space_group_name_H-M   'P 1'
_cell_length_a   8.21072408
_cell_length_b   8.21084005
_cell_length_c   8.21454437
_cell_angle_alpha   111.61916657
_cell_angle_beta   110.21517968
_cell_angle_gamma   106.59598498
_symmetry_Int_Tables_number   1
_chemical_formula_structural   Ho7Lu5ZnInCo4
_chemical_formula_sum   'Ho7 Lu5 Zn1 In1 Co4'
_cell_volume   425.57868503
_cell_formula_units_Z   1
loop_
 _symmetry_equiv_pos_site_id
 _symmetry_equiv_pos_as_xyz
  1  'x, y, z'
loop_
 _atom_site_type_symbol
 _atom_site_label
 _atom_site_symmetry_multiplicity
 _atom_site_fract_x
 _atom_site_fract_y
 _atom_site_fract_z
 _atom_site_occupancy
  Ho  Ho0  1  0.814588  0.713931  0.528527  1
  Ho  Ho1  1  0.185326  0.713496  0.898828  1
  Ho  Ho2  1  0.815345  0.286181  0.101535  1
  Ho  Ho3  1  0.429277  0.225704  0.204525  1
  Ho  Ho4  1  0.569652  0.773599  0.795265  1
  Ho  Ho5  1  0.021675  0.225624  0.795278  1
  Ho  Ho6  1  0.978812  0.775229  0.204519  1
  Lu  Lu7  1  0.315800  0.620057  0.304804  1
  Lu  Lu8  1  0.683378  0.379494  0.695128  1
  Lu  Lu9  1  0.315635  0.011727  0.695114  1
  Lu  Lu10  1  0.684738  0.988994  0.304794  1
  Lu  Lu11  1  0.185008  0.286261  0.471253  1
  Zn  Zn12  1  0.000260  0.000559  0.000818  1
  In  In13  1  0.499977  0.499996  0.999958  1
  Co  Co14  1  0.114393  0.613461  0.499751  1
  Co  Co15  1  0.886301  0.385368  0.499750  1
  Co  Co16  1  0.376343  0.000255  0.376597  1
  Co  Co17  1  0.623493  0.000064  0.623554  1
