# generated using pymatgen
data_Er4LuIrRu
_symmetry_space_group_name_H-M   'P 1'
_cell_length_a   6.33270790
_cell_length_b   7.22150965
_cell_length_c   8.38566892
_cell_angle_alpha   96.97505568
_cell_angle_beta   112.67850444
_cell_angle_gamma   89.84728145
_symmetry_Int_Tables_number   1
_chemical_formula_structural   Er4LuIrRu
_chemical_formula_sum   'Er8 Lu2 Ir2 Ru2'
_cell_volume   350.81336786
_cell_formula_units_Z   2
loop_
 _symmetry_equiv_pos_site_id
 _symmetry_equiv_pos_as_xyz
  1  'x, y, z'
loop_
 _atom_site_type_symbol
 _atom_site_label
 _atom_site_symmetry_multiplicity
 _atom_site_fract_x
 _atom_site_fract_y
 _atom_site_fract_z
 _atom_site_occupancy
  Er  Er0  1  0.523196  0.080622  0.816303  1
  Er  Er1  1  0.476804  0.919378  0.183697  1
  Er  Er2  1  0.709426  0.415670  0.184645  1
  Er  Er3  1  0.290574  0.584330  0.815355  1
  Er  Er4  1  0.290857  0.314267  0.436335  1
  Er  Er5  1  0.709143  0.685733  0.563665  1
  Er  Er6  1  0.858513  0.184399  0.564704  1
  Er  Er7  1  0.141487  0.815601  0.435296  1
  Lu  Lu8  1  0.074926  0.249667  0.999465  1
  Lu  Lu9  1  0.925074  0.750333  0.000535  1
  Ir  Ir10  1  0.322692  0.574621  0.220245  1
  Ir  Ir11  1  0.677308  0.425379  0.779755  1
  Ru  Ru12  1  0.105486  0.924966  0.783780  1
  Ru  Ru13  1  0.894514  0.075034  0.216220  1
