# generated using pymatgen
data_Sc12Tc(NiBr8)2
_symmetry_space_group_name_H-M   'P 1'
_cell_length_a   8.90002544
_cell_length_b   10.86923054
_cell_length_c   11.55735700
_cell_angle_alpha   116.58620713
_cell_angle_beta   101.79545513
_cell_angle_gamma   101.51275305
_symmetry_Int_Tables_number   1
_chemical_formula_structural   Sc12Tc(NiBr8)2
_chemical_formula_sum   'Sc12 Tc1 Ni2 Br16'
_cell_volume   923.00063365
_cell_formula_units_Z   1
loop_
 _symmetry_equiv_pos_site_id
 _symmetry_equiv_pos_as_xyz
  1  'x, y, z'
loop_
 _atom_site_type_symbol
 _atom_site_label
 _atom_site_symmetry_multiplicity
 _atom_site_fract_x
 _atom_site_fract_y
 _atom_site_fract_z
 _atom_site_occupancy
  Sc  Sc0  1  0.080391  0.254656  0.348455  1
  Sc  Sc1  1  0.919609  0.745344  0.651545  1
  Sc  Sc2  1  0.778601  0.536265  0.318429  1
  Sc  Sc3  1  0.221399  0.463735  0.681571  1
  Sc  Sc4  1  0.282183  0.746047  0.651921  1
  Sc  Sc5  1  0.717817  0.253953  0.348079  1
  Sc  Sc6  1  0.139861  0.536380  0.318898  1
  Sc  Sc7  1  0.860139  0.463620  0.681102  1
  Sc  Sc8  1  0.400292  0.350886  0.261660  1
  Sc  Sc9  1  0.599708  0.649114  0.738340  1
  Sc  Sc10  1  0.456517  0.299031  0.521832  1
  Sc  Sc11  1  0.543483  0.700969  0.478168  1
  Tc  Tc12  1  0.000000  0.500000  0.500000  1
  Ni  Ni13  1  0.346857  0.500170  0.499540  1
  Ni  Ni14  1  0.653144  0.499830  0.500460  1
  Br  Br15  1  0.402356  0.745370  0.891240  1
  Br  Br16  1  0.597644  0.254630  0.108760  1
  Br  Br17  1  0.193278  0.977819  0.788651  1
  Br  Br18  1  0.806722  0.022181  0.211349  1
  Br  Br19  1  0.334810  0.086079  0.247530  1
  Br  Br20  1  0.665190  0.913921  0.752470  1
  Br  Br21  1  0.557540  0.434471  0.803934  1
  Br  Br22  1  0.442460  0.565529  0.196066  1
  Br  Br23  1  0.310862  0.833066  0.462098  1
  Br  Br24  1  0.689138  0.166934  0.537902  1
  Br  Br25  1  0.166505  0.166327  0.534719  1
  Br  Br26  1  0.833495  0.833673  0.465281  1
  Br  Br27  1  0.926153  0.581524  0.154742  1
  Br  Br28  1  0.073847  0.418476  0.845258  1
  Br  Br29  1  0.923923  0.744135  0.890980  1
  Br  Br30  1  0.076077  0.255865  0.109020  1
