# generated using pymatgen
data_Dy3Tm2P12Ir9Ru10
_symmetry_space_group_name_H-M   'P 1'
_cell_length_a   12.59971117
_cell_length_b   12.56631111
_cell_length_c   3.95984200
_cell_angle_alpha   90.00000000
_cell_angle_beta   90.00000000
_cell_angle_gamma   119.80893598
_symmetry_Int_Tables_number   1
_chemical_formula_structural   Dy3Tm2P12Ir9Ru10
_chemical_formula_sum   'Dy3 Tm2 P12 Ir9 Ru10'
_cell_volume   544.01366983
_cell_formula_units_Z   1
loop_
 _symmetry_equiv_pos_site_id
 _symmetry_equiv_pos_as_xyz
  1  'x, y, z'
loop_
 _atom_site_type_symbol
 _atom_site_label
 _atom_site_symmetry_multiplicity
 _atom_site_fract_x
 _atom_site_fract_y
 _atom_site_fract_z
 _atom_site_occupancy
  Dy  Dy0  1  0.333305  0.666582  0.000000  1
  Dy  Dy1  1  0.185015  0.187387  0.500000  1
  Dy  Dy2  1  0.000281  0.813973  0.500000  1
  Tm  Tm3  1  0.667682  0.332488  0.000000  1
  Tm  Tm4  1  0.812743  0.000994  0.500000  1
  P  P5  1  0.632375  0.997444  0.000000  1
  P  P6  1  0.364614  0.370868  0.000000  1
  P  P7  1  0.006428  0.635491  0.000000  1
  P  P8  1  0.689654  0.519012  0.500000  1
  P  P9  1  0.829049  0.306574  0.500000  1
  P  P10  1  0.313263  0.830365  0.500000  1
  P  P11  1  0.517173  0.686632  0.500000  1
  P  P12  1  0.181012  0.001878  0.000000  1
  P  P13  1  0.818812  0.818949  0.000000  1
  P  P14  1  0.995602  0.180918  0.000000  1
  P  P15  1  0.480689  0.168469  0.500000  1
  P  P16  1  0.169798  0.483137  0.500000  1
  Ir  Ir17  1  0.625018  0.804953  0.000000  1
  Ir  Ir18  1  0.180314  0.376356  0.000000  1
  Ir  Ir19  1  0.375019  0.184995  0.000000  1
  Ir  Ir20  1  0.196017  0.821384  0.000000  1
  Ir  Ir21  1  0.809872  0.624845  0.000000  1
  Ir  Ir22  1  0.867528  0.504107  0.500000  1
  Ir  Ir23  1  0.494923  0.361218  0.500000  1
  Ir  Ir24  1  0.636871  0.129059  0.500000  1
  Ir  Ir25  1  0.998540  0.000261  0.000000  1
  Ru  Ru26  1  0.127064  0.639973  0.500000  1
  Ru  Ru27  1  0.361515  0.487803  0.500000  1
  Ru  Ru28  1  0.511069  0.870997  0.500000  1
  Ru  Ru29  1  0.715001  0.713350  0.500000  1
  Ru  Ru30  1  0.000053  0.285908  0.500000  1
  Ru  Ru31  1  0.451238  0.001617  0.000000  1
  Ru  Ru32  1  0.551574  0.547076  0.000000  1
  Ru  Ru33  1  0.998582  0.450080  0.000000  1
  Ru  Ru34  1  0.815800  0.192681  0.000000  1
  Ru  Ru35  1  0.286505  0.002177  0.500000  1
