# generated using pymatgen
data_Lu2Al8GaIr3
_symmetry_space_group_name_H-M   'P 1'
_cell_length_a   7.50821574
_cell_length_b   7.50821567
_cell_length_c   9.44586900
_cell_angle_alpha   90.00000000
_cell_angle_beta   90.00000000
_cell_angle_gamma   119.32077103
_symmetry_Int_Tables_number   1
_chemical_formula_structural   Lu2Al8GaIr3
_chemical_formula_sum   'Lu4 Al16 Ga2 Ir6'
_cell_volume   464.27788256
_cell_formula_units_Z   2
loop_
 _symmetry_equiv_pos_site_id
 _symmetry_equiv_pos_as_xyz
  1  'x, y, z'
loop_
 _atom_site_type_symbol
 _atom_site_label
 _atom_site_symmetry_multiplicity
 _atom_site_fract_x
 _atom_site_fract_y
 _atom_site_fract_z
 _atom_site_occupancy
  Lu  Lu0  1  0.994951  0.677098  0.250000  1
  Lu  Lu1  1  0.005049  0.322902  0.750000  1
  Lu  Lu2  1  0.677098  0.994951  0.250000  1
  Lu  Lu3  1  0.322902  0.005049  0.750000  1
  Al  Al4  1  0.001366  0.336507  0.074505  1
  Al  Al5  1  0.998634  0.663493  0.925495  1
  Al  Al6  1  0.998634  0.663493  0.574505  1
  Al  Al7  1  0.336507  0.001366  0.425495  1
  Al  Al8  1  0.001366  0.336507  0.425495  1
  Al  Al9  1  0.663493  0.998634  0.574505  1
  Al  Al10  1  0.663493  0.998634  0.925495  1
  Al  Al11  1  0.336507  0.001366  0.074505  1
  Al  Al12  1  0.333587  0.333587  0.555180  1
  Al  Al13  1  0.666413  0.666413  0.444820  1
  Al  Al14  1  0.666413  0.666413  0.055180  1
  Al  Al15  1  0.333587  0.333587  0.944820  1
  Al  Al16  1  0.338958  0.552126  0.250000  1
  Al  Al17  1  0.661042  0.447874  0.750000  1
  Al  Al18  1  0.552126  0.338958  0.250000  1
  Al  Al19  1  0.447874  0.661042  0.750000  1
  Ga  Ga20  1  0.136582  0.136582  0.250000  1
  Ga  Ga21  1  0.863418  0.863418  0.750000  1
  Ir  Ir22  1  0.672147  0.327853  0.000000  1
  Ir  Ir23  1  0.327853  0.672147  0.000000  1
  Ir  Ir24  1  0.327853  0.672147  0.500000  1
  Ir  Ir25  1  0.672147  0.327853  0.500000  1
  Ir  Ir26  1  0.000000  0.000000  0.000000  1
  Ir  Ir27  1  0.000000  0.000000  0.500000  1
