# generated using pymatgen
data_HoZr(PPd)3
_symmetry_space_group_name_H-M   'P 1'
_cell_length_a   3.84418900
_cell_length_b   10.77177500
_cell_length_c   13.19597900
_cell_angle_alpha   90.00000000
_cell_angle_beta   90.00000000
_cell_angle_gamma   90.00000000
_symmetry_Int_Tables_number   1
_chemical_formula_structural   HoZr(PPd)3
_chemical_formula_sum   'Ho4 Zr4 P12 Pd12'
_cell_volume   546.42884980
_cell_formula_units_Z   4
loop_
 _symmetry_equiv_pos_site_id
 _symmetry_equiv_pos_as_xyz
  1  'x, y, z'
loop_
 _atom_site_type_symbol
 _atom_site_label
 _atom_site_symmetry_multiplicity
 _atom_site_fract_x
 _atom_site_fract_y
 _atom_site_fract_z
 _atom_site_occupancy
  Ho  Ho0  1  0.250000  0.077150  0.213201  1
  Ho  Ho1  1  0.750000  0.922850  0.786799  1
  Ho  Ho2  1  0.750000  0.577150  0.286799  1
  Ho  Ho3  1  0.250000  0.422850  0.713201  1
  Zr  Zr4  1  0.250000  0.160046  0.496894  1
  Zr  Zr5  1  0.750000  0.839954  0.503106  1
  Zr  Zr6  1  0.750000  0.660046  0.003106  1
  Zr  Zr7  1  0.250000  0.339954  0.996894  1
  P  P8  1  0.250000  0.946367  0.614498  1
  P  P9  1  0.750000  0.053633  0.385502  1
  P  P10  1  0.750000  0.446367  0.885502  1
  P  P11  1  0.250000  0.553633  0.114498  1
  P  P12  1  0.250000  0.393699  0.398058  1
  P  P13  1  0.750000  0.606301  0.601942  1
  P  P14  1  0.750000  0.893699  0.101942  1
  P  P15  1  0.250000  0.106301  0.898058  1
  P  P16  1  0.250000  0.767709  0.363215  1
  P  P17  1  0.750000  0.232291  0.636785  1
  P  P18  1  0.750000  0.267709  0.136785  1
  P  P19  1  0.250000  0.732291  0.863215  1
  Pd  Pd20  1  0.250000  0.735082  0.663099  1
  Pd  Pd21  1  0.750000  0.264918  0.336901  1
  Pd  Pd22  1  0.750000  0.235082  0.836901  1
  Pd  Pd23  1  0.250000  0.764918  0.163099  1
  Pd  Pd24  1  0.250000  0.371577  0.215982  1
  Pd  Pd25  1  0.750000  0.628423  0.784018  1
  Pd  Pd26  1  0.750000  0.871577  0.284018  1
  Pd  Pd27  1  0.250000  0.128423  0.715982  1
  Pd  Pd28  1  0.250000  0.595991  0.477108  1
  Pd  Pd29  1  0.750000  0.404009  0.522892  1
  Pd  Pd30  1  0.750000  0.095991  0.022892  1
  Pd  Pd31  1  0.250000  0.904009  0.977108  1
