# generated using pymatgen
data_Ca2NdSm(NiB4)4
_symmetry_space_group_name_H-M   'P 1'
_cell_length_a   6.89468176
_cell_length_b   6.89468212
_cell_length_c   6.89468202
_cell_angle_alpha   112.80666525
_cell_angle_beta   112.80666909
_cell_angle_gamma   102.98842711
_symmetry_Int_Tables_number   1
_chemical_formula_structural   Ca2NdSm(NiB4)4
_chemical_formula_sum   'Ca2 Nd1 Sm1 Ni4 B16'
_cell_volume   249.91733723
_cell_formula_units_Z   1
loop_
 _symmetry_equiv_pos_site_id
 _symmetry_equiv_pos_as_xyz
  1  'x, y, z'
loop_
 _atom_site_type_symbol
 _atom_site_label
 _atom_site_symmetry_multiplicity
 _atom_site_fract_x
 _atom_site_fract_y
 _atom_site_fract_z
 _atom_site_occupancy
  Ca  Ca0  1  0.796175  0.796175  0.000000  1
  Ca  Ca1  1  0.203825  0.203825  0.000000  1
  Nd  Nd2  1  0.250000  0.750000  0.500000  1
  Sm  Sm3  1  0.750000  0.250000  0.500000  1
  Ni  Ni4  1  0.272818  0.499538  0.773281  1
  Ni  Ni5  1  0.726257  0.499538  0.226719  1
  Ni  Ni6  1  0.500462  0.727182  0.226719  1
  Ni  Ni7  1  0.500462  0.273743  0.773281  1
  B  B8  1  0.276426  0.112776  0.389004  1
  B  B9  1  0.723772  0.887422  0.610996  1
  B  B10  1  0.276426  0.887422  0.163650  1
  B  B11  1  0.723772  0.112776  0.836350  1
  B  B12  1  0.112578  0.723574  0.836350  1
  B  B13  1  0.887224  0.276228  0.163650  1
  B  B14  1  0.112578  0.276228  0.389004  1
  B  B15  1  0.887224  0.723574  0.610996  1
  B  B16  1  0.112578  0.113231  0.528767  1
  B  B17  1  0.584465  0.583811  0.471233  1
  B  B18  1  0.112578  0.583811  0.999346  1
  B  B19  1  0.584465  0.113231  0.000654  1
  B  B20  1  0.886769  0.887422  0.471233  1
  B  B21  1  0.416189  0.415535  0.528767  1
  B  B22  1  0.886770  0.415535  0.999346  1
  B  B23  1  0.416189  0.887423  0.000654  1
