# generated using pymatgen
data_SrTh7TiSe17
_symmetry_space_group_name_H-M   'P 1'
_cell_length_a   8.46002867
_cell_length_b   8.46558450
_cell_length_c   11.22365022
_cell_angle_alpha   80.86236636
_cell_angle_beta   80.49895419
_cell_angle_gamma   65.53014209
_symmetry_Int_Tables_number   1
_chemical_formula_structural   SrTh7TiSe17
_chemical_formula_sum   'Sr1 Th7 Ti1 Se17'
_cell_volume   717.92028847
_cell_formula_units_Z   1
loop_
 _symmetry_equiv_pos_site_id
 _symmetry_equiv_pos_as_xyz
  1  'x, y, z'
loop_
 _atom_site_type_symbol
 _atom_site_label
 _atom_site_symmetry_multiplicity
 _atom_site_fract_x
 _atom_site_fract_y
 _atom_site_fract_z
 _atom_site_occupancy
  Sr  Sr0  1  0.809534  0.308294  0.295563  1
  Th  Th1  1  0.302110  0.816781  0.295944  1
  Th  Th2  1  0.184157  0.696519  0.702260  1
  Th  Th3  1  0.699595  0.185958  0.701499  1
  Th  Th4  1  0.204113  0.202915  0.541460  1
  Th  Th5  1  0.794776  0.792428  0.458706  1
  Th  Th6  1  0.680049  0.680526  0.982595  1
  Th  Th7  1  0.317327  0.322519  0.020029  1
  Ti  Ti8  1  0.999995  0.008327  0.006349  1
  Se  Se9  1  0.827296  0.432024  0.545476  1
  Se  Se10  1  0.431508  0.818469  0.533981  1
  Se  Se11  1  0.178422  0.565948  0.466676  1
  Se  Se12  1  0.569169  0.166557  0.476532  1
  Se  Se13  1  0.944692  0.322470  0.015191  1
  Se  Se14  1  0.320954  0.945655  0.022924  1
  Se  Se15  1  0.055013  0.679652  0.970285  1
  Se  Se16  1  0.680032  0.059479  0.972326  1
  Se  Se17  1  0.229041  0.197776  0.275744  1
  Se  Se18  1  0.788789  0.791389  0.725777  1
  Se  Se19  1  0.061911  0.052977  0.775854  1
  Se  Se20  1  0.949036  0.923818  0.222700  1
  Se  Se21  1  0.303597  0.303824  0.754887  1
  Se  Se22  1  0.684324  0.717783  0.241328  1
  Se  Se23  1  0.518678  0.520339  0.832797  1
  Se  Se24  1  0.461877  0.497628  0.157723  1
  Se  Se25  1  0.004005  0.989947  0.505394  1
