# generated using pymatgen
data_TaNb5Co4(WN)2
_symmetry_space_group_name_H-M   'P 1'
_cell_length_a   8.17514504
_cell_length_b   8.18108335
_cell_length_c   8.17586114
_cell_angle_alpha   60.00360374
_cell_angle_beta   59.97956959
_cell_angle_gamma   59.94871108
_symmetry_Int_Tables_number   1
_chemical_formula_structural   TaNb5Co4(WN)2
_chemical_formula_sum   'Ta2 Nb10 Co8 W4 N4'
_cell_volume   386.45678371
_cell_formula_units_Z   2
loop_
 _symmetry_equiv_pos_site_id
 _symmetry_equiv_pos_as_xyz
  1  'x, y, z'
loop_
 _atom_site_type_symbol
 _atom_site_label
 _atom_site_symmetry_multiplicity
 _atom_site_fract_x
 _atom_site_fract_y
 _atom_site_fract_z
 _atom_site_occupancy
  Ta  Ta0  1  0.809431  0.809383  0.190570  1
  Ta  Ta1  1  0.190592  0.190680  0.809354  1
  Nb  Nb2  1  0.810497  0.189526  0.810447  1
  Nb  Nb3  1  0.189560  0.810415  0.189590  1
  Nb  Nb4  1  0.189509  0.810444  0.810456  1
  Nb  Nb5  1  0.810472  0.189578  0.189522  1
  Nb  Nb6  1  0.438102  0.438112  0.061908  1
  Nb  Nb7  1  0.061953  0.061851  0.438078  1
  Nb  Nb8  1  0.440586  0.059390  0.440588  1
  Nb  Nb9  1  0.059365  0.440647  0.059326  1
  Nb  Nb10  1  0.059394  0.440643  0.440620  1
  Nb  Nb11  1  0.440585  0.059360  0.059428  1
  Co  Co12  1  0.730845  0.424053  0.422566  1
  Co  Co13  1  0.424137  0.730709  0.422600  1
  Co  Co14  1  0.422571  0.422514  0.730827  1
  Co  Co15  1  0.422600  0.422544  0.424179  1
  Co  Co16  1  0.518337  0.828246  0.826695  1
  Co  Co17  1  0.828141  0.518584  0.826624  1
  Co  Co18  1  0.826649  0.826648  0.518469  1
  Co  Co19  1  0.826632  0.826640  0.828194  1
  W  W20  1  0.125134  0.625746  0.624581  1
  W  W21  1  0.625743  0.125118  0.624590  1
  W  W22  1  0.624560  0.624579  0.125136  1
  W  W23  1  0.624553  0.624564  0.625748  1
  N  N24  1  0.626597  0.122099  0.125642  1
  N  N25  1  0.122126  0.626567  0.125644  1
  N  N26  1  0.125668  0.125683  0.626551  1
  N  N27  1  0.125662  0.125677  0.122067  1
