# generated using pymatgen
data_TmLuOs3W
_symmetry_space_group_name_H-M   'P 1'
_cell_length_a   5.46680100
_cell_length_b   5.46680015
_cell_length_c   8.44417000
_cell_angle_alpha   90.00129859
_cell_angle_beta   89.99869880
_cell_angle_gamma   119.98759424
_symmetry_Int_Tables_number   1
_chemical_formula_structural   TmLuOs3W
_chemical_formula_sum   'Tm2 Lu2 Os6 W2'
_cell_volume   218.57895205
_cell_formula_units_Z   2
loop_
 _symmetry_equiv_pos_site_id
 _symmetry_equiv_pos_as_xyz
  1  'x, y, z'
loop_
 _atom_site_type_symbol
 _atom_site_label
 _atom_site_symmetry_multiplicity
 _atom_site_fract_x
 _atom_site_fract_y
 _atom_site_fract_z
 _atom_site_occupancy
  Tm  Tm0  1  0.333324  0.666676  0.064525  1
  Tm  Tm1  1  0.666676  0.333324  0.935475  1
  Lu  Lu2  1  0.666669  0.333331  0.564119  1
  Lu  Lu3  1  0.333331  0.666669  0.435881  1
  Os  Os4  1  0.173440  0.346881  0.749576  1
  Os  Os5  1  0.173457  0.826543  0.749577  1
  Os  Os6  1  0.653119  0.826560  0.749576  1
  Os  Os7  1  0.826560  0.653119  0.250424  1
  Os  Os8  1  0.826543  0.173457  0.250423  1
  Os  Os9  1  0.346881  0.173440  0.250424  1
  W  W10  1  0.000000  0.000000  0.500000  1
  W  W11  1  0.000000  0.000000  0.000000  1
