# generated using pymatgen
data_Cs(RuO4)2
_symmetry_space_group_name_H-M   'P 1'
_cell_length_a   10.77013947
_cell_length_b   9.30831418
_cell_length_c   7.96518074
_cell_angle_alpha   76.70792947
_cell_angle_beta   57.25828854
_cell_angle_gamma   46.03377688
_symmetry_Int_Tables_number   1
_chemical_formula_structural   Cs(RuO4)2
_chemical_formula_sum   'Cs2 Ru4 O16'
_cell_volume   469.23907026
_cell_formula_units_Z   2
loop_
 _symmetry_equiv_pos_site_id
 _symmetry_equiv_pos_as_xyz
  1  'x, y, z'
loop_
 _atom_site_type_symbol
 _atom_site_label
 _atom_site_symmetry_multiplicity
 _atom_site_fract_x
 _atom_site_fract_y
 _atom_site_fract_z
 _atom_site_occupancy
  Cs  Cs0  1  0.250000  0.250000  0.250000  1
  Cs  Cs1  1  0.000000  0.000000  0.000000  1
  Ru  Ru2  1  0.552122  0.947878  0.552122  1
  Ru  Ru3  1  0.947878  0.552122  0.947878  1
  Ru  Ru4  1  0.697878  0.302122  0.697878  1
  Ru  Ru5  1  0.302122  0.697878  0.302122  1
  O  O6  1  0.902845  0.258305  0.642635  1
  O  O7  1  0.196215  0.642635  0.258305  1
  O  O8  1  0.642635  0.196215  0.902845  1
  O  O9  1  0.258305  0.902845  0.196215  1
  O  O10  1  0.347155  0.991695  0.607365  1
  O  O11  1  0.053785  0.607365  0.991695  1
  O  O12  1  0.484367  0.563595  0.764340  1
  O  O13  1  0.187698  0.764340  0.563595  1
  O  O14  1  0.764340  0.187698  0.484367  1
  O  O15  1  0.563595  0.484367  0.187698  1
  O  O16  1  0.765633  0.686405  0.485660  1
  O  O17  1  0.062302  0.485660  0.686405  1
  O  O18  1  0.485660  0.062302  0.765633  1
  O  O19  1  0.686405  0.765633  0.062302  1
  O  O20  1  0.991695  0.347155  0.053785  1
  O  O21  1  0.607365  0.053785  0.347155  1
