# generated using pymatgen
data_La3YCoBr5
_symmetry_space_group_name_H-M   'P 1'
_cell_length_a   9.38110190
_cell_length_b   9.38110295
_cell_length_c   8.86086500
_cell_angle_alpha   76.64425271
_cell_angle_beta   76.64425119
_cell_angle_gamma   25.36157551
_symmetry_Int_Tables_number   1
_chemical_formula_structural   La3YCoBr5
_chemical_formula_sum   'La3 Y1 Co1 Br5'
_cell_volume   324.51410485
_cell_formula_units_Z   1
loop_
 _symmetry_equiv_pos_site_id
 _symmetry_equiv_pos_as_xyz
  1  'x, y, z'
loop_
 _atom_site_type_symbol
 _atom_site_label
 _atom_site_symmetry_multiplicity
 _atom_site_fract_x
 _atom_site_fract_y
 _atom_site_fract_z
 _atom_site_occupancy
  La  La0  1  0.860471  0.860471  0.067926  1
  La  La1  1  0.140138  0.140138  0.920721  1
  La  La2  1  0.500659  0.500659  0.236340  1
  Y  Y3  1  0.499770  0.499770  0.782696  1
  Co  Co4  1  0.000383  0.000383  0.000649  1
  Br  Br5  1  0.674755  0.674755  0.163828  1
  Br  Br6  1  0.332853  0.332853  0.819269  1
  Br  Br7  1  0.660453  0.660453  0.654248  1
  Br  Br8  1  0.331483  0.331483  0.336313  1
  Br  Br9  1  0.999034  0.999034  0.518009  1
