# generated using pymatgen
data_Lu4ZnGa3Ru3Rh
_symmetry_space_group_name_H-M   'P 1'
_cell_length_a   4.07762200
_cell_length_b   6.84732909
_cell_length_c   7.88323937
_cell_angle_alpha   89.73442151
_cell_angle_beta   90.00000000
_cell_angle_gamma   90.00000000
_symmetry_Int_Tables_number   1
_chemical_formula_structural   Lu4ZnGa3Ru3Rh
_chemical_formula_sum   'Lu4 Zn1 Ga3 Ru3 Rh1'
_cell_volume   220.10414075
_cell_formula_units_Z   1
loop_
 _symmetry_equiv_pos_site_id
 _symmetry_equiv_pos_as_xyz
  1  'x, y, z'
loop_
 _atom_site_type_symbol
 _atom_site_label
 _atom_site_symmetry_multiplicity
 _atom_site_fract_x
 _atom_site_fract_y
 _atom_site_fract_z
 _atom_site_occupancy
  Lu  Lu0  1  0.250000  0.526850  0.181107  1
  Lu  Lu1  1  0.750000  0.471957  0.819918  1
  Lu  Lu2  1  0.750000  0.969453  0.684631  1
  Lu  Lu3  1  0.250000  0.029574  0.314054  1
  Zn  Zn4  1  0.250000  0.148989  0.934831  1
  Ga  Ga5  1  0.250000  0.652803  0.566137  1
  Ga  Ga6  1  0.750000  0.352172  0.432922  1
  Ga  Ga7  1  0.750000  0.852690  0.064443  1
  Ru  Ru8  1  0.250000  0.762504  0.878740  1
  Ru  Ru9  1  0.750000  0.235162  0.126432  1
  Ru  Ru10  1  0.750000  0.732802  0.380413  1
  Rh  Rh11  1  0.250000  0.265046  0.616372  1
