# generated using pymatgen
data_Pr5Ga2Sn
_symmetry_space_group_name_H-M   'P 1'
_cell_length_a   8.09924700
_cell_length_b   8.09924700
_cell_length_c   14.83492700
_cell_angle_alpha   90.00000000
_cell_angle_beta   90.00000000
_cell_angle_gamma   90.00000000
_symmetry_Int_Tables_number   1
_chemical_formula_structural   Pr5Ga2Sn
_chemical_formula_sum   'Pr20 Ga8 Sn4'
_cell_volume   973.13860354
_cell_formula_units_Z   4
loop_
 _symmetry_equiv_pos_site_id
 _symmetry_equiv_pos_as_xyz
  1  'x, y, z'
loop_
 _atom_site_type_symbol
 _atom_site_label
 _atom_site_symmetry_multiplicity
 _atom_site_fract_x
 _atom_site_fract_y
 _atom_site_fract_z
 _atom_site_occupancy
  Pr  Pr0  1  0.821834  0.840069  0.607286  1
  Pr  Pr1  1  0.178166  0.840069  0.107286  1
  Pr  Pr2  1  0.159931  0.821834  0.392714  1
  Pr  Pr3  1  0.000000  0.500000  0.725057  1
  Pr  Pr4  1  0.840069  0.178166  0.392714  1
  Pr  Pr5  1  0.678166  0.659931  0.392714  1
  Pr  Pr6  1  0.659931  0.321834  0.607286  1
  Pr  Pr7  1  0.340069  0.678166  0.607286  1
  Pr  Pr8  1  0.000000  0.500000  0.225057  1
  Pr  Pr9  1  0.659931  0.678166  0.107286  1
  Pr  Pr10  1  0.678166  0.340069  0.892714  1
  Pr  Pr11  1  0.840069  0.821834  0.892714  1
  Pr  Pr12  1  0.321834  0.340069  0.392714  1
  Pr  Pr13  1  0.178166  0.159931  0.607286  1
  Pr  Pr14  1  0.821834  0.159931  0.107286  1
  Pr  Pr15  1  0.321834  0.659931  0.892714  1
  Pr  Pr16  1  0.340069  0.321834  0.107286  1
  Pr  Pr17  1  0.500000  0.000000  0.274943  1
  Pr  Pr18  1  0.159931  0.178166  0.892714  1
  Pr  Pr19  1  0.500000  0.000000  0.774943  1
  Ga  Ga20  1  0.621382  0.378618  0.250000  1
  Ga  Ga21  1  0.121382  0.878618  0.750000  1
  Ga  Ga22  1  0.378618  0.378618  0.750000  1
  Ga  Ga23  1  0.378618  0.621382  0.250000  1
  Ga  Ga24  1  0.878618  0.878618  0.250000  1
  Ga  Ga25  1  0.621382  0.621382  0.750000  1
  Ga  Ga26  1  0.878618  0.121382  0.750000  1
  Ga  Ga27  1  0.121382  0.121382  0.250000  1
  Sn  Sn28  1  0.000000  0.500000  0.504022  1
  Sn  Sn29  1  0.500000  0.000000  0.495978  1
  Sn  Sn30  1  0.500000  0.000000  0.995978  1
  Sn  Sn31  1  0.000000  0.500000  0.004022  1
