# generated using pymatgen
data_Y4Ta2CoOs5
_symmetry_space_group_name_H-M   'P 1'
_cell_length_a   5.57503027
_cell_length_b   5.57502994
_cell_length_c   8.40244500
_cell_angle_alpha   90.00000000
_cell_angle_beta   90.00000000
_cell_angle_gamma   120.43010341
_symmetry_Int_Tables_number   1
_chemical_formula_structural   Y4Ta2CoOs5
_chemical_formula_sum   'Y4 Ta2 Co1 Os5'
_cell_volume   225.18120866
_cell_formula_units_Z   1
loop_
 _symmetry_equiv_pos_site_id
 _symmetry_equiv_pos_as_xyz
  1  'x, y, z'
loop_
 _atom_site_type_symbol
 _atom_site_label
 _atom_site_symmetry_multiplicity
 _atom_site_fract_x
 _atom_site_fract_y
 _atom_site_fract_z
 _atom_site_occupancy
  Y  Y0  1  0.332162  0.667838  0.433771  1
  Y  Y1  1  0.666863  0.333137  0.562057  1
  Y  Y2  1  0.666863  0.333137  0.937943  1
  Y  Y3  1  0.332162  0.667838  0.066229  1
  Ta  Ta4  1  0.999611  0.000389  0.496520  1
  Ta  Ta5  1  0.999611  0.000389  0.003480  1
  Co  Co6  1  0.834492  0.165508  0.250000  1
  Os  Os7  1  0.820412  0.647595  0.250000  1
  Os  Os8  1  0.352405  0.179588  0.250000  1
  Os  Os9  1  0.171440  0.828560  0.750000  1
  Os  Os10  1  0.172407  0.348430  0.750000  1
  Os  Os11  1  0.651570  0.827593  0.750000  1
