# generated using pymatgen
data_Ba3P8Pt24Pb
_symmetry_space_group_name_H-M   'P 1'
_cell_length_a   8.63430958
_cell_length_b   8.63430958
_cell_length_c   8.63430958
_cell_angle_alpha   90.12676694
_cell_angle_beta   90.12676694
_cell_angle_gamma   90.12676694
_symmetry_Int_Tables_number   1
_chemical_formula_structural   Ba3P8Pt24Pb
_chemical_formula_sum   'Ba3 P8 Pt24 Pb1'
_cell_volume   643.69428652
_cell_formula_units_Z   1
loop_
 _symmetry_equiv_pos_site_id
 _symmetry_equiv_pos_as_xyz
  1  'x, y, z'
loop_
 _atom_site_type_symbol
 _atom_site_label
 _atom_site_symmetry_multiplicity
 _atom_site_fract_x
 _atom_site_fract_y
 _atom_site_fract_z
 _atom_site_occupancy
  Ba  Ba0  1  0.500000  0.500000  0.000000  1
  Ba  Ba1  1  0.500000  0.000000  0.500000  1
  Ba  Ba2  1  0.000000  0.500000  0.500000  1
  P  P3  1  0.807219  0.306976  0.196269  1
  P  P4  1  0.196269  0.807219  0.306976  1
  P  P5  1  0.695182  0.695182  0.695182  1
  P  P6  1  0.306976  0.196269  0.807219  1
  P  P7  1  0.192781  0.693024  0.803731  1
  P  P8  1  0.803731  0.192781  0.693024  1
  P  P9  1  0.304818  0.304818  0.304818  1
  P  P10  1  0.693024  0.803731  0.192781  1
  Pt  Pt11  1  0.423982  0.843096  0.156122  1
  Pt  Pt12  1  0.577871  0.341596  0.344317  1
  Pt  Pt13  1  0.080157  0.153142  0.661835  1
  Pt  Pt14  1  0.921632  0.661647  0.849381  1
  Pt  Pt15  1  0.156122  0.423982  0.843096  1
  Pt  Pt16  1  0.344317  0.577871  0.341596  1
  Pt  Pt17  1  0.661835  0.080157  0.153142  1
  Pt  Pt18  1  0.849381  0.921632  0.661647  1
  Pt  Pt19  1  0.843096  0.156122  0.423982  1
  Pt  Pt20  1  0.341596  0.344317  0.577871  1
  Pt  Pt21  1  0.153142  0.661835  0.080157  1
  Pt  Pt22  1  0.661647  0.849381  0.921632  1
  Pt  Pt23  1  0.576018  0.156904  0.843878  1
  Pt  Pt24  1  0.422129  0.658404  0.655683  1
  Pt  Pt25  1  0.919843  0.846858  0.338165  1
  Pt  Pt26  1  0.078368  0.338353  0.150619  1
  Pt  Pt27  1  0.843878  0.576018  0.156904  1
  Pt  Pt28  1  0.655683  0.422129  0.658404  1
  Pt  Pt29  1  0.338165  0.919843  0.846858  1
  Pt  Pt30  1  0.150619  0.078368  0.338353  1
  Pt  Pt31  1  0.156904  0.843878  0.576018  1
  Pt  Pt32  1  0.658404  0.655683  0.422129  1
  Pt  Pt33  1  0.846858  0.338165  0.919843  1
  Pt  Pt34  1  0.338353  0.150619  0.078368  1
  Pb  Pb35  1  0.000000  0.000000  0.000000  1
