# generated using pymatgen
data_Nd19SmSi15Pd
_symmetry_space_group_name_H-M   'P 1'
_cell_length_a   7.80788019
_cell_length_b   7.94645028
_cell_length_c   15.15869633
_cell_angle_alpha   89.70833754
_cell_angle_beta   89.53195012
_cell_angle_gamma   90.03492461
_symmetry_Int_Tables_number   1
_chemical_formula_structural   Nd19SmSi15Pd
_chemical_formula_sum   'Nd19 Sm1 Si15 Pd1'
_cell_volume   940.47651183
_cell_formula_units_Z   1
loop_
 _symmetry_equiv_pos_site_id
 _symmetry_equiv_pos_as_xyz
  1  'x, y, z'
loop_
 _atom_site_type_symbol
 _atom_site_label
 _atom_site_symmetry_multiplicity
 _atom_site_fract_x
 _atom_site_fract_y
 _atom_site_fract_z
 _atom_site_occupancy
  Nd  Nd0  1  0.813366  0.327357  0.617916  1
  Nd  Nd1  1  0.457181  0.686585  0.898340  1
  Nd  Nd2  1  0.957252  0.813382  0.897696  1
  Nd  Nd3  1  0.186447  0.683009  0.120685  1
  Nd  Nd4  1  0.691600  0.819428  0.120803  1
  Nd  Nd5  1  0.309121  0.180039  0.878328  1
  Nd  Nd6  1  0.189031  0.678138  0.379754  1
  Nd  Nd7  1  0.042824  0.186948  0.102830  1
  Nd  Nd8  1  0.313867  0.180156  0.622027  1
  Nd  Nd9  1  0.856309  0.490448  0.256116  1
  Nd  Nd10  1  0.363168  0.008414  0.251649  1
  Nd  Nd11  1  0.533041  0.313058  0.396910  1
  Nd  Nd12  1  0.810755  0.317883  0.878816  1
  Nd  Nd13  1  0.964106  0.817339  0.601442  1
  Nd  Nd14  1  0.460820  0.687154  0.603187  1
  Nd  Nd15  1  0.043292  0.181780  0.397603  1
  Nd  Nd16  1  0.688488  0.818373  0.381528  1
  Nd  Nd17  1  0.638405  0.992827  0.749029  1
  Nd  Nd18  1  0.542631  0.312750  0.102021  1
  Sm  Sm19  1  0.136205  0.512092  0.748063  1
  Si  Si20  1  0.479152  0.602409  0.246591  1
  Si  Si21  1  0.249175  0.379027  0.247363  1
  Si  Si22  1  0.517280  0.400411  0.751232  1
  Si  Si23  1  0.632020  0.025679  0.958467  1
  Si  Si24  1  0.017026  0.102809  0.749694  1
  Si  Si25  1  0.748036  0.621798  0.750470  1
  Si  Si26  1  0.751248  0.120569  0.248812  1
  Si  Si27  1  0.364842  0.970970  0.460469  1
  Si  Si28  1  0.981443  0.899144  0.249115  1
  Si  Si29  1  0.366264  0.974458  0.041228  1
  Si  Si30  1  0.635949  0.026113  0.541573  1
  Si  Si31  1  0.134692  0.473609  0.958544  1
  Si  Si32  1  0.147117  0.473567  0.542780  1
  Si  Si33  1  0.867433  0.525043  0.040035  1
  Si  Si34  1  0.247103  0.877520  0.751215  1
  Pd  Pd35  1  0.863312  0.519714  0.457670  1
