# generated using pymatgen
data_Er10In8Pd3Rh
_symmetry_space_group_name_H-M   'P 1'
_cell_length_a   3.58565000
_cell_length_b   8.09617753
_cell_length_c   18.16801902
_cell_angle_alpha   89.98184678
_cell_angle_beta   90.00000000
_cell_angle_gamma   90.00000000
_symmetry_Int_Tables_number   1
_chemical_formula_structural   Er10In8Pd3Rh
_chemical_formula_sum   'Er10 In8 Pd3 Rh1'
_cell_volume   527.41863687
_cell_formula_units_Z   1
loop_
 _symmetry_equiv_pos_site_id
 _symmetry_equiv_pos_as_xyz
  1  'x, y, z'
loop_
 _atom_site_type_symbol
 _atom_site_label
 _atom_site_symmetry_multiplicity
 _atom_site_fract_x
 _atom_site_fract_y
 _atom_site_fract_z
 _atom_site_occupancy
  Er  Er0  1  0.000000  0.500204  0.499842  1
  Er  Er1  1  0.000000  0.000257  0.000677  1
  Er  Er2  1  0.000000  0.731544  0.277965  1
  Er  Er3  1  0.000000  0.259685  0.719434  1
  Er  Er4  1  0.000000  0.758882  0.779885  1
  Er  Er5  1  0.000000  0.253331  0.220360  1
  Er  Er6  1  0.000000  0.615582  0.086946  1
  Er  Er7  1  0.000000  0.382689  0.916560  1
  Er  Er8  1  0.000000  0.882468  0.583082  1
  Er  Er9  1  0.000000  0.116704  0.415344  1
  In  In10  1  0.500000  0.708448  0.932980  1
  In  In11  1  0.500000  0.292734  0.068200  1
  In  In12  1  0.500000  0.791410  0.432148  1
  In  In13  1  0.500000  0.207625  0.566747  1
  In  In14  1  0.500000  0.578170  0.649194  1
  In  In15  1  0.500000  0.422856  0.351309  1
  In  In16  1  0.500000  0.924483  0.150176  1
  In  In17  1  0.500000  0.077933  0.850369  1
  Pd  Pd18  1  0.500000  0.475798  0.803945  1
  Pd  Pd19  1  0.500000  0.976161  0.695764  1
  Pd  Pd20  1  0.500000  0.021050  0.303647  1
  Rh  Rh21  1  0.500000  0.521987  0.195425  1
