# generated using pymatgen
data_Ce3Ga8Os3Pb
_symmetry_space_group_name_H-M   'P 1'
_cell_length_a   6.50010700
_cell_length_b   6.50010700
_cell_length_c   6.50010700
_cell_angle_alpha   90.00000000
_cell_angle_beta   90.00000000
_cell_angle_gamma   90.00000000
_symmetry_Int_Tables_number   1
_chemical_formula_structural   Ce3Ga8Os3Pb
_chemical_formula_sum   'Ce3 Ga8 Os3 Pb1'
_cell_volume   274.63856247
_cell_formula_units_Z   1
loop_
 _symmetry_equiv_pos_site_id
 _symmetry_equiv_pos_as_xyz
  1  'x, y, z'
loop_
 _atom_site_type_symbol
 _atom_site_label
 _atom_site_symmetry_multiplicity
 _atom_site_fract_x
 _atom_site_fract_y
 _atom_site_fract_z
 _atom_site_occupancy
  Ce  Ce0  1  0.500000  0.000000  0.000000  1
  Ce  Ce1  1  0.000000  0.000000  0.500000  1
  Ce  Ce2  1  0.000000  0.500000  0.000000  1
  Ga  Ga3  1  0.706652  0.706652  0.706652  1
  Ga  Ga4  1  0.706652  0.293348  0.706652  1
  Ga  Ga5  1  0.293348  0.706652  0.706652  1
  Ga  Ga6  1  0.706652  0.706652  0.293348  1
  Ga  Ga7  1  0.706652  0.293348  0.293348  1
  Ga  Ga8  1  0.293348  0.293348  0.293348  1
  Ga  Ga9  1  0.293348  0.706652  0.293348  1
  Ga  Ga10  1  0.293348  0.293348  0.706652  1
  Os  Os11  1  0.000000  0.500000  0.500000  1
  Os  Os12  1  0.500000  0.500000  0.000000  1
  Os  Os13  1  0.500000  0.000000  0.500000  1
  Pb  Pb14  1  0.000000  0.000000  0.000000  1
