# generated using pymatgen
data_Sm8AlZnPd23
_symmetry_space_group_name_H-M   'P 1'
_cell_length_a   8.34474000
_cell_length_b   8.44576300
_cell_length_c   8.54648200
_cell_angle_alpha   90.00000000
_cell_angle_beta   90.00000000
_cell_angle_gamma   90.00000000
_symmetry_Int_Tables_number   1
_chemical_formula_structural   Sm8AlZnPd23
_chemical_formula_sum   'Sm8 Al1 Zn1 Pd23'
_cell_volume   602.33636314
_cell_formula_units_Z   1
loop_
 _symmetry_equiv_pos_site_id
 _symmetry_equiv_pos_as_xyz
  1  'x, y, z'
loop_
 _atom_site_type_symbol
 _atom_site_label
 _atom_site_symmetry_multiplicity
 _atom_site_fract_x
 _atom_site_fract_y
 _atom_site_fract_z
 _atom_site_occupancy
  Sm  Sm0  1  0.251053  0.246074  0.260866  1
  Sm  Sm1  1  0.748230  0.746919  0.749512  1
  Sm  Sm2  1  0.748230  0.746919  0.250488  1
  Sm  Sm3  1  0.748230  0.253081  0.749512  1
  Sm  Sm4  1  0.251053  0.246074  0.739134  1
  Sm  Sm5  1  0.251053  0.753926  0.260866  1
  Sm  Sm6  1  0.251053  0.753926  0.739134  1
  Sm  Sm7  1  0.748230  0.253081  0.250488  1
  Al  Al8  1  0.995224  0.000000  0.000000  1
  Zn  Zn9  1  0.271874  0.500000  0.000000  1
  Pd  Pd10  1  0.744177  0.500000  0.000000  1
  Pd  Pd11  1  0.996897  0.258535  0.500000  1
  Pd  Pd12  1  0.491110  0.265654  0.000000  1
  Pd  Pd13  1  0.996897  0.741465  0.500000  1
  Pd  Pd14  1  0.491110  0.734346  0.000000  1
  Pd  Pd15  1  0.500553  0.000000  0.261474  1
  Pd  Pd16  1  0.257563  0.000000  0.500000  1
  Pd  Pd17  1  0.500553  0.000000  0.738526  1
  Pd  Pd18  1  0.740715  0.000000  0.500000  1
  Pd  Pd19  1  0.003613  0.500000  0.260765  1
  Pd  Pd20  1  0.003613  0.500000  0.739235  1
  Pd  Pd21  1  0.252750  0.500000  0.500000  1
  Pd  Pd22  1  0.746864  0.500000  0.500000  1
  Pd  Pd23  1  0.502106  0.254331  0.500000  1
  Pd  Pd24  1  0.502106  0.745669  0.500000  1
  Pd  Pd25  1  0.494637  0.500000  0.252732  1
  Pd  Pd26  1  0.494637  0.500000  0.747268  1
  Pd  Pd27  1  0.288692  0.000000  0.000000  1
  Pd  Pd28  1  0.702235  0.000000  0.000000  1
  Pd  Pd29  1  0.015359  0.293682  0.000000  1
  Pd  Pd30  1  0.015359  0.706318  0.000000  1
  Pd  Pd31  1  0.997112  0.000000  0.286291  1
  Pd  Pd32  1  0.997112  0.000000  0.713709  1
