# generated using pymatgen
data_Cs6AlIn5Br24
_symmetry_space_group_name_H-M   'P 1'
_cell_length_a   14.25699864
_cell_length_b   14.25646219
_cell_length_c   14.30323300
_cell_angle_alpha   115.11090013
_cell_angle_beta   115.04650627
_cell_angle_gamma   114.90227440
_symmetry_Int_Tables_number   1
_chemical_formula_structural   Cs6AlIn5Br24
_chemical_formula_sum   'Cs6 Al1 In5 Br24'
_cell_volume   1624.07813237
_cell_formula_units_Z   1
loop_
 _symmetry_equiv_pos_site_id
 _symmetry_equiv_pos_as_xyz
  1  'x, y, z'
loop_
 _atom_site_type_symbol
 _atom_site_label
 _atom_site_symmetry_multiplicity
 _atom_site_fract_x
 _atom_site_fract_y
 _atom_site_fract_z
 _atom_site_occupancy
  Cs  Cs0  1  0.879452  0.685705  0.094660  1
  Cs  Cs1  1  0.091315  0.879539  0.685249  1
  Cs  Cs2  1  0.687256  0.093434  0.877135  1
  Cs  Cs3  1  0.184363  0.378387  0.595898  1
  Cs  Cs4  1  0.593769  0.185380  0.377878  1
  Cs  Cs5  1  0.378396  0.593891  0.184989  1
  Al  Al6  1  0.865482  0.075849  0.677681  1
  In  In7  1  0.677971  0.866212  0.075621  1
  In  In8  1  0.075364  0.677379  0.865196  1
  In  In9  1  0.576266  0.366354  0.178477  1
  In  In10  1  0.178306  0.576353  0.366699  1
  In  In11  1  0.365959  0.177853  0.576137  1
  Br  Br12  1  0.957556  0.112291  0.881524  1
  Br  Br13  1  0.902004  0.966032  0.116760  1
  Br  Br14  1  0.117743  0.902625  0.966990  1
  Br  Br15  1  0.618337  0.467871  0.402784  1
  Br  Br16  1  0.401887  0.616650  0.465670  1
  Br  Br17  1  0.465681  0.401952  0.617145  1
  Br  Br18  1  0.050026  0.298894  0.763588  1
  Br  Br19  1  0.770708  0.065671  0.319296  1
  Br  Br20  1  0.319095  0.769099  0.063817  1
  Br  Br21  1  0.820814  0.567183  0.272434  1
  Br  Br22  1  0.271902  0.821149  0.566405  1
  Br  Br23  1  0.565590  0.271383  0.820376  1
  Br  Br24  1  0.645693  0.016013  0.564054  1
  Br  Br25  1  0.551778  0.625345  0.010081  1
  Br  Br26  1  0.010071  0.551855  0.625311  1
  Br  Br27  1  0.509828  0.125122  0.052307  1
  Br  Br28  1  0.052339  0.510579  0.126339  1
  Br  Br29  1  0.124541  0.051333  0.509097  1
  Br  Br30  1  0.804348  0.873743  0.495769  1
  Br  Br31  1  0.479287  0.798033  0.853774  1
  Br  Br32  1  0.853264  0.478769  0.797067  1
  Br  Br33  1  0.354733  0.299096  0.980681  1
  Br  Br34  1  0.979159  0.353758  0.297874  1
  Br  Br35  1  0.300515  0.980018  0.356032  1
