# generated using pymatgen
data_La6Dy3Er(In3Br)2
_symmetry_space_group_name_H-M   'P 1'
_cell_length_a   9.62430500
_cell_length_b   9.62430421
_cell_length_c   6.82028200
_cell_angle_alpha   90.00000000
_cell_angle_beta   90.00000000
_cell_angle_gamma   119.99999928
_symmetry_Int_Tables_number   1
_chemical_formula_structural   La6Dy3Er(In3Br)2
_chemical_formula_sum   'La6 Dy3 Er1 In6 Br2'
_cell_volume   547.10626290
_cell_formula_units_Z   1
loop_
 _symmetry_equiv_pos_site_id
 _symmetry_equiv_pos_as_xyz
  1  'x, y, z'
loop_
 _atom_site_type_symbol
 _atom_site_label
 _atom_site_symmetry_multiplicity
 _atom_site_fract_x
 _atom_site_fract_y
 _atom_site_fract_z
 _atom_site_occupancy
  La  La0  1  0.731309  0.731481  0.250140  1
  La  La1  1  0.000172  0.731481  0.749860  1
  La  La2  1  0.731309  0.999828  0.749860  1
  La  La3  1  0.268519  0.268691  0.749860  1
  La  La4  1  0.000172  0.268691  0.250140  1
  La  La5  1  0.268519  0.999828  0.250140  1
  Dy  Dy6  1  0.666667  0.333333  0.500000  1
  Dy  Dy7  1  0.333333  0.666667  0.000000  1
  Dy  Dy8  1  0.666667  0.333333  0.000000  1
  Er  Er9  1  0.333333  0.666667  0.500000  1
  In  In10  1  0.394091  0.999681  0.749803  1
  In  In11  1  0.000319  0.605909  0.250197  1
  In  In12  1  0.605590  0.999681  0.250197  1
  In  In13  1  0.000319  0.394410  0.749803  1
  In  In14  1  0.394091  0.394410  0.250197  1
  In  In15  1  0.605590  0.605909  0.749803  1
  Br  Br16  1  0.000000  0.000000  0.500000  1
  Br  Br17  1  0.000000  0.000000  0.000000  1
