# generated using pymatgen
data_LiDy11Ho5Tl(InRh2)2
_symmetry_space_group_name_H-M   'P 1'
_cell_length_a   9.63503312
_cell_length_b   9.63650733
_cell_length_c   9.63672800
_cell_angle_alpha   59.89067980
_cell_angle_beta   59.87533872
_cell_angle_gamma   59.86600967
_symmetry_Int_Tables_number   1
_chemical_formula_structural   LiDy11Ho5Tl(InRh2)2
_chemical_formula_sum   'Li1 Dy11 Ho5 Tl1 In2 Rh4'
_cell_volume   630.92402669
_cell_formula_units_Z   1
loop_
 _symmetry_equiv_pos_site_id
 _symmetry_equiv_pos_as_xyz
  1  'x, y, z'
loop_
 _atom_site_type_symbol
 _atom_site_label
 _atom_site_symmetry_multiplicity
 _atom_site_fract_x
 _atom_site_fract_y
 _atom_site_fract_z
 _atom_site_occupancy
  Li  Li0  1  0.821509  0.821845  0.821076  1
  Dy  Dy1  1  0.187850  0.188363  0.812114  1
  Dy  Dy2  1  0.599950  0.599563  0.202389  1
  Dy  Dy3  1  0.440490  0.059256  0.441761  1
  Dy  Dy4  1  0.441328  0.441368  0.059084  1
  Dy  Dy5  1  0.813436  0.186425  0.813183  1
  Dy  Dy6  1  0.188037  0.812147  0.188227  1
  Dy  Dy7  1  0.436430  0.062676  0.062893  1
  Dy  Dy8  1  0.186188  0.813345  0.812920  1
  Dy  Dy9  1  0.062707  0.436101  0.063442  1
  Dy  Dy10  1  0.813081  0.813213  0.185973  1
  Dy  Dy11  1  0.202086  0.599821  0.599916  1
  Ho  Ho12  1  0.059070  0.440391  0.441856  1
  Ho  Ho13  1  0.063067  0.063593  0.436466  1
  Ho  Ho14  1  0.811963  0.188533  0.188243  1
  Ho  Ho15  1  0.599862  0.202882  0.599561  1
  Ho  Ho16  1  0.599959  0.599449  0.600032  1
  Tl  Tl17  1  0.834366  0.834664  0.500206  1
  In  In18  1  0.502899  0.832535  0.833446  1
  In  In19  1  0.832369  0.502424  0.833956  1
  Rh  Rh20  1  0.392848  0.823639  0.393123  1
  Rh  Rh21  1  0.393406  0.393028  0.393571  1
  Rh  Rh22  1  0.823667  0.392142  0.393453  1
  Rh  Rh23  1  0.393437  0.392597  0.823110  1
