# generated using pymatgen
data_YHo4(RuO6)2
_symmetry_space_group_name_H-M   'P 1'
_cell_length_a   6.82657740
_cell_length_b   6.82657705
_cell_length_c   7.38638403
_cell_angle_alpha   74.13642327
_cell_angle_beta   74.13642257
_cell_angle_gamma   50.46526697
_symmetry_Int_Tables_number   1
_chemical_formula_structural   YHo4(RuO6)2
_chemical_formula_sum   'Y1 Ho4 Ru2 O12'
_cell_volume   253.06607910
_cell_formula_units_Z   1
loop_
 _symmetry_equiv_pos_site_id
 _symmetry_equiv_pos_as_xyz
  1  'x, y, z'
loop_
 _atom_site_type_symbol
 _atom_site_label
 _atom_site_symmetry_multiplicity
 _atom_site_fract_x
 _atom_site_fract_y
 _atom_site_fract_z
 _atom_site_occupancy
  Y  Y0  1  0.500000  0.500000  0.500000  1
  Ho  Ho1  1  0.189259  0.189259  0.172896  1
  Ho  Ho2  1  0.810741  0.810741  0.827104  1
  Ho  Ho3  1  0.802524  0.802524  0.360507  1
  Ho  Ho4  1  0.197476  0.197476  0.639493  1
  Ru  Ru5  1  0.736244  0.263756  0.000000  1
  Ru  Ru6  1  0.263756  0.736244  0.000000  1
  O  O7  1  0.999477  0.999477  0.185741  1
  O  O8  1  0.000523  0.000523  0.814259  1
  O  O9  1  0.499387  0.499387  0.805903  1
  O  O10  1  0.500613  0.500613  0.194097  1
  O  O11  1  0.597878  0.093869  0.574424  1
  O  O12  1  0.906131  0.402122  0.425576  1
  O  O13  1  0.402122  0.906131  0.425576  1
  O  O14  1  0.406340  0.924560  0.915798  1
  O  O15  1  0.075440  0.593660  0.084202  1
  O  O16  1  0.593660  0.075440  0.084202  1
  O  O17  1  0.924560  0.406340  0.915798  1
  O  O18  1  0.093869  0.597878  0.574424  1
