# generated using pymatgen
data_TbTh3(HgPt2)2
_symmetry_space_group_name_H-M   'P 1'
_cell_length_a   7.97341605
_cell_length_b   7.97341605
_cell_length_c   3.74950300
_cell_angle_alpha   90.00000000
_cell_angle_beta   90.00000000
_cell_angle_gamma   90.60750906
_symmetry_Int_Tables_number   1
_chemical_formula_structural   TbTh3(HgPt2)2
_chemical_formula_sum   'Tb1 Th3 Hg2 Pt4'
_cell_volume   238.36261672
_cell_formula_units_Z   1
loop_
 _symmetry_equiv_pos_site_id
 _symmetry_equiv_pos_as_xyz
  1  'x, y, z'
loop_
 _atom_site_type_symbol
 _atom_site_label
 _atom_site_symmetry_multiplicity
 _atom_site_fract_x
 _atom_site_fract_y
 _atom_site_fract_z
 _atom_site_occupancy
  Tb  Tb0  1  0.673436  0.826564  0.500000  1
  Th  Th1  1  0.329873  0.170127  0.500000  1
  Th  Th2  1  0.825105  0.328965  0.500000  1
  Th  Th3  1  0.171035  0.674895  0.500000  1
  Hg  Hg4  1  0.994369  0.997736  0.000000  1
  Hg  Hg5  1  0.502264  0.505631  0.000000  1
  Pt  Pt6  1  0.627111  0.128990  0.000000  1
  Pt  Pt7  1  0.130339  0.369661  0.000000  1
  Pt  Pt8  1  0.875459  0.624541  0.000000  1
  Pt  Pt9  1  0.371010  0.872889  0.000000  1
