# generated using pymatgen
data_CsPrMnS3
_symmetry_space_group_name_H-M   'P 1'
_cell_length_a   4.22013000
_cell_length_b   8.03746819
_cell_length_c   11.14058300
_cell_angle_alpha   89.99958981
_cell_angle_beta   90.00000000
_cell_angle_gamma   74.77985601
_symmetry_Int_Tables_number   1
_chemical_formula_structural   CsPrMnS3
_chemical_formula_sum   'Cs2 Pr2 Mn2 S6'
_cell_volume   364.62482875
_cell_formula_units_Z   2
loop_
 _symmetry_equiv_pos_site_id
 _symmetry_equiv_pos_as_xyz
  1  'x, y, z'
loop_
 _atom_site_type_symbol
 _atom_site_label
 _atom_site_symmetry_multiplicity
 _atom_site_fract_x
 _atom_site_fract_y
 _atom_site_fract_z
 _atom_site_occupancy
  Cs  Cs0  1  0.739026  0.521950  0.249999  1
  Cs  Cs1  1  0.260957  0.478084  0.750000  1
  Pr  Pr2  1  0.999983  0.000034  0.999990  1
  Pr  Pr3  1  0.999983  0.000033  0.500010  1
  Mn  Mn4  1  0.461068  0.077862  0.250001  1
  Mn  Mn5  1  0.539001  0.921999  0.749999  1
  S  S6  1  0.383859  0.232280  0.068721  1
  S  S7  1  0.048806  0.902387  0.250001  1
  S  S8  1  0.383858  0.232281  0.431280  1
  S  S9  1  0.616134  0.767733  0.568704  1
  S  S10  1  0.951188  0.097624  0.749999  1
  S  S11  1  0.616134  0.767732  0.931296  1
