# generated using pymatgen
data_LuHf3Sc4(P3Ir4)4
_symmetry_space_group_name_H-M   'P 1'
_cell_length_a   12.80710600
_cell_length_b   12.80710537
_cell_length_c   3.90914400
_cell_angle_alpha   90.00000000
_cell_angle_beta   90.00000000
_cell_angle_gamma   119.99999645
_symmetry_Int_Tables_number   1
_chemical_formula_structural   LuHf3Sc4(P3Ir4)4
_chemical_formula_sum   'Lu1 Hf3 Sc4 P12 Ir16'
_cell_volume   555.28290420
_cell_formula_units_Z   1
loop_
 _symmetry_equiv_pos_site_id
 _symmetry_equiv_pos_as_xyz
  1  'x, y, z'
loop_
 _atom_site_type_symbol
 _atom_site_label
 _atom_site_symmetry_multiplicity
 _atom_site_fract_x
 _atom_site_fract_y
 _atom_site_fract_z
 _atom_site_occupancy
  Lu  Lu0  1  0.333333  0.666667  0.000000  1
  Hf  Hf1  1  0.450468  0.000231  0.000000  1
  Hf  Hf2  1  0.999769  0.450237  0.000000  1
  Hf  Hf3  1  0.549763  0.549532  0.000000  1
  Sc  Sc4  1  0.666667  0.333333  0.000000  1
  Sc  Sc5  1  0.817088  0.999984  0.500000  1
  Sc  Sc6  1  0.000016  0.817105  0.500000  1
  Sc  Sc7  1  0.182895  0.182912  0.500000  1
  P  P8  1  0.173378  0.000150  0.000000  1
  P  P9  1  0.999850  0.173228  0.000000  1
  P  P10  1  0.826772  0.826622  0.000000  1
  P  P11  1  0.170195  0.482698  0.500000  1
  P  P12  1  0.517302  0.687496  0.500000  1
  P  P13  1  0.312504  0.829805  0.500000  1
  P  P14  1  0.687429  0.516089  0.500000  1
  P  P15  1  0.828659  0.312571  0.500000  1
  P  P16  1  0.483911  0.171341  0.500000  1
  P  P17  1  0.653698  0.000206  0.000000  1
  P  P18  1  0.999794  0.653492  0.000000  1
  P  P19  1  0.346508  0.346302  0.000000  1
  Ir  Ir20  1  0.358497  0.494601  0.500000  1
  Ir  Ir21  1  0.505399  0.863896  0.500000  1
  Ir  Ir22  1  0.136104  0.641503  0.500000  1
  Ir  Ir23  1  0.862964  0.504755  0.500000  1
  Ir  Ir24  1  0.641790  0.137036  0.500000  1
  Ir  Ir25  1  0.495245  0.358210  0.500000  1
  Ir  Ir26  1  0.177626  0.368282  0.000000  1
  Ir  Ir27  1  0.631718  0.809345  0.000000  1
  Ir  Ir28  1  0.190655  0.822374  0.000000  1
  Ir  Ir29  1  0.809095  0.631419  0.000000  1
  Ir  Ir30  1  0.822325  0.190905  0.000000  1
  Ir  Ir31  1  0.368581  0.177675  0.000000  1
  Ir  Ir32  1  0.279432  0.000084  0.500000  1
  Ir  Ir33  1  0.999916  0.279348  0.500000  1
  Ir  Ir34  1  0.720652  0.720568  0.500000  1
  Ir  Ir35  1  0.000000  0.000000  0.000000  1
