# generated using pymatgen
data_Ba7(Al3Ga2)2
_symmetry_space_group_name_H-M   'P 1'
_cell_length_a   16.47448889
_cell_length_b   16.47448886
_cell_length_c   16.47448873
_cell_angle_alpha   21.11801208
_cell_angle_beta   21.11801314
_cell_angle_gamma   21.11801095
_symmetry_Int_Tables_number   1
_chemical_formula_structural   Ba7(Al3Ga2)2
_chemical_formula_sum   'Ba7 Al6 Ga4'
_cell_volume   508.34479219
_cell_formula_units_Z   1
loop_
 _symmetry_equiv_pos_site_id
 _symmetry_equiv_pos_as_xyz
  1  'x, y, z'
loop_
 _atom_site_type_symbol
 _atom_site_label
 _atom_site_symmetry_multiplicity
 _atom_site_fract_x
 _atom_site_fract_y
 _atom_site_fract_z
 _atom_site_occupancy
  Ba  Ba0  1  0.870538  0.870538  0.870538  1
  Ba  Ba1  1  0.129462  0.129462  0.129462  1
  Ba  Ba2  1  0.947784  0.947784  0.947784  1
  Ba  Ba3  1  0.052216  0.052216  0.052216  1
  Ba  Ba4  1  0.500000  0.500000  0.500000  1
  Ba  Ba5  1  0.639809  0.639809  0.639809  1
  Ba  Ba6  1  0.360191  0.360191  0.360191  1
  Al  Al7  1  0.418180  0.890000  0.418180  1
  Al  Al8  1  0.418180  0.418180  0.890000  1
  Al  Al9  1  0.890000  0.418180  0.418180  1
  Al  Al10  1  0.581820  0.110000  0.581820  1
  Al  Al11  1  0.581820  0.581820  0.110000  1
  Al  Al12  1  0.110000  0.581820  0.581820  1
  Ga  Ga13  1  0.715722  0.715722  0.715722  1
  Ga  Ga14  1  0.284278  0.284278  0.284278  1
  Ga  Ga15  1  0.798948  0.798948  0.798948  1
  Ga  Ga16  1  0.201052  0.201052  0.201052  1
