# generated using pymatgen
data_Y6Ni7B4Ir7
_symmetry_space_group_name_H-M   'P 1'
_cell_length_a   5.23142918
_cell_length_b   5.23142906
_cell_length_c   14.78389724
_cell_angle_alpha   89.14963313
_cell_angle_beta   90.85036833
_cell_angle_gamma   118.21479227
_symmetry_Int_Tables_number   1
_chemical_formula_structural   Y6Ni7B4Ir7
_chemical_formula_sum   'Y6 Ni7 B4 Ir7'
_cell_volume   356.47575588
_cell_formula_units_Z   1
loop_
 _symmetry_equiv_pos_site_id
 _symmetry_equiv_pos_as_xyz
  1  'x, y, z'
loop_
 _atom_site_type_symbol
 _atom_site_label
 _atom_site_symmetry_multiplicity
 _atom_site_fract_x
 _atom_site_fract_y
 _atom_site_fract_z
 _atom_site_occupancy
  Y  Y0  1  0.332024  0.667976  0.465446  1
  Y  Y1  1  0.666245  0.333755  0.968447  1
  Y  Y2  1  0.667775  0.332225  0.536472  1
  Y  Y3  1  0.328810  0.671190  0.031206  1
  Y  Y4  1  0.667819  0.332181  0.753332  1
  Y  Y5  1  0.331631  0.668369  0.247300  1
  Ni  Ni6  1  0.833862  0.674211  0.148857  1
  Ni  Ni7  1  0.325789  0.166138  0.148857  1
  Ni  Ni8  1  0.676169  0.833666  0.849670  1
  Ni  Ni9  1  0.166334  0.323831  0.849670  1
  Ni  Ni10  1  0.165077  0.834923  0.655896  1
  Ni  Ni11  1  0.168458  0.831542  0.848710  1
  Ni  Ni12  1  0.834571  0.165429  0.346413  1
  B  B13  1  0.664937  0.335063  0.245465  1
  B  B14  1  0.332974  0.667026  0.755774  1
  B  B15  1  0.001735  0.998265  0.755102  1
  B  B16  1  0.001111  0.998889  0.246115  1
  Ir  Ir17  1  0.833388  0.668887  0.347838  1
  Ir  Ir18  1  0.331113  0.166612  0.347838  1
  Ir  Ir19  1  0.004234  0.995766  0.996288  1
  Ir  Ir20  1  0.999904  0.000096  0.500866  1
  Ir  Ir21  1  0.831302  0.168698  0.145359  1
  Ir  Ir22  1  0.669017  0.834281  0.654538  1
  Ir  Ir23  1  0.165719  0.330983  0.654538  1
