# generated using pymatgen
data_AcPr(BIr)8
_symmetry_space_group_name_H-M   'P 1'
_cell_length_a   3.99202100
_cell_length_b   7.78544400
_cell_length_c   7.78544400
_cell_angle_alpha   90.00000000
_cell_angle_beta   90.00000000
_cell_angle_gamma   90.00000000
_symmetry_Int_Tables_number   1
_chemical_formula_structural   AcPr(BIr)8
_chemical_formula_sum   'Ac1 Pr1 B8 Ir8'
_cell_volume   241.96892088
_cell_formula_units_Z   1
loop_
 _symmetry_equiv_pos_site_id
 _symmetry_equiv_pos_as_xyz
  1  'x, y, z'
loop_
 _atom_site_type_symbol
 _atom_site_label
 _atom_site_symmetry_multiplicity
 _atom_site_fract_x
 _atom_site_fract_y
 _atom_site_fract_z
 _atom_site_occupancy
  Ac  Ac0  1  0.250000  0.250000  0.250000  1
  Pr  Pr1  1  0.750000  0.750000  0.750000  1
  B  B2  1  0.357765  0.907238  0.027353  1
  B  B3  1  0.357765  0.592762  0.472647  1
  B  B4  1  0.853948  0.532619  0.090194  1
  B  B5  1  0.853948  0.967381  0.409806  1
  B  B6  1  0.646052  0.090194  0.967381  1
  B  B7  1  0.646052  0.409806  0.532619  1
  B  B8  1  0.142235  0.472647  0.907238  1
  B  B9  1  0.142235  0.027353  0.592762  1
  Ir  Ir10  1  0.143828  0.411686  0.641511  1
  Ir  Ir11  1  0.143828  0.088314  0.858489  1
  Ir  Ir12  1  0.644040  0.140237  0.593781  1
  Ir  Ir13  1  0.644040  0.359763  0.906219  1
  Ir  Ir14  1  0.855960  0.593781  0.359763  1
  Ir  Ir15  1  0.855960  0.906219  0.140237  1
  Ir  Ir16  1  0.356172  0.858489  0.411686  1
  Ir  Ir17  1  0.356172  0.641511  0.088314  1
