# generated using pymatgen
data_Sr4TbHo(MoO6)2
_symmetry_space_group_name_H-M   'P 1'
_cell_length_a   5.83921411
_cell_length_b   8.35582968
_cell_length_c   5.91176083
_cell_angle_alpha   89.94611290
_cell_angle_beta   90.02924955
_cell_angle_gamma   90.67380445
_symmetry_Int_Tables_number   1
_chemical_formula_structural   Sr4TbHo(MoO6)2
_chemical_formula_sum   'Sr4 Tb1 Ho1 Mo2 O12'
_cell_volume   288.42344249
_cell_formula_units_Z   1
loop_
 _symmetry_equiv_pos_site_id
 _symmetry_equiv_pos_as_xyz
  1  'x, y, z'
loop_
 _atom_site_type_symbol
 _atom_site_label
 _atom_site_symmetry_multiplicity
 _atom_site_fract_x
 _atom_site_fract_y
 _atom_site_fract_z
 _atom_site_occupancy
  Sr  Sr0  1  0.493959  0.250879  0.537063  1
  Sr  Sr1  1  0.005976  0.247011  0.036656  1
  Sr  Sr2  1  0.994023  0.752987  0.963347  1
  Sr  Sr3  1  0.506044  0.749122  0.462924  1
  Tb  Tb4  1  0.999998  0.499998  0.500008  1
  Ho  Ho5  1  0.500017  0.000008  0.000001  1
  Mo  Mo6  1  0.000003  0.999997  0.499997  1
  Mo  Mo7  1  0.499998  0.500004  0.000002  1
  O  O8  1  0.768914  0.537545  0.191561  1
  O  O9  1  0.231076  0.462455  0.808452  1
  O  O10  1  0.269192  0.036722  0.305974  1
  O  O11  1  0.730809  0.963273  0.694017  1
  O  O12  1  0.579071  0.262163  0.978679  1
  O  O13  1  0.919878  0.235773  0.478645  1
  O  O14  1  0.080117  0.764221  0.521354  1
  O  O15  1  0.420935  0.737844  0.021322  1
  O  O16  1  0.303454  0.455015  0.278158  1
  O  O17  1  0.800971  0.955596  0.221821  1
  O  O18  1  0.199018  0.044401  0.778169  1
  O  O19  1  0.696547  0.544988  0.721848  1
