# generated using pymatgen
data_La7Tb9Cd4Co3Pd
_symmetry_space_group_name_H-M   'P 1'
_cell_length_a   9.72831016
_cell_length_b   9.82123982
_cell_length_c   9.73988300
_cell_angle_alpha   60.27364505
_cell_angle_beta   59.96063700
_cell_angle_gamma   60.18428763
_symmetry_Int_Tables_number   1
_chemical_formula_structural   La7Tb9Cd4Co3Pd
_chemical_formula_sum   'La7 Tb9 Cd4 Co3 Pd1'
_cell_volume   660.09443142
_cell_formula_units_Z   1
loop_
 _symmetry_equiv_pos_site_id
 _symmetry_equiv_pos_as_xyz
  1  'x, y, z'
loop_
 _atom_site_type_symbol
 _atom_site_label
 _atom_site_symmetry_multiplicity
 _atom_site_fract_x
 _atom_site_fract_y
 _atom_site_fract_z
 _atom_site_occupancy
  La  La0  1  0.307319  0.317445  0.687617  1
  La  La1  1  0.667205  0.316343  0.706443  1
  La  La2  1  0.939097  0.566241  0.555488  1
  La  La3  1  0.561586  0.562749  0.937832  1
  La  La4  1  0.169000  0.534333  0.148334  1
  La  La5  1  0.667205  0.316343  0.310010  1
  La  La6  1  0.939097  0.566241  0.939174  1
  Tb  Tb7  1  0.936342  0.944837  0.559411  1
  Tb  Tb8  1  0.562668  0.939520  0.562149  1
  Tb  Tb9  1  0.562668  0.939520  0.935663  1
  Tb  Tb10  1  0.673710  0.705658  0.310316  1
  Tb  Tb11  1  0.165285  0.140021  0.542010  1
  Tb  Tb12  1  0.308766  0.703142  0.678937  1
  Tb  Tb13  1  0.165285  0.140021  0.152684  1
  Tb  Tb14  1  0.539591  0.138318  0.161046  1
  Tb  Tb15  1  0.308766  0.703142  0.309154  1
  Cd  Cd16  1  0.245521  0.921793  0.916342  1
  Cd  Cd17  1  0.919778  0.922045  0.917213  1
  Cd  Cd18  1  0.919778  0.922045  0.240963  1
  Cd  Cd19  1  0.923492  0.234777  0.920865  1
  Co  Co20  1  0.369965  0.344122  0.920860  1
  Co  Co21  1  0.354046  0.925450  0.360252  1
  Co  Co22  1  0.369965  0.344122  0.365053  1
  Pd  Pd23  1  0.923861  0.351770  0.362184  1
