# generated using pymatgen
data_Pr(S8I)3
_symmetry_space_group_name_H-M   'P 1'
_cell_length_a   15.41019165
_cell_length_b   15.41019136
_cell_length_c   15.41019173
_cell_angle_alpha   119.12447081
_cell_angle_beta   119.12446735
_cell_angle_gamma   119.12446630
_symmetry_Int_Tables_number   1
_chemical_formula_structural   Pr(S8I)3
_chemical_formula_sum   'Pr1 S24 I3'
_cell_volume   887.05847298
_cell_formula_units_Z   1
loop_
 _symmetry_equiv_pos_site_id
 _symmetry_equiv_pos_as_xyz
  1  'x, y, z'
loop_
 _atom_site_type_symbol
 _atom_site_label
 _atom_site_symmetry_multiplicity
 _atom_site_fract_x
 _atom_site_fract_y
 _atom_site_fract_z
 _atom_site_occupancy
  Pr  Pr0  1  0.458358  0.458358  0.458358  1
  S  S1  1  0.999001  0.589738  0.589738  1
  S  S2  1  0.589738  0.589738  0.999001  1
  S  S3  1  0.589738  0.999001  0.589738  1
  S  S4  1  0.248113  0.854481  0.728167  1
  S  S5  1  0.854481  0.728167  0.248113  1
  S  S6  1  0.728167  0.248113  0.854481  1
  S  S7  1  0.854481  0.248113  0.728167  1
  S  S8  1  0.248113  0.728167  0.854481  1
  S  S9  1  0.728167  0.854481  0.248113  1
  S  S10  1  0.086408  0.611157  0.432126  1
  S  S11  1  0.611157  0.432126  0.086408  1
  S  S12  1  0.432126  0.086408  0.611157  1
  S  S13  1  0.611157  0.086408  0.432126  1
  S  S14  1  0.086408  0.432126  0.611157  1
  S  S15  1  0.432126  0.611157  0.086408  1
  S  S16  1  0.372878  0.760304  0.632687  1
  S  S17  1  0.760304  0.632687  0.372878  1
  S  S18  1  0.632687  0.372878  0.760304  1
  S  S19  1  0.760304  0.372878  0.632687  1
  S  S20  1  0.372878  0.632687  0.760304  1
  S  S21  1  0.632687  0.760304  0.372878  1
  S  S22  1  0.176978  0.456663  0.456663  1
  S  S23  1  0.456663  0.456663  0.176978  1
  S  S24  1  0.456663  0.176978  0.456663  1
  I  I25  1  0.058511  0.904404  0.904404  1
  I  I26  1  0.904404  0.904404  0.058511  1
  I  I27  1  0.904404  0.058511  0.904404  1
