# generated using pymatgen
data_TbEr15In4(IrRu)2
_symmetry_space_group_name_H-M   'P 1'
_cell_length_a   9.60195963
_cell_length_b   9.62236718
_cell_length_c   9.61317680
_cell_angle_alpha   59.79794358
_cell_angle_beta   59.69863900
_cell_angle_gamma   59.74766784
_symmetry_Int_Tables_number   1
_chemical_formula_structural   TbEr15In4(IrRu)2
_chemical_formula_sum   'Tb1 Er15 In4 Ir2 Ru2'
_cell_volume   624.45555655
_cell_formula_units_Z   1
loop_
 _symmetry_equiv_pos_site_id
 _symmetry_equiv_pos_as_xyz
  1  'x, y, z'
loop_
 _atom_site_type_symbol
 _atom_site_label
 _atom_site_symmetry_multiplicity
 _atom_site_fract_x
 _atom_site_fract_y
 _atom_site_fract_z
 _atom_site_occupancy
  Tb  Tb0  1  0.059110  0.059850  0.441421  1
  Er  Er1  1  0.650775  0.043710  0.651830  1
  Er  Er2  1  0.193578  0.808738  0.191079  1
  Er  Er3  1  0.439902  0.060247  0.441552  1
  Er  Er4  1  0.193290  0.190868  0.809173  1
  Er  Er5  1  0.649948  0.651909  0.651326  1
  Er  Er6  1  0.045920  0.651149  0.651771  1
  Er  Er7  1  0.442402  0.058250  0.057329  1
  Er  Er8  1  0.651438  0.651943  0.043779  1
  Er  Er9  1  0.192465  0.808516  0.809456  1
  Er  Er10  1  0.807413  0.191778  0.808529  1
  Er  Er11  1  0.807643  0.192566  0.192466  1
  Er  Er12  1  0.808120  0.808284  0.191481  1
  Er  Er13  1  0.060459  0.441097  0.439538  1
  Er  Er14  1  0.438974  0.441979  0.060076  1
  Er  Er15  1  0.058646  0.442351  0.058451  1
  In  In16  1  0.747149  0.418158  0.417234  1
  In  In17  1  0.415948  0.416412  0.750521  1
  In  In18  1  0.417710  0.749237  0.416361  1
  In  In19  1  0.418315  0.416163  0.417505  1
  Ir  Ir20  1  0.859341  0.857864  0.420709  1
  Ir  Ir21  1  0.859611  0.420627  0.858589  1
  Ru  Ru22  1  0.861862  0.859993  0.860839  1
  Ru  Ru23  1  0.419983  0.858312  0.858986  1
