# generated using pymatgen
data_CeDy(Al2Fe)2
_symmetry_space_group_name_H-M   'P 1'
_cell_length_a   5.16698687
_cell_length_b   5.16698792
_cell_length_c   7.17673900
_cell_angle_alpha   90.00000000
_cell_angle_beta   90.00000000
_cell_angle_gamma   132.08804545
_symmetry_Int_Tables_number   1
_chemical_formula_structural   CeDy(Al2Fe)2
_chemical_formula_sum   'Ce1 Dy1 Al4 Fe2'
_cell_volume   142.19148155
_cell_formula_units_Z   1
loop_
 _symmetry_equiv_pos_site_id
 _symmetry_equiv_pos_as_xyz
  1  'x, y, z'
loop_
 _atom_site_type_symbol
 _atom_site_label
 _atom_site_symmetry_multiplicity
 _atom_site_fract_x
 _atom_site_fract_y
 _atom_site_fract_z
 _atom_site_occupancy
  Ce  Ce0  1  0.045303  0.954697  0.750000  1
  Dy  Dy1  1  0.937747  0.062253  0.250000  1
  Al  Al2  1  0.655822  0.344178  0.056239  1
  Al  Al3  1  0.655822  0.344178  0.443761  1
  Al  Al4  1  0.338678  0.661322  0.549265  1
  Al  Al5  1  0.338678  0.661322  0.950735  1
  Fe  Fe6  1  0.209486  0.790513  0.250000  1
  Fe  Fe7  1  0.818461  0.181538  0.750000  1
