# generated using pymatgen
data_CaPa5F24
_symmetry_space_group_name_H-M   'P 1'
_cell_length_a   8.39852873
_cell_length_b   8.48162510
_cell_length_c   8.39712828
_cell_angle_alpha   63.25644070
_cell_angle_beta   63.45488009
_cell_angle_gamma   80.18737743
_symmetry_Int_Tables_number   1
_chemical_formula_structural   CaPa5F24
_chemical_formula_sum   'Ca1 Pa5 F24'
_cell_volume   477.50610954
_cell_formula_units_Z   1
loop_
 _symmetry_equiv_pos_site_id
 _symmetry_equiv_pos_as_xyz
  1  'x, y, z'
loop_
 _atom_site_type_symbol
 _atom_site_label
 _atom_site_symmetry_multiplicity
 _atom_site_fract_x
 _atom_site_fract_y
 _atom_site_fract_z
 _atom_site_occupancy
  Ca  Ca0  1  0.776163  0.635990  0.167942  1
  Pa  Pa1  1  0.639784  0.766852  0.665863  1
  Pa  Pa2  1  0.376261  0.224553  0.330054  1
  Pa  Pa3  1  0.214826  0.370898  0.836241  1
  Pa  Pa4  1  0.788221  0.208420  0.739753  1
  Pa  Pa5  1  0.218168  0.787418  0.242165  1
  F  F6  1  0.317942  0.258311  0.610456  1
  F  F7  1  0.679065  0.745983  0.403631  1
  F  F8  1  0.731639  0.683191  0.889806  1
  F  F9  1  0.269207  0.325919  0.102775  1
  F  F10  1  0.819050  0.950511  0.940974  1
  F  F11  1  0.170801  0.071949  0.047945  1
  F  F12  1  0.071273  0.169539  0.543303  1
  F  F13  1  0.941433  0.822123  0.460896  1
  F  F14  1  0.402286  0.595786  0.754618  1
  F  F15  1  0.589126  0.392973  0.249969  1
  F  F16  1  0.496207  0.998218  0.506592  1
  F  F17  1  0.002273  0.491152  0.000463  1
  F  F18  1  0.498970  0.248923  0.795820  1
  F  F19  1  0.487558  0.750195  0.209729  1
  F  F20  1  0.745580  0.492042  0.715530  1
  F  F21  1  0.249480  0.499667  0.298084  1
  F  F22  1  0.398696  0.812354  0.922252  1
  F  F23  1  0.601455  0.189044  0.072554  1
  F  F24  1  0.191873  0.602420  0.572133  1
  F  F25  1  0.810786  0.387498  0.445973  1
  F  F26  1  0.724980  0.026826  0.639391  1
  F  F27  1  0.277736  0.979923  0.340935  1
  F  F28  1  0.975184  0.277381  0.837952  1
  F  F29  1  0.033976  0.733943  0.156199  1
