# generated using pymatgen
data_YTcH5
_symmetry_space_group_name_H-M   'P 1'
_cell_length_a   4.61453200
_cell_length_b   4.40116600
_cell_length_c   11.60818000
_cell_angle_alpha   90.00000000
_cell_angle_beta   90.00000000
_cell_angle_gamma   90.00000000
_symmetry_Int_Tables_number   1
_chemical_formula_structural   YTcH5
_chemical_formula_sum   'Y4 Tc4 H20'
_cell_volume   235.75425784
_cell_formula_units_Z   4
loop_
 _symmetry_equiv_pos_site_id
 _symmetry_equiv_pos_as_xyz
  1  'x, y, z'
loop_
 _atom_site_type_symbol
 _atom_site_label
 _atom_site_symmetry_multiplicity
 _atom_site_fract_x
 _atom_site_fract_y
 _atom_site_fract_z
 _atom_site_occupancy
  Y  Y0  1  0.249814  0.246667  0.645959  1
  Y  Y1  1  0.749814  0.253333  0.354041  1
  Y  Y2  1  0.250186  0.753333  0.145959  1
  Y  Y3  1  0.750186  0.746667  0.854041  1
  Tc  Tc4  1  0.249561  0.210713  0.913778  1
  Tc  Tc5  1  0.749561  0.289287  0.086222  1
  Tc  Tc6  1  0.250439  0.789287  0.413778  1
  Tc  Tc7  1  0.750439  0.710713  0.586222  1
  H  H8  1  0.484642  0.509753  0.498048  1
  H  H9  1  0.984642  0.990247  0.501952  1
  H  H10  1  0.015358  0.490247  0.998048  1
  H  H11  1  0.515358  0.009753  0.001952  1
  H  H12  1  0.250270  0.888943  0.833679  1
  H  H13  1  0.750270  0.611057  0.166321  1
  H  H14  1  0.249730  0.111057  0.333679  1
  H  H15  1  0.749730  0.388943  0.666321  1
  H  H16  1  0.983504  0.285814  0.814410  1
  H  H17  1  0.483504  0.214186  0.185590  1
  H  H18  1  0.516496  0.714186  0.314410  1
  H  H19  1  0.016496  0.785814  0.685590  1
  H  H20  1  0.514683  0.287847  0.814253  1
  H  H21  1  0.014683  0.212153  0.185747  1
  H  H22  1  0.985317  0.712153  0.314253  1
  H  H23  1  0.485317  0.787847  0.685747  1
  H  H24  1  0.984179  0.009598  0.002115  1
  H  H25  1  0.484179  0.490402  0.997885  1
  H  H26  1  0.515821  0.990402  0.502115  1
  H  H27  1  0.015821  0.509598  0.497885  1
