# generated using pymatgen
data_Tb(FeSb3)4
_symmetry_space_group_name_H-M   'P 1'
_cell_length_a   7.94105762
_cell_length_b   7.94105701
_cell_length_c   7.94105700
_cell_angle_alpha   109.47122061
_cell_angle_beta   109.47121905
_cell_angle_gamma   109.47122018
_symmetry_Int_Tables_number   1
_chemical_formula_structural   Tb(FeSb3)4
_chemical_formula_sum   'Tb1 Fe4 Sb12'
_cell_volume   385.48998094
_cell_formula_units_Z   1
loop_
 _symmetry_equiv_pos_site_id
 _symmetry_equiv_pos_as_xyz
  1  'x, y, z'
loop_
 _atom_site_type_symbol
 _atom_site_label
 _atom_site_symmetry_multiplicity
 _atom_site_fract_x
 _atom_site_fract_y
 _atom_site_fract_z
 _atom_site_occupancy
  Tb  Tb0  1  0.000000  0.000000  0.000000  1
  Fe  Fe1  1  0.500000  0.000000  0.000000  1
  Fe  Fe2  1  0.000000  0.000000  0.500000  1
  Fe  Fe3  1  0.000000  0.500000  0.000000  1
  Fe  Fe4  1  0.500000  0.500000  0.500000  1
  Sb  Sb5  1  0.162284  0.829183  0.666900  1
  Sb  Sb6  1  0.837716  0.170817  0.333100  1
  Sb  Sb7  1  0.162284  0.495384  0.333100  1
  Sb  Sb8  1  0.837716  0.504616  0.666900  1
  Sb  Sb9  1  0.666900  0.162284  0.829183  1
  Sb  Sb10  1  0.333100  0.837716  0.170817  1
  Sb  Sb11  1  0.333100  0.162284  0.495384  1
  Sb  Sb12  1  0.666900  0.837716  0.504616  1
  Sb  Sb13  1  0.829183  0.666900  0.162284  1
  Sb  Sb14  1  0.170817  0.333100  0.837716  1
  Sb  Sb15  1  0.495384  0.333100  0.162284  1
  Sb  Sb16  1  0.504616  0.666900  0.837716  1
