# generated using pymatgen
data_K2Rb4ErLuF12
_symmetry_space_group_name_H-M   'P 1'
_cell_length_a   6.72436321
_cell_length_b   6.53356797
_cell_length_c   11.33654813
_cell_angle_alpha   55.15118190
_cell_angle_beta   90.02879551
_cell_angle_gamma   90.01541563
_symmetry_Int_Tables_number   1
_chemical_formula_structural   K2Rb4ErLuF12
_chemical_formula_sum   'K2 Rb4 Er1 Lu1 F12'
_cell_volume   408.73988906
_cell_formula_units_Z   1
loop_
 _symmetry_equiv_pos_site_id
 _symmetry_equiv_pos_as_xyz
  1  'x, y, z'
loop_
 _atom_site_type_symbol
 _atom_site_label
 _atom_site_symmetry_multiplicity
 _atom_site_fract_x
 _atom_site_fract_y
 _atom_site_fract_z
 _atom_site_occupancy
  K  K0  1  0.500000  0.500000  0.000000  1
  K  K1  1  0.000000  0.500000  0.500000  1
  Rb  Rb2  1  0.043835  0.735816  0.752404  1
  Rb  Rb3  1  0.956165  0.264184  0.247596  1
  Rb  Rb4  1  0.544051  0.263511  0.748227  1
  Rb  Rb5  1  0.455949  0.736489  0.251773  1
  Er  Er6  1  0.500000  0.000000  0.500000  1
  Lu  Lu7  1  0.000000  0.000000  0.000000  1
  F  F8  1  0.762562  0.767806  0.553469  1
  F  F9  1  0.237438  0.232194  0.446531  1
  F  F10  1  0.258271  0.228441  0.947424  1
  F  F11  1  0.741729  0.771559  0.052576  1
  F  F12  1  0.462751  0.863451  0.723894  1
  F  F13  1  0.537249  0.136549  0.276106  1
  F  F14  1  0.963389  0.134247  0.779767  1
  F  F15  1  0.036611  0.865753  0.220233  1
  F  F16  1  0.316924  0.693840  0.538322  1
  F  F17  1  0.683076  0.306160  0.461678  1
  F  F18  1  0.819606  0.301228  0.962316  1
  F  F19  1  0.180394  0.698772  0.037684  1
