# generated using pymatgen
data_Dy9YOs4
_symmetry_space_group_name_H-M   'P 1'
_cell_length_a   6.36260929
_cell_length_b   7.37927978
_cell_length_c   8.44934604
_cell_angle_alpha   96.87592155
_cell_angle_beta   112.24797005
_cell_angle_gamma   90.07738160
_symmetry_Int_Tables_number   1
_chemical_formula_structural   Dy9YOs4
_chemical_formula_sum   'Dy9 Y1 Os4'
_cell_volume   364.06434184
_cell_formula_units_Z   1
loop_
 _symmetry_equiv_pos_site_id
 _symmetry_equiv_pos_as_xyz
  1  'x, y, z'
loop_
 _atom_site_type_symbol
 _atom_site_label
 _atom_site_symmetry_multiplicity
 _atom_site_fract_x
 _atom_site_fract_y
 _atom_site_fract_z
 _atom_site_occupancy
  Dy  Dy0  1  0.976292  0.916147  0.183175  1
  Dy  Dy1  1  0.207240  0.416381  0.184149  1
  Dy  Dy2  1  0.024010  0.084002  0.817117  1
  Dy  Dy3  1  0.203487  0.683452  0.564675  1
  Dy  Dy4  1  0.639552  0.817461  0.435766  1
  Dy  Dy5  1  0.796506  0.316340  0.435121  1
  Dy  Dy6  1  0.359914  0.182727  0.563719  1
  Dy  Dy7  1  0.421032  0.749723  0.999838  1
  Dy  Dy8  1  0.579255  0.250359  0.000771  1
  Y  Y9  1  0.791859  0.582765  0.815849  1
  Os  Os10  1  0.602118  0.923677  0.780405  1
  Os  Os11  1  0.822452  0.578174  0.219878  1
  Os  Os12  1  0.396466  0.077352  0.219236  1
  Os  Os13  1  0.179815  0.421437  0.780297  1
