# generated using pymatgen
data_Y7Er2Th3Ru4
_symmetry_space_group_name_H-M   'P 1'
_cell_length_a   6.37537898
_cell_length_b   7.24051860
_cell_length_c   9.54753902
_cell_angle_alpha   89.95486533
_cell_angle_beta   90.07870306
_cell_angle_gamma   89.63324364
_symmetry_Int_Tables_number   1
_chemical_formula_structural   Y7Er2Th3Ru4
_chemical_formula_sum   'Y7 Er2 Th3 Ru4'
_cell_volume   440.71484195
_cell_formula_units_Z   1
loop_
 _symmetry_equiv_pos_site_id
 _symmetry_equiv_pos_as_xyz
  1  'x, y, z'
loop_
 _atom_site_type_symbol
 _atom_site_label
 _atom_site_symmetry_multiplicity
 _atom_site_fract_x
 _atom_site_fract_y
 _atom_site_fract_z
 _atom_site_occupancy
  Y  Y0  1  0.832856  0.824076  0.936482  1
  Y  Y1  1  0.666863  0.324832  0.935620  1
  Y  Y2  1  0.832503  0.823735  0.563672  1
  Y  Y3  1  0.327960  0.675491  0.069121  1
  Y  Y4  1  0.170197  0.175626  0.432317  1
  Y  Y5  1  0.328157  0.675274  0.430878  1
  Y  Y6  1  0.666881  0.325043  0.564730  1
  Er  Er7  1  0.859672  0.538345  0.249779  1
  Er  Er8  1  0.170258  0.175116  0.068447  1
  Th  Th9  1  0.654090  0.049589  0.249400  1
  Th  Th10  1  0.346674  0.950756  0.750652  1
  Th  Th11  1  0.150028  0.452694  0.750583  1
  Ru  Ru12  1  0.466577  0.366498  0.248824  1
  Ru  Ru13  1  0.527323  0.628754  0.750014  1
  Ru  Ru14  1  0.973259  0.130965  0.750751  1
  Ru  Ru15  1  0.026703  0.883204  0.248731  1
