# generated using pymatgen
data_Ho4Be4Si3Ge
_symmetry_space_group_name_H-M   'P 1'
_cell_length_a   3.87036000
_cell_length_b   3.87035906
_cell_length_c   16.09650400
_cell_angle_alpha   90.00000000
_cell_angle_beta   90.00000000
_cell_angle_gamma   120.00000801
_symmetry_Int_Tables_number   1
_chemical_formula_structural   Ho4Be4Si3Ge
_chemical_formula_sum   'Ho4 Be4 Si3 Ge1'
_cell_volume   208.81648385
_cell_formula_units_Z   1
loop_
 _symmetry_equiv_pos_site_id
 _symmetry_equiv_pos_as_xyz
  1  'x, y, z'
loop_
 _atom_site_type_symbol
 _atom_site_label
 _atom_site_symmetry_multiplicity
 _atom_site_fract_x
 _atom_site_fract_y
 _atom_site_fract_z
 _atom_site_occupancy
  Ho  Ho0  1  0.000000  0.000000  0.250582  1
  Ho  Ho1  1  0.000000  0.000000  0.748090  1
  Ho  Ho2  1  0.000000  0.000000  0.001995  1
  Ho  Ho3  1  0.000000  0.000000  0.499486  1
  Be  Be4  1  0.333333  0.666667  0.129519  1
  Be  Be5  1  0.666667  0.333333  0.870141  1
  Be  Be6  1  0.666667  0.333333  0.627879  1
  Be  Be7  1  0.333333  0.666667  0.371535  1
  Si  Si8  1  0.333333  0.666667  0.623783  1
  Si  Si9  1  0.666667  0.333333  0.375480  1
  Si  Si10  1  0.666667  0.333333  0.125265  1
  Ge  Ge11  1  0.333333  0.666667  0.876246  1
