# generated using pymatgen
data_Tb2MnSi2RuC
_symmetry_space_group_name_H-M   'P 1'
_cell_length_a   5.79929695
_cell_length_b   5.79929759
_cell_length_c   6.88310861
_cell_angle_alpha   126.82982522
_cell_angle_beta   126.82983247
_cell_angle_gamma   40.44148531
_symmetry_Int_Tables_number   1
_chemical_formula_structural   Tb2MnSi2RuC
_chemical_formula_sum   'Tb2 Mn1 Si2 Ru1 C1'
_cell_volume   115.52908047
_cell_formula_units_Z   1
loop_
 _symmetry_equiv_pos_site_id
 _symmetry_equiv_pos_as_xyz
  1  'x, y, z'
loop_
 _atom_site_type_symbol
 _atom_site_label
 _atom_site_symmetry_multiplicity
 _atom_site_fract_x
 _atom_site_fract_y
 _atom_site_fract_z
 _atom_site_occupancy
  Tb  Tb0  1  0.563048  0.563048  0.294703  1
  Tb  Tb1  1  0.437494  0.437494  0.704529  1
  Mn  Mn2  1  0.796293  0.796293  0.902198  1
  Si  Si3  1  0.848357  0.848357  0.292476  1
  Si  Si4  1  0.160509  0.160509  0.711155  1
  Ru  Ru5  1  0.203915  0.203915  0.100021  1
  C  C6  1  0.990385  0.990385  0.994915  1
