# generated using pymatgen
data_ZrSc3(Tc2W)4
_symmetry_space_group_name_H-M   'P 1'
_cell_length_a   6.34509600
_cell_length_b   4.51158900
_cell_length_c   8.97794800
_cell_angle_alpha   90.00002546
_cell_angle_beta   90.00064947
_cell_angle_gamma   89.99996924
_symmetry_Int_Tables_number   1
_chemical_formula_structural   ZrSc3(Tc2W)4
_chemical_formula_sum   'Zr1 Sc3 Tc8 W4'
_cell_volume   257.00691704
_cell_formula_units_Z   1
loop_
 _symmetry_equiv_pos_site_id
 _symmetry_equiv_pos_as_xyz
  1  'x, y, z'
loop_
 _atom_site_type_symbol
 _atom_site_label
 _atom_site_symmetry_multiplicity
 _atom_site_fract_x
 _atom_site_fract_y
 _atom_site_fract_z
 _atom_site_occupancy
  Zr  Zr0  1  0.250120  0.250001  0.124984  1
  Sc  Sc1  1  0.750123  0.749999  0.375595  1
  Sc  Sc2  1  0.249852  0.250001  0.624995  1
  Sc  Sc3  1  0.749883  0.749999  0.874406  1
  Tc  Tc4  1  0.999483  0.749999  0.124971  1
  Tc  Tc5  1  0.500694  0.749999  0.125012  1
  Tc  Tc6  1  0.999140  0.250001  0.375012  1
  Tc  Tc7  1  0.501039  0.250001  0.375067  1
  Tc  Tc8  1  0.499605  0.749999  0.624963  1
  Tc  Tc9  1  0.000229  0.749999  0.625013  1
  Tc  Tc10  1  0.500865  0.250001  0.874957  1
  Tc  Tc11  1  0.998961  0.250001  0.875000  1
  W  W12  1  0.750118  0.250001  0.125031  1
  W  W13  1  0.250115  0.749999  0.378942  1
  W  W14  1  0.749893  0.250001  0.625031  1
  W  W15  1  0.249882  0.749999  0.871020  1
