# generated using pymatgen
data_KV2(As2O7)2
_symmetry_space_group_name_H-M   'P 1'
_cell_length_a   5.06125574
_cell_length_b   7.59498885
_cell_length_c   8.12508757
_cell_angle_alpha   91.09088071
_cell_angle_beta   92.55139391
_cell_angle_gamma   104.89255904
_symmetry_Int_Tables_number   1
_chemical_formula_structural   KV2(As2O7)2
_chemical_formula_sum   'K1 V2 As4 O14'
_cell_volume   301.38899239
_cell_formula_units_Z   1
loop_
 _symmetry_equiv_pos_site_id
 _symmetry_equiv_pos_as_xyz
  1  'x, y, z'
loop_
 _atom_site_type_symbol
 _atom_site_label
 _atom_site_symmetry_multiplicity
 _atom_site_fract_x
 _atom_site_fract_y
 _atom_site_fract_z
 _atom_site_occupancy
  K  K0  1  0.000000  0.000000  0.000000  1
  V  V1  1  0.500000  0.499999  0.000000  1
  V  V2  1  0.000001  0.000000  0.500000  1
  As  As3  1  0.971275  0.377432  0.247856  1
  As  As4  1  0.386826  0.762631  0.308826  1
  As  As5  1  0.613174  0.237368  0.691174  1
  As  As6  1  0.028726  0.622568  0.752144  1
  O  O7  1  0.146252  0.359607  0.073355  1
  O  O8  1  0.460893  0.730877  0.105797  1
  O  O9  1  0.684365  0.450985  0.199523  1
  O  O10  1  0.182207  0.908992  0.307380  1
  O  O11  1  0.872789  0.173455  0.334540  1
  O  O12  1  0.192300  0.546280  0.379852  1
  O  O13  1  0.658462  0.806005  0.445125  1
  O  O14  1  0.341537  0.193995  0.554876  1
  O  O15  1  0.807700  0.453719  0.620148  1
  O  O16  1  0.127212  0.826545  0.665460  1
  O  O17  1  0.817793  0.091007  0.692620  1
  O  O18  1  0.315634  0.549015  0.800477  1
  O  O19  1  0.539107  0.269123  0.894203  1
  O  O20  1  0.853749  0.640393  0.926645  1
