# generated using pymatgen
data_HoTm4SiBi2
_symmetry_space_group_name_H-M   'P 1'
_cell_length_a   7.97734400
_cell_length_b   9.09001400
_cell_length_c   11.87046500
_cell_angle_alpha   90.00000000
_cell_angle_beta   90.00000000
_cell_angle_gamma   90.00000000
_symmetry_Int_Tables_number   1
_chemical_formula_structural   HoTm4SiBi2
_chemical_formula_sum   'Ho4 Tm16 Si4 Bi8'
_cell_volume   860.77690088
_cell_formula_units_Z   4
loop_
 _symmetry_equiv_pos_site_id
 _symmetry_equiv_pos_as_xyz
  1  'x, y, z'
loop_
 _atom_site_type_symbol
 _atom_site_label
 _atom_site_symmetry_multiplicity
 _atom_site_fract_x
 _atom_site_fract_y
 _atom_site_fract_z
 _atom_site_occupancy
  Ho  Ho0  1  0.331344  0.750000  0.286796  1
  Ho  Ho1  1  0.168656  0.750000  0.786796  1
  Ho  Ho2  1  0.668656  0.250000  0.713204  1
  Ho  Ho3  1  0.831344  0.250000  0.213204  1
  Tm  Tm4  1  0.678817  0.945082  0.438111  1
  Tm  Tm5  1  0.821183  0.554918  0.938111  1
  Tm  Tm6  1  0.321183  0.445082  0.561889  1
  Tm  Tm7  1  0.178817  0.054918  0.061889  1
  Tm  Tm8  1  0.321183  0.054918  0.561889  1
  Tm  Tm9  1  0.178817  0.445082  0.061889  1
  Tm  Tm10  1  0.678817  0.554918  0.438111  1
  Tm  Tm11  1  0.821183  0.945082  0.938111  1
  Tm  Tm12  1  0.038013  0.750000  0.497693  1
  Tm  Tm13  1  0.461987  0.750000  0.997693  1
  Tm  Tm14  1  0.961987  0.250000  0.502307  1
  Tm  Tm15  1  0.538013  0.250000  0.002307  1
  Tm  Tm16  1  0.862803  0.750000  0.205039  1
  Tm  Tm17  1  0.637197  0.750000  0.705039  1
  Tm  Tm18  1  0.137197  0.250000  0.794961  1
  Tm  Tm19  1  0.362803  0.250000  0.294961  1
  Si  Si20  1  0.090400  0.750000  0.022217  1
  Si  Si21  1  0.409600  0.750000  0.522217  1
  Si  Si22  1  0.909600  0.250000  0.977783  1
  Si  Si23  1  0.590400  0.250000  0.477783  1
  Bi  Bi24  1  0.566973  0.988444  0.174428  1
  Bi  Bi25  1  0.933027  0.511556  0.674429  1
  Bi  Bi26  1  0.433027  0.488444  0.825571  1
  Bi  Bi27  1  0.066973  0.011556  0.325572  1
  Bi  Bi28  1  0.433027  0.011556  0.825571  1
  Bi  Bi29  1  0.066973  0.488444  0.325572  1
  Bi  Bi30  1  0.566973  0.511556  0.174428  1
  Bi  Bi31  1  0.933027  0.988444  0.674429  1
