# generated using pymatgen
data_La6RuAu7
_symmetry_space_group_name_H-M   'P 1'
_cell_length_a   8.47360664
_cell_length_b   8.47360603
_cell_length_c   8.47360765
_cell_angle_alpha   114.45324417
_cell_angle_beta   114.45325936
_cell_angle_gamma   114.45323815
_symmetry_Int_Tables_number   1
_chemical_formula_structural   La6RuAu7
_chemical_formula_sum   'La6 Ru1 Au7'
_cell_volume   356.88484721
_cell_formula_units_Z   1
loop_
 _symmetry_equiv_pos_site_id
 _symmetry_equiv_pos_as_xyz
  1  'x, y, z'
loop_
 _atom_site_type_symbol
 _atom_site_label
 _atom_site_symmetry_multiplicity
 _atom_site_fract_x
 _atom_site_fract_y
 _atom_site_fract_z
 _atom_site_occupancy
  La  La0  1  0.012654  0.376401  0.260150  1
  La  La1  1  0.376401  0.260150  0.012654  1
  La  La2  1  0.739850  0.987346  0.623599  1
  La  La3  1  0.260150  0.012654  0.376401  1
  La  La4  1  0.623599  0.739850  0.987346  1
  La  La5  1  0.987346  0.623599  0.739850  1
  Ru  Ru6  1  0.000000  0.000000  0.000000  1
  Au  Au7  1  0.500000  0.500000  0.500000  1
  Au  Au8  1  0.425067  0.926296  0.762122  1
  Au  Au9  1  0.926296  0.762122  0.425067  1
  Au  Au10  1  0.237878  0.574933  0.073704  1
  Au  Au11  1  0.762122  0.425067  0.926296  1
  Au  Au12  1  0.073704  0.237878  0.574933  1
  Au  Au13  1  0.574933  0.073704  0.237878  1
