# generated using pymatgen
data_La2YSc3(SnPt)6
_symmetry_space_group_name_H-M   'P 1'
_cell_length_a   7.51337700
_cell_length_b   7.51337115
_cell_length_c   7.99590600
_cell_angle_alpha   90.00000000
_cell_angle_beta   90.00000000
_cell_angle_gamma   120.00129304
_symmetry_Int_Tables_number   1
_chemical_formula_structural   La2YSc3(SnPt)6
_chemical_formula_sum   'La2 Y1 Sc3 Sn6 Pt6'
_cell_volume   390.89730529
_cell_formula_units_Z   1
loop_
 _symmetry_equiv_pos_site_id
 _symmetry_equiv_pos_as_xyz
  1  'x, y, z'
loop_
 _atom_site_type_symbol
 _atom_site_label
 _atom_site_symmetry_multiplicity
 _atom_site_fract_x
 _atom_site_fract_y
 _atom_site_fract_z
 _atom_site_occupancy
  La  La0  1  0.409912  0.999408  0.750000  1
  La  La1  1  0.590058  0.589858  0.750000  1
  Y  Y2  1  0.999809  0.403512  0.750000  1
  Sc  Sc3  1  0.394435  0.001255  0.250000  1
  Sc  Sc4  1  0.607235  0.605048  0.250000  1
  Sc  Sc5  1  0.998041  0.394002  0.250000  1
  Sn  Sn6  1  0.260817  0.263680  0.014905  1
  Sn  Sn7  1  0.000999  0.736071  0.009419  1
  Sn  Sn8  1  0.000999  0.736071  0.490581  1
  Sn  Sn9  1  0.738329  0.000787  0.485125  1
  Sn  Sn10  1  0.260817  0.263680  0.485095  1
  Sn  Sn11  1  0.738329  0.000787  0.014875  1
  Pt  Pt12  1  0.000166  0.008235  0.750000  1
  Pt  Pt13  1  0.000071  0.997386  0.250000  1
  Pt  Pt14  1  0.668577  0.334304  0.041107  1
  Pt  Pt15  1  0.331414  0.665806  0.454539  1
  Pt  Pt16  1  0.331414  0.665806  0.045461  1
  Pt  Pt17  1  0.668577  0.334304  0.458893  1
