# generated using pymatgen
data_CeYHf2F14
_symmetry_space_group_name_H-M   'P 1'
_cell_length_a   5.75431290
_cell_length_b   9.23702272
_cell_length_c   12.32561600
_cell_angle_alpha   62.64339852
_cell_angle_beta   89.83487264
_cell_angle_gamma   90.16945978
_symmetry_Int_Tables_number   1
_chemical_formula_structural   CeYHf2F14
_chemical_formula_sum   'Ce2 Y2 Hf4 F28'
_cell_volume   581.86239548
_cell_formula_units_Z   2
loop_
 _symmetry_equiv_pos_site_id
 _symmetry_equiv_pos_as_xyz
  1  'x, y, z'
loop_
 _atom_site_type_symbol
 _atom_site_label
 _atom_site_symmetry_multiplicity
 _atom_site_fract_x
 _atom_site_fract_y
 _atom_site_fract_z
 _atom_site_occupancy
  Ce  Ce0  1  0.254163  0.816039  0.264052  1
  Ce  Ce1  1  0.745837  0.183961  0.735948  1
  Y  Y2  1  0.758062  0.187792  0.235134  1
  Y  Y3  1  0.241938  0.812208  0.764866  1
  Hf  Hf4  1  0.753590  0.719246  0.041021  1
  Hf  Hf5  1  0.246410  0.280754  0.958979  1
  Hf  Hf6  1  0.256966  0.270154  0.453593  1
  Hf  Hf7  1  0.743034  0.729846  0.546407  1
  F  F8  1  0.952322  0.710247  0.424066  1
  F  F9  1  0.047678  0.289753  0.575934  1
  F  F10  1  0.460217  0.291133  0.083178  1
  F  F11  1  0.539783  0.708867  0.916822  1
  F  F12  1  0.479408  0.728061  0.138334  1
  F  F13  1  0.520592  0.271939  0.861666  1
  F  F14  1  0.982486  0.265102  0.354147  1
  F  F15  1  0.017514  0.734898  0.645853  1
  F  F16  1  0.952378  0.741058  0.167535  1
  F  F17  1  0.047622  0.258942  0.832465  1
  F  F18  1  0.461884  0.248223  0.328331  1
  F  F19  1  0.538116  0.751777  0.671669  1
  F  F20  1  0.770105  0.475646  0.138486  1
  F  F21  1  0.229895  0.524354  0.861514  1
  F  F22  1  0.270894  0.513623  0.359237  1
  F  F23  1  0.729106  0.486377  0.640763  1
  F  F24  1  0.956194  0.281703  0.051512  1
  F  F25  1  0.043806  0.718297  0.948488  1
  F  F26  1  0.455833  0.720623  0.457121  1
  F  F27  1  0.544167  0.279377  0.542879  1
  F  F28  1  0.741046  0.972467  0.443326  1
  F  F29  1  0.258954  0.027533  0.556674  1
  F  F30  1  0.240156  0.037074  0.052750  1
  F  F31  1  0.759844  0.962926  0.947250  1
  F  F32  1  0.586163  0.978290  0.231567  1
  F  F33  1  0.413837  0.021710  0.768433  1
  F  F34  1  0.073627  0.035310  0.267026  1
  F  F35  1  0.926373  0.964690  0.732974  1
