# generated using pymatgen
data_Sr3Ac(CrN3)2
_symmetry_space_group_name_H-M   'P 1'
_cell_length_a   6.27769094
_cell_length_b   6.27769151
_cell_length_c   12.39380019
_cell_angle_alpha   90.55620283
_cell_angle_beta   89.44379751
_cell_angle_gamma   126.35830064
_symmetry_Int_Tables_number   1
_chemical_formula_structural   Sr3Ac(CrN3)2
_chemical_formula_sum   'Sr6 Ac2 Cr4 N12'
_cell_volume   393.32371390
_cell_formula_units_Z   2
loop_
 _symmetry_equiv_pos_site_id
 _symmetry_equiv_pos_as_xyz
  1  'x, y, z'
loop_
 _atom_site_type_symbol
 _atom_site_label
 _atom_site_symmetry_multiplicity
 _atom_site_fract_x
 _atom_site_fract_y
 _atom_site_fract_z
 _atom_site_occupancy
  Sr  Sr0  1  0.559123  0.440877  0.638734  1
  Sr  Sr1  1  0.440877  0.559123  0.361266  1
  Sr  Sr2  1  0.941682  0.058318  0.143727  1
  Sr  Sr3  1  0.058318  0.941682  0.856273  1
  Sr  Sr4  1  0.857676  0.142324  0.581057  1
  Sr  Sr5  1  0.142324  0.857676  0.418943  1
  Ac  Ac6  1  0.644514  0.355486  0.080425  1
  Ac  Ac7  1  0.355486  0.644514  0.919575  1
  Cr  Cr8  1  0.737372  0.262628  0.833891  1
  Cr  Cr9  1  0.262628  0.737372  0.166109  1
  Cr  Cr10  1  0.761341  0.238659  0.339573  1
  Cr  Cr11  1  0.238659  0.761341  0.660427  1
  N  N12  1  0.837732  0.162268  0.952021  1
  N  N13  1  0.162268  0.837732  0.047979  1
  N  N14  1  0.660525  0.339475  0.450228  1
  N  N15  1  0.339475  0.660525  0.549772  1
  N  N16  1  0.580522  0.419478  0.871707  1
  N  N17  1  0.419478  0.580522  0.128293  1
  N  N18  1  0.914378  0.085622  0.372079  1
  N  N19  1  0.085622  0.914378  0.627921  1
  N  N20  1  0.512189  0.980348  0.751303  1
  N  N21  1  0.980348  0.512189  0.248697  1
  N  N22  1  0.487811  0.019652  0.248697  1
  N  N23  1  0.019652  0.487811  0.751303  1
