# generated using pymatgen
data_Tb5Dy5(Ho5Bi6)2
_symmetry_space_group_name_H-M   'P 1'
_cell_length_a   8.27059875
_cell_length_b   9.50773708
_cell_length_c   12.08448255
_cell_angle_alpha   89.99328623
_cell_angle_beta   90.00710741
_cell_angle_gamma   90.00097111
_symmetry_Int_Tables_number   1
_chemical_formula_structural   Tb5Dy5(Ho5Bi6)2
_chemical_formula_sum   'Tb5 Dy5 Ho10 Bi12'
_cell_volume   950.25938443
_cell_formula_units_Z   1
loop_
 _symmetry_equiv_pos_site_id
 _symmetry_equiv_pos_as_xyz
  1  'x, y, z'
loop_
 _atom_site_type_symbol
 _atom_site_label
 _atom_site_symmetry_multiplicity
 _atom_site_fract_x
 _atom_site_fract_y
 _atom_site_fract_z
 _atom_site_occupancy
  Tb  Tb0  1  0.192892  0.563605  0.441220  1
  Tb  Tb1  1  0.312619  0.250013  0.218741  1
  Tb  Tb2  1  0.812697  0.249976  0.281207  1
  Tb  Tb3  1  0.687380  0.750115  0.781322  1
  Tb  Tb4  1  0.187359  0.750210  0.718871  1
  Dy  Dy5  1  0.353084  0.750387  0.215802  1
  Dy  Dy6  1  0.852696  0.750415  0.284041  1
  Dy  Dy7  1  0.647391  0.250026  0.784230  1
  Dy  Dy8  1  0.147368  0.250199  0.715819  1
  Dy  Dy9  1  0.693003  0.564188  0.058774  1
  Ho  Ho10  1  0.192979  0.935505  0.441095  1
  Ho  Ho11  1  0.306870  0.064493  0.941257  1
  Ho  Ho12  1  0.807283  0.435384  0.558711  1
  Ho  Ho13  1  0.307009  0.435379  0.941233  1
  Ho  Ho14  1  0.806690  0.064505  0.558882  1
  Ho  Ho15  1  0.693102  0.935722  0.058765  1
  Ho  Ho16  1  0.475159  0.250098  0.487895  1
  Ho  Ho17  1  0.975054  0.250149  0.011964  1
  Ho  Ho18  1  0.525378  0.750084  0.512145  1
  Ho  Ho19  1  0.025305  0.750009  0.987929  1
  Bi  Bi20  1  0.407091  0.750148  0.957554  1
  Bi  Bi21  1  0.906972  0.750375  0.542510  1
  Bi  Bi22  1  0.592538  0.249522  0.042259  1
  Bi  Bi23  1  0.092227  0.248748  0.457932  1
  Bi  Bi24  1  0.565243  0.995238  0.325688  1
  Bi  Bi25  1  0.065217  0.504988  0.174088  1
  Bi  Bi26  1  0.434668  0.495130  0.674426  1
  Bi  Bi27  1  0.934658  0.005103  0.825790  1
  Bi  Bi28  1  0.434715  0.005064  0.674263  1
  Bi  Bi29  1  0.934542  0.495113  0.825769  1
  Bi  Bi30  1  0.565554  0.504947  0.325645  1
  Bi  Bi31  1  0.065258  0.995160  0.174171  1
