# generated using pymatgen
data_Ho3Zn(Ga4Pd)2
_symmetry_space_group_name_H-M   'P 1'
_cell_length_a   8.12240352
_cell_length_b   8.12240359
_cell_length_c   8.12240324
_cell_angle_alpha   149.11124645
_cell_angle_beta   108.77519352
_cell_angle_gamma   79.62898608
_symmetry_Int_Tables_number   1
_chemical_formula_structural   Ho3Zn(Ga4Pd)2
_chemical_formula_sum   'Ho3 Zn1 Ga8 Pd2'
_cell_volume   255.30852002
_cell_formula_units_Z   1
loop_
 _symmetry_equiv_pos_site_id
 _symmetry_equiv_pos_as_xyz
  1  'x, y, z'
loop_
 _atom_site_type_symbol
 _atom_site_label
 _atom_site_symmetry_multiplicity
 _atom_site_fract_x
 _atom_site_fract_y
 _atom_site_fract_z
 _atom_site_occupancy
  Ho  Ho0  1  0.500000  0.500000  0.000000  1
  Ho  Ho1  1  0.200620  0.200620  0.000000  1
  Ho  Ho2  1  0.799380  0.799380  0.000000  1
  Zn  Zn3  1  0.000000  0.500000  0.500000  1
  Ga  Ga4  1  0.647236  0.363312  0.283924  1
  Ga  Ga5  1  0.352764  0.636688  0.716076  1
  Ga  Ga6  1  0.079388  0.363312  0.716076  1
  Ga  Ga7  1  0.920612  0.636688  0.283924  1
  Ga  Ga8  1  0.522052  0.155851  0.366201  1
  Ga  Ga9  1  0.477948  0.844149  0.633799  1
  Ga  Ga10  1  0.789650  0.155851  0.633799  1
  Ga  Ga11  1  0.210350  0.844149  0.366201  1
  Pd  Pd12  1  0.182742  0.000000  0.182742  1
  Pd  Pd13  1  0.817258  0.000000  0.817258  1
