# generated using pymatgen
data_La6TcPtI6
_symmetry_space_group_name_H-M   'P 1'
_cell_length_a   11.03308543
_cell_length_b   11.03308610
_cell_length_c   11.06265186
_cell_angle_alpha   109.89642724
_cell_angle_beta   109.89643236
_cell_angle_gamma   108.51385991
_symmetry_Int_Tables_number   1
_chemical_formula_structural   La6TcPtI6
_chemical_formula_sum   'La12 Tc2 Pt2 I12'
_cell_volume   1037.86339883
_cell_formula_units_Z   2
loop_
 _symmetry_equiv_pos_site_id
 _symmetry_equiv_pos_as_xyz
  1  'x, y, z'
loop_
 _atom_site_type_symbol
 _atom_site_label
 _atom_site_symmetry_multiplicity
 _atom_site_fract_x
 _atom_site_fract_y
 _atom_site_fract_z
 _atom_site_occupancy
  La  La0  1  0.458109  0.476961  0.231596  1
  La  La1  1  0.745365  0.226514  0.268404  1
  La  La2  1  0.732128  0.011709  0.467870  1
  La  La3  1  0.235743  0.456160  0.467870  1
  La  La4  1  0.273486  0.754635  0.231596  1
  La  La5  1  0.043840  0.264257  0.032130  1
  La  La6  1  0.023039  0.041891  0.268404  1
  La  La7  1  0.488291  0.767872  0.032130  1
  La  La8  1  0.478745  0.228745  0.457489  1
  La  La9  1  0.021546  0.478454  0.750000  1
  La  La10  1  0.271255  0.021255  0.042511  1
  La  La11  1  0.228454  0.271546  0.750000  1
  Tc  Tc12  1  0.241182  0.258818  0.250000  1
  Tc  Tc13  1  0.508818  0.991182  0.250000  1
  Pt  Pt14  1  0.001024  0.251024  0.502048  1
  Pt  Pt15  1  0.248976  0.498976  0.997952  1
  I  I16  1  0.248573  0.757736  0.743016  1
  I  I17  1  0.514721  0.505557  0.756984  1
  I  I18  1  0.983143  0.742334  0.989833  1
  I  I19  1  0.742264  0.251427  0.756984  1
  I  I20  1  0.994443  0.985279  0.743016  1
  I  I21  1  0.252501  0.993309  0.510167  1
  I  I22  1  0.757666  0.516857  0.510167  1
  I  I23  1  0.506691  0.247499  0.989833  1
  I  I24  1  0.758672  0.741328  0.250000  1
  I  I25  1  0.739904  0.989904  0.979807  1
  I  I26  1  0.991328  0.508672  0.250000  1
  I  I27  1  0.510096  0.760096  0.520193  1
