# generated using pymatgen
data_Li3NdY2Pt3
_symmetry_space_group_name_H-M   'P 1'
_cell_length_a   7.23329800
_cell_length_b   7.19513503
_cell_length_c   4.07872800
_cell_angle_alpha   90.00000000
_cell_angle_beta   90.00000000
_cell_angle_gamma   120.17561042
_symmetry_Int_Tables_number   1
_chemical_formula_structural   Li3NdY2Pt3
_chemical_formula_sum   'Li3 Nd1 Y2 Pt3'
_cell_volume   183.50987793
_cell_formula_units_Z   1
loop_
 _symmetry_equiv_pos_site_id
 _symmetry_equiv_pos_as_xyz
  1  'x, y, z'
loop_
 _atom_site_type_symbol
 _atom_site_label
 _atom_site_symmetry_multiplicity
 _atom_site_fract_x
 _atom_site_fract_y
 _atom_site_fract_z
 _atom_site_occupancy
  Li  Li0  1  0.231991  0.234362  0.500000  1
  Li  Li1  1  0.997630  0.765638  0.500000  1
  Li  Li2  1  0.770868  0.000000  0.500000  1
  Nd  Nd3  1  0.411391  0.000000  0.000000  1
  Y  Y4  1  0.998937  0.407207  0.000000  1
  Y  Y5  1  0.591731  0.592793  0.000000  1
  Pt  Pt6  1  0.995557  0.000000  0.000000  1
  Pt  Pt7  1  0.671708  0.341521  0.500000  1
  Pt  Pt8  1  0.330188  0.658479  0.500000  1
