# generated using pymatgen
data_Ta5Co16Si7Mo
_symmetry_space_group_name_H-M   'P 1'
_cell_length_a   7.88454011
_cell_length_b   7.89360347
_cell_length_c   7.89401563
_cell_angle_alpha   59.92028056
_cell_angle_beta   60.04034167
_cell_angle_gamma   60.03827262
_symmetry_Int_Tables_number   1
_chemical_formula_structural   Ta5Co16Si7Mo
_chemical_formula_sum   'Ta5 Co16 Si7 Mo1'
_cell_volume   347.39997305
_cell_formula_units_Z   1
loop_
 _symmetry_equiv_pos_site_id
 _symmetry_equiv_pos_as_xyz
  1  'x, y, z'
loop_
 _atom_site_type_symbol
 _atom_site_label
 _atom_site_symmetry_multiplicity
 _atom_site_fract_x
 _atom_site_fract_y
 _atom_site_fract_z
 _atom_site_occupancy
  Ta  Ta0  1  0.202600  0.797487  0.201471  1
  Ta  Ta1  1  0.795832  0.204238  0.204106  1
  Ta  Ta2  1  0.798465  0.201529  0.797469  1
  Ta  Ta3  1  0.798450  0.797487  0.201474  1
  Ta  Ta4  1  0.202546  0.201526  0.797470  1
  Co  Co5  1  0.381324  0.380794  0.380743  1
  Co  Co6  1  0.497442  0.834597  0.834681  1
  Co  Co7  1  0.619180  0.618689  0.142947  1
  Co  Co8  1  0.165326  0.166558  0.502787  1
  Co  Co9  1  0.834340  0.834788  0.496522  1
  Co  Co10  1  0.165183  0.165622  0.165671  1
  Co  Co11  1  0.833267  0.834599  0.834683  1
  Co  Co12  1  0.380986  0.383539  0.854494  1
  Co  Co13  1  0.834312  0.496501  0.834863  1
  Co  Co14  1  0.616384  0.619038  0.619015  1
  Co  Co15  1  0.381023  0.854464  0.383492  1
  Co  Co16  1  0.145548  0.619042  0.619020  1
  Co  Co17  1  0.619202  0.142892  0.618699  1
  Co  Co18  1  0.165349  0.502647  0.166649  1
  Co  Co19  1  0.857129  0.380797  0.380748  1
  Co  Co20  1  0.503501  0.165626  0.165677  1
  Si  Si21  1  0.002301  0.997604  0.501142  1
  Si  Si22  1  0.498962  0.997611  0.501131  1
  Si  Si23  1  0.501820  0.498272  0.498094  1
  Si  Si24  1  0.002330  0.501192  0.997720  1
  Si  Si25  1  0.498769  0.501180  0.997726  1
  Si  Si26  1  0.499388  0.000566  0.000671  1
  Si  Si27  1  0.999391  0.500710  0.500518  1
  Mo  Mo28  1  0.199651  0.800404  0.800317  1
