# generated using pymatgen
data_ReIr3Rh5
_symmetry_space_group_name_H-M   'P 1'
_cell_length_a   6.12350168
_cell_length_b   6.12361270
_cell_length_c   6.11536279
_cell_angle_alpha   95.69587671
_cell_angle_beta   95.69700155
_cell_angle_gamma   143.29726624
_symmetry_Int_Tables_number   1
_chemical_formula_structural   ReIr3Rh5
_chemical_formula_sum   'Re1 Ir3 Rh5'
_cell_volume   130.06334966
_cell_formula_units_Z   1
loop_
 _symmetry_equiv_pos_site_id
 _symmetry_equiv_pos_as_xyz
  1  'x, y, z'
loop_
 _atom_site_type_symbol
 _atom_site_label
 _atom_site_symmetry_multiplicity
 _atom_site_fract_x
 _atom_site_fract_y
 _atom_site_fract_z
 _atom_site_occupancy
  Re  Re0  1  0.001849  0.001848  0.003695  1
  Ir  Ir1  1  0.663399  0.336729  0.000125  1
  Ir  Ir2  1  0.336729  0.663400  0.000128  1
  Ir  Ir3  1  0.661846  0.661846  0.323688  1
  Rh  Rh4  1  0.327437  0.999480  0.326883  1
  Rh  Rh5  1  0.999485  0.327439  0.326899  1
  Rh  Rh6  1  0.670875  0.001734  0.672607  1
  Rh  Rh7  1  0.001709  0.670855  0.672622  1
  Rh  Rh8  1  0.336669  0.336668  0.673352  1
