# generated using pymatgen
data_Tb3Y(SiPt2)4
_symmetry_space_group_name_H-M   'P 1'
_cell_length_a   5.54845534
_cell_length_b   6.96018200
_cell_length_c   7.35615300
_cell_angle_alpha   90.00000000
_cell_angle_beta   90.03976712
_cell_angle_gamma   90.00000000
_symmetry_Int_Tables_number   1
_chemical_formula_structural   Tb3Y(SiPt2)4
_chemical_formula_sum   'Tb3 Y1 Si4 Pt8'
_cell_volume   284.08175308
_cell_formula_units_Z   1
loop_
 _symmetry_equiv_pos_site_id
 _symmetry_equiv_pos_as_xyz
  1  'x, y, z'
loop_
 _atom_site_type_symbol
 _atom_site_label
 _atom_site_symmetry_multiplicity
 _atom_site_fract_x
 _atom_site_fract_y
 _atom_site_fract_z
 _atom_site_occupancy
  Tb  Tb0  1  0.135585  0.750000  0.473624  1
  Tb  Tb1  1  0.364261  0.750000  0.973127  1
  Tb  Tb2  1  0.635454  0.250000  0.027021  1
  Y  Y3  1  0.864766  0.250000  0.526457  1
  Si  Si4  1  0.135829  0.250000  0.879347  1
  Si  Si5  1  0.363824  0.250000  0.379803  1
  Si  Si6  1  0.636312  0.750000  0.620396  1
  Si  Si7  1  0.864045  0.750000  0.120395  1
  Pt  Pt8  1  0.093698  0.050851  0.180581  1
  Pt  Pt9  1  0.093698  0.449149  0.180581  1
  Pt  Pt10  1  0.406224  0.050886  0.680223  1
  Pt  Pt11  1  0.406224  0.449114  0.680223  1
  Pt  Pt12  1  0.593774  0.550890  0.319545  1
  Pt  Pt13  1  0.593774  0.949110  0.319545  1
  Pt  Pt14  1  0.906266  0.550752  0.819565  1
  Pt  Pt15  1  0.906266  0.949248  0.819565  1
