# generated using pymatgen
data_Dy7Er(WO6)4
_symmetry_space_group_name_H-M   'P 1'
_cell_length_a   5.40011421
_cell_length_b   7.71523683
_cell_length_c   11.47331046
_cell_angle_alpha   75.46846712
_cell_angle_beta   89.99593239
_cell_angle_gamma   89.96796374
_symmetry_Int_Tables_number   1
_chemical_formula_structural   Dy7Er(WO6)4
_chemical_formula_sum   'Dy7 Er1 W4 O24'
_cell_volume   462.72247222
_cell_formula_units_Z   1
loop_
 _symmetry_equiv_pos_site_id
 _symmetry_equiv_pos_as_xyz
  1  'x, y, z'
loop_
 _atom_site_type_symbol
 _atom_site_label
 _atom_site_symmetry_multiplicity
 _atom_site_fract_x
 _atom_site_fract_y
 _atom_site_fract_z
 _atom_site_occupancy
  Dy  Dy0  1  0.183927  0.205845  0.422107  1
  Dy  Dy1  1  0.183441  0.794502  0.077689  1
  Dy  Dy2  1  0.816155  0.794152  0.577860  1
  Dy  Dy3  1  0.684006  0.499909  0.249878  1
  Dy  Dy4  1  0.316191  0.499600  0.750443  1
  Dy  Dy5  1  0.740241  0.000223  0.249565  1
  Dy  Dy6  1  0.259795  0.000290  0.750531  1
  Er  Er7  1  0.816347  0.206501  0.921708  1
  W  W8  1  0.256123  0.276284  0.114286  1
  W  W9  1  0.255953  0.723532  0.385092  1
  W  W10  1  0.744032  0.723308  0.885129  1
  W  W11  1  0.744373  0.276299  0.615325  1
  O  O12  1  0.458223  0.209125  0.272278  1
  O  O13  1  0.458132  0.790614  0.227202  1
  O  O14  1  0.541665  0.790088  0.727453  1
  O  O15  1  0.543360  0.209063  0.773862  1
  O  O16  1  0.044276  0.061392  0.103709  1
  O  O17  1  0.044495  0.939121  0.395529  1
  O  O18  1  0.953157  0.940660  0.895681  1
  O  O19  1  0.955704  0.060976  0.604514  1
  O  O20  1  0.981291  0.289730  0.228149  1
  O  O21  1  0.980832  0.710213  0.271785  1
  O  O22  1  0.019539  0.710711  0.772122  1
  O  O23  1  0.018716  0.289446  0.729234  1
  O  O24  1  0.847692  0.365483  0.452173  1
  O  O25  1  0.847716  0.634500  0.048107  1
  O  O26  1  0.152373  0.634248  0.548135  1
  O  O27  1  0.150163  0.364842  0.951531  1
  O  O28  1  0.638505  0.509411  0.614852  1
  O  O29  1  0.640398  0.489448  0.885393  1
  O  O30  1  0.361543  0.490348  0.385242  1
  O  O31  1  0.361100  0.509325  0.114194  1
  O  O32  1  0.466510  0.153291  0.570134  1
  O  O33  1  0.465776  0.846171  0.930526  1
  O  O34  1  0.533217  0.847151  0.430457  1
  O  O35  1  0.535032  0.154199  0.068126  1
