# generated using pymatgen
data_Er2Si5Pt3
_symmetry_space_group_name_H-M   'P 1'
_cell_length_a   8.13661378
_cell_length_b   8.13661330
_cell_length_c   8.13661348
_cell_angle_alpha   136.29720268
_cell_angle_beta   104.31999683
_cell_angle_gamma   91.70362369
_symmetry_Int_Tables_number   1
_chemical_formula_structural   Er2Si5Pt3
_chemical_formula_sum   'Er4 Si10 Pt6'
_cell_volume   342.67686736
_cell_formula_units_Z   2
loop_
 _symmetry_equiv_pos_site_id
 _symmetry_equiv_pos_as_xyz
  1  'x, y, z'
loop_
 _atom_site_type_symbol
 _atom_site_label
 _atom_site_symmetry_multiplicity
 _atom_site_fract_x
 _atom_site_fract_y
 _atom_site_fract_z
 _atom_site_occupancy
  Er  Er0  1  0.597017  0.369565  0.227453  1
  Er  Er1  1  0.402983  0.630435  0.772547  1
  Er  Er2  1  0.142112  0.869565  0.272547  1
  Er  Er3  1  0.857888  0.130435  0.727453  1
  Si  Si4  1  0.500000  0.250000  0.750000  1
  Si  Si5  1  0.500000  0.750000  0.250000  1
  Si  Si6  1  0.227357  0.477357  0.250000  1
  Si  Si7  1  0.772643  0.022643  0.250000  1
  Si  Si8  1  0.772643  0.522643  0.750000  1
  Si  Si9  1  0.227357  0.977357  0.750000  1
  Si  Si10  1  0.958995  0.611158  0.347837  1
  Si  Si11  1  0.041005  0.388842  0.652163  1
  Si  Si12  1  0.263320  0.111158  0.152163  1
  Si  Si13  1  0.736680  0.888842  0.847837  1
  Pt  Pt14  1  0.000000  0.750000  0.750000  1
  Pt  Pt15  1  0.000000  0.250000  0.250000  1
  Pt  Pt16  1  0.525187  0.138151  0.387035  1
  Pt  Pt17  1  0.474813  0.861849  0.612965  1
  Pt  Pt18  1  0.751116  0.638151  0.112965  1
  Pt  Pt19  1  0.248884  0.361849  0.887035  1
