# generated using pymatgen
data_NdTh3(GePd14)2
_symmetry_space_group_name_H-M   'P 1'
_cell_length_a   9.05436300
_cell_length_b   9.05436300
_cell_length_c   7.12609800
_cell_angle_alpha   90.00000000
_cell_angle_beta   90.00000000
_cell_angle_gamma   90.00000000
_symmetry_Int_Tables_number   1
_chemical_formula_structural   NdTh3(GePd14)2
_chemical_formula_sum   'Nd1 Th3 Ge2 Pd28'
_cell_volume   584.20812719
_cell_formula_units_Z   1
loop_
 _symmetry_equiv_pos_site_id
 _symmetry_equiv_pos_as_xyz
  1  'x, y, z'
loop_
 _atom_site_type_symbol
 _atom_site_label
 _atom_site_symmetry_multiplicity
 _atom_site_fract_x
 _atom_site_fract_y
 _atom_site_fract_z
 _atom_site_occupancy
  Nd  Nd0  1  0.000000  0.500000  0.066126  1
  Th  Th1  1  0.500000  0.000000  0.932009  1
  Th  Th2  1  0.000000  0.000000  0.499689  1
  Th  Th3  1  0.500000  0.500000  0.499689  1
  Ge  Ge4  1  0.500000  0.000000  0.448893  1
  Ge  Ge5  1  0.000000  0.500000  0.549802  1
  Pd  Pd6  1  0.331792  0.831792  0.621950  1
  Pd  Pd7  1  0.331792  0.168208  0.621950  1
  Pd  Pd8  1  0.668208  0.831792  0.621950  1
  Pd  Pd9  1  0.668208  0.168208  0.621950  1
  Pd  Pd10  1  0.169095  0.669095  0.379831  1
  Pd  Pd11  1  0.169095  0.330905  0.379831  1
  Pd  Pd12  1  0.830905  0.669095  0.379831  1
  Pd  Pd13  1  0.830905  0.330905  0.379831  1
  Pd  Pd14  1  0.500000  0.766689  0.254199  1
  Pd  Pd15  1  0.500000  0.233311  0.254199  1
  Pd  Pd16  1  0.266689  0.000000  0.254199  1
  Pd  Pd17  1  0.733311  0.000000  0.254199  1
  Pd  Pd18  1  0.000000  0.735201  0.743618  1
  Pd  Pd19  1  0.000000  0.264799  0.743618  1
  Pd  Pd20  1  0.235201  0.500000  0.743618  1
  Pd  Pd21  1  0.764799  0.500000  0.743618  1
  Pd  Pd22  1  0.500000  0.349230  0.853649  1
  Pd  Pd23  1  0.500000  0.650770  0.853649  1
  Pd  Pd24  1  0.849230  0.000000  0.853649  1
  Pd  Pd25  1  0.150770  0.000000  0.853649  1
  Pd  Pd26  1  0.000000  0.150190  0.147342  1
  Pd  Pd27  1  0.000000  0.849810  0.147342  1
  Pd  Pd28  1  0.650190  0.500000  0.147342  1
  Pd  Pd29  1  0.349810  0.500000  0.147342  1
  Pd  Pd30  1  0.251003  0.751003  0.000358  1
  Pd  Pd31  1  0.251003  0.248997  0.000358  1
  Pd  Pd32  1  0.748997  0.751003  0.000358  1
  Pd  Pd33  1  0.748997  0.248997  0.000358  1
