# generated using pymatgen
data_Y6Ho3ScCd3Ru
_symmetry_space_group_name_H-M   'P 1'
_cell_length_a   9.55221400
_cell_length_b   9.55221315
_cell_length_c   9.79276000
_cell_angle_alpha   90.00000000
_cell_angle_beta   90.00000000
_cell_angle_gamma   120.00000296
_symmetry_Int_Tables_number   1
_chemical_formula_structural   Y6Ho3ScCd3Ru
_chemical_formula_sum   'Y12 Ho6 Sc2 Cd6 Ru2'
_cell_volume   773.82682005
_cell_formula_units_Z   2
loop_
 _symmetry_equiv_pos_site_id
 _symmetry_equiv_pos_as_xyz
  1  'x, y, z'
loop_
 _atom_site_type_symbol
 _atom_site_label
 _atom_site_symmetry_multiplicity
 _atom_site_fract_x
 _atom_site_fract_y
 _atom_site_fract_z
 _atom_site_occupancy
  Y  Y0  1  0.791863  0.208137  0.940928  1
  Y  Y1  1  0.791863  0.583725  0.940928  1
  Y  Y2  1  0.416275  0.208137  0.940928  1
  Y  Y3  1  0.208137  0.791863  0.059072  1
  Y  Y4  1  0.208137  0.416275  0.059072  1
  Y  Y5  1  0.583725  0.791863  0.059072  1
  Y  Y6  1  0.540935  0.459065  0.250798  1
  Y  Y7  1  0.540935  0.081870  0.250798  1
  Y  Y8  1  0.918130  0.459065  0.250798  1
  Y  Y9  1  0.459065  0.540935  0.749202  1
  Y  Y10  1  0.459065  0.918130  0.749202  1
  Y  Y11  1  0.081870  0.540935  0.749202  1
  Ho  Ho12  1  0.208619  0.791381  0.440807  1
  Ho  Ho13  1  0.208619  0.417237  0.440807  1
  Ho  Ho14  1  0.582763  0.791381  0.440807  1
  Ho  Ho15  1  0.791381  0.208619  0.559193  1
  Ho  Ho16  1  0.791381  0.582763  0.559193  1
  Ho  Ho17  1  0.417237  0.208619  0.559193  1
  Sc  Sc18  1  0.000000  0.000000  0.500000  1
  Sc  Sc19  1  0.000000  0.000000  0.000000  1
  Cd  Cd20  1  0.889136  0.110864  0.250066  1
  Cd  Cd21  1  0.889136  0.778273  0.250066  1
  Cd  Cd22  1  0.221727  0.110864  0.250066  1
  Cd  Cd23  1  0.110864  0.889136  0.749934  1
  Cd  Cd24  1  0.110864  0.221727  0.749934  1
  Cd  Cd25  1  0.778273  0.889136  0.749934  1
  Ru  Ru26  1  0.333333  0.666667  0.252063  1
  Ru  Ru27  1  0.666667  0.333333  0.747937  1
