# generated using pymatgen
data_SeI5
_symmetry_space_group_name_H-M   'P 1'
_cell_length_a   9.71249368
_cell_length_b   8.38375487
_cell_length_c   11.40904235
_cell_angle_alpha   84.96536710
_cell_angle_beta   100.13610344
_cell_angle_gamma   129.99066955
_symmetry_Int_Tables_number   1
_chemical_formula_structural   SeI5
_chemical_formula_sum   'Se2 I10'
_cell_volume   700.25268260
_cell_formula_units_Z   2
loop_
 _symmetry_equiv_pos_site_id
 _symmetry_equiv_pos_as_xyz
  1  'x, y, z'
loop_
 _atom_site_type_symbol
 _atom_site_label
 _atom_site_symmetry_multiplicity
 _atom_site_fract_x
 _atom_site_fract_y
 _atom_site_fract_z
 _atom_site_occupancy
  Se  Se0  1  0.203060  0.249879  0.184430  1
  Se  Se1  1  0.796940  0.750121  0.815570  1
  I  I2  1  0.833441  0.104678  0.350205  1
  I  I3  1  0.166559  0.895322  0.649795  1
  I  I4  1  0.262776  0.248859  0.972733  1
  I  I5  1  0.737224  0.751141  0.027267  1
  I  I6  1  0.055813  0.619039  0.896905  1
  I  I7  1  0.944187  0.380961  0.103095  1
  I  I8  1  0.711599  0.961792  0.700344  1
  I  I9  1  0.288401  0.038208  0.299656  1
  I  I10  1  0.476339  0.326856  0.732336  1
  I  I11  1  0.523661  0.673144  0.267664  1
