# generated using pymatgen
data_Dy8Al2IrRu
_symmetry_space_group_name_H-M   'P 1'
_cell_length_a   9.53839678
_cell_length_b   9.53839711
_cell_length_c   9.56198900
_cell_angle_alpha   59.91815158
_cell_angle_beta   59.91815044
_cell_angle_gamma   59.82692236
_symmetry_Int_Tables_number   1
_chemical_formula_structural   Dy8Al2IrRu
_chemical_formula_sum   'Dy16 Al4 Ir2 Ru2'
_cell_volume   613.58642348
_cell_formula_units_Z   2
loop_
 _symmetry_equiv_pos_site_id
 _symmetry_equiv_pos_as_xyz
  1  'x, y, z'
loop_
 _atom_site_type_symbol
 _atom_site_label
 _atom_site_symmetry_multiplicity
 _atom_site_fract_x
 _atom_site_fract_y
 _atom_site_fract_z
 _atom_site_occupancy
  Dy  Dy0  1  0.601419  0.601419  0.600895  1
  Dy  Dy1  1  0.601419  0.601419  0.196268  1
  Dy  Dy2  1  0.600463  0.197580  0.600978  1
  Dy  Dy3  1  0.197580  0.600463  0.600978  1
  Dy  Dy4  1  0.056756  0.442716  0.445690  1
  Dy  Dy5  1  0.442716  0.056756  0.054837  1
  Dy  Dy6  1  0.442716  0.056756  0.445690  1
  Dy  Dy7  1  0.056756  0.442716  0.054837  1
  Dy  Dy8  1  0.443312  0.443312  0.056688  1
  Dy  Dy9  1  0.054150  0.054150  0.445850  1
  Dy  Dy10  1  0.188254  0.810052  0.812181  1
  Dy  Dy11  1  0.810052  0.188254  0.189513  1
  Dy  Dy12  1  0.810052  0.188254  0.812181  1
  Dy  Dy13  1  0.188254  0.810052  0.189513  1
  Dy  Dy14  1  0.812140  0.812140  0.187860  1
  Dy  Dy15  1  0.189542  0.189542  0.810458  1
  Al  Al16  1  0.826712  0.826712  0.826983  1
  Al  Al17  1  0.826712  0.826712  0.519594  1
  Al  Al18  1  0.827375  0.518109  0.827258  1
  Al  Al19  1  0.518109  0.827375  0.827258  1
  Ir  Ir20  1  0.392809  0.828213  0.389489  1
  Ir  Ir21  1  0.828213  0.392809  0.389489  1
  Ru  Ru22  1  0.392244  0.392244  0.386704  1
  Ru  Ru23  1  0.392244  0.392244  0.828809  1
