# generated using pymatgen
data_LiDy2GaPt2
_symmetry_space_group_name_H-M   'P 1'
_cell_length_a   4.20207200
_cell_length_b   6.94593900
_cell_length_c   8.11059900
_cell_angle_alpha   90.00000000
_cell_angle_beta   90.00000000
_cell_angle_gamma   90.00000000
_symmetry_Int_Tables_number   1
_chemical_formula_structural   LiDy2GaPt2
_chemical_formula_sum   'Li2 Dy4 Ga2 Pt4'
_cell_volume   236.72677644
_cell_formula_units_Z   2
loop_
 _symmetry_equiv_pos_site_id
 _symmetry_equiv_pos_as_xyz
  1  'x, y, z'
loop_
 _atom_site_type_symbol
 _atom_site_label
 _atom_site_symmetry_multiplicity
 _atom_site_fract_x
 _atom_site_fract_y
 _atom_site_fract_z
 _atom_site_occupancy
  Li  Li0  1  0.250000  0.363291  0.564752  1
  Li  Li1  1  0.250000  0.863291  0.935248  1
  Dy  Dy2  1  0.250000  0.964520  0.315523  1
  Dy  Dy3  1  0.250000  0.464520  0.184477  1
  Dy  Dy4  1  0.750000  0.034098  0.685341  1
  Dy  Dy5  1  0.750000  0.534098  0.814659  1
  Ga  Ga6  1  0.750000  0.634479  0.437959  1
  Ga  Ga7  1  0.750000  0.134479  0.062041  1
  Pt  Pt8  1  0.250000  0.244716  0.886779  1
  Pt  Pt9  1  0.250000  0.744716  0.613221  1
  Pt  Pt10  1  0.750000  0.758897  0.120656  1
  Pt  Pt11  1  0.750000  0.258897  0.379344  1
