# generated using pymatgen
data_Ca(BrF4)2
_symmetry_space_group_name_H-M   'P 1'
_cell_length_a   6.06885500
_cell_length_b   6.06885500
_cell_length_c   10.61809800
_cell_angle_alpha   90.00000000
_cell_angle_beta   90.00000000
_cell_angle_gamma   90.00000000
_symmetry_Int_Tables_number   1
_chemical_formula_structural   Ca(BrF4)2
_chemical_formula_sum   'Ca2 Br4 F16'
_cell_volume   391.07517817
_cell_formula_units_Z   2
loop_
 _symmetry_equiv_pos_site_id
 _symmetry_equiv_pos_as_xyz
  1  'x, y, z'
loop_
 _atom_site_type_symbol
 _atom_site_label
 _atom_site_symmetry_multiplicity
 _atom_site_fract_x
 _atom_site_fract_y
 _atom_site_fract_z
 _atom_site_occupancy
  Ca  Ca0  1  0.000000  0.000000  0.250000  1
  Ca  Ca1  1  0.000000  0.000000  0.750000  1
  Br  Br2  1  0.500000  0.000000  0.000000  1
  Br  Br3  1  0.000000  0.500000  0.000000  1
  Br  Br4  1  0.000000  0.500000  0.500000  1
  Br  Br5  1  0.500000  0.000000  0.500000  1
  F  F6  1  0.691541  0.877715  0.628165  1
  F  F7  1  0.308459  0.122285  0.628165  1
  F  F8  1  0.877715  0.691541  0.871835  1
  F  F9  1  0.877715  0.308459  0.628165  1
  F  F10  1  0.122285  0.691541  0.628165  1
  F  F11  1  0.308459  0.877715  0.871835  1
  F  F12  1  0.877715  0.691541  0.128165  1
  F  F13  1  0.308459  0.877715  0.128165  1
  F  F14  1  0.691541  0.122285  0.128165  1
  F  F15  1  0.877715  0.308459  0.371835  1
  F  F16  1  0.122285  0.691541  0.371835  1
  F  F17  1  0.122285  0.308459  0.128165  1
  F  F18  1  0.691541  0.877715  0.371835  1
  F  F19  1  0.308459  0.122285  0.371835  1
  F  F20  1  0.122285  0.308459  0.871835  1
  F  F21  1  0.691541  0.122285  0.871835  1
