# generated using pymatgen
data_Er4Tc3MoN8
_symmetry_space_group_name_H-M   'P 1'
_cell_length_a   3.13545400
_cell_length_b   5.62470509
_cell_length_c   10.65684485
_cell_angle_alpha   89.47945804
_cell_angle_beta   90.00000000
_cell_angle_gamma   90.00000000
_symmetry_Int_Tables_number   1
_chemical_formula_structural   Er4Tc3MoN8
_chemical_formula_sum   'Er4 Tc3 Mo1 N8'
_cell_volume   187.93640265
_cell_formula_units_Z   1
loop_
 _symmetry_equiv_pos_site_id
 _symmetry_equiv_pos_as_xyz
  1  'x, y, z'
loop_
 _atom_site_type_symbol
 _atom_site_label
 _atom_site_symmetry_multiplicity
 _atom_site_fract_x
 _atom_site_fract_y
 _atom_site_fract_z
 _atom_site_occupancy
  Er  Er0  1  0.250000  0.078854  0.853858  1
  Er  Er1  1  0.250000  0.577766  0.646931  1
  Er  Er2  1  0.750000  0.919250  0.148857  1
  Er  Er3  1  0.750000  0.421808  0.352810  1
  Tc  Tc4  1  0.250000  0.434409  0.097956  1
  Tc  Tc5  1  0.250000  0.937270  0.404384  1
  Tc  Tc6  1  0.750000  0.565048  0.901231  1
  Mo  Mo7  1  0.750000  0.064965  0.594857  1
  N  N8  1  0.250000  0.165939  0.245679  1
  N  N9  1  0.250000  0.665972  0.253495  1
  N  N10  1  0.750000  0.832539  0.754778  1
  N  N11  1  0.750000  0.332827  0.745134  1
  N  N12  1  0.250000  0.751144  0.997494  1
  N  N13  1  0.250000  0.259517  0.504053  1
  N  N14  1  0.750000  0.247648  0.002425  1
  N  N15  1  0.750000  0.745043  0.496059  1
