# generated using pymatgen
data_Yb3PrSc6(Si5Ir2)4
_symmetry_space_group_name_H-M   'P 1'
_cell_length_a   12.54401755
_cell_length_b   12.54401758
_cell_length_c   4.17375100
_cell_angle_alpha   90.00000000
_cell_angle_beta   90.00000000
_cell_angle_gamma   89.91963345
_symmetry_Int_Tables_number   1
_chemical_formula_structural   Yb3PrSc6(Si5Ir2)4
_chemical_formula_sum   'Yb3 Pr1 Sc6 Si20 Ir8'
_cell_volume   656.74899388
_cell_formula_units_Z   1
loop_
 _symmetry_equiv_pos_site_id
 _symmetry_equiv_pos_as_xyz
  1  'x, y, z'
loop_
 _atom_site_type_symbol
 _atom_site_label
 _atom_site_symmetry_multiplicity
 _atom_site_fract_x
 _atom_site_fract_y
 _atom_site_fract_z
 _atom_site_occupancy
  Yb  Yb0  1  0.115716  0.615496  0.500000  1
  Yb  Yb1  1  0.884504  0.384284  0.500000  1
  Yb  Yb2  1  0.615440  0.884560  0.500000  1
  Pr  Pr3  1  0.384117  0.115883  0.500000  1
  Sc  Sc4  1  0.674315  0.172481  0.500000  1
  Sc  Sc5  1  0.327519  0.825685  0.500000  1
  Sc  Sc6  1  0.172589  0.327411  0.500000  1
  Sc  Sc7  1  0.827708  0.672292  0.500000  1
  Sc  Sc8  1  0.999455  0.999767  0.000000  1
  Sc  Sc9  1  0.500233  0.500545  0.000000  1
  Si  Si10  1  0.569598  0.068258  0.000000  1
  Si  Si11  1  0.431742  0.930402  0.000000  1
  Si  Si12  1  0.068082  0.431918  0.000000  1
  Si  Si13  1  0.931781  0.568219  0.000000  1
  Si  Si14  1  0.198885  0.165612  0.000000  1
  Si  Si15  1  0.799078  0.834180  0.000000  1
  Si  Si16  1  0.165260  0.798948  0.000000  1
  Si  Si17  1  0.701052  0.334740  0.000000  1
  Si  Si18  1  0.834365  0.200601  0.000000  1
  Si  Si19  1  0.299399  0.665635  0.000000  1
  Si  Si20  1  0.665820  0.700922  0.000000  1
  Si  Si21  1  0.334388  0.301115  0.000000  1
  Si  Si22  1  0.006823  0.149872  0.500000  1
  Si  Si23  1  0.992229  0.849620  0.500000  1
  Si  Si24  1  0.149144  0.990779  0.500000  1
  Si  Si25  1  0.509221  0.350856  0.500000  1
  Si  Si26  1  0.849600  0.008483  0.500000  1
  Si  Si27  1  0.491517  0.650400  0.500000  1
  Si  Si28  1  0.650380  0.507771  0.500000  1
  Si  Si29  1  0.350128  0.493177  0.500000  1
  Ir  Ir30  1  0.021263  0.242843  0.000000  1
  Ir  Ir31  1  0.978210  0.757025  0.000000  1
  Ir  Ir32  1  0.241575  0.977848  0.000000  1
  Ir  Ir33  1  0.522152  0.258425  0.000000  1
  Ir  Ir34  1  0.757526  0.020945  0.000000  1
  Ir  Ir35  1  0.479055  0.742474  0.000000  1
  Ir  Ir36  1  0.742975  0.521790  0.000000  1
  Ir  Ir37  1  0.257157  0.478737  0.000000  1
