# generated using pymatgen
data_Nd2ErTm3Ta2O14
_symmetry_space_group_name_H-M   'P 1'
_cell_length_a   6.45072371
_cell_length_b   6.45322772
_cell_length_c   7.55776400
_cell_angle_alpha   90.00000000
_cell_angle_beta   90.00000000
_cell_angle_gamma   109.22773813
_symmetry_Int_Tables_number   1
_chemical_formula_structural   Nd2ErTm3Ta2O14
_chemical_formula_sum   'Nd2 Er1 Tm3 Ta2 O14'
_cell_volume   297.06439033
_cell_formula_units_Z   1
loop_
 _symmetry_equiv_pos_site_id
 _symmetry_equiv_pos_as_xyz
  1  'x, y, z'
loop_
 _atom_site_type_symbol
 _atom_site_label
 _atom_site_symmetry_multiplicity
 _atom_site_fract_x
 _atom_site_fract_y
 _atom_site_fract_z
 _atom_site_occupancy
  Nd  Nd0  1  0.500799  0.500854  0.500281  1
  Nd  Nd1  1  0.500799  0.500854  0.999719  1
  Er  Er2  1  0.001481  0.532720  0.250000  1
  Tm  Tm3  1  0.998599  0.466831  0.750000  1
  Tm  Tm4  1  0.532483  0.001712  0.750000  1
  Tm  Tm5  1  0.467205  0.998461  0.250000  1
  Ta  Ta6  1  0.000448  0.000372  0.500129  1
  Ta  Ta7  1  0.000448  0.000372  0.999871  1
  O  O8  1  0.932156  0.066636  0.750000  1
  O  O9  1  0.067030  0.933760  0.250000  1
  O  O10  1  0.356018  0.645018  0.250000  1
  O  O11  1  0.645078  0.354475  0.750000  1
  O  O12  1  0.361348  0.638824  0.750000  1
  O  O13  1  0.637022  0.360329  0.250000  1
  O  O14  1  0.321347  0.067895  0.966110  1
  O  O15  1  0.678042  0.931442  0.465806  1
  O  O16  1  0.321347  0.067895  0.533890  1
  O  O17  1  0.678042  0.931442  0.034194  1
  O  O18  1  0.069623  0.322013  0.467560  1
  O  O19  1  0.930532  0.678040  0.965439  1
  O  O20  1  0.930532  0.678040  0.534561  1
  O  O21  1  0.069623  0.322013  0.032440  1
