# generated using pymatgen
data_PrDy4HoTa2O14
_symmetry_space_group_name_H-M   'P 1'
_cell_length_a   6.51009374
_cell_length_b   6.50979395
_cell_length_c   7.53898905
_cell_angle_alpha   89.87117309
_cell_angle_beta   90.11740691
_cell_angle_gamma   108.73927127
_symmetry_Int_Tables_number   1
_chemical_formula_structural   PrDy4HoTa2O14
_chemical_formula_sum   'Pr1 Dy4 Ho1 Ta2 O14'
_cell_volume   302.56006540
_cell_formula_units_Z   1
loop_
 _symmetry_equiv_pos_site_id
 _symmetry_equiv_pos_as_xyz
  1  'x, y, z'
loop_
 _atom_site_type_symbol
 _atom_site_label
 _atom_site_symmetry_multiplicity
 _atom_site_fract_x
 _atom_site_fract_y
 _atom_site_fract_z
 _atom_site_occupancy
  Pr  Pr0  1  0.515217  0.515193  0.499876  1
  Dy  Dy1  1  0.460596  0.460429  0.000116  1
  Dy  Dy2  1  0.999604  0.535035  0.239801  1
  Dy  Dy3  1  0.998725  0.465655  0.745882  1
  Dy  Dy4  1  0.534823  0.999551  0.760204  1
  Ho  Ho5  1  0.466278  0.998350  0.253845  1
  Ta  Ta6  1  0.001547  0.001471  0.499810  1
  Ta  Ta7  1  0.997089  0.997229  0.000230  1
  O  O8  1  0.933132  0.066940  0.749598  1
  O  O9  1  0.067429  0.933252  0.250398  1
  O  O10  1  0.358421  0.643139  0.239160  1
  O  O11  1  0.641845  0.358262  0.760899  1
  O  O12  1  0.366437  0.632239  0.760570  1
  O  O13  1  0.631683  0.365197  0.239560  1
  O  O14  1  0.326474  0.080814  0.975166  1
  O  O15  1  0.675303  0.926201  0.472601  1
  O  O16  1  0.313560  0.060251  0.541222  1
  O  O17  1  0.692979  0.952060  0.043235  1
  O  O18  1  0.060409  0.313557  0.458315  1
  O  O19  1  0.951676  0.693162  0.957445  1
  O  O20  1  0.925690  0.675568  0.526700  1
  O  O21  1  0.081081  0.326445  0.025367  1
