# generated using pymatgen
data_Ac5Bi2Ir
_symmetry_space_group_name_H-M   'P 1'
_cell_length_a   8.82083000
_cell_length_b   9.74190000
_cell_length_c   13.68342600
_cell_angle_alpha   90.00000000
_cell_angle_beta   90.00000000
_cell_angle_gamma   90.00000000
_symmetry_Int_Tables_number   1
_chemical_formula_structural   Ac5Bi2Ir
_chemical_formula_sum   'Ac20 Bi8 Ir4'
_cell_volume   1175.83928868
_cell_formula_units_Z   4
loop_
 _symmetry_equiv_pos_site_id
 _symmetry_equiv_pos_as_xyz
  1  'x, y, z'
loop_
 _atom_site_type_symbol
 _atom_site_label
 _atom_site_symmetry_multiplicity
 _atom_site_fract_x
 _atom_site_fract_y
 _atom_site_fract_z
 _atom_site_occupancy
  Ac  Ac0  1  0.349399  0.750000  0.704912  1
  Ac  Ac1  1  0.650601  0.250000  0.295088  1
  Ac  Ac2  1  0.849399  0.250000  0.795088  1
  Ac  Ac3  1  0.150601  0.750000  0.204912  1
  Ac  Ac4  1  0.878025  0.750000  0.807296  1
  Ac  Ac5  1  0.121975  0.250000  0.192704  1
  Ac  Ac6  1  0.378025  0.250000  0.692704  1
  Ac  Ac7  1  0.621975  0.750000  0.307296  1
  Ac  Ac8  1  0.679403  0.540426  0.565657  1
  Ac  Ac9  1  0.320597  0.459574  0.434343  1
  Ac  Ac10  1  0.179403  0.459574  0.934343  1
  Ac  Ac11  1  0.320597  0.040426  0.434343  1
  Ac  Ac12  1  0.820597  0.540426  0.065657  1
  Ac  Ac13  1  0.679403  0.959574  0.565657  1
  Ac  Ac14  1  0.820597  0.959574  0.065657  1
  Ac  Ac15  1  0.179403  0.040426  0.934343  1
  Ac  Ac16  1  0.055087  0.750000  0.496004  1
  Ac  Ac17  1  0.944913  0.250000  0.503996  1
  Ac  Ac18  1  0.555087  0.250000  0.003996  1
  Ac  Ac19  1  0.444913  0.750000  0.996004  1
  Bi  Bi20  1  0.572433  0.505075  0.828478  1
  Bi  Bi21  1  0.427567  0.494925  0.171522  1
  Bi  Bi22  1  0.072433  0.494925  0.671522  1
  Bi  Bi23  1  0.427567  0.005075  0.171522  1
  Bi  Bi24  1  0.927567  0.505075  0.328478  1
  Bi  Bi25  1  0.572433  0.994925  0.828478  1
  Bi  Bi26  1  0.927567  0.994925  0.328478  1
  Bi  Bi27  1  0.072433  0.005075  0.671522  1
  Ir  Ir28  1  0.071665  0.750000  0.991011  1
  Ir  Ir29  1  0.928335  0.250000  0.008989  1
  Ir  Ir30  1  0.571665  0.250000  0.508989  1
  Ir  Ir31  1  0.428335  0.750000  0.491011  1
