# generated using pymatgen
data_DyEr5Zr4(Sn3O)2
_symmetry_space_group_name_H-M   'P 1'
_cell_length_a   8.72081501
_cell_length_b   8.72013128
_cell_length_c   6.01665400
_cell_angle_alpha   90.00000000
_cell_angle_beta   90.00000000
_cell_angle_gamma   119.99740760
_symmetry_Int_Tables_number   1
_chemical_formula_structural   DyEr5Zr4(Sn3O)2
_chemical_formula_sum   'Dy1 Er5 Zr4 Sn6 O2'
_cell_volume   396.25714884
_cell_formula_units_Z   1
loop_
 _symmetry_equiv_pos_site_id
 _symmetry_equiv_pos_as_xyz
  1  'x, y, z'
loop_
 _atom_site_type_symbol
 _atom_site_label
 _atom_site_symmetry_multiplicity
 _atom_site_fract_x
 _atom_site_fract_y
 _atom_site_fract_z
 _atom_site_occupancy
  Dy  Dy0  1  0.000000  0.772908  0.750000  1
  Er  Er1  1  0.000000  0.226536  0.250000  1
  Er  Er2  1  0.226596  0.226649  0.750000  1
  Er  Er3  1  0.226658  0.000070  0.250000  1
  Er  Er4  1  0.773342  0.773413  0.250000  1
  Er  Er5  1  0.773404  0.000053  0.750000  1
  Zr  Zr6  1  0.333353  0.666645  0.999958  1
  Zr  Zr7  1  0.333353  0.666645  0.500042  1
  Zr  Zr8  1  0.666647  0.333291  0.999958  1
  Zr  Zr9  1  0.666647  0.333291  0.500042  1
  Sn  Sn10  1  0.000000  0.595348  0.250000  1
  Sn  Sn11  1  0.000000  0.404315  0.750000  1
  Sn  Sn12  1  0.404555  0.404545  0.250000  1
  Sn  Sn13  1  0.595040  0.595239  0.750000  1
  Sn  Sn14  1  0.404960  0.000199  0.750000  1
  Sn  Sn15  1  0.595445  0.999990  0.250000  1
  O  O16  1  0.000000  0.000431  0.000511  1
  O  O17  1  0.000000  0.000431  0.499489  1
