# generated using pymatgen
data_LiTmFeH6
_symmetry_space_group_name_H-M   'P 1'
_cell_length_a   4.63630843
_cell_length_b   4.63630753
_cell_length_c   4.63630800
_cell_angle_alpha   59.99999667
_cell_angle_beta   60.00000304
_cell_angle_gamma   59.99999565
_symmetry_Int_Tables_number   1
_chemical_formula_structural   LiTmFeH6
_chemical_formula_sum   'Li1 Tm1 Fe1 H6'
_cell_volume   70.46960241
_cell_formula_units_Z   1
loop_
 _symmetry_equiv_pos_site_id
 _symmetry_equiv_pos_as_xyz
  1  'x, y, z'
loop_
 _atom_site_type_symbol
 _atom_site_label
 _atom_site_symmetry_multiplicity
 _atom_site_fract_x
 _atom_site_fract_y
 _atom_site_fract_z
 _atom_site_occupancy
  Li  Li0  1  0.750000  0.750000  0.750000  1
  Tm  Tm1  1  0.250000  0.250000  0.250000  1
  Fe  Fe2  1  0.000000  0.000000  0.000000  1
  H  H3  1  0.240250  0.759750  0.240250  1
  H  H4  1  0.759749  0.759749  0.240251  1
  H  H5  1  0.759749  0.240251  0.240251  1
  H  H6  1  0.240251  0.759749  0.759749  1
  H  H7  1  0.759750  0.240250  0.759750  1
  H  H8  1  0.240250  0.240250  0.759750  1
