# generated using pymatgen
data_LaPr3Al4IrPt3
_symmetry_space_group_name_H-M   'P 1'
_cell_length_a   4.53446300
_cell_length_b   7.16645572
_cell_length_c   7.93075443
_cell_angle_alpha   90.07727232
_cell_angle_beta   90.00000000
_cell_angle_gamma   90.00000000
_symmetry_Int_Tables_number   1
_chemical_formula_structural   LaPr3Al4IrPt3
_chemical_formula_sum   'La1 Pr3 Al4 Ir1 Pt3'
_cell_volume   257.71778611
_cell_formula_units_Z   1
loop_
 _symmetry_equiv_pos_site_id
 _symmetry_equiv_pos_as_xyz
  1  'x, y, z'
loop_
 _atom_site_type_symbol
 _atom_site_label
 _atom_site_symmetry_multiplicity
 _atom_site_fract_x
 _atom_site_fract_y
 _atom_site_fract_z
 _atom_site_occupancy
  La  La0  1  0.250000  0.535179  0.822343  1
  Pr  Pr1  1  0.250000  0.031679  0.681575  1
  Pr  Pr2  1  0.750000  0.967082  0.315263  1
  Pr  Pr3  1  0.750000  0.473166  0.183023  1
  Al  Al4  1  0.250000  0.140236  0.067068  1
  Al  Al5  1  0.750000  0.353519  0.564265  1
  Al  Al6  1  0.250000  0.647691  0.430545  1
  Al  Al7  1  0.750000  0.854206  0.937053  1
  Ir  Ir8  1  0.250000  0.780817  0.111090  1
  Pt  Pt9  1  0.250000  0.284645  0.387703  1
  Pt  Pt10  1  0.750000  0.715775  0.613456  1
  Pt  Pt11  1  0.750000  0.216005  0.886615  1
