# generated using pymatgen
data_MgSc4Al2B4Ru9
_symmetry_space_group_name_H-M   'P 1'
_cell_length_a   9.45856404
_cell_length_b   9.49080562
_cell_length_c   3.06639700
_cell_angle_alpha   90.00000000
_cell_angle_beta   90.00000000
_cell_angle_gamma   89.61017358
_symmetry_Int_Tables_number   1
_chemical_formula_structural   MgSc4Al2B4Ru9
_chemical_formula_sum   'Mg1 Sc4 Al2 B4 Ru9'
_cell_volume   275.26222525
_cell_formula_units_Z   1
loop_
 _symmetry_equiv_pos_site_id
 _symmetry_equiv_pos_as_xyz
  1  'x, y, z'
loop_
 _atom_site_type_symbol
 _atom_site_label
 _atom_site_symmetry_multiplicity
 _atom_site_fract_x
 _atom_site_fract_y
 _atom_site_fract_z
 _atom_site_occupancy
  Mg  Mg0  1  0.208262  0.065466  0.500000  1
  Sc  Sc1  1  0.688561  0.174566  0.000000  1
  Sc  Sc2  1  0.340328  0.793789  0.000000  1
  Sc  Sc3  1  0.172219  0.353208  0.000000  1
  Sc  Sc4  1  0.826790  0.681714  0.000000  1
  Al  Al5  1  0.968064  0.991919  0.000000  1
  Al  Al6  1  0.497730  0.498106  0.000000  1
  B  B7  1  0.120152  0.631342  0.000000  1
  B  B8  1  0.878511  0.374739  0.000000  1
  B  B9  1  0.616015  0.866042  0.000000  1
  B  B10  1  0.423311  0.138971  0.000000  1
  Ru  Ru11  1  0.768500  0.928845  0.500000  1
  Ru  Ru12  1  0.074169  0.793816  0.500000  1
  Ru  Ru13  1  0.716322  0.427701  0.500000  1
  Ru  Ru14  1  0.942200  0.214928  0.500000  1
  Ru  Ru15  1  0.280446  0.567373  0.500000  1
  Ru  Ru16  1  0.572838  0.708437  0.500000  1
  Ru  Ru17  1  0.423126  0.284408  0.500000  1
  Ru  Ru18  1  0.487746  0.997548  0.500000  1
  Ru  Ru19  1  0.994709  0.507082  0.500000  1
