# generated using pymatgen
data_TbY2Co9(GeB2)2
_symmetry_space_group_name_H-M   'P 1'
_cell_length_a   5.16506802
_cell_length_b   5.16496670
_cell_length_c   9.44297400
_cell_angle_alpha   90.00445988
_cell_angle_beta   89.99771482
_cell_angle_gamma   119.99834385
_symmetry_Int_Tables_number   1
_chemical_formula_structural   TbY2Co9(GeB2)2
_chemical_formula_sum   'Tb1 Y2 Co9 Ge2 B4'
_cell_volume   218.16759419
_cell_formula_units_Z   1
loop_
 _symmetry_equiv_pos_site_id
 _symmetry_equiv_pos_as_xyz
  1  'x, y, z'
loop_
 _atom_site_type_symbol
 _atom_site_label
 _atom_site_symmetry_multiplicity
 _atom_site_fract_x
 _atom_site_fract_y
 _atom_site_fract_z
 _atom_site_occupancy
  Tb  Tb0  1  0.000080  0.000093  0.659867  1
  Y  Y1  1  0.999919  0.999986  0.000083  1
  Y  Y2  1  0.999994  0.999967  0.340128  1
  Co  Co3  1  0.500023  0.000033  0.499986  1
  Co  Co4  1  0.499922  0.500045  0.499986  1
  Co  Co5  1  0.000099  0.499955  0.500019  1
  Co  Co6  1  0.500053  0.999962  0.203327  1
  Co  Co7  1  0.499975  0.499986  0.203383  1
  Co  Co8  1  0.999951  0.500006  0.203426  1
  Co  Co9  1  0.500027  0.000027  0.796662  1
  Co  Co10  1  0.499965  0.500006  0.796673  1
  Co  Co11  1  0.999983  0.500009  0.796610  1
  Ge  Ge12  1  0.333244  0.666616  0.000035  1
  Ge  Ge13  1  0.666694  0.333373  0.000039  1
  B  B14  1  0.333341  0.666582  0.348169  1
  B  B15  1  0.666648  0.333348  0.348148  1
  B  B16  1  0.666627  0.333299  0.651733  1
  B  B17  1  0.333356  0.666705  0.651727  1
