# generated using pymatgen
data_LiPr4Al2ZnRh4
_symmetry_space_group_name_H-M   'P 1'
_cell_length_a   4.15488900
_cell_length_b   7.17513340
_cell_length_c   8.42023218
_cell_angle_alpha   90.26513854
_cell_angle_beta   90.00000000
_cell_angle_gamma   90.00000000
_symmetry_Int_Tables_number   1
_chemical_formula_structural   LiPr4Al2ZnRh4
_chemical_formula_sum   'Li1 Pr4 Al2 Zn1 Rh4'
_cell_volume   251.02028765
_cell_formula_units_Z   1
loop_
 _symmetry_equiv_pos_site_id
 _symmetry_equiv_pos_as_xyz
  1  'x, y, z'
loop_
 _atom_site_type_symbol
 _atom_site_label
 _atom_site_symmetry_multiplicity
 _atom_site_fract_x
 _atom_site_fract_y
 _atom_site_fract_z
 _atom_site_occupancy
  Li  Li0  1  0.250000  0.625933  0.552551  1
  Pr  Pr1  1  0.250000  0.534027  0.190195  1
  Pr  Pr2  1  0.750000  0.462196  0.812175  1
  Pr  Pr3  1  0.750000  0.961333  0.684411  1
  Pr  Pr4  1  0.250000  0.041850  0.317983  1
  Al  Al5  1  0.750000  0.864823  0.061203  1
  Al  Al6  1  0.250000  0.137208  0.939097  1
  Zn  Zn7  1  0.750000  0.368779  0.442953  1
  Rh  Rh8  1  0.250000  0.776161  0.902371  1
  Rh  Rh9  1  0.750000  0.227069  0.103027  1
  Rh  Rh10  1  0.750000  0.746743  0.364629  1
  Rh  Rh11  1  0.250000  0.253878  0.629405  1
