# generated using pymatgen
data_Rb4VTe4
_symmetry_space_group_name_H-M   'P 1'
_cell_length_a   9.32254500
_cell_length_b   10.97910400
_cell_length_c   16.14818800
_cell_angle_alpha   90.00000000
_cell_angle_beta   90.00000000
_cell_angle_gamma   90.00000000
_symmetry_Int_Tables_number   1
_chemical_formula_structural   Rb4VTe4
_chemical_formula_sum   'Rb16 V4 Te16'
_cell_volume   1652.81857228
_cell_formula_units_Z   4
loop_
 _symmetry_equiv_pos_site_id
 _symmetry_equiv_pos_as_xyz
  1  'x, y, z'
loop_
 _atom_site_type_symbol
 _atom_site_label
 _atom_site_symmetry_multiplicity
 _atom_site_fract_x
 _atom_site_fract_y
 _atom_site_fract_z
 _atom_site_occupancy
  Rb  Rb0  1  0.000000  0.000000  0.000000  1
  Rb  Rb1  1  0.500000  0.000000  0.500000  1
  Rb  Rb2  1  0.000000  0.500000  0.000000  1
  Rb  Rb3  1  0.500000  0.500000  0.500000  1
  Rb  Rb4  1  0.988940  0.750000  0.423190  1
  Rb  Rb5  1  0.488940  0.250000  0.076810  1
  Rb  Rb6  1  0.011060  0.250000  0.576810  1
  Rb  Rb7  1  0.511060  0.750000  0.923190  1
  Rb  Rb8  1  0.841954  0.050807  0.274836  1
  Rb  Rb9  1  0.341954  0.949193  0.225164  1
  Rb  Rb10  1  0.158046  0.550807  0.725164  1
  Rb  Rb11  1  0.658046  0.449193  0.774836  1
  Rb  Rb12  1  0.158046  0.949193  0.725164  1
  Rb  Rb13  1  0.658046  0.050807  0.774836  1
  Rb  Rb14  1  0.841954  0.449193  0.274836  1
  Rb  Rb15  1  0.341954  0.550807  0.225164  1
  V  V16  1  0.759336  0.750000  0.667023  1
  V  V17  1  0.240664  0.250000  0.332977  1
  V  V18  1  0.740664  0.750000  0.167023  1
  V  V19  1  0.259336  0.250000  0.832977  1
  Te  Te20  1  0.980795  0.250000  0.825515  1
  Te  Te21  1  0.519205  0.250000  0.325515  1
  Te  Te22  1  0.480795  0.750000  0.674485  1
  Te  Te23  1  0.019205  0.750000  0.174485  1
  Te  Te24  1  0.653525  0.559638  0.089172  1
  Te  Te25  1  0.153525  0.440362  0.410828  1
  Te  Te26  1  0.346475  0.059638  0.910828  1
  Te  Te27  1  0.846475  0.940362  0.589172  1
  Te  Te28  1  0.346475  0.440362  0.910828  1
  Te  Te29  1  0.846475  0.559638  0.589172  1
  Te  Te30  1  0.653525  0.940362  0.089172  1
  Te  Te31  1  0.153525  0.059638  0.410828  1
  Te  Te32  1  0.632731  0.750000  0.315732  1
  Te  Te33  1  0.132731  0.250000  0.184268  1
  Te  Te34  1  0.367269  0.250000  0.684268  1
  Te  Te35  1  0.867269  0.750000  0.815732  1
