# generated using pymatgen
data_Ba3NiIrPtN3
_symmetry_space_group_name_H-M   'P 1'
_cell_length_a   5.57377600
_cell_length_b   9.86968400
_cell_length_c   14.34567300
_cell_angle_alpha   90.00000000
_cell_angle_beta   90.00000000
_cell_angle_gamma   90.00000000
_symmetry_Int_Tables_number   1
_chemical_formula_structural   Ba3NiIrPtN3
_chemical_formula_sum   'Ba12 Ni4 Ir4 Pt4 N12'
_cell_volume   789.17566767
_cell_formula_units_Z   4
loop_
 _symmetry_equiv_pos_site_id
 _symmetry_equiv_pos_as_xyz
  1  'x, y, z'
loop_
 _atom_site_type_symbol
 _atom_site_label
 _atom_site_symmetry_multiplicity
 _atom_site_fract_x
 _atom_site_fract_y
 _atom_site_fract_z
 _atom_site_occupancy
  Ba  Ba0  1  0.488147  0.502559  0.748766  1
  Ba  Ba1  1  0.988147  0.997441  0.251234  1
  Ba  Ba2  1  0.011853  0.002559  0.751234  1
  Ba  Ba3  1  0.511853  0.497441  0.248766  1
  Ba  Ba4  1  0.973027  0.325431  0.412143  1
  Ba  Ba5  1  0.473027  0.174569  0.587857  1
  Ba  Ba6  1  0.526973  0.825431  0.087857  1
  Ba  Ba7  1  0.026973  0.674569  0.912143  1
  Ba  Ba8  1  0.030239  0.673634  0.585250  1
  Ba  Ba9  1  0.530239  0.826366  0.414750  1
  Ba  Ba10  1  0.469761  0.173634  0.914750  1
  Ba  Ba11  1  0.969761  0.326366  0.085250  1
  Ni  Ni12  1  0.538091  0.850310  0.845066  1
  Ni  Ni13  1  0.038091  0.649690  0.154934  1
  Ni  Ni14  1  0.961909  0.350310  0.654934  1
  Ni  Ni15  1  0.461909  0.149690  0.345066  1
  Ir  Ir16  1  0.989920  0.997755  0.996885  1
  Ir  Ir17  1  0.489920  0.502245  0.003115  1
  Ir  Ir18  1  0.510080  0.497755  0.503115  1
  Ir  Ir19  1  0.010080  0.002245  0.496885  1
  Pt  Pt20  1  0.452492  0.149537  0.162912  1
  Pt  Pt21  1  0.952492  0.350463  0.837088  1
  Pt  Pt22  1  0.047508  0.649537  0.337088  1
  Pt  Pt23  1  0.547508  0.850463  0.662912  1
  N  N24  1  0.325890  0.775979  0.761161  1
  N  N25  1  0.825890  0.724021  0.238839  1
  N  N26  1  0.174110  0.275979  0.738839  1
  N  N27  1  0.674110  0.224021  0.261161  1
  N  N28  1  0.244475  0.075272  0.420787  1
  N  N29  1  0.744475  0.424728  0.579213  1
  N  N30  1  0.255525  0.575272  0.079213  1
  N  N31  1  0.755525  0.924728  0.920787  1
  N  N32  1  0.778153  0.929777  0.573343  1
  N  N33  1  0.278153  0.570223  0.426657  1
  N  N34  1  0.721847  0.429777  0.926657  1
  N  N35  1  0.221847  0.070223  0.073343  1
