# generated using pymatgen
data_Dy2CuNi6B2Pt
_symmetry_space_group_name_H-M   'P 1'
_cell_length_a   5.01789201
_cell_length_b   5.02715996
_cell_length_c   7.10642000
_cell_angle_alpha   90.00000000
_cell_angle_beta   90.00000000
_cell_angle_gamma   119.92982732
_symmetry_Int_Tables_number   1
_chemical_formula_structural   Dy2CuNi6B2Pt
_chemical_formula_sum   'Dy2 Cu1 Ni6 B2 Pt1'
_cell_volume   155.35748306
_cell_formula_units_Z   1
loop_
 _symmetry_equiv_pos_site_id
 _symmetry_equiv_pos_as_xyz
  1  'x, y, z'
loop_
 _atom_site_type_symbol
 _atom_site_label
 _atom_site_symmetry_multiplicity
 _atom_site_fract_x
 _atom_site_fract_y
 _atom_site_fract_z
 _atom_site_occupancy
  Dy  Dy0  1  0.500086  0.000111  0.000000  1
  Dy  Dy1  1  0.499993  0.999975  0.500000  1
  Cu  Cu2  1  0.166682  0.333298  0.000000  1
  Ni  Ni3  1  0.000144  0.000297  0.698670  1
  Ni  Ni4  1  0.499619  0.499799  0.698940  1
  Ni  Ni5  1  0.000164  0.499799  0.698934  1
  Ni  Ni6  1  0.000144  0.000297  0.301330  1
  Ni  Ni7  1  0.499619  0.499799  0.301060  1
  Ni  Ni8  1  0.000164  0.499799  0.301066  1
  B  B9  1  0.833282  0.666598  0.500000  1
  B  B10  1  0.166682  0.333400  0.500000  1
  Pt  Pt11  1  0.833419  0.666828  0.000000  1
