# generated using pymatgen
data_TbSmAl3(Fe7C)2
_symmetry_space_group_name_H-M   'P 1'
_cell_length_a   6.49834474
_cell_length_b   6.49834399
_cell_length_c   6.50010920
_cell_angle_alpha   83.77650849
_cell_angle_beta   83.77649913
_cell_angle_gamma   84.30680473
_symmetry_Int_Tables_number   1
_chemical_formula_structural   TbSmAl3(Fe7C)2
_chemical_formula_sum   'Tb1 Sm1 Al3 Fe14 C2'
_cell_volume   270.19976517
_cell_formula_units_Z   1
loop_
 _symmetry_equiv_pos_site_id
 _symmetry_equiv_pos_as_xyz
  1  'x, y, z'
loop_
 _atom_site_type_symbol
 _atom_site_label
 _atom_site_symmetry_multiplicity
 _atom_site_fract_x
 _atom_site_fract_y
 _atom_site_fract_z
 _atom_site_occupancy
  Tb  Tb0  1  0.341820  0.341820  0.340193  1
  Sm  Sm1  1  0.656777  0.656777  0.659485  1
  Al  Al2  1  0.655858  0.655858  0.149578  1
  Al  Al3  1  0.343144  0.343144  0.852391  1
  Al  Al4  1  0.999995  0.999995  0.499484  1
  Fe  Fe5  1  0.655507  0.144753  0.663190  1
  Fe  Fe6  1  0.144753  0.655507  0.663190  1
  Fe  Fe7  1  0.343849  0.856302  0.336175  1
  Fe  Fe8  1  0.856302  0.343849  0.336175  1
  Fe  Fe9  1  0.096140  0.096140  0.092789  1
  Fe  Fe10  1  0.904521  0.904521  0.908023  1
  Fe  Fe11  1  0.000233  0.499543  0.000311  1
  Fe  Fe12  1  0.499543  0.000233  0.000311  1
  Fe  Fe13  1  0.717124  0.282199  0.000914  1
  Fe  Fe14  1  0.288479  0.996057  0.716691  1
  Fe  Fe15  1  0.005459  0.710781  0.282945  1
  Fe  Fe16  1  0.710781  0.005459  0.282945  1
  Fe  Fe17  1  0.996057  0.288479  0.716691  1
  Fe  Fe18  1  0.282199  0.717124  0.000914  1
  C  C19  1  0.498506  0.002953  0.498802  1
  C  C20  1  0.002953  0.498506  0.498802  1
