# generated using pymatgen
data_Ce2NCl2O
_symmetry_space_group_name_H-M   'P 1'
_cell_length_a   10.36564813
_cell_length_b   10.36564820
_cell_length_c   10.36564700
_cell_angle_alpha   21.72356843
_cell_angle_beta   21.72356745
_cell_angle_gamma   21.72357478
_symmetry_Int_Tables_number   1
_chemical_formula_structural   Ce2NCl2O
_chemical_formula_sum   'Ce2 N1 Cl2 O1'
_cell_volume   133.71981719
_cell_formula_units_Z   1
loop_
 _symmetry_equiv_pos_site_id
 _symmetry_equiv_pos_as_xyz
  1  'x, y, z'
loop_
 _atom_site_type_symbol
 _atom_site_label
 _atom_site_symmetry_multiplicity
 _atom_site_fract_x
 _atom_site_fract_y
 _atom_site_fract_z
 _atom_site_occupancy
  Ce  Ce0  1  0.784699  0.784699  0.784699  1
  Ce  Ce1  1  0.214171  0.214171  0.214171  1
  N  N2  1  0.139165  0.139165  0.139165  1
  Cl  Cl3  1  0.391352  0.391352  0.391352  1
  Cl  Cl4  1  0.607326  0.607326  0.607326  1
  O  O5  1  0.863288  0.863288  0.863288  1
