# generated using pymatgen
data_Th5AlBi2Pb
_symmetry_space_group_name_H-M   'P 1'
_cell_length_a   9.72592636
_cell_length_b   9.72592742
_cell_length_c   6.57370300
_cell_angle_alpha   90.00000000
_cell_angle_beta   90.00000000
_cell_angle_gamma   119.96864088
_symmetry_Int_Tables_number   1
_chemical_formula_structural   Th5AlBi2Pb
_chemical_formula_sum   'Th10 Al2 Bi4 Pb2'
_cell_volume   538.69117406
_cell_formula_units_Z   2
loop_
 _symmetry_equiv_pos_site_id
 _symmetry_equiv_pos_as_xyz
  1  'x, y, z'
loop_
 _atom_site_type_symbol
 _atom_site_label
 _atom_site_symmetry_multiplicity
 _atom_site_fract_x
 _atom_site_fract_y
 _atom_site_fract_z
 _atom_site_occupancy
  Th  Th0  1  0.666509  0.333003  0.000175  1
  Th  Th1  1  0.333003  0.666509  0.000175  1
  Th  Th2  1  0.333003  0.666509  0.499825  1
  Th  Th3  1  0.666509  0.333003  0.499825  1
  Th  Th4  1  0.731440  0.731440  0.750000  1
  Th  Th5  1  0.268854  0.000307  0.750000  1
  Th  Th6  1  0.000307  0.268854  0.750000  1
  Th  Th7  1  0.269184  0.269184  0.250000  1
  Th  Th8  1  0.731581  0.000375  0.250000  1
  Th  Th9  1  0.000375  0.731581  0.250000  1
  Al  Al10  1  0.000139  0.000139  0.000153  1
  Al  Al11  1  0.000139  0.000139  0.499847  1
  Bi  Bi12  1  0.382124  0.382124  0.750000  1
  Bi  Bi13  1  0.617266  0.000475  0.750000  1
  Bi  Bi14  1  0.000475  0.617266  0.750000  1
  Bi  Bi15  1  0.617133  0.617133  0.250000  1
  Pb  Pb16  1  0.381613  0.000347  0.250000  1
  Pb  Pb17  1  0.000347  0.381613  0.250000  1
