# generated using pymatgen
data_La3Pr13Mg3CdIr4
_symmetry_space_group_name_H-M   'P 1'
_cell_length_a   10.09118571
_cell_length_b   10.11791082
_cell_length_c   10.11791000
_cell_angle_alpha   60.00000269
_cell_angle_beta   59.91235686
_cell_angle_gamma   59.91234917
_symmetry_Int_Tables_number   1
_chemical_formula_structural   La3Pr13Mg3CdIr4
_chemical_formula_sum   'La3 Pr13 Mg3 Cd1 Ir4'
_cell_volume   729.51168175
_cell_formula_units_Z   1
loop_
 _symmetry_equiv_pos_site_id
 _symmetry_equiv_pos_as_xyz
  1  'x, y, z'
loop_
 _atom_site_type_symbol
 _atom_site_label
 _atom_site_symmetry_multiplicity
 _atom_site_fract_x
 _atom_site_fract_y
 _atom_site_fract_z
 _atom_site_occupancy
  La  La0  1  0.344661  0.345957  0.345957  1
  La  La1  1  0.344661  0.345957  0.963424  1
  La  La2  1  0.344661  0.963424  0.345957  1
  Pr  Pr3  1  0.961820  0.346059  0.346059  1
  Pr  Pr4  1  0.812643  0.187833  0.187833  1
  Pr  Pr5  1  0.188917  0.811034  0.811034  1
  Pr  Pr6  1  0.188917  0.811034  0.189016  1
  Pr  Pr7  1  0.812643  0.187833  0.811689  1
  Pr  Pr8  1  0.188917  0.189016  0.811034  1
  Pr  Pr9  1  0.812643  0.811689  0.187833  1
  Pr  Pr10  1  0.938770  0.562408  0.562408  1
  Pr  Pr11  1  0.563154  0.936787  0.936787  1
  Pr  Pr12  1  0.563154  0.936787  0.563272  1
  Pr  Pr13  1  0.938770  0.562408  0.936414  1
  Pr  Pr14  1  0.563154  0.563272  0.936787  1
  Pr  Pr15  1  0.938770  0.936414  0.562408  1
  Mg  Mg16  1  0.577195  0.578301  0.578301  1
  Mg  Mg17  1  0.577195  0.578301  0.266201  1
  Mg  Mg18  1  0.577195  0.266201  0.578301  1
  Cd  Cd19  1  0.260557  0.579814  0.579814  1
  Ir  Ir20  1  0.142394  0.141148  0.141148  1
  Ir  Ir21  1  0.142394  0.141148  0.575311  1
  Ir  Ir22  1  0.142394  0.575311  0.141148  1
  Ir  Ir23  1  0.574417  0.141861  0.141861  1
