# generated using pymatgen
data_Li8Sc8Sn7Sb
_symmetry_space_group_name_H-M   'P 1'
_cell_length_a   9.18567400
_cell_length_b   9.18567397
_cell_length_c   6.64307900
_cell_angle_alpha   90.00000000
_cell_angle_beta   90.00000000
_cell_angle_gamma   120.00000011
_symmetry_Int_Tables_number   1
_chemical_formula_structural   Li8Sc8Sn7Sb
_chemical_formula_sum   'Li8 Sc8 Sn7 Sb1'
_cell_volume   485.42495986
_cell_formula_units_Z   1
loop_
 _symmetry_equiv_pos_site_id
 _symmetry_equiv_pos_as_xyz
  1  'x, y, z'
loop_
 _atom_site_type_symbol
 _atom_site_label
 _atom_site_symmetry_multiplicity
 _atom_site_fract_x
 _atom_site_fract_y
 _atom_site_fract_z
 _atom_site_occupancy
  Li  Li0  1  0.166358  0.332717  0.230036  1
  Li  Li1  1  0.166358  0.833642  0.230036  1
  Li  Li2  1  0.667283  0.833642  0.230036  1
  Li  Li3  1  0.666667  0.333333  0.288628  1
  Li  Li4  1  0.833191  0.666382  0.730219  1
  Li  Li5  1  0.333618  0.166809  0.730219  1
  Li  Li6  1  0.833191  0.166809  0.730219  1
  Li  Li7  1  0.333333  0.666667  0.799378  1
  Sc  Sc8  1  0.000000  0.000000  0.999678  1
  Sc  Sc9  1  0.506248  0.012496  0.003637  1
  Sc  Sc10  1  0.506248  0.493752  0.003637  1
  Sc  Sc11  1  0.987504  0.493752  0.003637  1
  Sc  Sc12  1  0.000000  0.000000  0.500243  1
  Sc  Sc13  1  0.494753  0.989504  0.506357  1
  Sc  Sc14  1  0.010496  0.505247  0.506357  1
  Sc  Sc15  1  0.494753  0.505247  0.506357  1
  Sn  Sn16  1  0.833545  0.667090  0.260468  1
  Sn  Sn17  1  0.332910  0.166455  0.260468  1
  Sn  Sn18  1  0.833545  0.166455  0.260468  1
  Sn  Sn19  1  0.666667  0.333333  0.750046  1
  Sn  Sn20  1  0.166606  0.333211  0.759127  1
  Sn  Sn21  1  0.166606  0.833394  0.759127  1
  Sn  Sn22  1  0.666789  0.833394  0.759127  1
  Sb  Sb23  1  0.333333  0.666667  0.250478  1
