# generated using pymatgen
data_Ta2SeF14
_symmetry_space_group_name_H-M   'P 1'
_cell_length_a   7.63656800
_cell_length_b   8.83228152
_cell_length_c   17.14652400
_cell_angle_alpha   90.00000000
_cell_angle_beta   90.00000000
_cell_angle_gamma   103.85134309
_symmetry_Int_Tables_number   1
_chemical_formula_structural   Ta2SeF14
_chemical_formula_sum   'Ta8 Se4 F56'
_cell_volume   1122.87322876
_cell_formula_units_Z   4
loop_
 _symmetry_equiv_pos_site_id
 _symmetry_equiv_pos_as_xyz
  1  'x, y, z'
loop_
 _atom_site_type_symbol
 _atom_site_label
 _atom_site_symmetry_multiplicity
 _atom_site_fract_x
 _atom_site_fract_y
 _atom_site_fract_z
 _atom_site_occupancy
  Ta  Ta0  1  0.226810  0.228948  0.818625  1
  Ta  Ta1  1  0.773190  0.271052  0.318625  1
  Ta  Ta2  1  0.773190  0.771052  0.181375  1
  Ta  Ta3  1  0.226810  0.728948  0.681375  1
  Ta  Ta4  1  0.779755  0.668642  0.538306  1
  Ta  Ta5  1  0.220245  0.831358  0.038306  1
  Ta  Ta6  1  0.220245  0.331358  0.461694  1
  Ta  Ta7  1  0.779755  0.168642  0.961694  1
  Se  Se8  1  0.828828  0.629162  0.862456  1
  Se  Se9  1  0.171172  0.870838  0.362456  1
  Se  Se10  1  0.171172  0.370838  0.137544  1
  Se  Se11  1  0.828828  0.129162  0.637544  1
  F  F12  1  0.816641  0.312968  0.668440  1
  F  F13  1  0.183359  0.187032  0.168440  1
  F  F14  1  0.183359  0.687032  0.331560  1
  F  F15  1  0.816641  0.812968  0.831560  1
  F  F16  1  0.669365  0.030620  0.703153  1
  F  F17  1  0.330635  0.469380  0.203153  1
  F  F18  1  0.330635  0.969380  0.296847  1
  F  F19  1  0.669365  0.530620  0.796847  1
  F  F20  1  0.672548  0.128109  0.564598  1
  F  F21  1  0.327452  0.371891  0.064598  1
  F  F22  1  0.327452  0.871891  0.435402  1
  F  F23  1  0.672548  0.628109  0.935402  1
  F  F24  1  0.026621  0.660938  0.756150  1
  F  F25  1  0.973379  0.839062  0.256150  1
  F  F26  1  0.973379  0.339062  0.243850  1
  F  F27  1  0.026621  0.160938  0.743850  1
  F  F28  1  0.389909  0.797430  0.599288  1
  F  F29  1  0.610091  0.702570  0.099288  1
  F  F30  1  0.610091  0.202570  0.400712  1
  F  F31  1  0.389909  0.297430  0.900712  1
  F  F32  1  0.397318  0.767815  0.760882  1
  F  F33  1  0.602682  0.732185  0.260882  1
  F  F34  1  0.602682  0.232185  0.239118  1
  F  F35  1  0.397318  0.267815  0.739118  1
  F  F36  1  0.163344  0.924311  0.677844  1
  F  F37  1  0.836656  0.575689  0.177844  1
  F  F38  1  0.836656  0.075689  0.322156  1
  F  F39  1  0.163344  0.424311  0.822156  1
  F  F40  1  0.224285  0.517315  0.662402  1
  F  F41  1  0.775715  0.982685  0.162402  1
  F  F42  1  0.775715  0.482685  0.337598  1
  F  F43  1  0.224285  0.017315  0.837598  1
  F  F44  1  0.011285  0.674350  0.600727  1
  F  F45  1  0.988715  0.825650  0.100727  1
  F  F46  1  0.988715  0.325650  0.399273  1
  F  F47  1  0.011285  0.174350  0.899273  1
  F  F48  1  0.951735  0.755671  0.455209  1
  F  F49  1  0.048265  0.744329  0.955209  1
  F  F50  1  0.048265  0.244329  0.544791  1
  F  F51  1  0.951735  0.255671  0.044791  1
  F  F52  1  0.648101  0.604105  0.629767  1
  F  F53  1  0.351899  0.895895  0.129767  1
  F  F54  1  0.351899  0.395895  0.370233  1
  F  F55  1  0.648101  0.104105  0.870233  1
  F  F56  1  0.586168  0.677413  0.474087  1
  F  F57  1  0.413832  0.822587  0.974087  1
  F  F58  1  0.413832  0.322587  0.525913  1
  F  F59  1  0.586168  0.177413  0.025913  1
  F  F60  1  0.820679  0.884420  0.575102  1
  F  F61  1  0.179321  0.615580  0.075102  1
  F  F62  1  0.179321  0.115580  0.424898  1
  F  F63  1  0.820679  0.384420  0.924898  1
  F  F64  1  0.792688  0.466235  0.511052  1
  F  F65  1  0.207312  0.033765  0.011052  1
  F  F66  1  0.207312  0.533765  0.488948  1
  F  F67  1  0.792688  0.966235  0.988948  1
