# generated using pymatgen
data_Y9MgCd3Os
_symmetry_space_group_name_H-M   'P 1'
_cell_length_a   9.49288000
_cell_length_b   9.49287930
_cell_length_c   9.77841100
_cell_angle_alpha   90.00000000
_cell_angle_beta   90.00000000
_cell_angle_gamma   119.99999548
_symmetry_Int_Tables_number   1
_chemical_formula_structural   Y9MgCd3Os
_chemical_formula_sum   'Y18 Mg2 Cd6 Os2'
_cell_volume   763.12360697
_cell_formula_units_Z   2
loop_
 _symmetry_equiv_pos_site_id
 _symmetry_equiv_pos_as_xyz
  1  'x, y, z'
loop_
 _atom_site_type_symbol
 _atom_site_label
 _atom_site_symmetry_multiplicity
 _atom_site_fract_x
 _atom_site_fract_y
 _atom_site_fract_z
 _atom_site_occupancy
  Y  Y0  1  0.540345  0.459655  0.250000  1
  Y  Y1  1  0.540345  0.080690  0.250000  1
  Y  Y2  1  0.919310  0.459655  0.250000  1
  Y  Y3  1  0.459655  0.540345  0.750000  1
  Y  Y4  1  0.459655  0.919310  0.750000  1
  Y  Y5  1  0.080690  0.540345  0.750000  1
  Y  Y6  1  0.208054  0.791946  0.441717  1
  Y  Y7  1  0.208054  0.416108  0.441717  1
  Y  Y8  1  0.583892  0.791946  0.441717  1
  Y  Y9  1  0.791946  0.208054  0.558283  1
  Y  Y10  1  0.791946  0.583892  0.558283  1
  Y  Y11  1  0.416108  0.208054  0.558283  1
  Y  Y12  1  0.791946  0.208054  0.941717  1
  Y  Y13  1  0.791946  0.583892  0.941717  1
  Y  Y14  1  0.416108  0.208054  0.941717  1
  Y  Y15  1  0.208054  0.791946  0.058283  1
  Y  Y16  1  0.208054  0.416108  0.058283  1
  Y  Y17  1  0.583892  0.791946  0.058283  1
  Mg  Mg18  1  0.000000  0.000000  0.500000  1
  Mg  Mg19  1  0.000000  0.000000  0.000000  1
  Cd  Cd20  1  0.889974  0.110026  0.250000  1
  Cd  Cd21  1  0.889974  0.779948  0.250000  1
  Cd  Cd22  1  0.220052  0.110026  0.250000  1
  Cd  Cd23  1  0.110026  0.889974  0.750000  1
  Cd  Cd24  1  0.110026  0.220052  0.750000  1
  Cd  Cd25  1  0.779948  0.889974  0.750000  1
  Os  Os26  1  0.333333  0.666667  0.250000  1
  Os  Os27  1  0.666667  0.333333  0.750000  1
