# generated using pymatgen
data_Ce3Zr(Si5Os3)2
_symmetry_space_group_name_H-M   'P 1'
_cell_length_a   8.12913340
_cell_length_b   8.11766969
_cell_length_c   5.81410468
_cell_angle_alpha   70.75152663
_cell_angle_beta   70.35585241
_cell_angle_gamma   93.53371509
_symmetry_Int_Tables_number   1
_chemical_formula_structural   Ce3Zr(Si5Os3)2
_chemical_formula_sum   'Ce3 Zr1 Si10 Os6'
_cell_volume   334.66207416
_cell_formula_units_Z   1
loop_
 _symmetry_equiv_pos_site_id
 _symmetry_equiv_pos_as_xyz
  1  'x, y, z'
loop_
 _atom_site_type_symbol
 _atom_site_label
 _atom_site_symmetry_multiplicity
 _atom_site_fract_x
 _atom_site_fract_y
 _atom_site_fract_z
 _atom_site_occupancy
  Ce  Ce0  1  0.868811  0.600688  0.756687  1
  Ce  Ce1  1  0.399290  0.132718  0.741945  1
  Ce  Ce2  1  0.131811  0.398242  0.242993  1
  Zr  Zr3  1  0.597635  0.867346  0.257754  1
  Si  Si4  1  0.063376  0.264956  0.835517  1
  Si  Si5  1  0.738606  0.938387  0.661556  1
  Si  Si6  1  0.928250  0.739809  0.166699  1
  Si  Si7  1  0.262374  0.058405  0.337543  1
  Si  Si8  1  0.203765  0.791650  0.758380  1
  Si  Si9  1  0.790769  0.202747  0.247580  1
  Si  Si10  1  0.515578  0.485858  0.752196  1
  Si  Si11  1  0.488579  0.520348  0.244645  1
  Si  Si12  1  0.773761  0.222472  0.755514  1
  Si  Si13  1  0.232178  0.774016  0.247890  1
  Os  Os14  1  0.260853  0.546705  0.631214  1
  Os  Os15  1  0.460776  0.747516  0.858684  1
  Os  Os16  1  0.743917  0.455007  0.368231  1
  Os  Os17  1  0.541290  0.253208  0.135509  1
  Os  Os18  1  0.000064  0.998059  0.751675  1
  Os  Os19  1  0.998316  0.001863  0.247790  1
