# generated using pymatgen
data_Nb2Pt3Se8
_symmetry_space_group_name_H-M   'P 1'
_cell_length_a   3.63401500
_cell_length_b   11.20183800
_cell_length_c   15.41847800
_cell_angle_alpha   90.00000000
_cell_angle_beta   90.00000000
_cell_angle_gamma   90.00000000
_symmetry_Int_Tables_number   1
_chemical_formula_structural   Nb2Pt3Se8
_chemical_formula_sum   'Nb4 Pt6 Se16'
_cell_volume   627.64996463
_cell_formula_units_Z   2
loop_
 _symmetry_equiv_pos_site_id
 _symmetry_equiv_pos_as_xyz
  1  'x, y, z'
loop_
 _atom_site_type_symbol
 _atom_site_label
 _atom_site_symmetry_multiplicity
 _atom_site_fract_x
 _atom_site_fract_y
 _atom_site_fract_z
 _atom_site_occupancy
  Nb  Nb0  1  0.500000  0.693372  0.374273  1
  Nb  Nb1  1  0.500000  0.306628  0.625727  1
  Nb  Nb2  1  0.500000  0.193372  0.125727  1
  Nb  Nb3  1  0.500000  0.806628  0.874273  1
  Pt  Pt4  1  0.000000  0.849949  0.274856  1
  Pt  Pt5  1  0.000000  0.150051  0.725144  1
  Pt  Pt6  1  0.000000  0.349949  0.225144  1
  Pt  Pt7  1  0.000000  0.650051  0.774856  1
  Pt  Pt8  1  0.000000  0.500000  0.500000  1
  Pt  Pt9  1  0.000000  0.000000  0.000000  1
  Se  Se10  1  0.500000  0.925885  0.371547  1
  Se  Se11  1  0.500000  0.074115  0.628453  1
  Se  Se12  1  0.500000  0.425885  0.128453  1
  Se  Se13  1  0.500000  0.574115  0.871547  1
  Se  Se14  1  0.500000  0.727880  0.207567  1
  Se  Se15  1  0.500000  0.272120  0.792433  1
  Se  Se16  1  0.500000  0.227880  0.292433  1
  Se  Se17  1  0.500000  0.772120  0.707567  1
  Se  Se18  1  0.000000  0.524953  0.340928  1
  Se  Se19  1  0.000000  0.475047  0.659072  1
  Se  Se20  1  0.000000  0.779545  0.997816  1
  Se  Se21  1  0.000000  0.220455  0.002184  1
  Se  Se22  1  0.000000  0.279545  0.502184  1
  Se  Se23  1  0.000000  0.720455  0.497816  1
  Se  Se24  1  0.000000  0.975047  0.840928  1
  Se  Se25  1  0.000000  0.024953  0.159072  1
