# generated using pymatgen
data_DyEr10In(NiHg2)4
_symmetry_space_group_name_H-M   'P 1'
_cell_length_a   3.60308900
_cell_length_b   12.80339380
_cell_length_c   12.80339402
_cell_angle_alpha   112.22972905
_cell_angle_beta   90.00000000
_cell_angle_gamma   90.00000000
_symmetry_Int_Tables_number   1
_chemical_formula_structural   DyEr10In(NiHg2)4
_chemical_formula_sum   'Dy1 Er10 In1 Ni4 Hg8'
_cell_volume   546.74329068
_cell_formula_units_Z   1
loop_
 _symmetry_equiv_pos_site_id
 _symmetry_equiv_pos_as_xyz
  1  'x, y, z'
loop_
 _atom_site_type_symbol
 _atom_site_label
 _atom_site_symmetry_multiplicity
 _atom_site_fract_x
 _atom_site_fract_y
 _atom_site_fract_z
 _atom_site_occupancy
  Dy  Dy0  1  0.000000  0.000000  0.000000  1
  Er  Er1  1  0.000000  0.917364  0.582621  1
  Er  Er2  1  0.000000  0.082636  0.417379  1
  Er  Er3  1  0.000000  0.582621  0.917364  1
  Er  Er4  1  0.000000  0.417379  0.082636  1
  Er  Er5  1  0.000000  0.165715  0.834285  1
  Er  Er6  1  0.000000  0.834285  0.165715  1
  Er  Er7  1  0.000000  0.371595  0.628405  1
  Er  Er8  1  0.000000  0.628405  0.371595  1
  Er  Er9  1  0.000000  0.691955  0.691955  1
  Er  Er10  1  0.000000  0.308045  0.308045  1
  In  In11  1  0.500000  0.500000  0.500000  1
  Ni  Ni12  1  0.500000  0.747007  0.549033  1
  Ni  Ni13  1  0.500000  0.252993  0.450967  1
  Ni  Ni14  1  0.500000  0.549033  0.747007  1
  Ni  Ni15  1  0.500000  0.450967  0.252993  1
  Hg  Hg16  1  0.500000  0.154128  0.629804  1
  Hg  Hg17  1  0.500000  0.845872  0.370196  1
  Hg  Hg18  1  0.500000  0.629804  0.154128  1
  Hg  Hg19  1  0.500000  0.370196  0.845872  1
  Hg  Hg20  1  0.500000  0.928705  0.780997  1
  Hg  Hg21  1  0.500000  0.071295  0.219003  1
  Hg  Hg22  1  0.500000  0.780997  0.928705  1
  Hg  Hg23  1  0.500000  0.219003  0.071295  1
