# generated using pymatgen
data_CeY2(InPt)3
_symmetry_space_group_name_H-M   'P 1'
_cell_length_a   7.68740800
_cell_length_b   7.69208274
_cell_length_c   3.94676000
_cell_angle_alpha   90.00000000
_cell_angle_beta   90.00000000
_cell_angle_gamma   119.97989834
_symmetry_Int_Tables_number   1
_chemical_formula_structural   CeY2(InPt)3
_chemical_formula_sum   'Ce1 Y2 In3 Pt3'
_cell_volume   202.15438323
_cell_formula_units_Z   1
loop_
 _symmetry_equiv_pos_site_id
 _symmetry_equiv_pos_as_xyz
  1  'x, y, z'
loop_
 _atom_site_type_symbol
 _atom_site_label
 _atom_site_symmetry_multiplicity
 _atom_site_fract_x
 _atom_site_fract_y
 _atom_site_fract_z
 _atom_site_occupancy
  Ce  Ce0  1  0.408461  0.000000  0.500000  1
  Y  Y1  1  0.998642  0.404849  0.500000  1
  Y  Y2  1  0.593793  0.595151  0.500000  1
  In  In3  1  0.746084  0.000000  0.000000  1
  In  In4  1  0.258278  0.263505  0.000000  1
  In  In5  1  0.994773  0.736495  0.000000  1
  Pt  Pt6  1  0.002600  0.000000  0.500000  1
  Pt  Pt7  1  0.662360  0.327350  0.000000  1
  Pt  Pt8  1  0.335009  0.672650  0.000000  1
