# generated using pymatgen
data_Zr2Si4Tc3
_symmetry_space_group_name_H-M   'P 1'
_cell_length_a   9.99855000
_cell_length_b   9.99855032
_cell_length_c   13.47195021
_cell_angle_alpha   54.42136245
_cell_angle_beta   54.42135963
_cell_angle_gamma   31.10366593
_symmetry_Int_Tables_number   1
_chemical_formula_structural   Zr2Si4Tc3
_chemical_formula_sum   'Zr8 Si16 Tc12'
_cell_volume   554.53290349
_cell_formula_units_Z   4
loop_
 _symmetry_equiv_pos_site_id
 _symmetry_equiv_pos_as_xyz
  1  'x, y, z'
loop_
 _atom_site_type_symbol
 _atom_site_label
 _atom_site_symmetry_multiplicity
 _atom_site_fract_x
 _atom_site_fract_y
 _atom_site_fract_z
 _atom_site_occupancy
  Zr  Zr0  1  0.038586  0.288351  0.640575  1
  Zr  Zr1  1  0.711649  0.961414  0.859425  1
  Zr  Zr2  1  0.961414  0.711649  0.359425  1
  Zr  Zr3  1  0.288351  0.038586  0.140575  1
  Zr  Zr4  1  0.295763  0.557592  0.645334  1
  Zr  Zr5  1  0.442408  0.704237  0.854666  1
  Zr  Zr6  1  0.704237  0.442408  0.354666  1
  Zr  Zr7  1  0.557592  0.295763  0.145334  1
  Si  Si8  1  0.972585  0.252514  0.895267  1
  Si  Si9  1  0.747486  0.027415  0.604733  1
  Si  Si10  1  0.027415  0.747486  0.104733  1
  Si  Si11  1  0.252514  0.972585  0.395267  1
  Si  Si12  1  0.143404  0.387924  0.898995  1
  Si  Si13  1  0.612076  0.856596  0.601005  1
  Si  Si14  1  0.856596  0.612076  0.101005  1
  Si  Si15  1  0.387924  0.143404  0.398995  1
  Si  Si16  1  0.078591  0.577694  0.565453  1
  Si  Si17  1  0.422306  0.921409  0.934547  1
  Si  Si18  1  0.921409  0.422306  0.434547  1
  Si  Si19  1  0.577694  0.078591  0.065453  1
  Si  Si20  1  0.608188  0.391812  0.750000  1
  Si  Si21  1  0.391812  0.608188  0.250000  1
  Si  Si22  1  0.129947  0.870053  0.750000  1
  Si  Si23  1  0.870053  0.129947  0.250000  1
  Tc  Tc24  1  0.895298  0.146235  0.584804  1
  Tc  Tc25  1  0.853765  0.104702  0.915196  1
  Tc  Tc26  1  0.104702  0.853765  0.415196  1
  Tc  Tc27  1  0.146235  0.895298  0.084804  1
  Tc  Tc28  1  0.835952  0.647432  0.776846  1
  Tc  Tc29  1  0.352568  0.164048  0.723154  1
  Tc  Tc30  1  0.164048  0.352568  0.223154  1
  Tc  Tc31  1  0.647432  0.835952  0.276846  1
  Tc  Tc32  1  0.246319  0.509485  0.937445  1
  Tc  Tc33  1  0.490515  0.753681  0.562555  1
  Tc  Tc34  1  0.753681  0.490515  0.062555  1
  Tc  Tc35  1  0.509485  0.246319  0.437445  1
