# generated using pymatgen
data_Na(CrS)3
_symmetry_space_group_name_H-M   'P 1'
_cell_length_a   8.23556400
_cell_length_b   8.23643783
_cell_length_c   4.08303000
_cell_angle_alpha   90.00000000
_cell_angle_beta   90.00000000
_cell_angle_gamma   119.99900388
_symmetry_Int_Tables_number   1
_chemical_formula_structural   Na(CrS)3
_chemical_formula_sum   'Na2 Cr6 S6'
_cell_volume   239.85585987
_cell_formula_units_Z   2
loop_
 _symmetry_equiv_pos_site_id
 _symmetry_equiv_pos_as_xyz
  1  'x, y, z'
loop_
 _atom_site_type_symbol
 _atom_site_label
 _atom_site_symmetry_multiplicity
 _atom_site_fract_x
 _atom_site_fract_y
 _atom_site_fract_z
 _atom_site_occupancy
  Na  Na0  1  0.333332  0.666657  0.250000  1
  Na  Na1  1  0.666668  0.333343  0.750000  1
  Cr  Cr2  1  0.145650  0.188437  0.250000  1
  Cr  Cr3  1  0.854350  0.811563  0.750000  1
  Cr  Cr4  1  0.811338  0.957168  0.250000  1
  Cr  Cr5  1  0.042800  0.854356  0.250000  1
  Cr  Cr6  1  0.957200  0.145644  0.750000  1
  Cr  Cr7  1  0.188662  0.042832  0.750000  1
  S  S8  1  0.918230  0.279944  0.250000  1
  S  S9  1  0.081770  0.720056  0.750000  1
  S  S10  1  0.720047  0.638297  0.250000  1
  S  S11  1  0.361729  0.081764  0.250000  1
  S  S12  1  0.638271  0.918236  0.750000  1
  S  S13  1  0.279953  0.361703  0.750000  1
