# generated using pymatgen
data_IrPbBr18
_symmetry_space_group_name_H-M   'P 1'
_cell_length_a   9.48902657
_cell_length_b   9.48902445
_cell_length_c   9.48902482
_cell_angle_alpha   93.88274077
_cell_angle_beta   93.88274792
_cell_angle_gamma   93.88274781
_symmetry_Int_Tables_number   1
_chemical_formula_structural   IrPbBr18
_chemical_formula_sum   'Ir1 Pb1 Br18'
_cell_volume   848.24293513
_cell_formula_units_Z   1
loop_
 _symmetry_equiv_pos_site_id
 _symmetry_equiv_pos_as_xyz
  1  'x, y, z'
loop_
 _atom_site_type_symbol
 _atom_site_label
 _atom_site_symmetry_multiplicity
 _atom_site_fract_x
 _atom_site_fract_y
 _atom_site_fract_z
 _atom_site_occupancy
  Ir  Ir0  1  0.000000  0.000000  0.000000  1
  Pb  Pb1  1  0.500000  0.500000  0.500000  1
  Br  Br2  1  0.263997  0.007462  0.021158  1
  Br  Br3  1  0.021158  0.263997  0.007462  1
  Br  Br4  1  0.007462  0.021158  0.263997  1
  Br  Br5  1  0.736003  0.992538  0.978842  1
  Br  Br6  1  0.978842  0.736003  0.992538  1
  Br  Br7  1  0.992538  0.978842  0.736003  1
  Br  Br8  1  0.641116  0.221560  0.099451  1
  Br  Br9  1  0.099451  0.641116  0.221560  1
  Br  Br10  1  0.221560  0.099451  0.641116  1
  Br  Br11  1  0.358884  0.778440  0.900549  1
  Br  Br12  1  0.900549  0.358884  0.778440  1
  Br  Br13  1  0.778440  0.900549  0.358884  1
  Br  Br14  1  0.444945  0.187347  0.537464  1
  Br  Br15  1  0.537464  0.444945  0.187347  1
  Br  Br16  1  0.187347  0.537464  0.444945  1
  Br  Br17  1  0.555055  0.812653  0.462536  1
  Br  Br18  1  0.462536  0.555055  0.812653  1
  Br  Br19  1  0.812653  0.462536  0.555055  1
