# generated using pymatgen
data_NdHo2SiPd5
_symmetry_space_group_name_H-M   'P 1'
_cell_length_a   8.30227800
_cell_length_b   8.30227741
_cell_length_c   8.30227731
_cell_angle_alpha   127.86042811
_cell_angle_beta   126.17354371
_cell_angle_gamma   78.23060378
_symmetry_Int_Tables_number   1
_chemical_formula_structural   NdHo2SiPd5
_chemical_formula_sum   'Nd2 Ho4 Si2 Pd10'
_cell_volume   353.28359929
_cell_formula_units_Z   2
loop_
 _symmetry_equiv_pos_site_id
 _symmetry_equiv_pos_as_xyz
  1  'x, y, z'
loop_
 _atom_site_type_symbol
 _atom_site_label
 _atom_site_symmetry_multiplicity
 _atom_site_fract_x
 _atom_site_fract_y
 _atom_site_fract_z
 _atom_site_occupancy
  Nd  Nd0  1  0.382628  0.250000  0.132628  1
  Nd  Nd1  1  0.617372  0.750000  0.867372  1
  Ho  Ho2  1  0.224053  0.450099  0.773955  1
  Ho  Ho3  1  0.775947  0.549901  0.226045  1
  Ho  Ho4  1  0.823857  0.049901  0.773955  1
  Ho  Ho5  1  0.176143  0.950099  0.226045  1
  Si  Si6  1  0.783093  0.250000  0.533093  1
  Si  Si7  1  0.216907  0.750000  0.466907  1
  Pd  Pd8  1  0.162822  0.400168  0.356177  1
  Pd  Pd9  1  0.837178  0.193355  0.237346  1
  Pd  Pd10  1  0.456010  0.099832  0.762654  1
  Pd  Pd11  1  0.543990  0.306645  0.643823  1
  Pd  Pd12  1  0.000000  0.500000  0.000000  1
  Pd  Pd13  1  0.000000  0.000000  0.500000  1
  Pd  Pd14  1  0.456010  0.693355  0.356177  1
  Pd  Pd15  1  0.543990  0.900168  0.237346  1
  Pd  Pd16  1  0.162822  0.806645  0.762654  1
  Pd  Pd17  1  0.837178  0.599832  0.643823  1
