# generated using pymatgen
data_Li8Pr7NdBi8
_symmetry_space_group_name_H-M   'P 1'
_cell_length_a   9.83602400
_cell_length_b   9.83602293
_cell_length_c   7.57425000
_cell_angle_alpha   90.00000000
_cell_angle_beta   90.00000000
_cell_angle_gamma   119.99999687
_symmetry_Int_Tables_number   1
_chemical_formula_structural   Li8Pr7NdBi8
_chemical_formula_sum   'Li8 Pr7 Nd1 Bi8'
_cell_volume   634.61362686
_cell_formula_units_Z   1
loop_
 _symmetry_equiv_pos_site_id
 _symmetry_equiv_pos_as_xyz
  1  'x, y, z'
loop_
 _atom_site_type_symbol
 _atom_site_label
 _atom_site_symmetry_multiplicity
 _atom_site_fract_x
 _atom_site_fract_y
 _atom_site_fract_z
 _atom_site_occupancy
  Li  Li0  1  0.167026  0.832974  0.289437  1
  Li  Li1  1  0.665946  0.832974  0.289437  1
  Li  Li2  1  0.167026  0.334054  0.289437  1
  Li  Li3  1  0.832903  0.167097  0.795466  1
  Li  Li4  1  0.334195  0.167097  0.795466  1
  Li  Li5  1  0.832903  0.665805  0.795466  1
  Li  Li6  1  0.333333  0.666667  0.695742  1
  Li  Li7  1  0.666667  0.333333  0.202098  1
  Pr  Pr8  1  0.511164  0.488836  0.510504  1
  Pr  Pr9  1  0.977673  0.488836  0.510504  1
  Pr  Pr10  1  0.511164  0.022327  0.510504  1
  Pr  Pr11  1  0.489326  0.510674  0.009564  1
  Pr  Pr12  1  0.021347  0.510674  0.009564  1
  Pr  Pr13  1  0.489326  0.978653  0.009564  1
  Pr  Pr14  1  0.000000  0.000000  0.515851  1
  Nd  Nd15  1  0.000000  0.000000  0.016719  1
  Bi  Bi16  1  0.166372  0.833628  0.751365  1
  Bi  Bi17  1  0.667257  0.833628  0.751365  1
  Bi  Bi18  1  0.166372  0.332743  0.751365  1
  Bi  Bi19  1  0.833854  0.166146  0.250238  1
  Bi  Bi20  1  0.332291  0.166146  0.250238  1
  Bi  Bi21  1  0.833854  0.667709  0.250238  1
  Bi  Bi22  1  0.333333  0.666667  0.279484  1
  Bi  Bi23  1  0.666667  0.333333  0.780373  1
