# generated using pymatgen
data_Hf7ZrIn2(Cu4Hg)2
_symmetry_space_group_name_H-M   'P 1'
_cell_length_a   7.17710596
_cell_length_b   7.18087040
_cell_length_c   6.83120000
_cell_angle_alpha   90.00000000
_cell_angle_beta   90.00000000
_cell_angle_gamma   89.87640646
_symmetry_Int_Tables_number   1
_chemical_formula_structural   Hf7ZrIn2(Cu4Hg)2
_chemical_formula_sum   'Hf7 Zr1 In2 Cu8 Hg2'
_cell_volume   352.06466289
_cell_formula_units_Z   1
loop_
 _symmetry_equiv_pos_site_id
 _symmetry_equiv_pos_as_xyz
  1  'x, y, z'
loop_
 _atom_site_type_symbol
 _atom_site_label
 _atom_site_symmetry_multiplicity
 _atom_site_fract_x
 _atom_site_fract_y
 _atom_site_fract_z
 _atom_site_occupancy
  Hf  Hf0  1  0.852088  0.850269  0.000000  1
  Hf  Hf1  1  0.650497  0.352289  0.500000  1
  Hf  Hf2  1  0.350313  0.648659  0.500000  1
  Hf  Hf3  1  0.689408  0.302796  0.000000  1
  Hf  Hf4  1  0.309830  0.696433  0.000000  1
  Hf  Hf5  1  0.803560  0.809938  0.500000  1
  Hf  Hf6  1  0.196147  0.189251  0.500000  1
  Zr  Zr7  1  0.148299  0.152158  0.000000  1
  In  In8  1  0.999862  0.499405  0.250687  1
  In  In9  1  0.999862  0.499405  0.749313  1
  Cu  Cu10  1  0.376599  0.379469  0.206631  1
  Cu  Cu11  1  0.625657  0.622635  0.795866  1
  Cu  Cu12  1  0.625657  0.622635  0.204134  1
  Cu  Cu13  1  0.876227  0.123900  0.702063  1
  Cu  Cu14  1  0.876227  0.123900  0.297937  1
  Cu  Cu15  1  0.376599  0.379469  0.793369  1
  Cu  Cu16  1  0.122075  0.873729  0.297259  1
  Cu  Cu17  1  0.122075  0.873729  0.702741  1
  Hg  Hg18  1  0.499509  0.999965  0.249485  1
  Hg  Hg19  1  0.499509  0.999965  0.750515  1
