# generated using pymatgen
data_Y2TmLu2(In2Pt)2
_symmetry_space_group_name_H-M   'P 1'
_cell_length_a   3.63902000
_cell_length_b   8.08048658
_cell_length_c   18.05449208
_cell_angle_alpha   90.24711252
_cell_angle_beta   90.00000000
_cell_angle_gamma   90.00000000
_symmetry_Int_Tables_number   1
_chemical_formula_structural   Y2TmLu2(In2Pt)2
_chemical_formula_sum   'Y4 Tm2 Lu4 In8 Pt4'
_cell_volume   530.88834581
_cell_formula_units_Z   2
loop_
 _symmetry_equiv_pos_site_id
 _symmetry_equiv_pos_as_xyz
  1  'x, y, z'
loop_
 _atom_site_type_symbol
 _atom_site_label
 _atom_site_symmetry_multiplicity
 _atom_site_fract_x
 _atom_site_fract_y
 _atom_site_fract_z
 _atom_site_occupancy
  Y  Y0  1  0.000000  0.242478  0.220228  1
  Y  Y1  1  0.000000  0.757522  0.779772  1
  Y  Y2  1  0.000000  0.000000  0.000000  1
  Y  Y3  1  0.000000  0.500000  0.500000  1
  Tm  Tm4  1  0.000000  0.256562  0.720906  1
  Tm  Tm5  1  0.000000  0.743438  0.279094  1
  Lu  Lu6  1  0.000000  0.115489  0.413786  1
  Lu  Lu7  1  0.000000  0.884511  0.586214  1
  Lu  Lu8  1  0.000000  0.383356  0.913729  1
  Lu  Lu9  1  0.000000  0.616644  0.086271  1
  In  In10  1  0.500000  0.422899  0.351169  1
  In  In11  1  0.500000  0.577101  0.648831  1
  In  In12  1  0.500000  0.079552  0.851098  1
  In  In13  1  0.500000  0.920448  0.148902  1
  In  In14  1  0.500000  0.296209  0.065564  1
  In  In15  1  0.500000  0.703791  0.934436  1
  In  In16  1  0.500000  0.205523  0.566057  1
  In  In17  1  0.500000  0.794477  0.433943  1
  Pt  Pt18  1  0.500000  0.021614  0.305909  1
  Pt  Pt19  1  0.500000  0.978386  0.694091  1
  Pt  Pt20  1  0.500000  0.469930  0.804810  1
  Pt  Pt21  1  0.500000  0.530070  0.195190  1
