# generated using pymatgen
data_NdTm2Co8P6Ru
_symmetry_space_group_name_H-M   'P 1'
_cell_length_a   3.71003200
_cell_length_b   10.53583800
_cell_length_c   12.25675800
_cell_angle_alpha   90.00000000
_cell_angle_beta   90.00000000
_cell_angle_gamma   90.00000000
_symmetry_Int_Tables_number   1
_chemical_formula_structural   NdTm2Co8P6Ru
_chemical_formula_sum   'Nd2 Tm4 Co16 P12 Ru2'
_cell_volume   479.09578626
_cell_formula_units_Z   2
loop_
 _symmetry_equiv_pos_site_id
 _symmetry_equiv_pos_as_xyz
  1  'x, y, z'
loop_
 _atom_site_type_symbol
 _atom_site_label
 _atom_site_symmetry_multiplicity
 _atom_site_fract_x
 _atom_site_fract_y
 _atom_site_fract_z
 _atom_site_occupancy
  Nd  Nd0  1  0.000000  0.500000  0.525784  1
  Nd  Nd1  1  0.500000  0.000000  0.474216  1
  Tm  Tm2  1  0.500000  0.817074  0.205243  1
  Tm  Tm3  1  0.500000  0.182926  0.205243  1
  Tm  Tm4  1  0.000000  0.682926  0.794757  1
  Tm  Tm5  1  0.000000  0.317074  0.794757  1
  Co  Co6  1  0.500000  0.500000  0.707715  1
  Co  Co7  1  0.000000  0.000000  0.292285  1
  Co  Co8  1  0.000000  0.500000  0.986354  1
  Co  Co9  1  0.500000  0.000000  0.013646  1
  Co  Co10  1  0.500000  0.332184  0.990471  1
  Co  Co11  1  0.500000  0.667816  0.990471  1
  Co  Co12  1  0.000000  0.167816  0.009529  1
  Co  Co13  1  0.000000  0.832184  0.009529  1
  Co  Co14  1  0.500000  0.296261  0.429307  1
  Co  Co15  1  0.500000  0.703739  0.429307  1
  Co  Co16  1  0.000000  0.203739  0.570693  1
  Co  Co17  1  0.000000  0.796261  0.570693  1
  Co  Co18  1  0.500000  0.878824  0.710770  1
  Co  Co19  1  0.500000  0.121176  0.710770  1
  Co  Co20  1  0.000000  0.621176  0.289230  1
  Co  Co21  1  0.000000  0.378824  0.289230  1
  P  P22  1  0.500000  0.500000  0.882803  1
  P  P23  1  0.000000  0.000000  0.117197  1
  P  P24  1  0.500000  0.500000  0.346569  1
  P  P25  1  0.000000  0.000000  0.653431  1
  P  P26  1  0.500000  0.308382  0.618996  1
  P  P27  1  0.500000  0.691618  0.618996  1
  P  P28  1  0.000000  0.191618  0.381004  1
  P  P29  1  0.000000  0.808382  0.381004  1
  P  P30  1  0.500000  0.845823  0.893709  1
  P  P31  1  0.500000  0.154177  0.893709  1
  P  P32  1  0.000000  0.654177  0.106291  1
  P  P33  1  0.000000  0.345823  0.106291  1
  Ru  Ru34  1  0.500000  0.500000  0.157356  1
  Ru  Ru35  1  0.000000  0.000000  0.842644  1
