# generated using pymatgen
data_Ho10In8RhAu3
_symmetry_space_group_name_H-M   'P 1'
_cell_length_a   8.14784601
_cell_length_b   18.31252709
_cell_length_c   3.65666900
_cell_angle_alpha   90.00000000
_cell_angle_beta   90.00000000
_cell_angle_gamma   89.90425392
_symmetry_Int_Tables_number   1
_chemical_formula_structural   Ho10In8RhAu3
_chemical_formula_sum   'Ho10 In8 Rh1 Au3'
_cell_volume   545.60222944
_cell_formula_units_Z   1
loop_
 _symmetry_equiv_pos_site_id
 _symmetry_equiv_pos_as_xyz
  1  'x, y, z'
loop_
 _atom_site_type_symbol
 _atom_site_label
 _atom_site_symmetry_multiplicity
 _atom_site_fract_x
 _atom_site_fract_y
 _atom_site_fract_z
 _atom_site_occupancy
  Ho  Ho0  1  0.500914  0.498250  0.000000  1
  Ho  Ho1  1  0.001126  0.002129  0.000000  1
  Ho  Ho2  1  0.763305  0.282574  0.000000  1
  Ho  Ho3  1  0.258793  0.715297  0.000000  1
  Ho  Ho4  1  0.757899  0.783067  0.000000  1
  Ho  Ho5  1  0.229231  0.223189  0.000000  1
  Ho  Ho6  1  0.620962  0.082623  0.000000  1
  Ho  Ho7  1  0.379267  0.920863  0.000000  1
  Ho  Ho8  1  0.878195  0.578531  0.000000  1
  Ho  Ho9  1  0.114736  0.412205  0.000000  1
  In  In10  1  0.709614  0.935322  0.500000  1
  In  In11  1  0.291049  0.068995  0.500000  1
  In  In12  1  0.792451  0.430813  0.500000  1
  In  In13  1  0.206985  0.562436  0.500000  1
  In  In14  1  0.577636  0.645700  0.500000  1
  In  In15  1  0.421693  0.352267  0.500000  1
  In  In16  1  0.927031  0.150120  0.500000  1
  In  In17  1  0.078202  0.853438  0.500000  1
  Rh  Rh18  1  0.027722  0.303970  0.500000  1
  Au  Au19  1  0.528937  0.199225  0.500000  1
  Au  Au20  1  0.466624  0.803088  0.500000  1
  Au  Au21  1  0.967628  0.695899  0.500000  1
