# generated using pymatgen
data_Li3Pr3AgPb4
_symmetry_space_group_name_H-M   'P 1'
_cell_length_a   9.03823674
_cell_length_b   9.05129659
_cell_length_c   9.05129530
_cell_angle_alpha   149.33236112
_cell_angle_beta   131.75948506
_cell_angle_gamma   58.26822064
_symmetry_Int_Tables_number   1
_chemical_formula_structural   Li3Pr3AgPb4
_chemical_formula_sum   'Li3 Pr3 Ag1 Pb4'
_cell_volume   279.57946828
_cell_formula_units_Z   1
loop_
 _symmetry_equiv_pos_site_id
 _symmetry_equiv_pos_as_xyz
  1  'x, y, z'
loop_
 _atom_site_type_symbol
 _atom_site_label
 _atom_site_symmetry_multiplicity
 _atom_site_fract_x
 _atom_site_fract_y
 _atom_site_fract_z
 _atom_site_occupancy
  Li  Li0  1  0.481565  0.672473  0.809093  1
  Li  Li1  1  0.859811  0.671834  0.187975  1
  Li  Li2  1  0.141566  0.330278  0.811287  1
  Pr  Pr3  1  0.498446  0.997493  0.500953  1
  Pr  Pr4  1  0.867873  0.869446  0.998427  1
  Pr  Pr5  1  0.136008  0.131036  0.004973  1
  Ag  Ag6  1  0.519195  0.327945  0.191249  1
  Pb  Pb7  1  0.272051  0.784110  0.487941  1
  Pb  Pb8  1  0.715930  0.211279  0.504651  1
  Pb  Pb9  1  0.802994  0.503668  0.299326  1
  Pb  Pb10  1  0.204562  0.500438  0.704124  1
