# generated using pymatgen
data_Nd2Ni3PPt5
_symmetry_space_group_name_H-M   'P 1'
_cell_length_a   9.16728325
_cell_length_b   9.16728141
_cell_length_c   4.00489100
_cell_angle_alpha   90.00000000
_cell_angle_beta   90.00000000
_cell_angle_gamma   145.81989700
_symmetry_Int_Tables_number   1
_chemical_formula_structural   Nd2Ni3PPt5
_chemical_formula_sum   'Nd2 Ni3 P1 Pt5'
_cell_volume   189.08220285
_cell_formula_units_Z   1
loop_
 _symmetry_equiv_pos_site_id
 _symmetry_equiv_pos_as_xyz
  1  'x, y, z'
loop_
 _atom_site_type_symbol
 _atom_site_label
 _atom_site_symmetry_multiplicity
 _atom_site_fract_x
 _atom_site_fract_y
 _atom_site_fract_z
 _atom_site_occupancy
  Nd  Nd0  1  0.617950  0.367371  0.500000  1
  Nd  Nd1  1  0.367371  0.617950  0.500000  1
  Ni  Ni2  1  0.193793  0.789386  0.500000  1
  Ni  Ni3  1  0.789386  0.193793  0.500000  1
  Ni  Ni4  1  0.007375  0.007375  0.500000  1
  P  P5  1  0.221854  0.221854  0.000000  1
  Pt  Pt6  1  0.112218  0.887780  0.000000  1
  Pt  Pt7  1  0.887780  0.112218  0.000000  1
  Pt  Pt8  1  0.489225  0.984974  0.000000  1
  Pt  Pt9  1  0.984974  0.489225  0.000000  1
  Pt  Pt10  1  0.641672  0.641672  0.000000  1
