# generated using pymatgen
data_Ce4AlSi4Sn
_symmetry_space_group_name_H-M   'P 1'
_cell_length_a   7.05550200
_cell_length_b   7.05550200
_cell_length_c   4.45393200
_cell_angle_alpha   90.00000000
_cell_angle_beta   90.00000000
_cell_angle_gamma   90.00000000
_symmetry_Int_Tables_number   1
_chemical_formula_structural   Ce4AlSi4Sn
_chemical_formula_sum   'Ce4 Al1 Si4 Sn1'
_cell_volume   221.71721809
_cell_formula_units_Z   1
loop_
 _symmetry_equiv_pos_site_id
 _symmetry_equiv_pos_as_xyz
  1  'x, y, z'
loop_
 _atom_site_type_symbol
 _atom_site_label
 _atom_site_symmetry_multiplicity
 _atom_site_fract_x
 _atom_site_fract_y
 _atom_site_fract_z
 _atom_site_occupancy
  Ce  Ce0  1  0.679849  0.178432  0.500000  1
  Ce  Ce1  1  0.320151  0.821568  0.500000  1
  Ce  Ce2  1  0.178432  0.320151  0.500000  1
  Ce  Ce3  1  0.821568  0.679849  0.500000  1
  Al  Al4  1  0.000000  0.000000  0.000000  1
  Si  Si5  1  0.107470  0.630632  0.000000  1
  Si  Si6  1  0.892530  0.369368  0.000000  1
  Si  Si7  1  0.630632  0.892530  0.000000  1
  Si  Si8  1  0.369368  0.107470  0.000000  1
  Sn  Sn9  1  0.500000  0.500000  0.000000  1
