# generated using pymatgen
data_K4Rb5Y3Si12(O16F)2
_symmetry_space_group_name_H-M   'P 1'
_cell_length_a   6.93545453
_cell_length_b   11.52128611
_cell_length_c   11.53353900
_cell_angle_alpha   92.13656859
_cell_angle_beta   89.74344488
_cell_angle_gamma   99.55296966
_symmetry_Int_Tables_number   1
_chemical_formula_structural   K4Rb5Y3Si12(O16F)2
_chemical_formula_sum   'K4 Rb5 Y3 Si12 O32 F2'
_cell_volume   908.17828496
_cell_formula_units_Z   1
loop_
 _symmetry_equiv_pos_site_id
 _symmetry_equiv_pos_as_xyz
  1  'x, y, z'
loop_
 _atom_site_type_symbol
 _atom_site_label
 _atom_site_symmetry_multiplicity
 _atom_site_fract_x
 _atom_site_fract_y
 _atom_site_fract_z
 _atom_site_occupancy
  K  K0  1  0.162260  0.154089  0.219136  1
  K  K1  1  0.837740  0.845911  0.780864  1
  K  K2  1  0.020645  0.669896  0.509589  1
  K  K3  1  0.979355  0.330104  0.490411  1
  Rb  Rb4  1  0.258970  0.388735  0.018823  1
  Rb  Rb5  1  0.741030  0.611265  0.981177  1
  Rb  Rb6  1  0.167629  0.192021  0.781109  1
  Rb  Rb7  1  0.832371  0.807979  0.218891  1
  Rb  Rb8  1  0.500000  0.000000  0.000000  1
  Y  Y9  1  0.000000  0.000000  0.500000  1
  Y  Y10  1  0.488370  0.509752  0.338010  1
  Y  Y11  1  0.511630  0.490248  0.661990  1
  Si  Si12  1  0.558823  0.767134  0.509876  1
  Si  Si13  1  0.441177  0.232866  0.490124  1
  Si  Si14  1  0.340021  0.866978  0.311589  1
  Si  Si15  1  0.659979  0.133022  0.688411  1
  Si  Si16  1  0.657985  0.093636  0.304471  1
  Si  Si17  1  0.342015  0.906364  0.695529  1
  Si  Si18  1  0.692967  0.305811  0.158433  1
  Si  Si19  1  0.307033  0.694189  0.841567  1
  Si  Si20  1  0.986722  0.511727  0.259699  1
  Si  Si21  1  0.013278  0.488273  0.740301  1
  Si  Si22  1  0.287232  0.668961  0.123068  1
  Si  Si23  1  0.712768  0.331039  0.876932  1
  O  O24  1  0.533008  0.624000  0.513330  1
  O  O25  1  0.466992  0.376000  0.486670  1
  O  O26  1  0.491869  0.793477  0.374972  1
  O  O27  1  0.508131  0.206523  0.625028  1
  O  O28  1  0.389915  0.811686  0.594807  1
  O  O29  1  0.610085  0.188314  0.405193  1
  O  O30  1  0.774756  0.836853  0.538749  1
  O  O31  1  0.225244  0.163147  0.461251  1
  O  O32  1  0.148614  0.878702  0.384730  1
  O  O33  1  0.851386  0.121298  0.615270  1
  O  O34  1  0.282462  0.800728  0.183215  1
  O  O35  1  0.717538  0.199272  0.816785  1
  O  O36  1  0.460697  0.996231  0.274209  1
  O  O37  1  0.539303  0.003769  0.725791  1
  O  O38  1  0.696197  0.165283  0.182053  1
  O  O39  1  0.303803  0.834717  0.817947  1
  O  O40  1  0.844722  0.036802  0.335978  1
  O  O41  1  0.155278  0.963198  0.664022  1
  O  O42  1  0.908367  0.374752  0.206684  1
  O  O43  1  0.091633  0.625248  0.793316  1
  O  O44  1  0.697451  0.315010  0.017040  1
  O  O45  1  0.302549  0.684990  0.982960  1
  O  O46  1  0.508375  0.353474  0.215358  1
  O  O47  1  0.491625  0.646526  0.784642  1
  O  O48  1  0.163650  0.505520  0.348108  1
  O  O49  1  0.836350  0.494480  0.651892  1
  O  O50  1  0.810409  0.568335  0.317005  1
  O  O51  1  0.189591  0.431665  0.682995  1
  O  O52  1  0.068142  0.588434  0.142947  1
  O  O53  1  0.931858  0.411566  0.857053  1
  O  O54  1  0.460061  0.606612  0.169078  1
  O  O55  1  0.539939  0.393388  0.830922  1
  F  F56  1  0.234393  0.153632  0.005118  1
  F  F57  1  0.765607  0.846368  0.994882  1
