# generated using pymatgen
data_Pr5InBi2Cl
_symmetry_space_group_name_H-M   'P 1'
_cell_length_a   9.62200709
_cell_length_b   9.62200652
_cell_length_c   6.74001100
_cell_angle_alpha   90.00000000
_cell_angle_beta   90.00000000
_cell_angle_gamma   119.26469607
_symmetry_Int_Tables_number   1
_chemical_formula_structural   Pr5InBi2Cl
_chemical_formula_sum   'Pr10 In2 Bi4 Cl2'
_cell_volume   544.36847963
_cell_formula_units_Z   2
loop_
 _symmetry_equiv_pos_site_id
 _symmetry_equiv_pos_as_xyz
  1  'x, y, z'
loop_
 _atom_site_type_symbol
 _atom_site_label
 _atom_site_symmetry_multiplicity
 _atom_site_fract_x
 _atom_site_fract_y
 _atom_site_fract_z
 _atom_site_occupancy
  Pr  Pr0  1  0.735652  0.735652  0.250000  1
  Pr  Pr1  1  0.996332  0.738975  0.750000  1
  Pr  Pr2  1  0.738975  0.996332  0.750000  1
  Pr  Pr3  1  0.335696  0.664304  0.500000  1
  Pr  Pr4  1  0.264348  0.264348  0.750000  1
  Pr  Pr5  1  0.003668  0.261025  0.250000  1
  Pr  Pr6  1  0.664304  0.335696  0.500000  1
  Pr  Pr7  1  0.261025  0.003668  0.250000  1
  Pr  Pr8  1  0.335696  0.664304  0.000000  1
  Pr  Pr9  1  0.664304  0.335696  0.000000  1
  In  In10  1  0.392101  0.392101  0.250000  1
  In  In11  1  0.607899  0.607899  0.750000  1
  Bi  Bi12  1  0.386028  0.999098  0.750000  1
  Bi  Bi13  1  0.000902  0.613972  0.250000  1
  Bi  Bi14  1  0.613972  0.000902  0.250000  1
  Bi  Bi15  1  0.999098  0.386028  0.750000  1
  Cl  Cl16  1  0.000000  0.000000  0.500000  1
  Cl  Cl17  1  0.000000  0.000000  0.000000  1
