# generated using pymatgen
data_Tb3Dy(Tm3Ir2)2
_symmetry_space_group_name_H-M   'P 1'
_cell_length_a   6.45927370
_cell_length_b   7.19157916
_cell_length_c   8.45837592
_cell_angle_alpha   96.78448058
_cell_angle_beta   112.42588369
_cell_angle_gamma   89.97390697
_symmetry_Int_Tables_number   1
_chemical_formula_structural   Tb3Dy(Tm3Ir2)2
_chemical_formula_sum   'Tb3 Dy1 Tm6 Ir4'
_cell_volume   360.22777225
_cell_formula_units_Z   1
loop_
 _symmetry_equiv_pos_site_id
 _symmetry_equiv_pos_as_xyz
  1  'x, y, z'
loop_
 _atom_site_type_symbol
 _atom_site_label
 _atom_site_symmetry_multiplicity
 _atom_site_fract_x
 _atom_site_fract_y
 _atom_site_fract_z
 _atom_site_occupancy
  Tb  Tb0  1  0.971026  0.919454  0.185067  1
  Tb  Tb1  1  0.786231  0.580582  0.815204  1
  Tb  Tb2  1  0.029192  0.080597  0.815172  1
  Dy  Dy3  1  0.213680  0.419160  0.184851  1
  Tm  Tm4  1  0.651128  0.817460  0.440475  1
  Tm  Tm5  1  0.210754  0.682114  0.559130  1
  Tm  Tm6  1  0.348767  0.182606  0.559367  1
  Tm  Tm7  1  0.788812  0.317772  0.440431  1
  Tm  Tm8  1  0.427655  0.749883  0.000136  1
  Tm  Tm9  1  0.572260  0.250122  0.000098  1
  Ir  Ir10  1  0.822798  0.572853  0.221034  1
  Ir  Ir11  1  0.600777  0.926732  0.778968  1
  Ir  Ir12  1  0.178053  0.426858  0.779163  1
  Ir  Ir13  1  0.398866  0.073808  0.220906  1
