# generated using pymatgen
data_Ho4Ge2B4Ru7Rh3
_symmetry_space_group_name_H-M   'P 1'
_cell_length_a   9.59639438
_cell_length_b   9.57912739
_cell_length_c   3.08823500
_cell_angle_alpha   90.00000000
_cell_angle_beta   90.00000000
_cell_angle_gamma   89.93839408
_symmetry_Int_Tables_number   1
_chemical_formula_structural   Ho4Ge2B4Ru7Rh3
_chemical_formula_sum   'Ho4 Ge2 B4 Ru7 Rh3'
_cell_volume   283.88609849
_cell_formula_units_Z   1
loop_
 _symmetry_equiv_pos_site_id
 _symmetry_equiv_pos_as_xyz
  1  'x, y, z'
loop_
 _atom_site_type_symbol
 _atom_site_label
 _atom_site_symmetry_multiplicity
 _atom_site_fract_x
 _atom_site_fract_y
 _atom_site_fract_z
 _atom_site_occupancy
  Ho  Ho0  1  0.826645  0.323397  0.000000  1
  Ho  Ho1  1  0.323286  0.172482  0.000000  1
  Ho  Ho2  1  0.673852  0.824938  0.000000  1
  Ho  Ho3  1  0.175884  0.677090  0.000000  1
  Ge  Ge4  1  0.000375  0.999933  0.000000  1
  Ge  Ge5  1  0.498774  0.504828  0.000000  1
  B  B6  1  0.624287  0.117210  0.000000  1
  B  B7  1  0.117349  0.374736  0.000000  1
  B  B8  1  0.883200  0.625013  0.000000  1
  B  B9  1  0.376951  0.877576  0.000000  1
  Ru  Ru10  1  0.069011  0.215663  0.500000  1
  Ru  Ru11  1  0.215647  0.931080  0.500000  1
  Ru  Ru12  1  0.783654  0.069747  0.500000  1
  Ru  Ru13  1  0.930296  0.784395  0.500000  1
  Ru  Ru14  1  0.431064  0.715124  0.500000  1
  Ru  Ru15  1  0.500177  0.001653  0.500000  1
  Ru  Ru16  1  0.000463  0.500182  0.500000  1
  Rh  Rh17  1  0.568612  0.286864  0.500000  1
  Rh  Rh18  1  0.717264  0.568736  0.500000  1
  Rh  Rh19  1  0.283209  0.429356  0.500000  1
