# generated using pymatgen
data_SmDy5(CI5)2
_symmetry_space_group_name_H-M   'P 1'
_cell_length_a   7.70026286
_cell_length_b   9.55130703
_cell_length_c   9.62054261
_cell_angle_alpha   106.92854019
_cell_angle_beta   96.27931244
_cell_angle_gamma   104.45631874
_symmetry_Int_Tables_number   1
_chemical_formula_structural   SmDy5(CI5)2
_chemical_formula_sum   'Sm1 Dy5 C2 I10'
_cell_volume   642.69178024
_cell_formula_units_Z   1
loop_
 _symmetry_equiv_pos_site_id
 _symmetry_equiv_pos_as_xyz
  1  'x, y, z'
loop_
 _atom_site_type_symbol
 _atom_site_label
 _atom_site_symmetry_multiplicity
 _atom_site_fract_x
 _atom_site_fract_y
 _atom_site_fract_z
 _atom_site_occupancy
  Sm  Sm0  1  0.106595  0.039391  0.778013  1
  Dy  Dy1  1  0.372232  0.131094  0.176272  1
  Dy  Dy2  1  0.895600  0.961247  0.218738  1
  Dy  Dy3  1  0.028925  0.744364  0.925444  1
  Dy  Dy4  1  0.971912  0.255077  0.073659  1
  Dy  Dy5  1  0.627506  0.868591  0.823668  1
  C  C6  1  0.908022  0.969475  0.960616  1
  C  C7  1  0.090119  0.029368  0.043072  1
  I  I8  1  0.194621  0.731117  0.649795  1
  I  I9  1  0.085266  0.370752  0.825999  1
  I  I10  1  0.456518  0.811503  0.093172  1
  I  I11  1  0.253654  0.083957  0.455756  1
  I  I12  1  0.549007  0.190912  0.909343  1
  I  I13  1  0.807397  0.261695  0.349037  1
  I  I14  1  0.343194  0.450203  0.270985  1
  I  I15  1  0.913111  0.637784  0.177439  1
  I  I16  1  0.656925  0.549765  0.728715  1
  I  I17  1  0.739397  0.913704  0.540277  1
