# generated using pymatgen
data_CsTm(NbBr3)6
_symmetry_space_group_name_H-M   'P 1'
_cell_length_a   10.80603059
_cell_length_b   10.80603085
_cell_length_c   10.80603216
_cell_angle_alpha   55.50400833
_cell_angle_beta   55.50400680
_cell_angle_gamma   55.50400995
_symmetry_Int_Tables_number   1
_chemical_formula_structural   CsTm(NbBr3)6
_chemical_formula_sum   'Cs1 Tm1 Nb6 Br18'
_cell_volume   799.10531571
_cell_formula_units_Z   1
loop_
 _symmetry_equiv_pos_site_id
 _symmetry_equiv_pos_as_xyz
  1  'x, y, z'
loop_
 _atom_site_type_symbol
 _atom_site_label
 _atom_site_symmetry_multiplicity
 _atom_site_fract_x
 _atom_site_fract_y
 _atom_site_fract_z
 _atom_site_occupancy
  Cs  Cs0  1  0.222231  0.222231  0.222231  1
  Tm  Tm1  1  0.498251  0.498251  0.498251  1
  Nb  Nb2  1  0.810205  0.143046  0.914468  1
  Nb  Nb3  1  0.914468  0.810205  0.143046  1
  Nb  Nb4  1  0.143046  0.914468  0.810205  1
  Nb  Nb5  1  0.190992  0.857625  0.084468  1
  Nb  Nb6  1  0.084468  0.190992  0.857625  1
  Nb  Nb7  1  0.857625  0.084468  0.190992  1
  Br  Br8  1  0.867483  0.410000  0.724906  1
  Br  Br9  1  0.724906  0.867483  0.410000  1
  Br  Br10  1  0.410000  0.724906  0.867483  1
  Br  Br11  1  0.130988  0.590752  0.278310  1
  Br  Br12  1  0.278310  0.130988  0.590752  1
  Br  Br13  1  0.590752  0.278310  0.130988  1
  Br  Br14  1  0.536734  0.342816  0.797540  1
  Br  Br15  1  0.797540  0.536734  0.342816  1
  Br  Br16  1  0.342816  0.797540  0.536734  1
  Br  Br17  1  0.462332  0.659649  0.202283  1
  Br  Br18  1  0.202283  0.462332  0.659649  1
  Br  Br19  1  0.659649  0.202283  0.462332  1
  Br  Br20  1  0.664286  0.939863  0.068405  1
  Br  Br21  1  0.068405  0.664286  0.939863  1
  Br  Br22  1  0.939863  0.068405  0.664286  1
  Br  Br23  1  0.341277  0.057642  0.924586  1
  Br  Br24  1  0.924586  0.341277  0.057642  1
  Br  Br25  1  0.057642  0.924586  0.341277  1
