# generated using pymatgen
data_Sm2Ni2PPt6
_symmetry_space_group_name_H-M   'P 1'
_cell_length_a   9.20199100
_cell_length_b   9.20199111
_cell_length_c   4.07485200
_cell_angle_alpha   90.00000000
_cell_angle_beta   90.00000000
_cell_angle_gamma   145.81043534
_symmetry_Int_Tables_number   1
_chemical_formula_structural   Sm2Ni2PPt6
_chemical_formula_sum   'Sm2 Ni2 P1 Pt6'
_cell_volume   193.89195197
_cell_formula_units_Z   1
loop_
 _symmetry_equiv_pos_site_id
 _symmetry_equiv_pos_as_xyz
  1  'x, y, z'
loop_
 _atom_site_type_symbol
 _atom_site_label
 _atom_site_symmetry_multiplicity
 _atom_site_fract_x
 _atom_site_fract_y
 _atom_site_fract_z
 _atom_site_occupancy
  Sm  Sm0  1  0.623250  0.370811  0.500000  1
  Sm  Sm1  1  0.370811  0.623250  0.500000  1
  Ni  Ni2  1  0.197350  0.789661  0.500000  1
  Ni  Ni3  1  0.789661  0.197350  0.500000  1
  P  P4  1  0.222670  0.222670  0.000000  1
  Pt  Pt5  1  0.112641  0.884200  0.000000  1
  Pt  Pt6  1  0.884200  0.112641  0.000000  1
  Pt  Pt7  1  0.491877  0.989533  0.000000  1
  Pt  Pt8  1  0.989533  0.491877  0.000000  1
  Pt  Pt9  1  0.998425  0.998425  0.500000  1
  Pt  Pt10  1  0.633179  0.633179  0.000000  1
