# generated using pymatgen
data_AgHgSeBr
_symmetry_space_group_name_H-M   'P 1'
_cell_length_a   4.88021000
_cell_length_b   9.90497500
_cell_length_c   10.32845400
_cell_angle_alpha   90.00000000
_cell_angle_beta   90.00000000
_cell_angle_gamma   90.00000000
_symmetry_Int_Tables_number   1
_chemical_formula_structural   AgHgSeBr
_chemical_formula_sum   'Ag4 Hg4 Se4 Br4'
_cell_volume   499.26050750
_cell_formula_units_Z   4
loop_
 _symmetry_equiv_pos_site_id
 _symmetry_equiv_pos_as_xyz
  1  'x, y, z'
loop_
 _atom_site_type_symbol
 _atom_site_label
 _atom_site_symmetry_multiplicity
 _atom_site_fract_x
 _atom_site_fract_y
 _atom_site_fract_z
 _atom_site_occupancy
  Ag  Ag0  1  0.000000  0.212351  0.404032  1
  Ag  Ag1  1  0.000000  0.787649  0.595968  1
  Ag  Ag2  1  0.000000  0.212351  0.095968  1
  Ag  Ag3  1  0.000000  0.787649  0.904032  1
  Hg  Hg4  1  0.500000  0.222908  0.750000  1
  Hg  Hg5  1  0.500000  0.777092  0.250000  1
  Hg  Hg6  1  0.500000  0.500000  0.000000  1
  Hg  Hg7  1  0.500000  0.500000  0.500000  1
  Se  Se8  1  0.500000  0.245070  0.995176  1
  Se  Se9  1  0.500000  0.754930  0.004824  1
  Se  Se10  1  0.500000  0.754930  0.495176  1
  Se  Se11  1  0.500000  0.245070  0.504824  1
  Br  Br12  1  0.000000  0.013534  0.750000  1
  Br  Br13  1  0.000000  0.544744  0.750000  1
  Br  Br14  1  0.000000  0.455256  0.250000  1
  Br  Br15  1  0.000000  0.986466  0.250000  1
