# generated using pymatgen
data_EuMnSb12IrRu2
_symmetry_space_group_name_H-M   'P 1'
_cell_length_a   8.11089738
_cell_length_b   8.15955356
_cell_length_c   8.15753823
_cell_angle_alpha   109.64862897
_cell_angle_beta   109.35293790
_cell_angle_gamma   109.43381125
_symmetry_Int_Tables_number   1
_chemical_formula_structural   EuMnSb12IrRu2
_chemical_formula_sum   'Eu1 Mn1 Sb12 Ir1 Ru2'
_cell_volume   415.48348373
_cell_formula_units_Z   1
loop_
 _symmetry_equiv_pos_site_id
 _symmetry_equiv_pos_as_xyz
  1  'x, y, z'
loop_
 _atom_site_type_symbol
 _atom_site_label
 _atom_site_symmetry_multiplicity
 _atom_site_fract_x
 _atom_site_fract_y
 _atom_site_fract_z
 _atom_site_occupancy
  Eu  Eu0  1  0.000000  0.000000  0.000000  1
  Mn  Mn1  1  0.000000  0.500000  0.000000  1
  Sb  Sb2  1  0.657217  0.841328  0.503512  1
  Sb  Sb3  1  0.342783  0.158672  0.496488  1
  Sb  Sb4  1  0.842103  0.183821  0.338755  1
  Sb  Sb5  1  0.814943  0.657706  0.154307  1
  Sb  Sb6  1  0.842820  0.503506  0.661893  1
  Sb  Sb7  1  0.185057  0.342294  0.845693  1
  Sb  Sb8  1  0.157897  0.816179  0.661245  1
  Sb  Sb9  1  0.503721  0.662152  0.841474  1
  Sb  Sb10  1  0.496279  0.337848  0.158526  1
  Sb  Sb11  1  0.157180  0.496494  0.338107  1
  Sb  Sb12  1  0.339201  0.842323  0.181023  1
  Sb  Sb13  1  0.660799  0.157677  0.818977  1
  Ir  Ir14  1  0.000000  0.000000  0.500000  1
  Ru  Ru15  1  0.500000  0.500000  0.500000  1
  Ru  Ru16  1  0.500000  0.000000  0.000000  1
