# generated using pymatgen
data_La2Dy5MnI12
_symmetry_space_group_name_H-M   'P 1'
_cell_length_a   9.96477436
_cell_length_b   9.77667963
_cell_length_c   9.97962184
_cell_angle_alpha   106.49246810
_cell_angle_beta   106.67732383
_cell_angle_gamma   107.78709753
_symmetry_Int_Tables_number   1
_chemical_formula_structural   La2Dy5MnI12
_chemical_formula_sum   'La2 Dy5 Mn1 I12'
_cell_volume   809.91301993
_cell_formula_units_Z   1
loop_
 _symmetry_equiv_pos_site_id
 _symmetry_equiv_pos_as_xyz
  1  'x, y, z'
loop_
 _atom_site_type_symbol
 _atom_site_label
 _atom_site_symmetry_multiplicity
 _atom_site_fract_x
 _atom_site_fract_y
 _atom_site_fract_z
 _atom_site_occupancy
  La  La0  1  0.588660  0.775088  0.521078  1
  La  La1  1  0.411340  0.224912  0.478922  1
  Dy  Dy2  1  0.798927  0.525461  0.595808  1
  Dy  Dy3  1  0.522832  0.595594  0.796803  1
  Dy  Dy4  1  0.201073  0.474539  0.404192  1
  Dy  Dy5  1  0.477168  0.404406  0.203197  1
  Dy  Dy6  1  0.000000  0.000000  0.000000  1
  Mn  Mn7  1  0.500000  0.500000  0.500000  1
  I  I8  1  0.737840  0.193183  0.579283  1
  I  I9  1  0.971676  0.888025  0.670211  1
  I  I10  1  0.570005  0.718901  0.172447  1
  I  I11  1  0.116662  0.340237  0.041024  1
  I  I12  1  0.665749  0.962883  0.892576  1
  I  I13  1  0.883338  0.659763  0.958976  1
  I  I14  1  0.028324  0.111975  0.329789  1
  I  I15  1  0.817800  0.428944  0.278825  1
  I  I16  1  0.334251  0.037117  0.107424  1
  I  I17  1  0.262160  0.806817  0.420717  1
  I  I18  1  0.182200  0.571056  0.721175  1
  I  I19  1  0.429995  0.281099  0.827553  1
