# generated using pymatgen
data_Cs3ScPBr9
_symmetry_space_group_name_H-M   'P 1'
_cell_length_a   7.87347900
_cell_length_b   7.87347890
_cell_length_c   19.74275000
_cell_angle_alpha   90.00000000
_cell_angle_beta   90.00000000
_cell_angle_gamma   119.99999623
_symmetry_Int_Tables_number   1
_chemical_formula_structural   Cs3ScPBr9
_chemical_formula_sum   'Cs6 Sc2 P2 Br18'
_cell_volume   1059.91645761
_cell_formula_units_Z   2
loop_
 _symmetry_equiv_pos_site_id
 _symmetry_equiv_pos_as_xyz
  1  'x, y, z'
loop_
 _atom_site_type_symbol
 _atom_site_label
 _atom_site_symmetry_multiplicity
 _atom_site_fract_x
 _atom_site_fract_y
 _atom_site_fract_z
 _atom_site_occupancy
  Cs  Cs0  1  0.666667  0.333333  0.909446  1
  Cs  Cs1  1  0.333333  0.666667  0.409446  1
  Cs  Cs2  1  0.666667  0.333333  0.567120  1
  Cs  Cs3  1  0.333333  0.666667  0.067120  1
  Cs  Cs4  1  0.000000  0.000000  0.763673  1
  Cs  Cs5  1  0.000000  0.000000  0.263673  1
  Sc  Sc6  1  0.666667  0.333333  0.338878  1
  Sc  Sc7  1  0.333333  0.666667  0.838878  1
  P  P8  1  0.333333  0.666667  0.652117  1
  P  P9  1  0.666667  0.333333  0.152117  1
  Br  Br10  1  0.826500  0.652999  0.412193  1
  Br  Br11  1  0.173500  0.347001  0.912193  1
  Br  Br12  1  0.173500  0.826500  0.912193  1
  Br  Br13  1  0.183962  0.367926  0.590393  1
  Br  Br14  1  0.652999  0.826500  0.912193  1
  Br  Br15  1  0.347001  0.173500  0.412193  1
  Br  Br16  1  0.017716  0.508858  0.753669  1
  Br  Br17  1  0.826500  0.173500  0.412193  1
  Br  Br18  1  0.508858  0.017716  0.253669  1
  Br  Br19  1  0.491142  0.508858  0.753669  1
  Br  Br20  1  0.508858  0.491142  0.253669  1
  Br  Br21  1  0.982284  0.491142  0.253669  1
  Br  Br22  1  0.367926  0.183962  0.090393  1
  Br  Br23  1  0.491142  0.982284  0.753669  1
  Br  Br24  1  0.816038  0.632074  0.090393  1
  Br  Br25  1  0.183962  0.816038  0.590393  1
  Br  Br26  1  0.632074  0.816038  0.590393  1
  Br  Br27  1  0.816038  0.183962  0.090393  1
