# generated using pymatgen
data_Dy2Ho10Os3Ru
_symmetry_space_group_name_H-M   'P 1'
_cell_length_a   6.30962003
_cell_length_b   7.36644983
_cell_length_c   9.05874000
_cell_angle_alpha   90.00000000
_cell_angle_beta   90.00000000
_cell_angle_gamma   89.94757708
_symmetry_Int_Tables_number   1
_chemical_formula_structural   Dy2Ho10Os3Ru
_chemical_formula_sum   'Dy2 Ho10 Os3 Ru1'
_cell_volume   421.04552459
_cell_formula_units_Z   1
loop_
 _symmetry_equiv_pos_site_id
 _symmetry_equiv_pos_as_xyz
  1  'x, y, z'
loop_
 _atom_site_type_symbol
 _atom_site_label
 _atom_site_symmetry_multiplicity
 _atom_site_fract_x
 _atom_site_fract_y
 _atom_site_fract_z
 _atom_site_occupancy
  Dy  Dy0  1  0.133379  0.460331  0.750000  1
  Dy  Dy1  1  0.368668  0.958835  0.750000  1
  Ho  Ho2  1  0.329894  0.675841  0.064405  1
  Ho  Ho3  1  0.169094  0.175322  0.437158  1
  Ho  Ho4  1  0.668176  0.324421  0.562912  1
  Ho  Ho5  1  0.832594  0.825410  0.937818  1
  Ho  Ho6  1  0.668176  0.324421  0.937088  1
  Ho  Ho7  1  0.832594  0.825410  0.562182  1
  Ho  Ho8  1  0.329894  0.675841  0.435595  1
  Ho  Ho9  1  0.169094  0.175322  0.062842  1
  Ho  Ho10  1  0.868336  0.538991  0.250000  1
  Ho  Ho11  1  0.631421  0.039394  0.250000  1
  Os  Os12  1  0.038814  0.883629  0.250000  1
  Os  Os13  1  0.461198  0.383939  0.250000  1
  Os  Os14  1  0.960714  0.116604  0.750000  1
  Ru  Ru15  1  0.537949  0.616287  0.750000  1
