# generated using pymatgen
data_Li8TiP4
_symmetry_space_group_name_H-M   'P 1'
_cell_length_a   7.15358933
_cell_length_b   7.17534239
_cell_length_c   5.90703479
_cell_angle_alpha   65.64429589
_cell_angle_beta   114.34187988
_cell_angle_gamma   131.26708937
_symmetry_Int_Tables_number   1
_chemical_formula_structural   Li8TiP4
_chemical_formula_sum   'Li8 Ti1 P4'
_cell_volume   203.22247915
_cell_formula_units_Z   1
loop_
 _symmetry_equiv_pos_site_id
 _symmetry_equiv_pos_as_xyz
  1  'x, y, z'
loop_
 _atom_site_type_symbol
 _atom_site_label
 _atom_site_symmetry_multiplicity
 _atom_site_fract_x
 _atom_site_fract_y
 _atom_site_fract_z
 _atom_site_occupancy
  Li  Li0  1  0.553030  0.184164  0.611496  1
  Li  Li1  1  0.939711  0.294118  0.475345  1
  Li  Li2  1  0.422977  0.776569  0.998693  1
  Li  Li3  1  0.169379  0.049025  0.754944  1
  Li  Li4  1  0.155936  0.039322  0.223752  1
  Li  Li5  1  0.715809  0.563638  0.764375  1
  Li  Li6  1  0.959155  0.305737  0.006597  1
  Li  Li7  1  0.687243  0.564058  0.217058  1
  Ti  Ti8  1  0.428028  0.780526  0.485138  1
  P  P9  1  0.545161  0.144462  0.137081  1
  P  P10  1  0.078627  0.677526  0.602246  1
  P  P11  1  0.778182  0.925435  0.833169  1
  P  P12  1  0.335943  0.429010  0.391787  1
