# generated using pymatgen
data_LaPr2Nd3(RhBr3)2
_symmetry_space_group_name_H-M   'P 1'
_cell_length_a   10.55781102
_cell_length_b   10.51874345
_cell_length_c   10.51911909
_cell_angle_alpha   109.66176341
_cell_angle_beta   109.03886933
_cell_angle_gamma   109.56155877
_symmetry_Int_Tables_number   1
_chemical_formula_structural   LaPr2Nd3(RhBr3)2
_chemical_formula_sum   'La2 Pr4 Nd6 Rh4 Br12'
_cell_volume   900.93474520
_cell_formula_units_Z   2
loop_
 _symmetry_equiv_pos_site_id
 _symmetry_equiv_pos_as_xyz
  1  'x, y, z'
loop_
 _atom_site_type_symbol
 _atom_site_label
 _atom_site_symmetry_multiplicity
 _atom_site_fract_x
 _atom_site_fract_y
 _atom_site_fract_z
 _atom_site_occupancy
  La  La0  1  0.016221  0.033784  0.266583  1
  La  La1  1  0.483823  0.750325  0.017566  1
  Pr  Pr2  1  0.487041  0.232589  0.468649  1
  Pr  Pr3  1  0.012970  0.481627  0.745545  1
  Pr  Pr4  1  0.265466  0.015768  0.030605  1
  Pr  Pr5  1  0.234545  0.265116  0.750301  1
  Nd  Nd6  1  0.466371  0.481096  0.236305  1
  Nd  Nd7  1  0.751822  0.236063  0.266469  1
  Nd  Nd8  1  0.748218  0.014649  0.484257  1
  Nd  Nd9  1  0.235131  0.470302  0.483362  1
  Nd  Nd10  1  0.264835  0.748168  0.235115  1
  Nd  Nd11  1  0.033612  0.269938  0.014708  1
  Rh  Rh12  1  0.247980  0.249535  0.250230  1
  Rh  Rh13  1  0.500483  0.997487  0.248624  1
  Rh  Rh14  1  0.999557  0.248182  0.497086  1
  Rh  Rh15  1  0.252018  0.502226  0.001505  1
  Br  Br16  1  0.247537  0.754585  0.742604  1
  Br  Br17  1  0.509002  0.504111  0.752449  1
  Br  Br18  1  0.990928  0.743396  0.995056  1
  Br  Br19  1  0.744809  0.248050  0.755522  1
  Br  Br20  1  0.992794  0.990248  0.744664  1
  Br  Br21  1  0.252445  0.995087  0.507037  1
  Br  Br22  1  0.755240  0.510754  0.503261  1
  Br  Br23  1  0.507197  0.251830  0.997449  1
  Br  Br24  1  0.753478  0.743831  0.255152  1
  Br  Br25  1  0.746526  0.001683  0.990360  1
  Br  Br26  1  0.995814  0.505118  0.250297  1
  Br  Br27  1  0.504137  0.754453  0.509235  1
