# generated using pymatgen
data_Dy3Er5B24OsRu3
_symmetry_space_group_name_H-M   'P 1'
_cell_length_a   3.64127300
_cell_length_b   9.11609128
_cell_length_c   11.49518600
_cell_angle_alpha   90.04165816
_cell_angle_beta   90.00000000
_cell_angle_gamma   90.00000000
_symmetry_Int_Tables_number   1
_chemical_formula_structural   Dy3Er5B24OsRu3
_chemical_formula_sum   'Dy3 Er5 B24 Os1 Ru3'
_cell_volume   381.57313858
_cell_formula_units_Z   1
loop_
 _symmetry_equiv_pos_site_id
 _symmetry_equiv_pos_as_xyz
  1  'x, y, z'
loop_
 _atom_site_type_symbol
 _atom_site_label
 _atom_site_symmetry_multiplicity
 _atom_site_fract_x
 _atom_site_fract_y
 _atom_site_fract_z
 _atom_site_occupancy
  Dy  Dy0  1  0.000000  0.322640  0.413989  1
  Dy  Dy1  1  0.000000  0.677935  0.586415  1
  Dy  Dy2  1  0.000000  0.822325  0.085873  1
  Er  Er3  1  0.000000  0.177621  0.914044  1
  Er  Er4  1  0.000000  0.943893  0.372204  1
  Er  Er5  1  0.000000  0.056442  0.627065  1
  Er  Er6  1  0.000000  0.443614  0.127637  1
  Er  Er7  1  0.000000  0.555409  0.872775  1
  B  B8  1  0.500000  0.554325  0.433018  1
  B  B9  1  0.500000  0.445812  0.567080  1
  B  B10  1  0.500000  0.054390  0.066747  1
  B  B11  1  0.500000  0.946330  0.933123  1
  B  B12  1  0.500000  0.748540  0.419799  1
  B  B13  1  0.500000  0.251760  0.580162  1
  B  B14  1  0.500000  0.248343  0.079826  1
  B  B15  1  0.500000  0.751485  0.919722  1
  B  B16  1  0.500000  0.791354  0.266346  1
  B  B17  1  0.500000  0.208382  0.733847  1
  B  B18  1  0.500000  0.291359  0.233547  1
  B  B19  1  0.500000  0.708391  0.766444  1
  B  B20  1  0.500000  0.631479  0.185099  1
  B  B21  1  0.500000  0.367893  0.815189  1
  B  B22  1  0.500000  0.131619  0.314848  1
  B  B23  1  0.500000  0.868637  0.685243  1
  B  B24  1  0.500000  0.983445  0.213059  1
  B  B25  1  0.500000  0.017364  0.786986  1
  B  B26  1  0.500000  0.483372  0.286894  1
  B  B27  1  0.500000  0.516451  0.713254  1
  B  B28  1  0.500000  0.606877  0.029728  1
  B  B29  1  0.500000  0.391961  0.970324  1
  B  B30  1  0.500000  0.107337  0.470169  1
  B  B31  1  0.500000  0.893117  0.529442  1
  Os  Os32  1  0.000000  0.862283  0.821150  1
  Ru  Ru33  1  0.000000  0.638042  0.321006  1
  Ru  Ru34  1  0.000000  0.361801  0.679256  1
  Ru  Ru35  1  0.000000  0.137975  0.178688  1
