# generated using pymatgen
data_CaNdMnNbO6
_symmetry_space_group_name_H-M   'P 1'
_cell_length_a   8.06827286
_cell_length_b   8.06832239
_cell_length_c   9.74147642
_cell_angle_alpha   66.91772517
_cell_angle_beta   66.91782898
_cell_angle_gamma   92.61408234
_symmetry_Int_Tables_number   1
_chemical_formula_structural   CaNdMnNbO6
_chemical_formula_sum   'Ca4 Nd4 Mn4 Nb4 O24'
_cell_volume   521.57815543
_cell_formula_units_Z   4
loop_
 _symmetry_equiv_pos_site_id
 _symmetry_equiv_pos_as_xyz
  1  'x, y, z'
loop_
 _atom_site_type_symbol
 _atom_site_label
 _atom_site_symmetry_multiplicity
 _atom_site_fract_x
 _atom_site_fract_y
 _atom_site_fract_z
 _atom_site_occupancy
  Ca  Ca0  1  0.407885  0.854410  0.250335  1
  Ca  Ca1  1  0.907884  0.354412  0.250336  1
  Ca  Ca2  1  0.104406  0.157876  0.750333  1
  Ca  Ca3  1  0.604407  0.657876  0.750339  1
  Nd  Nd4  1  0.082208  0.646692  0.753680  1
  Nd  Nd5  1  0.582203  0.146686  0.753678  1
  Nd  Nd6  1  0.396682  0.332200  0.253678  1
  Nd  Nd7  1  0.896689  0.832199  0.253681  1
  Mn  Mn8  1  0.500393  0.996256  0.500596  1
  Mn  Mn9  1  0.746254  0.750338  0.000633  1
  Mn  Mn10  1  0.000384  0.496258  0.500616  1
  Mn  Mn11  1  0.246240  0.250354  0.000607  1
  Nb  Nb12  1  0.752821  0.245073  0.001397  1
  Nb  Nb13  1  0.252817  0.745073  0.001394  1
  Nb  Nb14  1  0.495097  0.502836  0.501376  1
  Nb  Nb15  1  0.995084  0.002840  0.501382  1
  O  O16  1  0.265762  0.983724  0.437921  1
  O  O17  1  0.765758  0.483725  0.437927  1
  O  O18  1  0.733719  0.515763  0.937919  1
  O  O19  1  0.233716  0.015760  0.937918  1
  O  O20  1  0.232632  0.529568  0.559546  1
  O  O21  1  0.732637  0.029567  0.559547  1
  O  O22  1  0.779561  0.982641  0.059543  1
  O  O23  1  0.279560  0.482634  0.059536  1
  O  O24  1  0.581280  0.769272  0.445153  1
  O  O25  1  0.081284  0.269272  0.445153  1
  O  O26  1  0.019274  0.331291  0.945143  1
  O  O27  1  0.519279  0.831280  0.945154  1
  O  O28  1  0.922196  0.735256  0.551541  1
  O  O29  1  0.422199  0.235258  0.551543  1
  O  O30  1  0.485256  0.172202  0.051536  1
  O  O31  1  0.985262  0.672196  0.051544  1
  O  O32  1  0.953950  0.913811  0.739084  1
  O  O33  1  0.453951  0.413815  0.739087  1
  O  O34  1  0.163815  0.703958  0.239080  1
  O  O35  1  0.663811  0.203962  0.239075  1
  O  O36  1  0.540695  0.586120  0.260753  1
  O  O37  1  0.040697  0.086128  0.260750  1
  O  O38  1  0.336126  0.790711  0.760745  1
  O  O39  1  0.836124  0.290705  0.760744  1
