# generated using pymatgen
data_Nd3SmGa18(PdRu)3
_symmetry_space_group_name_H-M   'P 1'
_cell_length_a   7.66781864
_cell_length_b   7.66703380
_cell_length_c   9.68242555
_cell_angle_alpha   89.94382807
_cell_angle_beta   89.94408483
_cell_angle_gamma   119.79631523
_symmetry_Int_Tables_number   1
_chemical_formula_structural   Nd3SmGa18(PdRu)3
_chemical_formula_sum   'Nd3 Sm1 Ga18 Pd3 Ru3'
_cell_volume   493.97037250
_cell_formula_units_Z   1
loop_
 _symmetry_equiv_pos_site_id
 _symmetry_equiv_pos_as_xyz
  1  'x, y, z'
loop_
 _atom_site_type_symbol
 _atom_site_label
 _atom_site_symmetry_multiplicity
 _atom_site_fract_x
 _atom_site_fract_y
 _atom_site_fract_z
 _atom_site_occupancy
  Nd  Nd0  1  0.995259  0.669273  0.250371  1
  Nd  Nd1  1  0.001452  0.328511  0.749296  1
  Nd  Nd2  1  0.671541  0.998561  0.250686  1
  Sm  Sm3  1  0.330723  0.004403  0.749440  1
  Ga  Ga4  1  0.135154  0.132683  0.249897  1
  Ga  Ga5  1  0.868491  0.865398  0.750086  1
  Ga  Ga6  1  0.008789  0.339109  0.078712  1
  Ga  Ga7  1  0.003182  0.666462  0.920819  1
  Ga  Ga8  1  0.999235  0.661660  0.577001  1
  Ga  Ga9  1  0.339392  0.001660  0.424483  1
  Ga  Ga10  1  0.003671  0.339783  0.422570  1
  Ga  Ga11  1  0.659078  0.996325  0.578139  1
  Ga  Ga12  1  0.659902  0.991259  0.920659  1
  Ga  Ga13  1  0.334707  0.997909  0.077675  1
  Ga  Ga14  1  0.342257  0.341348  0.560605  1
  Ga  Ga15  1  0.657715  0.657749  0.440110  1
  Ga  Ga16  1  0.657024  0.662646  0.063496  1
  Ga  Ga17  1  0.337443  0.342080  0.935801  1
  Ga  Ga18  1  0.336656  0.548860  0.250787  1
  Ga  Ga19  1  0.664204  0.456171  0.746107  1
  Ga  Ga20  1  0.542514  0.334817  0.253973  1
  Ga  Ga21  1  0.450865  0.664053  0.749189  1
  Pd  Pd22  1  0.670995  0.328437  0.999614  1
  Pd  Pd23  1  0.001081  0.999474  0.999586  1
  Pd  Pd24  1  0.000182  0.000333  0.500374  1
  Ru  Ru25  1  0.328362  0.671891  0.999490  1
  Ru  Ru26  1  0.327887  0.672120  0.500511  1
  Ru  Ru27  1  0.672239  0.327027  0.500522  1
