# generated using pymatgen
data_Ca2Si6Pd20Pb
_symmetry_space_group_name_H-M   'P 1'
_cell_length_a   8.73984601
_cell_length_b   8.73984555
_cell_length_c   8.74005645
_cell_angle_alpha   60.00477541
_cell_angle_beta   60.00477369
_cell_angle_gamma   60.01294511
_symmetry_Int_Tables_number   1
_chemical_formula_structural   Ca2Si6Pd20Pb
_chemical_formula_sum   'Ca2 Si6 Pd20 Pb1'
_cell_volume   472.15065065
_cell_formula_units_Z   1
loop_
 _symmetry_equiv_pos_site_id
 _symmetry_equiv_pos_as_xyz
  1  'x, y, z'
loop_
 _atom_site_type_symbol
 _atom_site_label
 _atom_site_symmetry_multiplicity
 _atom_site_fract_x
 _atom_site_fract_y
 _atom_site_fract_z
 _atom_site_occupancy
  Ca  Ca0  1  0.749983  0.749983  0.750024  1
  Ca  Ca1  1  0.999990  0.999990  0.999993  1
  Si  Si2  1  0.730576  0.269411  0.269370  1
  Si  Si3  1  0.269422  0.730598  0.730615  1
  Si  Si4  1  0.269411  0.730576  0.269370  1
  Si  Si5  1  0.730598  0.269422  0.730615  1
  Si  Si6  1  0.269377  0.269377  0.730624  1
  Si  Si7  1  0.730625  0.730625  0.269390  1
  Pd  Pd8  1  0.381748  0.381748  0.381714  1
  Pd  Pd9  1  0.614196  0.614196  0.614228  1
  Pd  Pd10  1  0.381781  0.381781  0.854781  1
  Pd  Pd11  1  0.381708  0.854821  0.381742  1
  Pd  Pd12  1  0.614178  0.614178  0.157427  1
  Pd  Pd13  1  0.614219  0.157396  0.614181  1
  Pd  Pd14  1  0.854821  0.381708  0.381742  1
  Pd  Pd15  1  0.157396  0.614219  0.614181  1
  Pd  Pd16  1  0.346112  0.997598  0.997608  1
  Pd  Pd17  1  0.658525  0.997750  0.997733  1
  Pd  Pd18  1  0.997647  0.346056  0.658657  1
  Pd  Pd19  1  0.997713  0.658596  0.345992  1
  Pd  Pd20  1  0.997598  0.346112  0.997608  1
  Pd  Pd21  1  0.658596  0.997713  0.345992  1
  Pd  Pd22  1  0.997750  0.658525  0.997733  1
  Pd  Pd23  1  0.346056  0.997647  0.658657  1
  Pd  Pd24  1  0.997583  0.997583  0.346146  1
  Pd  Pd25  1  0.997680  0.997680  0.658577  1
  Pd  Pd26  1  0.658631  0.346061  0.997654  1
  Pd  Pd27  1  0.346061  0.658631  0.997654  1
  Pb  Pb28  1  0.250018  0.250018  0.249998  1
