# generated using pymatgen
data_Fe11Co(W6C)2
_symmetry_space_group_name_H-M   'P 1'
_cell_length_a   7.71499281
_cell_length_b   7.71814044
_cell_length_c   7.71499200
_cell_angle_alpha   60.01349319
_cell_angle_beta   60.00000348
_cell_angle_gamma   60.01348956
_symmetry_Int_Tables_number   1
_chemical_formula_structural   Fe11Co(W6C)2
_chemical_formula_sum   'Fe11 Co1 W12 C2'
_cell_volume   324.90562346
_cell_formula_units_Z   1
loop_
 _symmetry_equiv_pos_site_id
 _symmetry_equiv_pos_as_xyz
  1  'x, y, z'
loop_
 _atom_site_type_symbol
 _atom_site_label
 _atom_site_symmetry_multiplicity
 _atom_site_fract_x
 _atom_site_fract_y
 _atom_site_fract_z
 _atom_site_occupancy
  Fe  Fe0  1  0.328385  0.014844  0.328385  1
  Fe  Fe1  1  0.328694  0.328562  0.328694  1
  Fe  Fe2  1  0.014048  0.328562  0.328694  1
  Fe  Fe3  1  0.920311  0.921414  0.237965  1
  Fe  Fe4  1  0.237965  0.921414  0.920311  1
  Fe  Fe5  1  0.328694  0.328562  0.014048  1
  Fe  Fe6  1  0.126142  0.122555  0.625161  1
  Fe  Fe7  1  0.920311  0.921414  0.920311  1
  Fe  Fe8  1  0.124781  0.625657  0.124781  1
  Fe  Fe9  1  0.126142  0.122555  0.126142  1
  Fe  Fe10  1  0.625161  0.122555  0.126142  1
  Co  Co11  1  0.918131  0.245609  0.918131  1
  W  W12  1  0.302341  0.697789  0.697528  1
  W  W13  1  0.301407  0.302079  0.698257  1
  W  W14  1  0.552306  0.947867  0.552306  1
  W  W15  1  0.948293  0.551558  0.551856  1
  W  W16  1  0.552306  0.947867  0.947522  1
  W  W17  1  0.698257  0.302079  0.301407  1
  W  W18  1  0.948293  0.551558  0.948293  1
  W  W19  1  0.302341  0.697789  0.302341  1
  W  W20  1  0.551856  0.551558  0.948293  1
  W  W21  1  0.698257  0.302079  0.698257  1
  W  W22  1  0.697528  0.697789  0.302341  1
  W  W23  1  0.947522  0.947867  0.552306  1
  C  C24  1  0.750324  0.749029  0.750324  1
  C  C25  1  0.500204  0.499388  0.500204  1
