# generated using pymatgen
data_Ho3Tm13(CdNi)4
_symmetry_space_group_name_H-M   'P 1'
_cell_length_a   9.44043252
_cell_length_b   9.42879466
_cell_length_c   9.42879400
_cell_angle_alpha   60.00000230
_cell_angle_beta   60.04077358
_cell_angle_gamma   60.04077849
_symmetry_Int_Tables_number   1
_chemical_formula_structural   Ho3Tm13(CdNi)4
_chemical_formula_sum   'Ho3 Tm13 Cd4 Ni4'
_cell_volume   593.82246146
_cell_formula_units_Z   1
loop_
 _symmetry_equiv_pos_site_id
 _symmetry_equiv_pos_as_xyz
  1  'x, y, z'
loop_
 _atom_site_type_symbol
 _atom_site_label
 _atom_site_symmetry_multiplicity
 _atom_site_fract_x
 _atom_site_fract_y
 _atom_site_fract_z
 _atom_site_occupancy
  Ho  Ho0  1  0.349491  0.348569  0.348569  1
  Ho  Ho1  1  0.349491  0.348569  0.953370  1
  Ho  Ho2  1  0.349491  0.953370  0.348569  1
  Tm  Tm3  1  0.947069  0.350977  0.350977  1
  Tm  Tm4  1  0.812843  0.187892  0.187892  1
  Tm  Tm5  1  0.189167  0.811505  0.811505  1
  Tm  Tm6  1  0.189167  0.811505  0.187824  1
  Tm  Tm7  1  0.812843  0.187892  0.811372  1
  Tm  Tm8  1  0.189167  0.187824  0.811505  1
  Tm  Tm9  1  0.812843  0.811372  0.187892  1
  Tm  Tm10  1  0.937224  0.563133  0.563133  1
  Tm  Tm11  1  0.565338  0.935209  0.935209  1
  Tm  Tm12  1  0.565338  0.935209  0.564244  1
  Tm  Tm13  1  0.937224  0.563133  0.936511  1
  Tm  Tm14  1  0.565338  0.564244  0.935209  1
  Tm  Tm15  1  0.937224  0.936511  0.563133  1
  Cd  Cd16  1  0.580741  0.581804  0.581804  1
  Cd  Cd17  1  0.580741  0.581804  0.255651  1
  Cd  Cd18  1  0.580741  0.255651  0.581804  1
  Cd  Cd19  1  0.255302  0.581566  0.581566  1
  Ni  Ni20  1  0.139248  0.144414  0.144414  1
  Ni  Ni21  1  0.139248  0.144414  0.571925  1
  Ni  Ni22  1  0.139248  0.571925  0.144414  1
  Ni  Ni23  1  0.575475  0.141509  0.141509  1
