# generated using pymatgen
data_Hf9ZrGe6S
_symmetry_space_group_name_H-M   'P 1'
_cell_length_a   5.53383663
_cell_length_b   8.10994879
_cell_length_c   8.11337700
_cell_angle_alpha   120.01403738
_cell_angle_beta   89.86823848
_cell_angle_gamma   90.06595813
_symmetry_Int_Tables_number   1
_chemical_formula_structural   Hf9ZrGe6S
_chemical_formula_sum   'Hf9 Zr1 Ge6 S1'
_cell_volume   315.29286095
_cell_formula_units_Z   1
loop_
 _symmetry_equiv_pos_site_id
 _symmetry_equiv_pos_as_xyz
  1  'x, y, z'
loop_
 _atom_site_type_symbol
 _atom_site_label
 _atom_site_symmetry_multiplicity
 _atom_site_fract_x
 _atom_site_fract_y
 _atom_site_fract_z
 _atom_site_occupancy
  Hf  Hf0  1  0.500007  0.333454  0.666476  1
  Hf  Hf1  1  0.500002  0.666548  0.333023  1
  Hf  Hf2  1  0.999696  0.666654  0.333169  1
  Hf  Hf3  1  0.999704  0.333337  0.666508  1
  Hf  Hf4  1  0.761234  0.258234  0.000516  1
  Hf  Hf5  1  0.761236  0.741748  0.742297  1
  Hf  Hf6  1  0.763084  0.000018  0.257969  1
  Hf  Hf7  1  0.238143  0.742504  0.999659  1
  Hf  Hf8  1  0.238149  0.257478  0.257173  1
  Zr  Zr9  1  0.237786  0.000030  0.743240  1
  Ge  Ge10  1  0.748411  0.608039  0.999942  1
  Ge  Ge11  1  0.748412  0.391946  0.391918  1
  Ge  Ge12  1  0.747682  0.000020  0.608172  1
  Ge  Ge13  1  0.251203  0.393330  0.000546  1
  Ge  Ge14  1  0.251202  0.606652  0.607228  1
  Ge  Ge15  1  0.252046  0.000014  0.390532  1
  S  S16  1  0.502000  0.999998  0.001633  1
