# generated using pymatgen
data_Pr3Ag3Ir
_symmetry_space_group_name_H-M   'P 1'
_cell_length_a   8.36326745
_cell_length_b   8.36326753
_cell_length_c   8.36326800
_cell_angle_alpha   114.34586354
_cell_angle_beta   114.34586380
_cell_angle_gamma   114.34585335
_symmetry_Int_Tables_number   1
_chemical_formula_structural   Pr3Ag3Ir
_chemical_formula_sum   'Pr6 Ag6 Ir2'
_cell_volume   346.09213594
_cell_formula_units_Z   2
loop_
 _symmetry_equiv_pos_site_id
 _symmetry_equiv_pos_as_xyz
  1  'x, y, z'
loop_
 _atom_site_type_symbol
 _atom_site_label
 _atom_site_symmetry_multiplicity
 _atom_site_fract_x
 _atom_site_fract_y
 _atom_site_fract_z
 _atom_site_occupancy
  Pr  Pr0  1  0.047515  0.392534  0.285230  1
  Pr  Pr1  1  0.392534  0.285230  0.047515  1
  Pr  Pr2  1  0.714770  0.952485  0.607466  1
  Pr  Pr3  1  0.285230  0.047515  0.392534  1
  Pr  Pr4  1  0.607466  0.714770  0.952485  1
  Pr  Pr5  1  0.952485  0.607466  0.714770  1
  Ag  Ag6  1  0.436152  0.951360  0.781907  1
  Ag  Ag7  1  0.951360  0.781907  0.436152  1
  Ag  Ag8  1  0.218093  0.563848  0.048640  1
  Ag  Ag9  1  0.781907  0.436152  0.951360  1
  Ag  Ag10  1  0.048640  0.218093  0.563848  1
  Ag  Ag11  1  0.563848  0.048640  0.218093  1
  Ir  Ir12  1  0.000000  0.000000  0.000000  1
  Ir  Ir13  1  0.500000  0.500000  0.500000  1
