# generated using pymatgen
data_TbEr3InNi
_symmetry_space_group_name_H-M   'P 1'
_cell_length_a   9.52308652
_cell_length_b   9.52308583
_cell_length_c   9.52308700
_cell_angle_alpha   59.99999942
_cell_angle_beta   60.00000181
_cell_angle_gamma   60.00000082
_symmetry_Int_Tables_number   1
_chemical_formula_structural   TbEr3InNi
_chemical_formula_sum   'Tb4 Er12 In4 Ni4'
_cell_volume   610.68631731
_cell_formula_units_Z   4
loop_
 _symmetry_equiv_pos_site_id
 _symmetry_equiv_pos_as_xyz
  1  'x, y, z'
loop_
 _atom_site_type_symbol
 _atom_site_label
 _atom_site_symmetry_multiplicity
 _atom_site_fract_x
 _atom_site_fract_y
 _atom_site_fract_z
 _atom_site_occupancy
  Tb  Tb0  1  0.348296  0.348296  0.348296  1
  Tb  Tb1  1  0.348296  0.348296  0.955115  1
  Tb  Tb2  1  0.348296  0.955115  0.348296  1
  Tb  Tb3  1  0.955115  0.348296  0.348296  1
  Er  Er4  1  0.812177  0.187823  0.187823  1
  Er  Er5  1  0.187823  0.812177  0.812177  1
  Er  Er6  1  0.187823  0.812177  0.187823  1
  Er  Er7  1  0.812177  0.187823  0.812177  1
  Er  Er8  1  0.187823  0.187823  0.812177  1
  Er  Er9  1  0.812177  0.812177  0.187823  1
  Er  Er10  1  0.937522  0.562478  0.562478  1
  Er  Er11  1  0.562478  0.937522  0.937522  1
  Er  Er12  1  0.562478  0.937522  0.562478  1
  Er  Er13  1  0.937522  0.562478  0.937522  1
  Er  Er14  1  0.562478  0.562478  0.937522  1
  Er  Er15  1  0.937522  0.937522  0.562478  1
  In  In16  1  0.582783  0.582783  0.582783  1
  In  In17  1  0.582783  0.582783  0.251650  1
  In  In18  1  0.582783  0.251650  0.582783  1
  In  In19  1  0.251650  0.582783  0.582783  1
  Ni  Ni20  1  0.141929  0.141929  0.141929  1
  Ni  Ni21  1  0.141929  0.141929  0.574213  1
  Ni  Ni22  1  0.141929  0.574213  0.141929  1
  Ni  Ni23  1  0.574213  0.141929  0.141929  1
