# generated using pymatgen
data_BaAc3(WF7)4
_symmetry_space_group_name_H-M   'P 1'
_cell_length_a   6.03209441
_cell_length_b   9.78797824
_cell_length_c   12.94304100
_cell_angle_alpha   62.52959658
_cell_angle_beta   90.02112464
_cell_angle_gamma   89.93573054
_symmetry_Int_Tables_number   1
_chemical_formula_structural   BaAc3(WF7)4
_chemical_formula_sum   'Ba1 Ac3 W4 F28'
_cell_volume   678.02014242
_cell_formula_units_Z   1
loop_
 _symmetry_equiv_pos_site_id
 _symmetry_equiv_pos_as_xyz
  1  'x, y, z'
loop_
 _atom_site_type_symbol
 _atom_site_label
 _atom_site_symmetry_multiplicity
 _atom_site_fract_x
 _atom_site_fract_y
 _atom_site_fract_z
 _atom_site_occupancy
  Ba  Ba0  1  0.745904  0.823368  0.763024  1
  Ac  Ac1  1  0.760560  0.800332  0.272400  1
  Ac  Ac2  1  0.258680  0.185316  0.245384  1
  Ac  Ac3  1  0.237934  0.188133  0.729915  1
  W  W4  1  0.254256  0.718662  0.545031  1
  W  W5  1  0.745766  0.273409  0.958416  1
  W  W6  1  0.755283  0.277070  0.455862  1
  W  W7  1  0.256988  0.721971  0.046804  1
  F  F8  1  0.980295  0.713594  0.453904  1
  F  F9  1  0.476436  0.281833  0.042029  1
  F  F10  1  0.039902  0.288222  0.538296  1
  F  F11  1  0.530744  0.709957  0.965529  1
  F  F12  1  0.052651  0.694879  0.936750  1
  F  F13  1  0.553359  0.293468  0.572175  1
  F  F14  1  0.935523  0.288758  0.075743  1
  F  F15  1  0.448027  0.705109  0.421769  1
  F  F16  1  0.738757  0.489891  0.871256  1
  F  F17  1  0.249041  0.483951  0.640522  1
  F  F18  1  0.256571  0.487605  0.143621  1
  F  F19  1  0.764965  0.507373  0.361702  1
  F  F20  1  0.744542  0.054375  0.041870  1
  F  F21  1  0.244384  0.954331  0.445595  1
  F  F22  1  0.267744  0.954621  0.949966  1
  F  F23  1  0.765672  0.050634  0.540765  1
  F  F24  1  0.057256  0.738175  0.659315  1
  F  F25  1  0.554889  0.256764  0.841787  1
  F  F26  1  0.947926  0.262472  0.332915  1
  F  F27  1  0.457214  0.750086  0.163710  1
  F  F28  1  0.014554  0.268701  0.875199  1
  F  F29  1  0.525585  0.715233  0.632769  1
  F  F30  1  0.989102  0.738239  0.137204  1
  F  F31  1  0.479261  0.268267  0.365907  1
  F  F32  1  0.064563  0.982501  0.227456  1
  F  F33  1  0.577313  0.028963  0.257487  1
  F  F34  1  0.891798  0.067758  0.769127  1
  F  F35  1  0.376555  0.975978  0.718793  1
