# generated using pymatgen
data_Er8Tm4CuNi4Sn
_symmetry_space_group_name_H-M   'P 1'
_cell_length_a   8.24661106
_cell_length_b   8.24661088
_cell_length_c   8.24661123
_cell_angle_alpha   112.28601131
_cell_angle_beta   109.55143983
_cell_angle_gamma   106.62561816
_symmetry_Int_Tables_number   1
_chemical_formula_structural   Er8Tm4CuNi4Sn
_chemical_formula_sum   'Er8 Tm4 Cu1 Ni4 Sn1'
_cell_volume   430.66985128
_cell_formula_units_Z   1
loop_
 _symmetry_equiv_pos_site_id
 _symmetry_equiv_pos_as_xyz
  1  'x, y, z'
loop_
 _atom_site_type_symbol
 _atom_site_label
 _atom_site_symmetry_multiplicity
 _atom_site_fract_x
 _atom_site_fract_y
 _atom_site_fract_z
 _atom_site_occupancy
  Er  Er0  1  0.026431  0.720579  0.305851  1
  Er  Er1  1  0.973569  0.279421  0.694149  1
  Er  Er2  1  0.585272  0.279421  0.305851  1
  Er  Er3  1  0.414728  0.720579  0.694149  1
  Er  Er4  1  0.675727  0.868616  0.192888  1
  Er  Er5  1  0.324273  0.517160  0.192888  1
  Er  Er6  1  0.324273  0.131384  0.807112  1
  Er  Er7  1  0.675727  0.482840  0.807112  1
  Tm  Tm8  1  0.179445  0.208109  0.387554  1
  Tm  Tm9  1  0.820555  0.208109  0.028663  1
  Tm  Tm10  1  0.179445  0.791891  0.971337  1
  Tm  Tm11  1  0.820555  0.791891  0.612446  1
  Cu  Cu12  1  0.000000  0.500000  0.500000  1
  Ni  Ni13  1  0.642686  0.500000  0.142686  1
  Ni  Ni14  1  0.357314  0.500000  0.857314  1
  Ni  Ni15  1  0.874080  0.874080  0.000000  1
  Ni  Ni16  1  0.125920  0.125920  0.000000  1
  Sn  Sn17  1  0.500000  0.000000  0.500000  1
