# generated using pymatgen
data_Th2V3P7Ir9
_symmetry_space_group_name_H-M   'P 1'
_cell_length_a   9.58531000
_cell_length_b   9.58530953
_cell_length_c   3.98100900
_cell_angle_alpha   90.00000000
_cell_angle_beta   90.00000000
_cell_angle_gamma   119.99999471
_symmetry_Int_Tables_number   1
_chemical_formula_structural   Th2V3P7Ir9
_chemical_formula_sum   'Th2 V3 P7 Ir9'
_cell_volume   316.76421926
_cell_formula_units_Z   1
loop_
 _symmetry_equiv_pos_site_id
 _symmetry_equiv_pos_as_xyz
  1  'x, y, z'
loop_
 _atom_site_type_symbol
 _atom_site_label
 _atom_site_symmetry_multiplicity
 _atom_site_fract_x
 _atom_site_fract_y
 _atom_site_fract_z
 _atom_site_occupancy
  Th  Th0  1  0.333333  0.666667  0.000000  1
  Th  Th1  1  0.000000  0.000000  0.500000  1
  V  V2  1  0.794628  0.241786  0.500000  1
  V  V3  1  0.758214  0.552843  0.500000  1
  V  V4  1  0.447157  0.205372  0.500000  1
  P  P5  1  0.781278  0.039879  0.000000  1
  P  P6  1  0.960121  0.741399  0.000000  1
  P  P7  1  0.258601  0.218722  0.000000  1
  P  P8  1  0.379889  0.936626  0.500000  1
  P  P9  1  0.063374  0.443264  0.500000  1
  P  P10  1  0.556736  0.620111  0.500000  1
  P  P11  1  0.666667  0.333333  0.000000  1
  Ir  Ir12  1  0.034695  0.261914  0.000000  1
  Ir  Ir13  1  0.738086  0.772780  0.000000  1
  Ir  Ir14  1  0.227220  0.965305  0.000000  1
  Ir  Ir15  1  0.554866  0.063769  0.000000  1
  Ir  Ir16  1  0.936231  0.491098  0.000000  1
  Ir  Ir17  1  0.508902  0.445134  0.000000  1
  Ir  Ir18  1  0.611678  0.892090  0.500000  1
  Ir  Ir19  1  0.107910  0.719586  0.500000  1
  Ir  Ir20  1  0.280414  0.388322  0.500000  1
