# generated using pymatgen
data_HoTm7Mg2(SiB4)4
_symmetry_space_group_name_H-M   'P 1'
_cell_length_a   7.11394601
_cell_length_b   7.11394601
_cell_length_c   7.72324900
_cell_angle_alpha   89.99934338
_cell_angle_beta   90.00065662
_cell_angle_gamma   89.99508706
_symmetry_Int_Tables_number   1
_chemical_formula_structural   HoTm7Mg2(SiB4)4
_chemical_formula_sum   'Ho1 Tm7 Mg2 Si4 B16'
_cell_volume   390.85994316
_cell_formula_units_Z   1
loop_
 _symmetry_equiv_pos_site_id
 _symmetry_equiv_pos_as_xyz
  1  'x, y, z'
loop_
 _atom_site_type_symbol
 _atom_site_label
 _atom_site_symmetry_multiplicity
 _atom_site_fract_x
 _atom_site_fract_y
 _atom_site_fract_z
 _atom_site_occupancy
  Ho  Ho0  1  0.182292  0.317708  0.233182  1
  Tm  Tm1  1  0.682199  0.182153  0.231804  1
  Tm  Tm2  1  0.317827  0.817757  0.768258  1
  Tm  Tm3  1  0.317847  0.817801  0.231804  1
  Tm  Tm4  1  0.817686  0.682314  0.231796  1
  Tm  Tm5  1  0.817728  0.682272  0.768202  1
  Tm  Tm6  1  0.682243  0.182173  0.768258  1
  Tm  Tm7  1  0.182188  0.317812  0.768124  1
  Mg  Mg8  1  0.999876  0.999776  0.500177  1
  Mg  Mg9  1  0.500224  0.500124  0.500177  1
  Si  Si10  1  0.115391  0.616150  0.500486  1
  Si  Si11  1  0.883850  0.384609  0.500486  1
  Si  Si12  1  0.384814  0.115186  0.500611  1
  Si  Si13  1  0.615817  0.884183  0.500104  1
  B  B14  1  0.174050  0.039218  0.999782  1
  B  B15  1  0.825729  0.960393  0.999858  1
  B  B16  1  0.960213  0.173993  0.999685  1
  B  B17  1  0.326007  0.539787  0.999685  1
  B  B18  1  0.039403  0.825759  0.999835  1
  B  B19  1  0.674241  0.460597  0.999835  1
  B  B20  1  0.539607  0.674271  0.999858  1
  B  B21  1  0.460782  0.325950  0.999782  1
  B  B22  1  0.088667  0.588913  0.999595  1
  B  B23  1  0.911087  0.411333  0.999595  1
  B  B24  1  0.411323  0.088677  0.999900  1
  B  B25  1  0.588751  0.911249  0.999903  1
  B  B26  1  0.999744  0.999529  0.165596  1
  B  B27  1  0.999919  0.999975  0.834015  1
  B  B28  1  0.500025  0.500081  0.834015  1
  B  B29  1  0.500471  0.500256  0.165596  1
