# generated using pymatgen
data_Dy20Fe3CuSb8
_symmetry_space_group_name_H-M   'P 1'
_cell_length_a   7.90973281
_cell_length_b   8.83474400
_cell_length_c   12.20000504
_cell_angle_alpha   90.00000000
_cell_angle_beta   90.14352866
_cell_angle_gamma   90.00000000
_symmetry_Int_Tables_number   1
_chemical_formula_structural   Dy20Fe3CuSb8
_chemical_formula_sum   'Dy20 Fe3 Cu1 Sb8'
_cell_volume   852.53934340
_cell_formula_units_Z   1
loop_
 _symmetry_equiv_pos_site_id
 _symmetry_equiv_pos_as_xyz
  1  'x, y, z'
loop_
 _atom_site_type_symbol
 _atom_site_label
 _atom_site_symmetry_multiplicity
 _atom_site_fract_x
 _atom_site_fract_y
 _atom_site_fract_z
 _atom_site_occupancy
  Dy  Dy0  1  0.164818  0.750000  0.216257  1
  Dy  Dy1  1  0.654309  0.250000  0.296495  1
  Dy  Dy2  1  0.843610  0.250000  0.794583  1
  Dy  Dy3  1  0.346496  0.750000  0.701752  1
  Dy  Dy4  1  0.462064  0.750000  0.997381  1
  Dy  Dy5  1  0.949246  0.250000  0.504245  1
  Dy  Dy6  1  0.546082  0.250000  0.002086  1
  Dy  Dy7  1  0.045229  0.750000  0.498984  1
  Dy  Dy8  1  0.624772  0.750000  0.303517  1
  Dy  Dy9  1  0.122738  0.250000  0.193664  1
  Dy  Dy10  1  0.378296  0.250000  0.693994  1
  Dy  Dy11  1  0.868543  0.750000  0.799116  1
  Dy  Dy12  1  0.820754  0.973722  0.066250  1
  Dy  Dy13  1  0.322828  0.032240  0.437312  1
  Dy  Dy14  1  0.180588  0.451671  0.934907  1
  Dy  Dy15  1  0.676365  0.536287  0.562296  1
  Dy  Dy16  1  0.180588  0.048329  0.934907  1
  Dy  Dy17  1  0.676365  0.963713  0.562296  1
  Dy  Dy18  1  0.820754  0.526278  0.066250  1
  Dy  Dy19  1  0.322828  0.467760  0.437312  1
  Fe  Fe20  1  0.423021  0.750000  0.483535  1
  Fe  Fe21  1  0.927426  0.250000  0.011006  1
  Fe  Fe22  1  0.571351  0.250000  0.511795  1
  Cu  Cu23  1  0.071544  0.750000  0.988597  1
  Sb  Sb24  1  0.929535  0.992843  0.328079  1
  Sb  Sb25  1  0.427286  0.007829  0.171527  1
  Sb  Sb26  1  0.071390  0.492611  0.674082  1
  Sb  Sb27  1  0.571482  0.507876  0.827044  1
  Sb  Sb28  1  0.071390  0.007389  0.674082  1
  Sb  Sb29  1  0.571482  0.992124  0.827044  1
  Sb  Sb30  1  0.929535  0.507157  0.328079  1
  Sb  Sb31  1  0.427286  0.492171  0.171527  1
