# generated using pymatgen
data_Er10Ag3Ir
_symmetry_space_group_name_H-M   'P 1'
_cell_length_a   9.46707200
_cell_length_b   9.46707213
_cell_length_c   9.53539400
_cell_angle_alpha   90.00000000
_cell_angle_beta   90.00000000
_cell_angle_gamma   119.99999955
_symmetry_Int_Tables_number   1
_chemical_formula_structural   Er10Ag3Ir
_chemical_formula_sum   'Er20 Ag6 Ir2'
_cell_volume   740.11744755
_cell_formula_units_Z   2
loop_
 _symmetry_equiv_pos_site_id
 _symmetry_equiv_pos_as_xyz
  1  'x, y, z'
loop_
 _atom_site_type_symbol
 _atom_site_label
 _atom_site_symmetry_multiplicity
 _atom_site_fract_x
 _atom_site_fract_y
 _atom_site_fract_z
 _atom_site_occupancy
  Er  Er0  1  0.000000  0.000000  0.500000  1
  Er  Er1  1  0.000000  0.000000  0.000000  1
  Er  Er2  1  0.541861  0.458139  0.250000  1
  Er  Er3  1  0.541861  0.083723  0.250000  1
  Er  Er4  1  0.916277  0.458139  0.250000  1
  Er  Er5  1  0.458139  0.541861  0.750000  1
  Er  Er6  1  0.458139  0.916277  0.750000  1
  Er  Er7  1  0.083723  0.541861  0.750000  1
  Er  Er8  1  0.208337  0.791663  0.442714  1
  Er  Er9  1  0.208337  0.416674  0.442714  1
  Er  Er10  1  0.583326  0.791663  0.442714  1
  Er  Er11  1  0.791663  0.208337  0.557286  1
  Er  Er12  1  0.791663  0.583326  0.557286  1
  Er  Er13  1  0.416674  0.208337  0.557286  1
  Er  Er14  1  0.791663  0.208337  0.942714  1
  Er  Er15  1  0.791663  0.583326  0.942714  1
  Er  Er16  1  0.416674  0.208337  0.942714  1
  Er  Er17  1  0.208337  0.791663  0.057286  1
  Er  Er18  1  0.208337  0.416674  0.057286  1
  Er  Er19  1  0.583326  0.791663  0.057286  1
  Ag  Ag20  1  0.882857  0.117143  0.250000  1
  Ag  Ag21  1  0.882857  0.765712  0.250000  1
  Ag  Ag22  1  0.234288  0.117143  0.250000  1
  Ag  Ag23  1  0.117143  0.882857  0.750000  1
  Ag  Ag24  1  0.117143  0.234288  0.750000  1
  Ag  Ag25  1  0.765712  0.882857  0.750000  1
  Ir  Ir26  1  0.333333  0.666667  0.250000  1
  Ir  Ir27  1  0.666667  0.333333  0.750000  1
