# generated using pymatgen
data_Yb3Ho(Al3Pt)6
_symmetry_space_group_name_H-M   'P 1'
_cell_length_a   7.61764841
_cell_length_b   7.61886621
_cell_length_c   9.46934800
_cell_angle_alpha   90.00000000
_cell_angle_beta   90.00000000
_cell_angle_gamma   119.65347742
_symmetry_Int_Tables_number   1
_chemical_formula_structural   Yb3Ho(Al3Pt)6
_chemical_formula_sum   'Yb3 Ho1 Al18 Pt6'
_cell_volume   477.60391720
_cell_formula_units_Z   1
loop_
 _symmetry_equiv_pos_site_id
 _symmetry_equiv_pos_as_xyz
  1  'x, y, z'
loop_
 _atom_site_type_symbol
 _atom_site_label
 _atom_site_symmetry_multiplicity
 _atom_site_fract_x
 _atom_site_fract_y
 _atom_site_fract_z
 _atom_site_occupancy
  Yb  Yb0  1  0.003388  0.328173  0.750000  1
  Yb  Yb1  1  0.670741  0.996309  0.250000  1
  Yb  Yb2  1  0.329892  0.004590  0.750000  1
  Ho  Ho3  1  0.996788  0.670459  0.250000  1
  Al  Al4  1  0.130923  0.129140  0.250000  1
  Al  Al5  1  0.868362  0.868630  0.750000  1
  Al  Al6  1  0.999662  0.334375  0.076745  1
  Al  Al7  1  0.000467  0.665044  0.922257  1
  Al  Al8  1  0.000467  0.665044  0.577743  1
  Al  Al9  1  0.335383  0.000420  0.423114  1
  Al  Al10  1  0.999662  0.334375  0.423255  1
  Al  Al11  1  0.665080  0.999993  0.576365  1
  Al  Al12  1  0.665080  0.999993  0.923635  1
  Al  Al13  1  0.335383  0.000420  0.076886  1
  Al  Al14  1  0.332738  0.332774  0.557777  1
  Al  Al15  1  0.667552  0.667702  0.441453  1
  Al  Al16  1  0.667552  0.667702  0.058547  1
  Al  Al17  1  0.332738  0.332774  0.942223  1
  Al  Al18  1  0.338003  0.545292  0.250000  1
  Al  Al19  1  0.658877  0.454428  0.750000  1
  Al  Al20  1  0.547495  0.342925  0.250000  1
  Al  Al21  1  0.453443  0.659219  0.750000  1
  Pt  Pt22  1  0.671928  0.328767  0.000334  1
  Pt  Pt23  1  0.328323  0.671767  0.000645  1
  Pt  Pt24  1  0.328323  0.671767  0.499355  1
  Pt  Pt25  1  0.671928  0.328767  0.499666  1
  Pt  Pt26  1  0.999911  0.999576  0.000423  1
  Pt  Pt27  1  0.999911  0.999576  0.499577  1
