# generated using pymatgen
data_Tm3Fe7MoP6Ir
_symmetry_space_group_name_H-M   'P 1'
_cell_length_a   3.70096200
_cell_length_b   10.67897300
_cell_length_c   12.33287700
_cell_angle_alpha   90.00000000
_cell_angle_beta   90.00000000
_cell_angle_gamma   90.00000000
_symmetry_Int_Tables_number   1
_chemical_formula_structural   Tm3Fe7MoP6Ir
_chemical_formula_sum   'Tm6 Fe14 Mo2 P12 Ir2'
_cell_volume   487.42580160
_cell_formula_units_Z   2
loop_
 _symmetry_equiv_pos_site_id
 _symmetry_equiv_pos_as_xyz
  1  'x, y, z'
loop_
 _atom_site_type_symbol
 _atom_site_label
 _atom_site_symmetry_multiplicity
 _atom_site_fract_x
 _atom_site_fract_y
 _atom_site_fract_z
 _atom_site_occupancy
  Tm  Tm0  1  0.000000  0.500000  0.522448  1
  Tm  Tm1  1  0.500000  0.000000  0.477552  1
  Tm  Tm2  1  0.500000  0.817973  0.204846  1
  Tm  Tm3  1  0.500000  0.182027  0.204846  1
  Tm  Tm4  1  0.000000  0.682027  0.795154  1
  Tm  Tm5  1  0.000000  0.317973  0.795154  1
  Fe  Fe6  1  0.000000  0.500000  0.990261  1
  Fe  Fe7  1  0.500000  0.000000  0.009739  1
  Fe  Fe8  1  0.500000  0.325852  0.996746  1
  Fe  Fe9  1  0.500000  0.674148  0.996746  1
  Fe  Fe10  1  0.000000  0.174148  0.003254  1
  Fe  Fe11  1  0.000000  0.825852  0.003254  1
  Fe  Fe12  1  0.500000  0.299891  0.431193  1
  Fe  Fe13  1  0.500000  0.700109  0.431193  1
  Fe  Fe14  1  0.000000  0.200109  0.568807  1
  Fe  Fe15  1  0.000000  0.799891  0.568807  1
  Fe  Fe16  1  0.500000  0.881121  0.705489  1
  Fe  Fe17  1  0.500000  0.118879  0.705489  1
  Fe  Fe18  1  0.000000  0.618879  0.294511  1
  Fe  Fe19  1  0.000000  0.381121  0.294511  1
  Mo  Mo20  1  0.500000  0.500000  0.153283  1
  Mo  Mo21  1  0.000000  0.000000  0.846717  1
  P  P22  1  0.500000  0.500000  0.892077  1
  P  P23  1  0.000000  0.000000  0.107923  1
  P  P24  1  0.500000  0.500000  0.348471  1
  P  P25  1  0.000000  0.000000  0.651529  1
  P  P26  1  0.500000  0.299368  0.612312  1
  P  P27  1  0.500000  0.700632  0.612312  1
  P  P28  1  0.000000  0.200632  0.387688  1
  P  P29  1  0.000000  0.799368  0.387688  1
  P  P30  1  0.500000  0.845689  0.888268  1
  P  P31  1  0.500000  0.154311  0.888268  1
  P  P32  1  0.000000  0.654311  0.111732  1
  P  P33  1  0.000000  0.345689  0.111732  1
  Ir  Ir34  1  0.500000  0.500000  0.699045  1
  Ir  Ir35  1  0.000000  0.000000  0.300955  1
