# generated using pymatgen
data_Tb3Dy7(CoTe)4
_symmetry_space_group_name_H-M   'P 1'
_cell_length_a   7.77418307
_cell_length_b   7.77418390
_cell_length_c   15.02797714
_cell_angle_alpha   89.98499405
_cell_angle_beta   90.01500568
_cell_angle_gamma   150.32611319
_symmetry_Int_Tables_number   1
_chemical_formula_structural   Tb3Dy7(CoTe)4
_chemical_formula_sum   'Tb3 Dy7 Co4 Te4'
_cell_volume   449.64556456
_cell_formula_units_Z   1
loop_
 _symmetry_equiv_pos_site_id
 _symmetry_equiv_pos_as_xyz
  1  'x, y, z'
loop_
 _atom_site_type_symbol
 _atom_site_label
 _atom_site_symmetry_multiplicity
 _atom_site_fract_x
 _atom_site_fract_y
 _atom_site_fract_z
 _atom_site_occupancy
  Tb  Tb0  1  0.038988  0.961012  0.873885  1
  Tb  Tb1  1  0.961038  0.038962  0.126243  1
  Tb  Tb2  1  0.741951  0.258049  0.630363  1
  Dy  Dy3  1  0.960826  0.039174  0.373485  1
  Dy  Dy4  1  0.394008  0.605992  0.749926  1
  Dy  Dy5  1  0.258250  0.741750  0.369204  1
  Dy  Dy6  1  0.258025  0.741975  0.130977  1
  Dy  Dy7  1  0.741963  0.258037  0.869274  1
  Dy  Dy8  1  0.606204  0.393796  0.250170  1
  Dy  Dy9  1  0.038954  0.961046  0.626403  1
  Co  Co10  1  0.411034  0.588966  0.250256  1
  Co  Co11  1  0.180939  0.819061  0.750196  1
  Co  Co12  1  0.588722  0.411278  0.749836  1
  Co  Co13  1  0.818869  0.181131  0.250175  1
  Te  Te14  1  0.382793  0.617207  0.537878  1
  Te  Te15  1  0.617433  0.382567  0.461617  1
  Te  Te16  1  0.382051  0.617949  0.961928  1
  Te  Te17  1  0.617954  0.382046  0.038184  1
