# generated using pymatgen
data_Li8Nd7ErBi8
_symmetry_space_group_name_H-M   'P 1'
_cell_length_a   9.86855800
_cell_length_b   9.86855670
_cell_length_c   7.33124300
_cell_angle_alpha   90.00000000
_cell_angle_beta   90.00000000
_cell_angle_gamma   119.99999766
_symmetry_Int_Tables_number   1
_chemical_formula_structural   Li8Nd7ErBi8
_chemical_formula_sum   'Li8 Nd7 Er1 Bi8'
_cell_volume   618.32327593
_cell_formula_units_Z   1
loop_
 _symmetry_equiv_pos_site_id
 _symmetry_equiv_pos_as_xyz
  1  'x, y, z'
loop_
 _atom_site_type_symbol
 _atom_site_label
 _atom_site_symmetry_multiplicity
 _atom_site_fract_x
 _atom_site_fract_y
 _atom_site_fract_z
 _atom_site_occupancy
  Li  Li0  1  0.166806  0.833194  0.289155  1
  Li  Li1  1  0.666386  0.833194  0.289155  1
  Li  Li2  1  0.166806  0.333614  0.289155  1
  Li  Li3  1  0.834019  0.165981  0.799861  1
  Li  Li4  1  0.331962  0.165981  0.799861  1
  Li  Li5  1  0.834019  0.668038  0.799861  1
  Li  Li6  1  0.333333  0.666667  0.695812  1
  Li  Li7  1  0.666667  0.333333  0.200983  1
  Nd  Nd8  1  0.510573  0.489427  0.508489  1
  Nd  Nd9  1  0.978854  0.489427  0.508489  1
  Nd  Nd10  1  0.510573  0.021146  0.508489  1
  Nd  Nd11  1  0.489711  0.510289  0.008328  1
  Nd  Nd12  1  0.020578  0.510289  0.008328  1
  Nd  Nd13  1  0.489711  0.979422  0.008328  1
  Nd  Nd14  1  0.000000  0.000000  0.517942  1
  Er  Er15  1  0.000000  0.000000  0.018194  1
  Bi  Bi16  1  0.165762  0.834238  0.754811  1
  Bi  Bi17  1  0.668476  0.834238  0.754811  1
  Bi  Bi18  1  0.165762  0.331524  0.754811  1
  Bi  Bi19  1  0.835208  0.164792  0.245836  1
  Bi  Bi20  1  0.329585  0.164792  0.245836  1
  Bi  Bi21  1  0.835208  0.670415  0.245836  1
  Bi  Bi22  1  0.333333  0.666667  0.279352  1
  Bi  Bi23  1  0.666667  0.333333  0.778268  1
