# generated using pymatgen
data_YHf2Sc2(Co2Si5)2
_symmetry_space_group_name_H-M   'P 1'
_cell_length_a   12.04865200
_cell_length_b   12.04954900
_cell_length_c   3.95288600
_cell_angle_alpha   90.00000000
_cell_angle_beta   90.00000000
_cell_angle_gamma   90.00000000
_symmetry_Int_Tables_number   1
_chemical_formula_structural   YHf2Sc2(Co2Si5)2
_chemical_formula_sum   'Y2 Hf4 Sc4 Co8 Si20'
_cell_volume   573.88324135
_cell_formula_units_Z   2
loop_
 _symmetry_equiv_pos_site_id
 _symmetry_equiv_pos_as_xyz
  1  'x, y, z'
loop_
 _atom_site_type_symbol
 _atom_site_label
 _atom_site_symmetry_multiplicity
 _atom_site_fract_x
 _atom_site_fract_y
 _atom_site_fract_z
 _atom_site_occupancy
  Y  Y0  1  0.887166  0.387965  0.500000  1
  Y  Y1  1  0.387166  0.112035  0.500000  1
  Hf  Hf2  1  0.678119  0.174084  0.500000  1
  Hf  Hf3  1  0.178119  0.325916  0.500000  1
  Hf  Hf4  1  0.823608  0.680075  0.500000  1
  Hf  Hf5  1  0.323608  0.819925  0.500000  1
  Sc  Sc6  1  0.998519  0.998653  0.000000  1
  Sc  Sc7  1  0.498519  0.501347  0.000000  1
  Sc  Sc8  1  0.612288  0.886928  0.500000  1
  Sc  Sc9  1  0.112288  0.613072  0.500000  1
  Co  Co10  1  0.526434  0.255988  0.000000  1
  Co  Co11  1  0.255418  0.474353  0.000000  1
  Co  Co12  1  0.742726  0.527889  0.000000  1
  Co  Co13  1  0.473167  0.743458  0.000000  1
  Co  Co14  1  0.973167  0.756542  0.000000  1
  Co  Co15  1  0.026434  0.244012  0.000000  1
  Co  Co16  1  0.755418  0.025647  0.000000  1
  Co  Co17  1  0.242726  0.972111  0.000000  1
  Si  Si18  1  0.569864  0.066884  0.000000  1
  Si  Si19  1  0.069864  0.433116  0.000000  1
  Si  Si20  1  0.931682  0.571557  0.000000  1
  Si  Si21  1  0.431682  0.928443  0.000000  1
  Si  Si22  1  0.196665  0.155304  0.000000  1
  Si  Si23  1  0.154926  0.800437  0.000000  1
  Si  Si24  1  0.844193  0.196639  0.000000  1
  Si  Si25  1  0.800432  0.844722  0.000000  1
  Si  Si26  1  0.300432  0.655278  0.000000  1
  Si  Si27  1  0.696665  0.344696  0.000000  1
  Si  Si28  1  0.654926  0.699563  0.000000  1
  Si  Si29  1  0.344193  0.303361  0.000000  1
  Si  Si30  1  0.011367  0.160954  0.500000  1
  Si  Si31  1  0.159767  0.988261  0.500000  1
  Si  Si32  1  0.834691  0.997878  0.500000  1
  Si  Si33  1  0.998967  0.836473  0.500000  1
  Si  Si34  1  0.498967  0.663527  0.500000  1
  Si  Si35  1  0.511367  0.339046  0.500000  1
  Si  Si36  1  0.659767  0.511739  0.500000  1
  Si  Si37  1  0.334691  0.502122  0.500000  1
