# generated using pymatgen
data_Sc4Co7Mo4(P4Ir3)3
_symmetry_space_group_name_H-M   'P 1'
_cell_length_a   3.81893400
_cell_length_b   10.56339027
_cell_length_c   12.19013255
_cell_angle_alpha   89.92038198
_cell_angle_beta   90.00000000
_cell_angle_gamma   90.00000000
_symmetry_Int_Tables_number   1
_chemical_formula_structural   Sc4Co7Mo4(P4Ir3)3
_chemical_formula_sum   'Sc4 Co7 Mo4 P12 Ir9'
_cell_volume   491.76032457
_cell_formula_units_Z   1
loop_
 _symmetry_equiv_pos_site_id
 _symmetry_equiv_pos_as_xyz
  1  'x, y, z'
loop_
 _atom_site_type_symbol
 _atom_site_label
 _atom_site_symmetry_multiplicity
 _atom_site_fract_x
 _atom_site_fract_y
 _atom_site_fract_z
 _atom_site_occupancy
  Sc  Sc0  1  0.250000  0.581212  0.711742  1
  Sc  Sc1  1  0.250000  0.915340  0.210060  1
  Sc  Sc2  1  0.750000  0.416588  0.288851  1
  Sc  Sc3  1  0.750000  0.087412  0.792011  1
  Co  Co4  1  0.250000  0.612898  0.197477  1
  Co  Co5  1  0.750000  0.112992  0.302131  1
  Co  Co6  1  0.750000  0.384954  0.803144  1
  Co  Co7  1  0.250000  0.462259  0.934336  1
  Co  Co8  1  0.250000  0.036494  0.431713  1
  Co  Co9  1  0.750000  0.535093  0.067337  1
  Co  Co10  1  0.750000  0.963674  0.561425  1
  Mo  Mo11  1  0.250000  0.706829  0.987194  1
  Mo  Mo12  1  0.250000  0.790398  0.483232  1
  Mo  Mo13  1  0.750000  0.290843  0.014763  1
  Mo  Mo14  1  0.750000  0.210021  0.512377  1
  P  P15  1  0.250000  0.430104  0.113988  1
  P  P16  1  0.250000  0.079888  0.607574  1
  P  P17  1  0.750000  0.566055  0.887899  1
  P  P18  1  0.750000  0.929379  0.383831  1
  P  P19  1  0.250000  0.270698  0.869050  1
  P  P20  1  0.250000  0.230271  0.367838  1
  P  P21  1  0.750000  0.727900  0.131234  1
  P  P22  1  0.750000  0.767601  0.629820  1
  P  P23  1  0.250000  0.597281  0.379936  1
  P  P24  1  0.250000  0.902814  0.890605  1
  P  P25  1  0.750000  0.402401  0.618802  1
  P  P26  1  0.750000  0.097927  0.119349  1
  Ir  Ir27  1  0.250000  0.407126  0.475489  1
  Ir  Ir28  1  0.250000  0.095272  0.979592  1
  Ir  Ir29  1  0.750000  0.592479  0.522560  1
  Ir  Ir30  1  0.750000  0.905946  0.023502  1
  Ir  Ir31  1  0.250000  0.227908  0.181682  1
  Ir  Ir32  1  0.250000  0.276574  0.681082  1
  Ir  Ir33  1  0.750000  0.764677  0.819683  1
  Ir  Ir34  1  0.750000  0.726799  0.318074  1
  Ir  Ir35  1  0.250000  0.893897  0.700614  1
