# generated using pymatgen
data_Sr(HfSe2)4
_symmetry_space_group_name_H-M   'P 1'
_cell_length_a   8.65133910
_cell_length_b   8.65133908
_cell_length_c   8.65133914
_cell_angle_alpha   51.53586663
_cell_angle_beta   51.53586875
_cell_angle_gamma   51.53586077
_symmetry_Int_Tables_number   1
_chemical_formula_structural   Sr(HfSe2)4
_chemical_formula_sum   'Sr1 Hf4 Se8'
_cell_volume   366.63143924
_cell_formula_units_Z   1
loop_
 _symmetry_equiv_pos_site_id
 _symmetry_equiv_pos_as_xyz
  1  'x, y, z'
loop_
 _atom_site_type_symbol
 _atom_site_label
 _atom_site_symmetry_multiplicity
 _atom_site_fract_x
 _atom_site_fract_y
 _atom_site_fract_z
 _atom_site_occupancy
  Sr  Sr0  1  0.500000  0.500000  0.500000  1
  Hf  Hf1  1  0.000000  0.500000  0.500000  1
  Hf  Hf2  1  0.500000  0.000000  0.500000  1
  Hf  Hf3  1  0.500000  0.500000  0.000000  1
  Hf  Hf4  1  0.000000  0.000000  0.000000  1
  Se  Se5  1  0.256903  0.764061  0.764061  1
  Se  Se6  1  0.235939  0.235939  0.743097  1
  Se  Se7  1  0.743097  0.235939  0.235939  1
  Se  Se8  1  0.235939  0.743097  0.235939  1
  Se  Se9  1  0.263028  0.263028  0.263028  1
  Se  Se10  1  0.736972  0.736972  0.736972  1
  Se  Se11  1  0.764061  0.256903  0.764061  1
  Se  Se12  1  0.764061  0.764061  0.256903  1
