# generated using pymatgen
data_LiTa3(SnRu3)2
_symmetry_space_group_name_H-M   'P 1'
_cell_length_a   4.46946000
_cell_length_b   6.30882700
_cell_length_c   13.41494900
_cell_angle_alpha   90.00000000
_cell_angle_beta   90.00010253
_cell_angle_gamma   90.00000000
_symmetry_Int_Tables_number   1
_chemical_formula_structural   LiTa3(SnRu3)2
_chemical_formula_sum   'Li2 Ta6 Sn4 Ru12'
_cell_volume   378.26198667
_cell_formula_units_Z   2
loop_
 _symmetry_equiv_pos_site_id
 _symmetry_equiv_pos_as_xyz
  1  'x, y, z'
loop_
 _atom_site_type_symbol
 _atom_site_label
 _atom_site_symmetry_multiplicity
 _atom_site_fract_x
 _atom_site_fract_y
 _atom_site_fract_z
 _atom_site_occupancy
  Li  Li0  1  0.999997  0.500001  0.001495  1
  Li  Li1  1  0.500035  0.000000  0.165228  1
  Ta  Ta2  1  0.000004  0.000000  0.007099  1
  Ta  Ta3  1  0.500014  0.500001  0.159574  1
  Ta  Ta4  1  0.000036  0.000000  0.319269  1
  Ta  Ta5  1  0.499992  0.500001  0.495396  1
  Ta  Ta6  1  0.999962  0.000000  0.671261  1
  Ta  Ta7  1  0.499973  0.500001  0.847407  1
  Sn  Sn8  1  0.999991  0.500001  0.327946  1
  Sn  Sn9  1  0.499994  0.000000  0.497605  1
  Sn  Sn10  1  0.999992  0.500001  0.669021  1
  Sn  Sn11  1  0.500036  0.000000  0.838714  1
  Ru  Ru12  1  0.499997  0.253274  0.003156  1
  Ru  Ru13  1  0.499997  0.746726  0.003156  1
  Ru  Ru14  1  0.999994  0.246725  0.163561  1
  Ru  Ru15  1  0.999994  0.753276  0.163561  1
  Ru  Ru16  1  0.500001  0.246299  0.331624  1
  Ru  Ru17  1  0.500001  0.753701  0.331624  1
  Ru  Ru18  1  0.999991  0.251855  0.500713  1
  Ru  Ru19  1  0.999991  0.748146  0.500713  1
  Ru  Ru20  1  0.499980  0.248052  0.665888  1
  Ru  Ru21  1  0.499980  0.751948  0.665888  1
  Ru  Ru22  1  0.000025  0.253711  0.835051  1
  Ru  Ru23  1  0.000025  0.746290  0.835051  1
