# generated using pymatgen
data_Sc2GaRe2Os
_symmetry_space_group_name_H-M   'P 1'
_cell_length_a   5.25432212
_cell_length_b   5.24614402
_cell_length_c   8.66065100
_cell_angle_alpha   90.00000000
_cell_angle_beta   90.00000000
_cell_angle_gamma   119.94853060
_symmetry_Int_Tables_number   1
_chemical_formula_structural   Sc2GaRe2Os
_chemical_formula_sum   'Sc4 Ga2 Re4 Os2'
_cell_volume   206.85359906
_cell_formula_units_Z   2
loop_
 _symmetry_equiv_pos_site_id
 _symmetry_equiv_pos_as_xyz
  1  'x, y, z'
loop_
 _atom_site_type_symbol
 _atom_site_label
 _atom_site_symmetry_multiplicity
 _atom_site_fract_x
 _atom_site_fract_y
 _atom_site_fract_z
 _atom_site_occupancy
  Sc  Sc0  1  0.670890  0.335445  0.068628  1
  Sc  Sc1  1  0.670890  0.335445  0.431372  1
  Sc  Sc2  1  0.347753  0.673876  0.553126  1
  Sc  Sc3  1  0.347753  0.673876  0.946874  1
  Ga  Ga4  1  0.806120  0.158582  0.750000  1
  Ga  Ga5  1  0.806122  0.647538  0.750000  1
  Re  Re6  1  0.168318  0.339348  0.250000  1
  Re  Re7  1  0.168319  0.828972  0.250000  1
  Re  Re8  1  0.653537  0.826770  0.250000  1
  Re  Re9  1  0.317163  0.158579  0.750000  1
  Os  Os10  1  0.021565  0.010783  0.994300  1
  Os  Os11  1  0.021565  0.010783  0.505700  1
