# generated using pymatgen
data_Ce(NbCl3)6
_symmetry_space_group_name_H-M   'P 1'
_cell_length_a   10.28225228
_cell_length_b   10.28182531
_cell_length_c   10.27932900
_cell_angle_alpha   55.88996691
_cell_angle_beta   55.90326755
_cell_angle_gamma   55.89116437
_symmetry_Int_Tables_number   1
_chemical_formula_structural   Ce(NbCl3)6
_chemical_formula_sum   'Ce1 Nb6 Cl18'
_cell_volume   695.31983594
_cell_formula_units_Z   1
loop_
 _symmetry_equiv_pos_site_id
 _symmetry_equiv_pos_as_xyz
  1  'x, y, z'
loop_
 _atom_site_type_symbol
 _atom_site_label
 _atom_site_symmetry_multiplicity
 _atom_site_fract_x
 _atom_site_fract_y
 _atom_site_fract_z
 _atom_site_occupancy
  Ce  Ce0  1  0.000135  0.999501  0.000377  1
  Nb  Nb1  1  0.408694  0.297521  0.651012  1
  Nb  Nb2  1  0.349012  0.591449  0.702384  1
  Nb  Nb3  1  0.702631  0.348843  0.591319  1
  Nb  Nb4  1  0.297564  0.651166  0.408395  1
  Nb  Nb5  1  0.651282  0.408690  0.297172  1
  Nb  Nb6  1  0.591468  0.702707  0.348685  1
  Cl  Cl7  1  0.568893  0.164934  0.441090  1
  Cl  Cl8  1  0.226571  0.370695  0.904608  1
  Cl  Cl9  1  0.904829  0.226465  0.370435  1
  Cl  Cl10  1  0.370471  0.904938  0.226411  1
  Cl  Cl11  1  0.773483  0.629738  0.094938  1
  Cl  Cl12  1  0.095364  0.773448  0.629325  1
  Cl  Cl13  1  0.700077  0.957135  0.162898  1
  Cl  Cl14  1  0.956220  0.161905  0.701064  1
  Cl  Cl15  1  0.162376  0.700215  0.956773  1
  Cl  Cl16  1  0.299087  0.043835  0.837975  1
  Cl  Cl17  1  0.042994  0.836977  0.300246  1
  Cl  Cl18  1  0.837889  0.299420  0.042933  1
  Cl  Cl19  1  0.558846  0.431138  0.835122  1
  Cl  Cl20  1  0.164976  0.441223  0.568695  1
  Cl  Cl21  1  0.441294  0.568769  0.164626  1
  Cl  Cl22  1  0.431310  0.835184  0.558703  1
  Cl  Cl23  1  0.835164  0.558806  0.431220  1
  Cl  Cl24  1  0.629367  0.095299  0.773597  1
