# generated using pymatgen
data_Zr2UFe2Si7
_symmetry_space_group_name_H-M   'P 1'
_cell_length_a   12.05843492
_cell_length_b   12.05843573
_cell_length_c   3.93474300
_cell_angle_alpha   90.00000000
_cell_angle_beta   90.00000000
_cell_angle_gamma   161.06041283
_symmetry_Int_Tables_number   1
_chemical_formula_structural   Zr2UFe2Si7
_chemical_formula_sum   'Zr2 U1 Fe2 Si7'
_cell_volume   185.69834087
_cell_formula_units_Z   1
loop_
 _symmetry_equiv_pos_site_id
 _symmetry_equiv_pos_as_xyz
  1  'x, y, z'
loop_
 _atom_site_type_symbol
 _atom_site_label
 _atom_site_symmetry_multiplicity
 _atom_site_fract_x
 _atom_site_fract_y
 _atom_site_fract_z
 _atom_site_occupancy
  Zr  Zr0  1  0.313127  0.686873  0.000000  1
  Zr  Zr1  1  0.686873  0.313127  0.000000  1
  U  U2  1  0.000000  0.000000  0.500000  1
  Fe  Fe3  1  0.128989  0.871011  0.500000  1
  Fe  Fe4  1  0.871011  0.128989  0.500000  1
  Si  Si5  1  0.222397  0.777603  0.500000  1
  Si  Si6  1  0.777603  0.222397  0.500000  1
  Si  Si7  1  0.088498  0.911502  0.000000  1
  Si  Si8  1  0.911502  0.088498  0.000000  1
  Si  Si9  1  0.411513  0.588487  0.500000  1
  Si  Si10  1  0.500000  0.500000  0.000000  1
  Si  Si11  1  0.588487  0.411513  0.500000  1
