# generated using pymatgen
data_Y2Al3Cu3Si2
_symmetry_space_group_name_H-M   'P 1'
_cell_length_a   8.21924204
_cell_length_b   8.21924137
_cell_length_c   8.21924113
_cell_angle_alpha   139.39435528
_cell_angle_beta   100.10414068
_cell_angle_gamma   93.74722993
_symmetry_Int_Tables_number   1
_chemical_formula_structural   Y2Al3Cu3Si2
_chemical_formula_sum   'Y4 Al6 Cu6 Si4'
_cell_volume   338.27277163
_cell_formula_units_Z   2
loop_
 _symmetry_equiv_pos_site_id
 _symmetry_equiv_pos_as_xyz
  1  'x, y, z'
loop_
 _atom_site_type_symbol
 _atom_site_label
 _atom_site_symmetry_multiplicity
 _atom_site_fract_x
 _atom_site_fract_y
 _atom_site_fract_z
 _atom_site_occupancy
  Y  Y0  1  0.378076  0.626122  0.751954  1
  Y  Y1  1  0.621924  0.373878  0.248046  1
  Y  Y2  1  0.125832  0.873878  0.251954  1
  Y  Y3  1  0.874168  0.126122  0.748046  1
  Al  Al4  1  0.000000  0.750000  0.750000  1
  Al  Al5  1  0.000000  0.250000  0.250000  1
  Al  Al6  1  0.748921  0.498921  0.750000  1
  Al  Al7  1  0.251079  0.001079  0.750000  1
  Al  Al8  1  0.251079  0.501079  0.250000  1
  Al  Al9  1  0.748921  0.998921  0.250000  1
  Cu  Cu10  1  0.986634  0.625379  0.361255  1
  Cu  Cu11  1  0.264124  0.125379  0.138745  1
  Cu  Cu12  1  0.500000  0.750000  0.250000  1
  Cu  Cu13  1  0.500000  0.250000  0.750000  1
  Cu  Cu14  1  0.013366  0.374621  0.638745  1
  Cu  Cu15  1  0.735876  0.874621  0.861255  1
  Si  Si16  1  0.239182  0.381782  0.857400  1
  Si  Si17  1  0.760818  0.618218  0.142600  1
  Si  Si18  1  0.524381  0.881782  0.642600  1
  Si  Si19  1  0.475619  0.118218  0.357400  1
