# generated using pymatgen
data_Ba6Nd2Co4O15
_symmetry_space_group_name_H-M   'P 1'
_cell_length_a   11.83838623
_cell_length_b   11.83838648
_cell_length_c   7.09342897
_cell_angle_alpha   89.61811009
_cell_angle_beta   89.61811188
_cell_angle_gamma   119.15577102
_symmetry_Int_Tables_number   1
_chemical_formula_structural   Ba6Nd2Co4O15
_chemical_formula_sum   'Ba12 Nd4 Co8 O30'
_cell_volume   868.09307113
_cell_formula_units_Z   2
loop_
 _symmetry_equiv_pos_site_id
 _symmetry_equiv_pos_as_xyz
  1  'x, y, z'
loop_
 _atom_site_type_symbol
 _atom_site_label
 _atom_site_symmetry_multiplicity
 _atom_site_fract_x
 _atom_site_fract_y
 _atom_site_fract_z
 _atom_site_occupancy
  Ba  Ba0  1  0.664966  0.336901  0.968749  1
  Ba  Ba1  1  0.336901  0.664966  0.468749  1
  Ba  Ba2  1  0.349898  0.177581  0.663430  1
  Ba  Ba3  1  0.816172  0.641223  0.652035  1
  Ba  Ba4  1  0.825002  0.185978  0.661711  1
  Ba  Ba5  1  0.641223  0.816172  0.152035  1
  Ba  Ba6  1  0.177581  0.349898  0.163430  1
  Ba  Ba7  1  0.185978  0.825002  0.161711  1
  Ba  Ba8  1  0.000257  0.998169  0.491414  1
  Ba  Ba9  1  0.998169  0.000257  0.991414  1
  Ba  Ba10  1  0.950740  0.475045  0.320849  1
  Ba  Ba11  1  0.475045  0.950740  0.820849  1
  Nd  Nd12  1  0.523478  0.050523  0.329573  1
  Nd  Nd13  1  0.523270  0.477188  0.328592  1
  Nd  Nd14  1  0.050523  0.523478  0.829573  1
  Nd  Nd15  1  0.477188  0.523270  0.828592  1
  Co  Co16  1  0.355477  0.181210  0.167487  1
  Co  Co17  1  0.823478  0.645359  0.146998  1
  Co  Co18  1  0.822615  0.178489  0.159196  1
  Co  Co19  1  0.645359  0.823478  0.646998  1
  Co  Co20  1  0.181210  0.355477  0.667487  1
  Co  Co21  1  0.178489  0.822615  0.659196  1
  Co  Co22  1  0.663625  0.335019  0.504187  1
  Co  Co23  1  0.335019  0.663625  0.004187  1
  O  O24  1  0.595428  0.661706  0.523184  1
  O  O25  1  0.069668  0.401062  0.560511  1
  O  O26  1  0.325748  0.932174  0.500679  1
  O  O27  1  0.337700  0.400388  0.537234  1
  O  O28  1  0.606168  0.925598  0.498173  1
  O  O29  1  0.067313  0.674472  0.541965  1
  O  O30  1  0.400388  0.337700  0.037234  1
  O  O31  1  0.925598  0.606168  0.998173  1
  O  O32  1  0.674472  0.067313  0.041965  1
  O  O33  1  0.661706  0.595428  0.023184  1
  O  O34  1  0.401062  0.069668  0.060511  1
  O  O35  1  0.932174  0.325748  0.000679  1
  O  O36  1  0.818956  0.410489  0.661976  1
  O  O37  1  0.585885  0.177405  0.646230  1
  O  O38  1  0.583342  0.415108  0.656409  1
  O  O39  1  0.177405  0.585885  0.146230  1
  O  O40  1  0.410489  0.818956  0.161976  1
  O  O41  1  0.415108  0.583342  0.156409  1
  O  O42  1  0.499278  0.254959  0.343835  1
  O  O43  1  0.736293  0.500307  0.330011  1
  O  O44  1  0.736927  0.241779  0.335532  1
  O  O45  1  0.500307  0.736293  0.830011  1
  O  O46  1  0.254959  0.499278  0.843835  1
  O  O47  1  0.241779  0.736927  0.835532  1
  O  O48  1  0.801904  0.892277  0.755487  1
  O  O49  1  0.108711  0.189152  0.748177  1
  O  O50  1  0.122649  0.924313  0.768166  1
  O  O51  1  0.189152  0.108711  0.248177  1
  O  O52  1  0.892277  0.801904  0.255487  1
  O  O53  1  0.924313  0.122649  0.268166  1
