# generated using pymatgen
data_YbY2Al3Ge2Pt
_symmetry_space_group_name_H-M   'P 1'
_cell_length_a   7.05557800
_cell_length_b   6.98055159
_cell_length_c   4.24641300
_cell_angle_alpha   90.00000000
_cell_angle_beta   90.00000000
_cell_angle_gamma   120.35617982
_symmetry_Int_Tables_number   1
_chemical_formula_structural   YbY2Al3Ge2Pt
_chemical_formula_sum   'Yb1 Y2 Al3 Ge2 Pt1'
_cell_volume   180.47009914
_cell_formula_units_Z   1
loop_
 _symmetry_equiv_pos_site_id
 _symmetry_equiv_pos_as_xyz
  1  'x, y, z'
loop_
 _atom_site_type_symbol
 _atom_site_label
 _atom_site_symmetry_multiplicity
 _atom_site_fract_x
 _atom_site_fract_y
 _atom_site_fract_z
 _atom_site_occupancy
  Yb  Yb0  1  0.417253  0.000000  0.000000  1
  Y  Y1  1  0.000993  0.418433  0.000000  1
  Y  Y2  1  0.582560  0.581567  0.000000  1
  Al  Al3  1  0.768618  0.000000  0.500001  1
  Al  Al4  1  0.229937  0.235717  0.500001  1
  Al  Al5  1  0.994220  0.764283  0.500001  1
  Ge  Ge6  1  0.671300  0.336839  0.500001  1
  Ge  Ge7  1  0.334461  0.663161  0.500001  1
  Pt  Pt8  1  0.000658  0.000000  0.000000  1
