# generated using pymatgen
data_CaAl2ZnSi
_symmetry_space_group_name_H-M   'P 1'
_cell_length_a   6.05675943
_cell_length_b   6.05676013
_cell_length_c   6.05675900
_cell_angle_alpha   139.08426613
_cell_angle_beta   139.08427378
_cell_angle_gamma   59.24637895
_symmetry_Int_Tables_number   1
_chemical_formula_structural   CaAl2ZnSi
_chemical_formula_sum   'Ca1 Al2 Zn1 Si1'
_cell_volume   94.38182749
_cell_formula_units_Z   1
loop_
 _symmetry_equiv_pos_site_id
 _symmetry_equiv_pos_as_xyz
  1  'x, y, z'
loop_
 _atom_site_type_symbol
 _atom_site_label
 _atom_site_symmetry_multiplicity
 _atom_site_fract_x
 _atom_site_fract_y
 _atom_site_fract_z
 _atom_site_occupancy
  Ca  Ca0  1  0.001649  0.001649  0.000000  1
  Al  Al1  1  0.250885  0.750885  0.500000  1
  Al  Al2  1  0.750885  0.250885  0.500000  1
  Zn  Zn3  1  0.385162  0.385162  0.000000  1
  Si  Si4  1  0.611419  0.611419  0.000000  1
