# generated using pymatgen
data_CeLu(Si7Ir3)2
_symmetry_space_group_name_H-M   'P 1'
_cell_length_a   8.06601236
_cell_length_b   8.06601068
_cell_length_c   8.06601239
_cell_angle_alpha   56.50642436
_cell_angle_beta   56.50642918
_cell_angle_gamma   56.50642172
_symmetry_Int_Tables_number   1
_chemical_formula_structural   CeLu(Si7Ir3)2
_chemical_formula_sum   'Ce1 Lu1 Si14 Ir6'
_cell_volume   341.11187950
_cell_formula_units_Z   1
loop_
 _symmetry_equiv_pos_site_id
 _symmetry_equiv_pos_as_xyz
  1  'x, y, z'
loop_
 _atom_site_type_symbol
 _atom_site_label
 _atom_site_symmetry_multiplicity
 _atom_site_fract_x
 _atom_site_fract_y
 _atom_site_fract_z
 _atom_site_occupancy
  Ce  Ce0  1  0.500000  0.500000  0.500000  1
  Lu  Lu1  1  0.000000  0.000000  0.000000  1
  Si  Si2  1  0.851535  0.063887  0.672898  1
  Si  Si3  1  0.672898  0.851535  0.063887  1
  Si  Si4  1  0.063887  0.672898  0.851535  1
  Si  Si5  1  0.650285  0.828049  0.435293  1
  Si  Si6  1  0.250224  0.250224  0.250224  1
  Si  Si7  1  0.749776  0.749776  0.749776  1
  Si  Si8  1  0.171951  0.564707  0.349715  1
  Si  Si9  1  0.564707  0.349715  0.171951  1
  Si  Si10  1  0.349715  0.171951  0.564707  1
  Si  Si11  1  0.936113  0.327102  0.148465  1
  Si  Si12  1  0.327102  0.148465  0.936113  1
  Si  Si13  1  0.148465  0.936113  0.327102  1
  Si  Si14  1  0.828049  0.435293  0.650285  1
  Si  Si15  1  0.435293  0.650285  0.828049  1
  Ir  Ir16  1  0.752048  0.068289  0.428203  1
  Ir  Ir17  1  0.428203  0.752048  0.068289  1
  Ir  Ir18  1  0.068289  0.428203  0.752048  1
  Ir  Ir19  1  0.247952  0.931711  0.571797  1
  Ir  Ir20  1  0.571797  0.247952  0.931711  1
  Ir  Ir21  1  0.931711  0.571797  0.247952  1
