# generated using pymatgen
data_V2CrReP4
_symmetry_space_group_name_H-M   'P 1'
_cell_length_a   3.15733000
_cell_length_b   5.47084059
_cell_length_c   6.12969678
_cell_angle_alpha   90.08726321
_cell_angle_beta   90.00000000
_cell_angle_gamma   90.00000000
_symmetry_Int_Tables_number   1
_chemical_formula_structural   V2CrReP4
_chemical_formula_sum   'V2 Cr1 Re1 P4'
_cell_volume   105.87965659
_cell_formula_units_Z   1
loop_
 _symmetry_equiv_pos_site_id
 _symmetry_equiv_pos_as_xyz
  1  'x, y, z'
loop_
 _atom_site_type_symbol
 _atom_site_label
 _atom_site_symmetry_multiplicity
 _atom_site_fract_x
 _atom_site_fract_y
 _atom_site_fract_z
 _atom_site_occupancy
  V  V0  1  0.000000  0.506218  0.443395  1
  V  V1  1  0.000000  0.008818  0.556907  1
  Cr  Cr2  1  0.500000  0.989737  0.937232  1
  Re  Re3  1  0.500000  0.489667  0.063421  1
  P  P4  1  0.500000  0.310854  0.687177  1
  P  P5  1  0.500000  0.821607  0.314570  1
  P  P6  1  0.000000  0.696984  0.815680  1
  P  P7  1  0.000000  0.176115  0.181618  1
