# generated using pymatgen
data_Y2Ho18Cd3Ru2Au3
_symmetry_space_group_name_H-M   'P 1'
_cell_length_a   9.54506447
_cell_length_b   9.54506353
_cell_length_c   9.57451500
_cell_angle_alpha   90.00000000
_cell_angle_beta   90.00000000
_cell_angle_gamma   119.96412317
_symmetry_Int_Tables_number   1
_chemical_formula_structural   Y2Ho18Cd3Ru2Au3
_chemical_formula_sum   'Y2 Ho18 Cd3 Ru2 Au3'
_cell_volume   755.72188089
_cell_formula_units_Z   1
loop_
 _symmetry_equiv_pos_site_id
 _symmetry_equiv_pos_as_xyz
  1  'x, y, z'
loop_
 _atom_site_type_symbol
 _atom_site_label
 _atom_site_symmetry_multiplicity
 _atom_site_fract_x
 _atom_site_fract_y
 _atom_site_fract_z
 _atom_site_occupancy
  Y  Y0  1  0.459063  0.917877  0.750000  1
  Y  Y1  1  0.082123  0.540937  0.750000  1
  Ho  Ho2  1  0.999957  0.000043  0.461137  1
  Ho  Ho3  1  0.999957  0.000043  0.038863  1
  Ho  Ho4  1  0.209373  0.790627  0.439899  1
  Ho  Ho5  1  0.209644  0.418847  0.440144  1
  Ho  Ho6  1  0.581153  0.790356  0.440144  1
  Ho  Ho7  1  0.791552  0.208448  0.558153  1
  Ho  Ho8  1  0.791300  0.583168  0.558327  1
  Ho  Ho9  1  0.416832  0.208700  0.558327  1
  Ho  Ho10  1  0.791552  0.208448  0.941847  1
  Ho  Ho11  1  0.791300  0.583168  0.941673  1
  Ho  Ho12  1  0.416832  0.208700  0.941673  1
  Ho  Ho13  1  0.209373  0.790627  0.060101  1
  Ho  Ho14  1  0.209644  0.418847  0.059856  1
  Ho  Ho15  1  0.581153  0.790356  0.059856  1
  Ho  Ho16  1  0.540600  0.459400  0.250000  1
  Ho  Ho17  1  0.540615  0.081126  0.250000  1
  Ho  Ho18  1  0.918874  0.459385  0.250000  1
  Ho  Ho19  1  0.459213  0.540787  0.750000  1
  Cd  Cd20  1  0.109818  0.890182  0.750000  1
  Cd  Cd21  1  0.110326  0.220074  0.750000  1
  Cd  Cd22  1  0.779926  0.889674  0.750000  1
  Ru  Ru23  1  0.333299  0.666701  0.250000  1
  Ru  Ru24  1  0.666567  0.333433  0.750000  1
  Au  Au25  1  0.869526  0.130474  0.250000  1
  Au  Au26  1  0.869463  0.739032  0.250000  1
  Au  Au27  1  0.260968  0.130537  0.250000  1
