# generated using pymatgen
data_AlZnPS
_symmetry_space_group_name_H-M   'P 1'
_cell_length_a   6.67630191
_cell_length_b   6.67630185
_cell_length_c   6.67630236
_cell_angle_alpha   33.78121227
_cell_angle_beta   33.78121207
_cell_angle_gamma   33.78121480
_symmetry_Int_Tables_number   1
_chemical_formula_structural   AlZnPS
_chemical_formula_sum   'Al1 Zn1 P1 S1'
_cell_volume   81.97792914
_cell_formula_units_Z   1
loop_
 _symmetry_equiv_pos_site_id
 _symmetry_equiv_pos_as_xyz
  1  'x, y, z'
loop_
 _atom_site_type_symbol
 _atom_site_label
 _atom_site_symmetry_multiplicity
 _atom_site_fract_x
 _atom_site_fract_y
 _atom_site_fract_z
 _atom_site_occupancy
  Al  Al0  1  0.499548  0.499548  0.499548  1
  Zn  Zn1  1  0.001673  0.001673  0.001673  1
  P  P2  1  0.126365  0.126365  0.126365  1
  S  S3  1  0.622414  0.622414  0.622414  1
