# generated using pymatgen
data_TbYHo3CoSb2
_symmetry_space_group_name_H-M   'P 1'
_cell_length_a   7.88266300
_cell_length_b   8.72108200
_cell_length_c   12.15697600
_cell_angle_alpha   90.00000000
_cell_angle_beta   90.00000000
_cell_angle_gamma   90.00000000
_symmetry_Int_Tables_number   1
_chemical_formula_structural   TbYHo3CoSb2
_chemical_formula_sum   'Tb4 Y4 Ho12 Co4 Sb8'
_cell_volume   835.73557494
_cell_formula_units_Z   4
loop_
 _symmetry_equiv_pos_site_id
 _symmetry_equiv_pos_as_xyz
  1  'x, y, z'
loop_
 _atom_site_type_symbol
 _atom_site_label
 _atom_site_symmetry_multiplicity
 _atom_site_fract_x
 _atom_site_fract_y
 _atom_site_fract_z
 _atom_site_occupancy
  Tb  Tb0  1  0.621917  0.750000  0.306089  1
  Tb  Tb1  1  0.121917  0.250000  0.193911  1
  Tb  Tb2  1  0.378083  0.250000  0.693911  1
  Tb  Tb3  1  0.878083  0.750000  0.806089  1
  Y  Y4  1  0.155158  0.750000  0.203982  1
  Y  Y5  1  0.655158  0.250000  0.296018  1
  Y  Y6  1  0.844842  0.250000  0.796018  1
  Y  Y7  1  0.344842  0.750000  0.703982  1
  Ho  Ho8  1  0.454264  0.750000  0.998147  1
  Ho  Ho9  1  0.954264  0.250000  0.501853  1
  Ho  Ho10  1  0.545736  0.250000  0.001853  1
  Ho  Ho11  1  0.045736  0.750000  0.498147  1
  Ho  Ho12  1  0.821567  0.964492  0.064758  1
  Ho  Ho13  1  0.321567  0.035508  0.435242  1
  Ho  Ho14  1  0.178433  0.464492  0.935242  1
  Ho  Ho15  1  0.678433  0.535508  0.564758  1
  Ho  Ho16  1  0.178433  0.035508  0.935242  1
  Ho  Ho17  1  0.678433  0.964492  0.564758  1
  Ho  Ho18  1  0.821567  0.535508  0.064758  1
  Ho  Ho19  1  0.321567  0.464492  0.435242  1
  Co  Co20  1  0.433320  0.750000  0.489448  1
  Co  Co21  1  0.933320  0.250000  0.010552  1
  Co  Co22  1  0.566680  0.250000  0.510552  1
  Co  Co23  1  0.066680  0.750000  0.989448  1
  Sb  Sb24  1  0.928202  0.991636  0.327344  1
  Sb  Sb25  1  0.428202  0.008364  0.172656  1
  Sb  Sb26  1  0.071798  0.491636  0.672656  1
  Sb  Sb27  1  0.571798  0.508364  0.827344  1
  Sb  Sb28  1  0.071798  0.008364  0.672656  1
  Sb  Sb29  1  0.571798  0.991636  0.827344  1
  Sb  Sb30  1  0.928202  0.508364  0.327344  1
  Sb  Sb31  1  0.428202  0.491636  0.172656  1
