# generated using pymatgen
data_Ho5Tm3Cr2(FeC4)2
_symmetry_space_group_name_H-M   'P 1'
_cell_length_a   4.98828800
_cell_length_b   6.34645118
_cell_length_c   9.60275288
_cell_angle_alpha   89.77763450
_cell_angle_beta   90.00000000
_cell_angle_gamma   90.00000000
_symmetry_Int_Tables_number   1
_chemical_formula_structural   Ho5Tm3Cr2(FeC4)2
_chemical_formula_sum   'Ho5 Tm3 Cr2 Fe2 C8'
_cell_volume   304.00095351
_cell_formula_units_Z   1
loop_
 _symmetry_equiv_pos_site_id
 _symmetry_equiv_pos_as_xyz
  1  'x, y, z'
loop_
 _atom_site_type_symbol
 _atom_site_label
 _atom_site_symmetry_multiplicity
 _atom_site_fract_x
 _atom_site_fract_y
 _atom_site_fract_z
 _atom_site_occupancy
  Ho  Ho0  1  0.250000  0.180945  0.943724  1
  Ho  Ho1  1  0.250000  0.528729  0.215428  1
  Ho  Ho2  1  0.750000  0.471944  0.784600  1
  Ho  Ho3  1  0.750000  0.975761  0.712053  1
  Ho  Ho4  1  0.250000  0.023661  0.288205  1
  Tm  Tm5  1  0.250000  0.677611  0.556122  1
  Tm  Tm6  1  0.750000  0.322854  0.443558  1
  Tm  Tm7  1  0.750000  0.820480  0.057403  1
  Cr  Cr8  1  0.250000  0.727057  0.858425  1
  Cr  Cr9  1  0.750000  0.272687  0.142287  1
  Fe  Fe10  1  0.750000  0.770747  0.359420  1
  Fe  Fe11  1  0.250000  0.228660  0.639936  1
  C  C12  1  0.250000  0.460421  0.759226  1
  C  C13  1  0.750000  0.540258  0.239548  1
  C  C14  1  0.750000  0.036745  0.262133  1
  C  C15  1  0.250000  0.962433  0.737557  1
  C  C16  1  0.250000  0.811964  0.040436  1
  C  C17  1  0.750000  0.186810  0.960536  1
  C  C18  1  0.750000  0.685134  0.537102  1
  C  C19  1  0.250000  0.315097  0.462302  1
