# generated using pymatgen
data_Lu(OsO3)2
_symmetry_space_group_name_H-M   'P 1'
_cell_length_a   4.85722200
_cell_length_b   5.66831004
_cell_length_c   7.78564297
_cell_angle_alpha   84.21828563
_cell_angle_beta   90.00000000
_cell_angle_gamma   90.00000000
_symmetry_Int_Tables_number   1
_chemical_formula_structural   Lu(OsO3)2
_chemical_formula_sum   'Lu2 Os4 O12'
_cell_volume   213.26574321
_cell_formula_units_Z   2
loop_
 _symmetry_equiv_pos_site_id
 _symmetry_equiv_pos_as_xyz
  1  'x, y, z'
loop_
 _atom_site_type_symbol
 _atom_site_label
 _atom_site_symmetry_multiplicity
 _atom_site_fract_x
 _atom_site_fract_y
 _atom_site_fract_z
 _atom_site_occupancy
  Lu  Lu0  1  0.500000  0.000000  0.500000  1
  Lu  Lu1  1  0.000000  0.500000  0.500000  1
  Os  Os2  1  0.990428  0.132024  0.852134  1
  Os  Os3  1  0.009572  0.867976  0.147866  1
  Os  Os4  1  0.509572  0.632024  0.852134  1
  Os  Os5  1  0.490428  0.367976  0.147866  1
  O  O6  1  0.337070  0.665188  0.624344  1
  O  O7  1  0.228678  0.848731  0.931404  1
  O  O8  1  0.216266  0.578459  0.244125  1
  O  O9  1  0.837070  0.834812  0.375656  1
  O  O10  1  0.716266  0.921541  0.755875  1
  O  O11  1  0.783734  0.421541  0.755875  1
  O  O12  1  0.662930  0.334812  0.375656  1
  O  O13  1  0.283734  0.078459  0.244125  1
  O  O14  1  0.271322  0.348731  0.931404  1
  O  O15  1  0.162930  0.165188  0.624344  1
  O  O16  1  0.771322  0.151269  0.068596  1
  O  O17  1  0.728678  0.651269  0.068596  1
