# generated using pymatgen
data_BiPdF20
_symmetry_space_group_name_H-M   'P 1'
_cell_length_a   10.64185102
_cell_length_b   5.03711367
_cell_length_c   7.04682100
_cell_angle_alpha   89.75192786
_cell_angle_beta   90.00384956
_cell_angle_gamma   89.87781791
_symmetry_Int_Tables_number   1
_chemical_formula_structural   BiPdF20
_chemical_formula_sum   'Bi1 Pd1 F20'
_cell_volume   377.73489515
_cell_formula_units_Z   1
loop_
 _symmetry_equiv_pos_site_id
 _symmetry_equiv_pos_as_xyz
  1  'x, y, z'
loop_
 _atom_site_type_symbol
 _atom_site_label
 _atom_site_symmetry_multiplicity
 _atom_site_fract_x
 _atom_site_fract_y
 _atom_site_fract_z
 _atom_site_occupancy
  Bi  Bi0  1  0.000000  0.500000  0.500000  1
  Pd  Pd1  1  0.500000  0.500000  0.000000  1
  F  F2  1  0.850277  0.787928  0.971114  1
  F  F3  1  0.361884  0.231355  0.518821  1
  F  F4  1  0.149723  0.212072  0.028886  1
  F  F5  1  0.638116  0.768645  0.481179  1
  F  F6  1  0.851989  0.009205  0.095743  1
  F  F7  1  0.365876  0.993942  0.410828  1
  F  F8  1  0.148011  0.990795  0.904257  1
  F  F9  1  0.634124  0.006058  0.589172  1
  F  F10  1  0.086443  0.612662  0.256201  1
  F  F11  1  0.571217  0.358057  0.225032  1
  F  F12  1  0.913557  0.387338  0.743799  1
  F  F13  1  0.428783  0.641943  0.774968  1
  F  F14  1  0.846276  0.392874  0.348609  1
  F  F15  1  0.360143  0.623930  0.140939  1
  F  F16  1  0.153724  0.607126  0.651391  1
  F  F17  1  0.639857  0.376070  0.859061  1
  F  F18  1  0.081950  0.119509  0.460858  1
  F  F19  1  0.585202  0.823965  0.044476  1
  F  F20  1  0.414798  0.176035  0.955524  1
  F  F21  1  0.918050  0.880491  0.539142  1
