# generated using pymatgen
data_YLu2Np(ReB6)2
_symmetry_space_group_name_H-M   'P 1'
_cell_length_a   3.64317300
_cell_length_b   9.09267267
_cell_length_c   11.45258744
_cell_angle_alpha   90.17908929
_cell_angle_beta   90.00000000
_cell_angle_gamma   90.00000000
_symmetry_Int_Tables_number   1
_chemical_formula_structural   YLu2Np(ReB6)2
_chemical_formula_sum   'Y2 Lu4 Np2 Re4 B24'
_cell_volume   379.37861478
_cell_formula_units_Z   2
loop_
 _symmetry_equiv_pos_site_id
 _symmetry_equiv_pos_as_xyz
  1  'x, y, z'
loop_
 _atom_site_type_symbol
 _atom_site_label
 _atom_site_symmetry_multiplicity
 _atom_site_fract_x
 _atom_site_fract_y
 _atom_site_fract_z
 _atom_site_occupancy
  Y  Y0  1  0.000000  0.822218  0.085736  1
  Y  Y1  1  0.000000  0.177782  0.914264  1
  Lu  Lu2  1  0.000000  0.944776  0.372803  1
  Lu  Lu3  1  0.000000  0.055224  0.627197  1
  Lu  Lu4  1  0.000000  0.443698  0.127627  1
  Lu  Lu5  1  0.000000  0.556302  0.872373  1
  Np  Np6  1  0.000000  0.321176  0.413578  1
  Np  Np7  1  0.000000  0.678824  0.586422  1
  Re  Re8  1  0.000000  0.635979  0.324458  1
  Re  Re9  1  0.000000  0.364021  0.675542  1
  Re  Re10  1  0.000000  0.141424  0.182872  1
  Re  Re11  1  0.000000  0.858576  0.817128  1
  B  B12  1  0.500000  0.552673  0.433768  1
  B  B13  1  0.500000  0.447327  0.566232  1
  B  B14  1  0.500000  0.053851  0.067326  1
  B  B15  1  0.500000  0.946149  0.932674  1
  B  B16  1  0.500000  0.750321  0.420308  1
  B  B17  1  0.500000  0.249679  0.579692  1
  B  B18  1  0.500000  0.250295  0.080749  1
  B  B19  1  0.500000  0.749705  0.919251  1
  B  B20  1  0.500000  0.792599  0.265946  1
  B  B21  1  0.500000  0.207401  0.734054  1
  B  B22  1  0.500000  0.293739  0.234688  1
  B  B23  1  0.500000  0.706261  0.765312  1
  B  B24  1  0.500000  0.630172  0.185116  1
  B  B25  1  0.500000  0.369828  0.814884  1
  B  B26  1  0.500000  0.132035  0.315701  1
  B  B27  1  0.500000  0.867965  0.684299  1
  B  B28  1  0.500000  0.981924  0.212959  1
  B  B29  1  0.500000  0.018076  0.787041  1
  B  B30  1  0.500000  0.481069  0.287011  1
  B  B31  1  0.500000  0.518931  0.712989  1
  B  B32  1  0.500000  0.600779  0.028255  1
  B  B33  1  0.500000  0.399221  0.971745  1
  B  B34  1  0.500000  0.106143  0.470793  1
  B  B35  1  0.500000  0.893857  0.529207  1
