# generated using pymatgen
data_PrSm5Co2(P3Ru4)4
_symmetry_space_group_name_H-M   'P 1'
_cell_length_a   3.95265700
_cell_length_b   11.18720400
_cell_length_c   12.69677700
_cell_angle_alpha   90.00000000
_cell_angle_beta   90.00000000
_cell_angle_gamma   90.00000000
_symmetry_Int_Tables_number   1
_chemical_formula_structural   PrSm5Co2(P3Ru4)4
_chemical_formula_sum   'Pr1 Sm5 Co2 P12 Ru16'
_cell_volume   561.44107014
_cell_formula_units_Z   1
loop_
 _symmetry_equiv_pos_site_id
 _symmetry_equiv_pos_as_xyz
  1  'x, y, z'
loop_
 _atom_site_type_symbol
 _atom_site_label
 _atom_site_symmetry_multiplicity
 _atom_site_fract_x
 _atom_site_fract_y
 _atom_site_fract_z
 _atom_site_occupancy
  Pr  Pr0  1  0.000000  0.500000  0.526128  1
  Sm  Sm1  1  0.500000  0.000000  0.473997  1
  Sm  Sm2  1  0.500000  0.819922  0.204463  1
  Sm  Sm3  1  0.500000  0.180078  0.204463  1
  Sm  Sm4  1  0.000000  0.680442  0.795431  1
  Sm  Sm5  1  0.000000  0.319558  0.795431  1
  Co  Co6  1  0.000000  0.500000  0.988189  1
  Co  Co7  1  0.500000  0.000000  0.012078  1
  P  P8  1  0.500000  0.500000  0.885557  1
  P  P9  1  0.000000  0.000000  0.115074  1
  P  P10  1  0.500000  0.500000  0.334994  1
  P  P11  1  0.000000  0.000000  0.663907  1
  P  P12  1  0.500000  0.299525  0.617334  1
  P  P13  1  0.500000  0.700475  0.617334  1
  P  P14  1  0.000000  0.199288  0.382777  1
  P  P15  1  0.000000  0.800712  0.382777  1
  P  P16  1  0.500000  0.849835  0.899207  1
  P  P17  1  0.500000  0.150165  0.899207  1
  P  P18  1  0.000000  0.650499  0.100585  1
  P  P19  1  0.000000  0.349501  0.100585  1
  Ru  Ru20  1  0.500000  0.500000  0.153254  1
  Ru  Ru21  1  0.000000  0.000000  0.846361  1
  Ru  Ru22  1  0.500000  0.500000  0.697896  1
  Ru  Ru23  1  0.000000  0.000000  0.304612  1
  Ru  Ru24  1  0.500000  0.334323  0.991516  1
  Ru  Ru25  1  0.500000  0.665677  0.991516  1
  Ru  Ru26  1  0.000000  0.165369  0.008524  1
  Ru  Ru27  1  0.000000  0.834631  0.008524  1
  Ru  Ru28  1  0.500000  0.300272  0.429479  1
  Ru  Ru29  1  0.500000  0.699728  0.429479  1
  Ru  Ru30  1  0.000000  0.197464  0.570024  1
  Ru  Ru31  1  0.000000  0.802536  0.570024  1
  Ru  Ru32  1  0.500000  0.879366  0.716463  1
  Ru  Ru33  1  0.500000  0.120634  0.716463  1
  Ru  Ru34  1  0.000000  0.620993  0.283173  1
  Ru  Ru35  1  0.000000  0.379007  0.283173  1
