# generated using pymatgen
data_Tm5Lu11MgCd3Ni4
_symmetry_space_group_name_H-M   'P 1'
_cell_length_a   9.39543181
_cell_length_b   9.36246048
_cell_length_c   9.36246106
_cell_angle_alpha   59.98729891
_cell_angle_beta   60.11352122
_cell_angle_gamma   60.11351146
_symmetry_Int_Tables_number   1
_chemical_formula_structural   Tm5Lu11MgCd3Ni4
_chemical_formula_sum   'Tm5 Lu11 Mg1 Cd3 Ni4'
_cell_volume   583.28788592
_cell_formula_units_Z   1
loop_
 _symmetry_equiv_pos_site_id
 _symmetry_equiv_pos_as_xyz
  1  'x, y, z'
loop_
 _atom_site_type_symbol
 _atom_site_label
 _atom_site_symmetry_multiplicity
 _atom_site_fract_x
 _atom_site_fract_y
 _atom_site_fract_z
 _atom_site_occupancy
  Tm  Tm0  1  0.597605  0.596873  0.596873  1
  Tm  Tm1  1  0.597877  0.596721  0.208686  1
  Tm  Tm2  1  0.597877  0.208686  0.596721  1
  Tm  Tm3  1  0.205089  0.598414  0.598414  1
  Tm  Tm4  1  0.060786  0.438810  0.438810  1
  Lu  Lu5  1  0.437217  0.062402  0.062402  1
  Lu  Lu6  1  0.437521  0.062076  0.438017  1
  Lu  Lu7  1  0.060795  0.438835  0.061293  1
  Lu  Lu8  1  0.437521  0.438017  0.062076  1
  Lu  Lu9  1  0.060795  0.061293  0.438835  1
  Lu  Lu10  1  0.184063  0.814420  0.814420  1
  Lu  Lu11  1  0.814156  0.185926  0.185926  1
  Lu  Lu12  1  0.814016  0.185951  0.814104  1
  Lu  Lu13  1  0.184088  0.814645  0.186887  1
  Lu  Lu14  1  0.814016  0.814104  0.185951  1
  Lu  Lu15  1  0.184088  0.186887  0.814645  1
  Mg  Mg16  1  0.520204  0.826561  0.826561  1
  Cd  Cd17  1  0.831680  0.831999  0.831999  1
  Cd  Cd18  1  0.831810  0.832051  0.504230  1
  Cd  Cd19  1  0.831810  0.504230  0.832051  1
  Ni  Ni20  1  0.390824  0.392085  0.392085  1
  Ni  Ni21  1  0.390285  0.392122  0.825437  1
  Ni  Ni22  1  0.390285  0.825437  0.392122  1
  Ni  Ni23  1  0.825589  0.391450  0.391450  1
