# generated using pymatgen
data_PrTh4Si4Ag
_symmetry_space_group_name_H-M   'P 1'
_cell_length_a   7.71099885
_cell_length_b   7.71157080
_cell_length_c   4.15691700
_cell_angle_alpha   90.00000000
_cell_angle_beta   90.00000000
_cell_angle_gamma   89.74678126
_symmetry_Int_Tables_number   1
_chemical_formula_structural   PrTh4Si4Ag
_chemical_formula_sum   'Pr1 Th4 Si4 Ag1'
_cell_volume   247.18413932
_cell_formula_units_Z   1
loop_
 _symmetry_equiv_pos_site_id
 _symmetry_equiv_pos_as_xyz
  1  'x, y, z'
loop_
 _atom_site_type_symbol
 _atom_site_label
 _atom_site_symmetry_multiplicity
 _atom_site_fract_x
 _atom_site_fract_y
 _atom_site_fract_z
 _atom_site_occupancy
  Pr  Pr0  1  0.670367  0.194424  0.500000  1
  Th  Th1  1  0.001188  0.999079  0.000000  1
  Th  Th2  1  0.328865  0.807874  0.500000  1
  Th  Th3  1  0.192824  0.328946  0.500000  1
  Th  Th4  1  0.807856  0.670807  0.500000  1
  Si  Si5  1  0.101811  0.620145  0.000000  1
  Si  Si6  1  0.899782  0.381412  0.000000  1
  Si  Si7  1  0.619196  0.896339  0.000000  1
  Si  Si8  1  0.378441  0.100828  0.000000  1
  Ag  Ag9  1  0.499670  0.500146  0.000000  1
