# generated using pymatgen
data_SmZn3AgRh
_symmetry_space_group_name_H-M   'P 1'
_cell_length_a   5.23282128
_cell_length_b   5.23282025
_cell_length_c   5.23281982
_cell_angle_alpha   61.60103709
_cell_angle_beta   61.60104364
_cell_angle_gamma   61.60103222
_symmetry_Int_Tables_number   1
_chemical_formula_structural   SmZn3AgRh
_chemical_formula_sum   'Sm1 Zn3 Ag1 Rh1'
_cell_volume   104.95812477
_cell_formula_units_Z   1
loop_
 _symmetry_equiv_pos_site_id
 _symmetry_equiv_pos_as_xyz
  1  'x, y, z'
loop_
 _atom_site_type_symbol
 _atom_site_label
 _atom_site_symmetry_multiplicity
 _atom_site_fract_x
 _atom_site_fract_y
 _atom_site_fract_z
 _atom_site_occupancy
  Sm  Sm0  1  0.000271  0.000271  0.000271  1
  Zn  Zn1  1  0.870233  0.378067  0.378067  1
  Zn  Zn2  1  0.378067  0.870233  0.378067  1
  Zn  Zn3  1  0.378067  0.378067  0.870233  1
  Ag  Ag4  1  0.748369  0.748369  0.748369  1
  Rh  Rh5  1  0.374994  0.374994  0.374994  1
