# generated using pymatgen
data_Zr5Ti3Co16(As3P)3
_symmetry_space_group_name_H-M   'P 1'
_cell_length_a   12.30020500
_cell_length_b   12.30020561
_cell_length_c   3.71928700
_cell_angle_alpha   90.00000000
_cell_angle_beta   90.00000000
_cell_angle_gamma   119.99999566
_symmetry_Int_Tables_number   1
_chemical_formula_structural   Zr5Ti3Co16(As3P)3
_chemical_formula_sum   'Zr5 Ti3 Co16 As9 P3'
_cell_volume   487.32092935
_cell_formula_units_Z   1
loop_
 _symmetry_equiv_pos_site_id
 _symmetry_equiv_pos_as_xyz
  1  'x, y, z'
loop_
 _atom_site_type_symbol
 _atom_site_label
 _atom_site_symmetry_multiplicity
 _atom_site_fract_x
 _atom_site_fract_y
 _atom_site_fract_z
 _atom_site_occupancy
  Zr  Zr0  1  0.666667  0.333333  0.000000  1
  Zr  Zr1  1  0.333333  0.666667  0.000000  1
  Zr  Zr2  1  0.827665  0.827665  0.500000  1
  Zr  Zr3  1  0.172335  0.000000  0.500000  1
  Zr  Zr4  1  0.000000  0.172335  0.500000  1
  Ti  Ti5  1  0.441228  0.441228  0.000000  1
  Ti  Ti6  1  0.558772  0.000000  0.000000  1
  Ti  Ti7  1  0.000000  0.558772  0.000000  1
  Co  Co8  1  0.194755  0.365923  0.000000  1
  Co  Co9  1  0.171168  0.805245  0.000000  1
  Co  Co10  1  0.828832  0.634077  0.000000  1
  Co  Co11  1  0.805245  0.171168  0.000000  1
  Co  Co12  1  0.365923  0.194755  0.000000  1
  Co  Co13  1  0.124742  0.478834  0.500000  1
  Co  Co14  1  0.354093  0.875258  0.500000  1
  Co  Co15  1  0.521166  0.645907  0.500000  1
  Co  Co16  1  0.645907  0.521166  0.500000  1
  Co  Co17  1  0.875258  0.354093  0.500000  1
  Co  Co18  1  0.478834  0.124742  0.500000  1
  Co  Co19  1  0.000000  0.000000  0.000000  1
  Co  Co20  1  0.726331  0.000000  0.500000  1
  Co  Co21  1  0.000000  0.726331  0.500000  1
  Co  Co22  1  0.634077  0.828832  0.000000  1
  Co  Co23  1  0.273669  0.273669  0.500000  1
  As  As24  1  0.648877  0.648877  0.000000  1
  As  As25  1  0.351123  0.000000  0.000000  1
  As  As26  1  0.000000  0.351123  0.000000  1
  As  As27  1  0.482477  0.314360  0.500000  1
  As  As28  1  0.685640  0.168116  0.500000  1
  As  As29  1  0.831884  0.517523  0.500000  1
  As  As30  1  0.517523  0.831884  0.500000  1
  As  As31  1  0.168116  0.685640  0.500000  1
  As  As32  1  0.314360  0.482477  0.500000  1
  P  P33  1  0.825934  0.000000  0.000000  1
  P  P34  1  0.000000  0.825934  0.000000  1
  P  P35  1  0.174066  0.174066  0.000000  1
