# generated using pymatgen
data_Ho6InSn5Pd6
_symmetry_space_group_name_H-M   'P 1'
_cell_length_a   7.67547700
_cell_length_b   7.69712659
_cell_length_c   7.67364819
_cell_angle_alpha   89.89905456
_cell_angle_beta   90.00000000
_cell_angle_gamma   119.90699640
_symmetry_Int_Tables_number   1
_chemical_formula_structural   Ho6InSn5Pd6
_chemical_formula_sum   'Ho6 In1 Sn5 Pd6'
_cell_volume   392.98128327
_cell_formula_units_Z   1
loop_
 _symmetry_equiv_pos_site_id
 _symmetry_equiv_pos_as_xyz
  1  'x, y, z'
loop_
 _atom_site_type_symbol
 _atom_site_label
 _atom_site_symmetry_multiplicity
 _atom_site_fract_x
 _atom_site_fract_y
 _atom_site_fract_z
 _atom_site_occupancy
  Ho  Ho0  1  0.406008  0.005359  0.248179  1
  Ho  Ho1  1  0.600351  0.596398  0.248632  1
  Ho  Ho2  1  0.993849  0.398734  0.248569  1
  Ho  Ho3  1  0.400650  0.994641  0.751821  1
  Ho  Ho4  1  0.595114  0.601266  0.751431  1
  Ho  Ho5  1  0.003953  0.403602  0.751368  1
  In  In6  1  0.737568  0.000000  0.000000  1
  Sn  Sn7  1  0.266786  0.266374  0.500117  1
  Sn  Sn8  1  0.000412  0.733626  0.499883  1
  Sn  Sn9  1  0.997767  0.738983  0.999862  1
  Sn  Sn10  1  0.258784  0.261017  0.000138  1
  Sn  Sn11  1  0.735814  0.000000  0.500000  1
  Pd  Pd12  1  0.331288  0.665550  0.010279  1
  Pd  Pd13  1  0.333412  0.666586  0.488992  1
  Pd  Pd14  1  0.665740  0.334450  0.989721  1
  Pd  Pd15  1  0.666827  0.333414  0.511008  1
  Pd  Pd16  1  0.002910  0.000148  0.254426  1
  Pd  Pd17  1  0.002763  0.999852  0.745574  1
