# generated using pymatgen
data_Eu(HfSe2)4
_symmetry_space_group_name_H-M   'P 1'
_cell_length_a   8.44477808
_cell_length_b   8.44477710
_cell_length_c   8.44477796
_cell_angle_alpha   52.80184347
_cell_angle_beta   52.80184627
_cell_angle_gamma   52.80184048
_symmetry_Int_Tables_number   1
_chemical_formula_structural   Eu(HfSe2)4
_chemical_formula_sum   'Eu1 Hf4 Se8'
_cell_volume   353.95068501
_cell_formula_units_Z   1
loop_
 _symmetry_equiv_pos_site_id
 _symmetry_equiv_pos_as_xyz
  1  'x, y, z'
loop_
 _atom_site_type_symbol
 _atom_site_label
 _atom_site_symmetry_multiplicity
 _atom_site_fract_x
 _atom_site_fract_y
 _atom_site_fract_z
 _atom_site_occupancy
  Eu  Eu0  1  0.500000  0.500000  0.500000  1
  Hf  Hf1  1  0.000000  0.500000  0.500000  1
  Hf  Hf2  1  0.500000  0.000000  0.500000  1
  Hf  Hf3  1  0.500000  0.500000  0.000000  1
  Hf  Hf4  1  0.000000  0.000000  0.000000  1
  Se  Se5  1  0.252598  0.762372  0.762372  1
  Se  Se6  1  0.237628  0.237628  0.747402  1
  Se  Se7  1  0.747402  0.237628  0.237628  1
  Se  Se8  1  0.237628  0.747402  0.237628  1
  Se  Se9  1  0.260599  0.260599  0.260599  1
  Se  Se10  1  0.739401  0.739401  0.739401  1
  Se  Se11  1  0.762372  0.252598  0.762372  1
  Se  Se12  1  0.762372  0.762372  0.252598  1
