# generated using pymatgen
data_LiY3Tl(AgPb)2
_symmetry_space_group_name_H-M   'P 1'
_cell_length_a   7.45485200
_cell_length_b   7.54312979
_cell_length_c   4.55321400
_cell_angle_alpha   90.00000000
_cell_angle_beta   90.00000000
_cell_angle_gamma   119.61362350
_symmetry_Int_Tables_number   1
_chemical_formula_structural   LiY3Tl(AgPb)2
_chemical_formula_sum   'Li1 Y3 Tl1 Ag2 Pb2'
_cell_volume   222.59584010
_cell_formula_units_Z   1
loop_
 _symmetry_equiv_pos_site_id
 _symmetry_equiv_pos_as_xyz
  1  'x, y, z'
loop_
 _atom_site_type_symbol
 _atom_site_label
 _atom_site_symmetry_multiplicity
 _atom_site_fract_x
 _atom_site_fract_y
 _atom_site_fract_z
 _atom_site_occupancy
  Li  Li0  1  0.229422  0.000000  0.000000  1
  Y  Y1  1  0.584186  0.000000  0.500000  1
  Y  Y2  1  0.429666  0.436149  0.500000  1
  Y  Y3  1  0.993517  0.563851  0.500000  1
  Tl  Tl4  1  0.019502  0.000000  0.500000  1
  Ag  Ag5  1  0.760080  0.758616  0.000000  1
  Ag  Ag6  1  0.001464  0.241384  0.000000  1
  Pb  Pb7  1  0.330148  0.678137  0.000000  1
  Pb  Pb8  1  0.652013  0.321863  0.000000  1
