# generated using pymatgen
data_LuBiIrRhO7
_symmetry_space_group_name_H-M   'P 1'
_cell_length_a   7.24718575
_cell_length_b   7.24718588
_cell_length_c   7.23350200
_cell_angle_alpha   60.06244034
_cell_angle_beta   60.06243977
_cell_angle_gamma   60.33166236
_symmetry_Int_Tables_number   1
_chemical_formula_structural   LuBiIrRhO7
_chemical_formula_sum   'Lu2 Bi2 Ir2 Rh2 O14'
_cell_volume   269.56311301
_cell_formula_units_Z   2
loop_
 _symmetry_equiv_pos_site_id
 _symmetry_equiv_pos_as_xyz
  1  'x, y, z'
loop_
 _atom_site_type_symbol
 _atom_site_label
 _atom_site_symmetry_multiplicity
 _atom_site_fract_x
 _atom_site_fract_y
 _atom_site_fract_z
 _atom_site_occupancy
  Lu  Lu0  1  0.125000  0.125000  0.125000  1
  Lu  Lu1  1  0.125000  0.125000  0.625000  1
  Bi  Bi2  1  0.125000  0.625000  0.125000  1
  Bi  Bi3  1  0.625000  0.125000  0.125000  1
  Ir  Ir4  1  0.125000  0.625000  0.625000  1
  Ir  Ir5  1  0.625000  0.125000  0.625000  1
  Rh  Rh6  1  0.625000  0.625000  0.625000  1
  Rh  Rh7  1  0.625000  0.625000  0.125000  1
  O  O8  1  0.238745  0.238745  0.261255  1
  O  O9  1  0.284758  0.722734  0.290657  1
  O  O10  1  0.960776  0.960776  0.539224  1
  O  O11  1  0.527266  0.965242  0.548149  1
  O  O12  1  0.710904  0.710904  0.289096  1
  O  O13  1  0.965242  0.527266  0.548149  1
  O  O14  1  0.722734  0.284758  0.701851  1
  O  O15  1  0.289224  0.289224  0.710776  1
  O  O16  1  0.722734  0.284758  0.290657  1
  O  O17  1  0.284758  0.722734  0.701851  1
  O  O18  1  0.965242  0.527266  0.959343  1
  O  O19  1  0.539096  0.539096  0.960904  1
  O  O20  1  0.011255  0.011255  0.988745  1
  O  O21  1  0.527266  0.965242  0.959343  1
