# generated using pymatgen
data_Ho2P7(IrRu)6
_symmetry_space_group_name_H-M   'P 1'
_cell_length_a   9.57256300
_cell_length_b   9.57256348
_cell_length_c   3.88405500
_cell_angle_alpha   90.00000000
_cell_angle_beta   90.00000000
_cell_angle_gamma   120.00000181
_symmetry_Int_Tables_number   1
_chemical_formula_structural   Ho2P7(IrRu)6
_chemical_formula_sum   'Ho2 P7 Ir6 Ru6'
_cell_volume   308.22828018
_cell_formula_units_Z   1
loop_
 _symmetry_equiv_pos_site_id
 _symmetry_equiv_pos_as_xyz
  1  'x, y, z'
loop_
 _atom_site_type_symbol
 _atom_site_label
 _atom_site_symmetry_multiplicity
 _atom_site_fract_x
 _atom_site_fract_y
 _atom_site_fract_z
 _atom_site_occupancy
  Ho  Ho0  1  0.000000  0.000000  0.000000  1
  Ho  Ho1  1  0.333333  0.666667  0.500000  1
  P  P2  1  0.547672  0.928983  0.000000  1
  P  P3  1  0.381310  0.452328  0.000000  1
  P  P4  1  0.071017  0.618690  0.000000  1
  P  P5  1  0.951990  0.215022  0.500000  1
  P  P6  1  0.263032  0.048010  0.500000  1
  P  P7  1  0.784978  0.736968  0.500000  1
  P  P8  1  0.666667  0.333333  0.000000  1
  Ir  Ir9  1  0.286070  0.883716  0.000000  1
  Ir  Ir10  1  0.597647  0.713930  0.000000  1
  Ir  Ir11  1  0.116284  0.402353  0.000000  1
  Ir  Ir12  1  0.731685  0.949145  0.500000  1
  Ir  Ir13  1  0.217461  0.268315  0.500000  1
  Ir  Ir14  1  0.050855  0.782539  0.500000  1
  Ru  Ru15  1  0.783417  0.180205  0.000000  1
  Ru  Ru16  1  0.396787  0.216583  0.000000  1
  Ru  Ru17  1  0.819795  0.603213  0.000000  1
  Ru  Ru18  1  0.520646  0.077366  0.500000  1
  Ru  Ru19  1  0.556720  0.479354  0.500000  1
  Ru  Ru20  1  0.922634  0.443280  0.500000  1
