# generated using pymatgen
data_Co2AsO6
_symmetry_space_group_name_H-M   'P 1'
_cell_length_a   4.92042716
_cell_length_b   10.09579750
_cell_length_c   4.92337598
_cell_angle_alpha   90.05919433
_cell_angle_beta   60.01073773
_cell_angle_gamma   90.02345365
_symmetry_Int_Tables_number   1
_chemical_formula_structural   Co2AsO6
_chemical_formula_sum   'Co4 As2 O12'
_cell_volume   211.82822039
_cell_formula_units_Z   2
loop_
 _symmetry_equiv_pos_site_id
 _symmetry_equiv_pos_as_xyz
  1  'x, y, z'
loop_
 _atom_site_type_symbol
 _atom_site_label
 _atom_site_symmetry_multiplicity
 _atom_site_fract_x
 _atom_site_fract_y
 _atom_site_fract_z
 _atom_site_occupancy
  Co  Co0  1  0.333460  0.999998  0.333241  1
  Co  Co1  1  0.166676  0.500004  0.666652  1
  Co  Co2  1  0.833262  0.499995  0.333419  1
  Co  Co3  1  0.666753  0.000000  0.666602  1
  As  As4  1  0.999851  0.000000  0.000100  1
  As  As5  1  0.500038  0.500004  0.999971  1
  O  O6  1  0.168876  0.594881  0.002406  1
  O  O7  1  0.331136  0.094894  0.997658  1
  O  O8  1  0.671260  0.904983  0.997820  1
  O  O9  1  0.828750  0.405105  0.002264  1
  O  O10  1  0.997587  0.905254  0.330966  1
  O  O11  1  0.169026  0.405186  0.328569  1
  O  O12  1  0.502386  0.594811  0.328664  1
  O  O13  1  0.671400  0.094939  0.330789  1
  O  O14  1  0.997485  0.094711  0.671432  1
  O  O15  1  0.331123  0.905207  0.671336  1
  O  O16  1  0.502428  0.405169  0.668987  1
  O  O17  1  0.828506  0.594859  0.669126  1
