# generated using pymatgen
data_MgCo2Ni18(SnP3)2
_symmetry_space_group_name_H-M   'P 1'
_cell_length_a   7.87333414
_cell_length_b   7.87333289
_cell_length_c   7.87845900
_cell_angle_alpha   59.97845617
_cell_angle_beta   59.97846141
_cell_angle_gamma   59.97751208
_symmetry_Int_Tables_number   1
_chemical_formula_structural   MgCo2Ni18(SnP3)2
_chemical_formula_sum   'Mg1 Co2 Ni18 Sn2 P6'
_cell_volume   345.16621639
_cell_formula_units_Z   1
loop_
 _symmetry_equiv_pos_site_id
 _symmetry_equiv_pos_as_xyz
  1  'x, y, z'
loop_
 _atom_site_type_symbol
 _atom_site_label
 _atom_site_symmetry_multiplicity
 _atom_site_fract_x
 _atom_site_fract_y
 _atom_site_fract_z
 _atom_site_occupancy
  Mg  Mg0  1  0.000000  0.000000  0.000956  1
  Co  Co1  1  0.383685  0.383685  0.846297  1
  Co  Co2  1  0.616316  0.616316  0.613666  1
  Ni  Ni3  1  0.999732  0.348954  0.000884  1
  Ni  Ni4  1  0.348954  0.999732  0.000884  1
  Ni  Ni5  1  0.000961  0.346318  0.652704  1
  Ni  Ni6  1  0.852206  0.381673  0.382445  1
  Ni  Ni7  1  0.346318  0.000961  0.652704  1
  Ni  Ni8  1  0.000000  0.000000  0.350527  1
  Ni  Ni9  1  0.652272  0.347728  0.000655  1
  Ni  Ni10  1  0.000268  0.651046  0.349569  1
  Ni  Ni11  1  0.000000  0.000000  0.653893  1
  Ni  Ni12  1  0.347728  0.652272  0.000655  1
  Ni  Ni13  1  0.653682  0.999039  0.999983  1
  Ni  Ni14  1  0.999039  0.653682  0.999983  1
  Ni  Ni15  1  0.381673  0.852207  0.382446  1
  Ni  Ni16  1  0.616823  0.616824  0.151132  1
  Ni  Ni17  1  0.618327  0.147794  0.616324  1
  Ni  Ni18  1  0.147794  0.618328  0.616325  1
  Ni  Ni19  1  0.383176  0.383177  0.384780  1
  Ni  Ni20  1  0.651046  0.000268  0.349569  1
  Sn  Sn21  1  0.253357  0.253357  0.242372  1
  Sn  Sn22  1  0.746643  0.746643  0.749087  1
  P  P23  1  0.265905  0.265905  0.736444  1
  P  P24  1  0.734095  0.734095  0.268254  1
  P  P25  1  0.735851  0.264149  0.264438  1
  P  P26  1  0.269746  0.730254  0.734291  1
  P  P27  1  0.264149  0.735851  0.264438  1
  P  P28  1  0.730254  0.269746  0.734291  1
