# generated using pymatgen
data_MgAg2Pd(NO3)8
_symmetry_space_group_name_H-M   'P 1'
_cell_length_a   7.99470533
_cell_length_b   7.69198547
_cell_length_c   8.09233895
_cell_angle_alpha   90.85505376
_cell_angle_beta   88.83893664
_cell_angle_gamma   88.53169927
_symmetry_Int_Tables_number   1
_chemical_formula_structural   MgAg2Pd(NO3)8
_chemical_formula_sum   'Mg1 Ag2 Pd1 N8 O24'
_cell_volume   497.31474987
_cell_formula_units_Z   1
loop_
 _symmetry_equiv_pos_site_id
 _symmetry_equiv_pos_as_xyz
  1  'x, y, z'
loop_
 _atom_site_type_symbol
 _atom_site_label
 _atom_site_symmetry_multiplicity
 _atom_site_fract_x
 _atom_site_fract_y
 _atom_site_fract_z
 _atom_site_occupancy
  Mg  Mg0  1  0.000000  0.000000  0.500000  1
  Ag  Ag1  1  0.500000  0.000000  0.000000  1
  Ag  Ag2  1  0.000000  0.500000  0.000000  1
  Pd  Pd3  1  0.500000  0.500000  0.500000  1
  N  N4  1  0.697431  0.176690  0.345175  1
  N  N5  1  0.635936  0.322498  0.801106  1
  N  N6  1  0.853738  0.825725  0.814919  1
  N  N7  1  0.806119  0.675229  0.347322  1
  N  N8  1  0.146262  0.174275  0.185081  1
  N  N9  1  0.193881  0.324771  0.652678  1
  N  N10  1  0.364064  0.677502  0.198894  1
  N  N11  1  0.302569  0.823310  0.654825  1
  O  O12  1  0.525690  0.213934  0.778913  1
  O  O13  1  0.573924  0.288343  0.334709  1
  O  O14  1  0.651589  0.453661  0.698781  1
  O  O15  1  0.714475  0.067686  0.231237  1
  O  O16  1  0.700959  0.681391  0.472383  1
  O  O17  1  0.744114  0.817159  0.927374  1
  O  O18  1  0.736514  0.318385  0.915621  1
  O  O19  1  0.793563  0.182122  0.466581  1
  O  O20  1  0.848825  0.946843  0.709838  1
  O  O21  1  0.789666  0.568742  0.233311  1
  O  O22  1  0.972261  0.712062  0.804806  1
  O  O23  1  0.922369  0.782736  0.350306  1
  O  O24  1  0.077631  0.217264  0.649694  1
  O  O25  1  0.027739  0.287938  0.195194  1
  O  O26  1  0.210334  0.431258  0.766689  1
  O  O27  1  0.151175  0.053157  0.290162  1
  O  O28  1  0.263486  0.681615  0.084379  1
  O  O29  1  0.206437  0.817878  0.533419  1
  O  O30  1  0.255886  0.182841  0.072626  1
  O  O31  1  0.299041  0.318609  0.527617  1
  O  O32  1  0.348411  0.546339  0.301219  1
  O  O33  1  0.285525  0.932314  0.768763  1
  O  O34  1  0.426076  0.711657  0.665291  1
  O  O35  1  0.474310  0.786066  0.221087  1
