# generated using pymatgen
data_Nb3CrB3Ru2
_symmetry_space_group_name_H-M   'P 1'
_cell_length_a   3.13862100
_cell_length_b   6.37842700
_cell_length_c   10.86368000
_cell_angle_alpha   90.00000000
_cell_angle_beta   90.00000000
_cell_angle_gamma   90.00000000
_symmetry_Int_Tables_number   1
_chemical_formula_structural   Nb3CrB3Ru2
_chemical_formula_sum   'Nb6 Cr2 B6 Ru4'
_cell_volume   217.48506076
_cell_formula_units_Z   2
loop_
 _symmetry_equiv_pos_site_id
 _symmetry_equiv_pos_as_xyz
  1  'x, y, z'
loop_
 _atom_site_type_symbol
 _atom_site_label
 _atom_site_symmetry_multiplicity
 _atom_site_fract_x
 _atom_site_fract_y
 _atom_site_fract_z
 _atom_site_occupancy
  Nb  Nb0  1  0.000000  0.274129  0.950921  1
  Nb  Nb1  1  0.000000  0.725871  0.049079  1
  Nb  Nb2  1  0.000000  0.274129  0.549079  1
  Nb  Nb3  1  0.000000  0.725871  0.450921  1
  Nb  Nb4  1  0.000000  0.362881  0.250000  1
  Nb  Nb5  1  0.000000  0.637119  0.750000  1
  Cr  Cr6  1  0.500000  0.699028  0.250000  1
  Cr  Cr7  1  0.500000  0.300972  0.750000  1
  B  B8  1  0.000000  0.942381  0.250000  1
  B  B9  1  0.000000  0.057619  0.750000  1
  B  B10  1  0.500000  0.452642  0.085854  1
  B  B11  1  0.500000  0.547358  0.914146  1
  B  B12  1  0.500000  0.452642  0.414146  1
  B  B13  1  0.500000  0.547358  0.585854  1
  Ru  Ru14  1  0.500000  0.072750  0.123676  1
  Ru  Ru15  1  0.500000  0.927250  0.876324  1
  Ru  Ru16  1  0.500000  0.072750  0.376324  1
  Ru  Ru17  1  0.500000  0.927250  0.623676  1
