# generated using pymatgen
data_Ba4AlSi7Pd8
_symmetry_space_group_name_H-M   'P 1'
_cell_length_a   6.95861748
_cell_length_b   7.88583404
_cell_length_c   8.15622800
_cell_angle_alpha   93.91951525
_cell_angle_beta   89.48009504
_cell_angle_gamma   89.72048877
_symmetry_Int_Tables_number   1
_chemical_formula_structural   Ba4AlSi7Pd8
_chemical_formula_sum   'Ba4 Al1 Si7 Pd8'
_cell_volume   446.49694995
_cell_formula_units_Z   1
loop_
 _symmetry_equiv_pos_site_id
 _symmetry_equiv_pos_as_xyz
  1  'x, y, z'
loop_
 _atom_site_type_symbol
 _atom_site_label
 _atom_site_symmetry_multiplicity
 _atom_site_fract_x
 _atom_site_fract_y
 _atom_site_fract_z
 _atom_site_occupancy
  Ba  Ba0  1  0.878156  0.501541  0.749101  1
  Ba  Ba1  1  0.369807  0.002131  0.247851  1
  Ba  Ba2  1  0.630088  0.995255  0.747052  1
  Ba  Ba3  1  0.129661  0.503005  0.254452  1
  Al  Al4  1  0.415790  0.370066  0.917192  1
  Si  Si5  1  0.913824  0.863347  0.426492  1
  Si  Si6  1  0.081624  0.868228  0.927959  1
  Si  Si7  1  0.587922  0.366451  0.426610  1
  Si  Si8  1  0.078952  0.126787  0.573192  1
  Si  Si9  1  0.589887  0.636306  0.076502  1
  Si  Si10  1  0.911299  0.137211  0.071476  1
  Si  Si11  1  0.417242  0.624658  0.584874  1
  Pd  Pd12  1  0.844427  0.158468  0.367240  1
  Pd  Pd13  1  0.152416  0.832250  0.630280  1
  Pd  Pd14  1  0.149933  0.157229  0.863501  1
  Pd  Pd15  1  0.338028  0.325696  0.616736  1
  Pd  Pd16  1  0.353178  0.681174  0.877155  1
  Pd  Pd17  1  0.842766  0.842270  0.134793  1
  Pd  Pd18  1  0.660650  0.346142  0.134410  1
  Pd  Pd19  1  0.654350  0.661786  0.373132  1
