# generated using pymatgen
data_Ho2InPb3
_symmetry_space_group_name_H-M   'P 1'
_cell_length_a   8.00050634
_cell_length_b   8.00050533
_cell_length_c   4.58893700
_cell_angle_alpha   90.00000000
_cell_angle_beta   90.00000000
_cell_angle_gamma   145.50064344
_symmetry_Int_Tables_number   1
_chemical_formula_structural   Ho2InPb3
_chemical_formula_sum   'Ho2 In1 Pb3'
_cell_volume   166.36728086
_cell_formula_units_Z   1
loop_
 _symmetry_equiv_pos_site_id
 _symmetry_equiv_pos_as_xyz
  1  'x, y, z'
loop_
 _atom_site_type_symbol
 _atom_site_label
 _atom_site_symmetry_multiplicity
 _atom_site_fract_x
 _atom_site_fract_y
 _atom_site_fract_z
 _atom_site_occupancy
  Ho  Ho0  1  0.850221  0.149778  0.000000  1
  Ho  Ho1  1  0.149778  0.850221  0.000000  1
  In  In2  1  0.000000  0.000000  0.500001  1
  Pb  Pb3  1  0.499999  0.499999  0.000000  1
  Pb  Pb4  1  0.673954  0.326045  0.500001  1
  Pb  Pb5  1  0.326045  0.673954  0.500001  1
