# generated using pymatgen
data_AlV4(TeSe)4
_symmetry_space_group_name_H-M   'P 1'
_cell_length_a   7.63488393
_cell_length_b   7.63488371
_cell_length_c   7.63488400
_cell_angle_alpha   60.00000742
_cell_angle_beta   60.00000838
_cell_angle_gamma   60.00000713
_symmetry_Int_Tables_number   1
_chemical_formula_structural   AlV4(TeSe)4
_chemical_formula_sum   'Al1 V4 Te4 Se4'
_cell_volume   314.69684313
_cell_formula_units_Z   1
loop_
 _symmetry_equiv_pos_site_id
 _symmetry_equiv_pos_as_xyz
  1  'x, y, z'
loop_
 _atom_site_type_symbol
 _atom_site_label
 _atom_site_symmetry_multiplicity
 _atom_site_fract_x
 _atom_site_fract_y
 _atom_site_fract_z
 _atom_site_occupancy
  Al  Al0  1  0.000000  0.000000  0.000000  1
  V  V1  1  0.598502  0.598502  0.204495  1
  V  V2  1  0.598502  0.204495  0.598502  1
  V  V3  1  0.204495  0.598502  0.598502  1
  V  V4  1  0.598502  0.598502  0.598502  1
  Te  Te5  1  0.861964  0.861964  0.414108  1
  Te  Te6  1  0.861964  0.414108  0.861964  1
  Te  Te7  1  0.414108  0.861964  0.861964  1
  Te  Te8  1  0.861964  0.861964  0.861964  1
  Se  Se9  1  0.373998  0.373998  0.878008  1
  Se  Se10  1  0.373998  0.878008  0.373998  1
  Se  Se11  1  0.878008  0.373998  0.373998  1
  Se  Se12  1  0.373998  0.373998  0.373998  1
