# generated using pymatgen
data_Y2Be25Ni
_symmetry_space_group_name_H-M   'P 1'
_cell_length_a   7.23971203
_cell_length_b   7.25651913
_cell_length_c   7.22056214
_cell_angle_alpha   60.01022382
_cell_angle_beta   59.87886634
_cell_angle_gamma   59.74877752
_symmetry_Int_Tables_number   1
_chemical_formula_structural   Y2Be25Ni
_chemical_formula_sum   'Y2 Be25 Ni1'
_cell_volume   267.49150584
_cell_formula_units_Z   1
loop_
 _symmetry_equiv_pos_site_id
 _symmetry_equiv_pos_as_xyz
  1  'x, y, z'
loop_
 _atom_site_type_symbol
 _atom_site_label
 _atom_site_symmetry_multiplicity
 _atom_site_fract_x
 _atom_site_fract_y
 _atom_site_fract_z
 _atom_site_occupancy
  Y  Y0  1  0.249673  0.251799  0.250483  1
  Y  Y1  1  0.749517  0.751955  0.750327  1
  Be  Be2  1  0.501031  0.500612  0.498968  1
  Be  Be3  1  0.999584  0.001736  0.000416  1
  Be  Be4  1  0.204822  0.439255  0.795176  1
  Be  Be5  1  0.565562  0.790023  0.434438  1
  Be  Be6  1  0.435127  0.207335  0.564874  1
  Be  Be7  1  0.290527  0.935311  0.709467  1
  Be  Be8  1  0.708780  0.064371  0.291221  1
  Be  Be9  1  0.934908  0.289277  0.065090  1
  Be  Be10  1  0.066263  0.713556  0.933739  1
  Be  Be11  1  0.207517  0.794522  0.561681  1
  Be  Be12  1  0.791849  0.206074  0.438443  1
  Be  Be13  1  0.438319  0.563718  0.792484  1
  Be  Be14  1  0.561558  0.436370  0.208148  1
  Be  Be15  1  0.711052  0.286088  0.935726  1
  Be  Be16  1  0.287954  0.711582  0.064505  1
  Be  Be17  1  0.064274  0.932864  0.288950  1
  Be  Be18  1  0.935500  0.064035  0.712047  1
  Be  Be19  1  0.561522  0.209348  0.791674  1
  Be  Be20  1  0.436189  0.790535  0.208875  1
  Be  Be21  1  0.791126  0.435598  0.563808  1
  Be  Be22  1  0.208325  0.562545  0.438480  1
  Be  Be23  1  0.936939  0.710817  0.289155  1
  Be  Be24  1  0.064849  0.288950  0.710121  1
  Be  Be25  1  0.289881  0.063919  0.935150  1
  Be  Be26  1  0.710843  0.936912  0.063065  1
  Ni  Ni27  1  0.796510  0.560891  0.203489  1
