# generated using pymatgen
data_Lu2Mn7Si4Tc
_symmetry_space_group_name_H-M   'P 1'
_cell_length_a   6.59265702
_cell_length_b   7.43792102
_cell_length_c   3.93300300
_cell_angle_alpha   90.00000000
_cell_angle_beta   90.00000000
_cell_angle_gamma   90.00933157
_symmetry_Int_Tables_number   1
_chemical_formula_structural   Lu2Mn7Si4Tc
_chemical_formula_sum   'Lu2 Mn7 Si4 Tc1'
_cell_volume   192.85740426
_cell_formula_units_Z   1
loop_
 _symmetry_equiv_pos_site_id
 _symmetry_equiv_pos_as_xyz
  1  'x, y, z'
loop_
 _atom_site_type_symbol
 _atom_site_label
 _atom_site_symmetry_multiplicity
 _atom_site_fract_x
 _atom_site_fract_y
 _atom_site_fract_z
 _atom_site_occupancy
  Lu  Lu0  1  0.499037  0.498903  0.000000  1
  Lu  Lu1  1  0.003491  0.997427  0.500000  1
  Mn  Mn2  1  0.154192  0.615344  0.500000  1
  Mn  Mn3  1  0.641497  0.885383  0.000000  1
  Mn  Mn4  1  0.353212  0.111557  0.000000  1
  Mn  Mn5  1  0.570032  0.150976  0.500000  1
  Mn  Mn6  1  0.431580  0.849947  0.500000  1
  Mn  Mn7  1  0.927191  0.657882  0.000000  1
  Mn  Mn8  1  0.069276  0.348339  0.000000  1
  Si  Si9  1  0.263756  0.308616  0.500000  1
  Si  Si10  1  0.735034  0.696556  0.500000  1
  Si  Si11  1  0.238765  0.809188  0.000000  1
  Si  Si12  1  0.760341  0.181879  0.000000  1
  Tc  Tc13  1  0.852595  0.388003  0.500000  1
