# generated using pymatgen
data_La5Se2Cl3O10
_symmetry_space_group_name_H-M   'P 1'
_cell_length_a   5.68679900
_cell_length_b   7.02402579
_cell_length_c   10.19109700
_cell_angle_alpha   90.09756729
_cell_angle_beta   90.00000000
_cell_angle_gamma   66.12074194
_symmetry_Int_Tables_number   1
_chemical_formula_structural   La5Se2Cl3O10
_chemical_formula_sum   'La5 Se2 Cl3 O10'
_cell_volume   372.22937480
_cell_formula_units_Z   1
loop_
 _symmetry_equiv_pos_site_id
 _symmetry_equiv_pos_as_xyz
  1  'x, y, z'
loop_
 _atom_site_type_symbol
 _atom_site_label
 _atom_site_symmetry_multiplicity
 _atom_site_fract_x
 _atom_site_fract_y
 _atom_site_fract_z
 _atom_site_occupancy
  La  La0  1  0.499999  0.000000  0.000000  1
  La  La1  1  0.789266  0.421469  0.109294  1
  La  La2  1  0.103371  0.793255  0.243099  1
  La  La3  1  0.896628  0.206745  0.756902  1
  La  La4  1  0.210734  0.578530  0.890707  1
  Se  Se5  1  0.411862  0.176273  0.314750  1
  Se  Se6  1  0.588137  0.823727  0.685250  1
  Cl  Cl7  1  0.660786  0.678426  0.354325  1
  Cl  Cl8  1  0.000000  0.000000  0.500000  1
  Cl  Cl9  1  0.339214  0.321572  0.645676  1
  O  O10  1  0.390249  0.709053  0.060355  1
  O  O11  1  0.900697  0.709053  0.060355  1
  O  O12  1  0.213149  0.106783  0.209394  1
  O  O13  1  0.680068  0.106783  0.209394  1
  O  O14  1  0.282395  0.435207  0.282170  1
  O  O15  1  0.717604  0.564793  0.717830  1
  O  O16  1  0.319933  0.893217  0.790607  1
  O  O17  1  0.786850  0.893217  0.790607  1
  O  O18  1  0.099303  0.290946  0.939644  1
  O  O19  1  0.609749  0.290946  0.939644  1
