# generated using pymatgen
data_CeDy3Y12(CdIr)4
_symmetry_space_group_name_H-M   'P 1'
_cell_length_a   9.68669095
_cell_length_b   9.68669019
_cell_length_c   9.68669071
_cell_angle_alpha   59.80172525
_cell_angle_beta   59.80173045
_cell_angle_gamma   59.80172834
_symmetry_Int_Tables_number   1
_chemical_formula_structural   CeDy3Y12(CdIr)4
_chemical_formula_sum   'Ce1 Dy3 Y12 Cd4 Ir4'
_cell_volume   639.81167832
_cell_formula_units_Z   1
loop_
 _symmetry_equiv_pos_site_id
 _symmetry_equiv_pos_as_xyz
  1  'x, y, z'
loop_
 _atom_site_type_symbol
 _atom_site_label
 _atom_site_symmetry_multiplicity
 _atom_site_fract_x
 _atom_site_fract_y
 _atom_site_fract_z
 _atom_site_occupancy
  Ce  Ce0  1  0.344531  0.344531  0.344531  1
  Dy  Dy1  1  0.350025  0.350025  0.950580  1
  Dy  Dy2  1  0.350025  0.950580  0.350025  1
  Dy  Dy3  1  0.950580  0.350025  0.350025  1
  Y  Y4  1  0.811560  0.189553  0.189553  1
  Y  Y5  1  0.189236  0.810700  0.810700  1
  Y  Y6  1  0.189553  0.811560  0.189553  1
  Y  Y7  1  0.810700  0.189236  0.810700  1
  Y  Y8  1  0.189553  0.189553  0.811560  1
  Y  Y9  1  0.810700  0.810700  0.189236  1
  Y  Y10  1  0.939174  0.562796  0.562796  1
  Y  Y11  1  0.561301  0.938580  0.938580  1
  Y  Y12  1  0.562796  0.939174  0.562796  1
  Y  Y13  1  0.938580  0.561301  0.938580  1
  Y  Y14  1  0.562796  0.562796  0.939174  1
  Y  Y15  1  0.938580  0.938580  0.561301  1
  Cd  Cd16  1  0.579597  0.579597  0.579597  1
  Cd  Cd17  1  0.580209  0.580209  0.256773  1
  Cd  Cd18  1  0.580209  0.256773  0.580209  1
  Cd  Cd19  1  0.256773  0.580209  0.580209  1
  Ir  Ir20  1  0.142989  0.142989  0.142989  1
  Ir  Ir21  1  0.144008  0.144008  0.572516  1
  Ir  Ir22  1  0.144008  0.572516  0.144008  1
  Ir  Ir23  1  0.572516  0.144008  0.144008  1
