# generated using pymatgen
data_Nd3Y(Si5Pt3)2
_symmetry_space_group_name_H-M   'P 1'
_cell_length_a   8.24378205
_cell_length_b   8.23829301
_cell_length_c   8.23829277
_cell_angle_alpha   136.40954147
_cell_angle_beta   105.30267429
_cell_angle_gamma   90.66532002
_symmetry_Int_Tables_number   1
_chemical_formula_structural   Nd3Y(Si5Pt3)2
_chemical_formula_sum   'Nd3 Y1 Si10 Pt6'
_cell_volume   354.38200605
_cell_formula_units_Z   1
loop_
 _symmetry_equiv_pos_site_id
 _symmetry_equiv_pos_as_xyz
  1  'x, y, z'
loop_
 _atom_site_type_symbol
 _atom_site_label
 _atom_site_symmetry_multiplicity
 _atom_site_fract_x
 _atom_site_fract_y
 _atom_site_fract_z
 _atom_site_occupancy
  Nd  Nd0  1  0.639088  0.370686  0.268402  1
  Nd  Nd1  1  0.360731  0.629299  0.731432  1
  Nd  Nd2  1  0.101975  0.870599  0.231375  1
  Y  Y3  1  0.899142  0.129399  0.769744  1
  Si  Si4  1  0.270810  0.521157  0.249184  1
  Si  Si5  1  0.728351  0.477840  0.750036  1
  Si  Si6  1  0.728351  0.978316  0.250510  1
  Si  Si7  1  0.270810  0.021625  0.749653  1
  Si  Si8  1  0.461927  0.112479  0.349447  1
  Si  Si9  1  0.539918  0.889076  0.650843  1
  Si  Si10  1  0.762879  0.612502  0.150376  1
  Si  Si11  1  0.236288  0.386533  0.849755  1
  Si  Si12  1  0.999849  0.250366  0.249632  1
  Si  Si13  1  0.999849  0.750217  0.749483  1
  Pt  Pt14  1  0.245818  0.136600  0.109219  1
  Pt  Pt15  1  0.754340  0.864400  0.889940  1
  Pt  Pt16  1  0.025822  0.636648  0.389174  1
  Pt  Pt17  1  0.972402  0.361743  0.610658  1
  Pt  Pt18  1  0.500827  0.249971  0.750280  1
  Pt  Pt19  1  0.500827  0.750547  0.250855  1
