# generated using pymatgen
data_KVCo(PO3)6
_symmetry_space_group_name_H-M   'P 1'
_cell_length_a   6.43974117
_cell_length_b   15.98059344
_cell_length_c   8.57664500
_cell_angle_alpha   80.03133690
_cell_angle_beta   103.81831740
_cell_angle_gamma   88.95732819
_symmetry_Int_Tables_number   1
_chemical_formula_structural   KVCo(PO3)6
_chemical_formula_sum   'K2 V2 Co2 P12 O36'
_cell_volume   842.50769616
_cell_formula_units_Z   2
loop_
 _symmetry_equiv_pos_site_id
 _symmetry_equiv_pos_as_xyz
  1  'x, y, z'
loop_
 _atom_site_type_symbol
 _atom_site_label
 _atom_site_symmetry_multiplicity
 _atom_site_fract_x
 _atom_site_fract_y
 _atom_site_fract_z
 _atom_site_occupancy
  K  K0  1  0.190719  0.476799  0.499535  1
  K  K1  1  0.690259  0.976999  0.999584  1
  V  V2  1  0.387119  0.611951  0.168192  1
  V  V3  1  0.886808  0.112005  0.668112  1
  Co  Co4  1  0.613317  0.388361  0.837444  1
  Co  Co5  1  0.113394  0.888374  0.337523  1
  P  P6  1  0.896037  0.205034  0.981180  1
  P  P7  1  0.396216  0.705030  0.481224  1
  P  P8  1  0.006194  0.093145  0.316697  1
  P  P9  1  0.506433  0.593133  0.816799  1
  P  P10  1  0.592818  0.295326  0.515884  1
  P  P11  1  0.092902  0.795301  0.015951  1
  P  P12  1  0.484002  0.407362  0.180471  1
  P  P13  1  0.983812  0.907388  0.680549  1
  P  P14  1  0.137975  0.358315  0.918340  1
  P  P15  1  0.637975  0.858364  0.418345  1
  P  P16  1  0.353334  0.140618  0.573327  1
  P  P17  1  0.853614  0.640478  0.073492  1
  O  O18  1  0.935541  0.176405  0.176863  1
  O  O19  1  0.436138  0.676460  0.676900  1
  O  O20  1  0.573605  0.326387  0.324498  1
  O  O21  1  0.073519  0.826385  0.824598  1
  O  O22  1  0.691755  0.258957  0.921653  1
  O  O23  1  0.191940  0.758934  0.421891  1
  O  O24  1  0.865971  0.094861  0.434546  1
  O  O25  1  0.366132  0.594917  0.934592  1
  O  O26  1  0.794126  0.237469  0.580350  1
  O  O27  1  0.294257  0.737419  0.080287  1
  O  O28  1  0.634041  0.415658  0.071654  1
  O  O29  1  0.133913  0.915761  0.571742  1
  O  O30  1  0.290155  0.366590  0.810052  1
  O  O31  1  0.790081  0.866784  0.309977  1
  O  O32  1  0.566931  0.092481  0.647711  1
  O  O33  1  0.067285  0.592412  0.147862  1
  O  O34  1  0.198852  0.134040  0.681183  1
  O  O35  1  0.699219  0.633920  0.181411  1
  O  O36  1  0.929746  0.409862  0.857312  1
  O  O37  1  0.429699  0.909888  0.357413  1
  O  O38  1  0.912150  0.126531  0.905754  1
  O  O39  1  0.412325  0.626529  0.405851  1
  O  O40  1  0.010575  0.016974  0.238435  1
  O  O41  1  0.510480  0.516959  0.738572  1
  O  O42  1  0.564290  0.370514  0.591898  1
  O  O43  1  0.064322  0.870443  0.091986  1
  O  O44  1  0.442839  0.483367  0.256463  1
  O  O45  1  0.942400  0.983396  0.756457  1
  O  O46  1  0.103173  0.257508  0.967780  1
  O  O47  1  0.603274  0.757502  0.467454  1
  O  O48  1  0.249638  0.111279  0.403391  1
  O  O49  1  0.749857  0.611146  0.903638  1
  O  O50  1  0.383808  0.239446  0.512784  1
  O  O51  1  0.884011  0.739387  0.012952  1
  O  O52  1  0.252798  0.377468  0.098385  1
  O  O53  1  0.752832  0.877384  0.598453  1
