# generated using pymatgen
data_Pa4Tc5(Ge3Rh)2
_symmetry_space_group_name_H-M   'P 1'
_cell_length_a   7.31728745
_cell_length_b   7.31728696
_cell_length_c   7.31728720
_cell_angle_alpha   109.99074891
_cell_angle_beta   109.21208401
_cell_angle_gamma   109.21207814
_symmetry_Int_Tables_number   1
_chemical_formula_structural   Pa4Tc5(Ge3Rh)2
_chemical_formula_sum   'Pa4 Tc5 Ge6 Rh2'
_cell_volume   301.57936444
_cell_formula_units_Z   1
loop_
 _symmetry_equiv_pos_site_id
 _symmetry_equiv_pos_as_xyz
  1  'x, y, z'
loop_
 _atom_site_type_symbol
 _atom_site_label
 _atom_site_symmetry_multiplicity
 _atom_site_fract_x
 _atom_site_fract_y
 _atom_site_fract_z
 _atom_site_occupancy
  Pa  Pa0  1  0.500000  0.496293  0.503707  1
  Pa  Pa1  1  0.992586  0.496293  0.996293  1
  Pa  Pa2  1  0.500000  0.003707  0.996293  1
  Pa  Pa3  1  0.007414  0.003707  0.503707  1
  Tc  Tc4  1  0.749900  0.500328  0.250228  1
  Tc  Tc5  1  0.500000  0.250000  0.750000  1
  Tc  Tc6  1  0.749900  0.249572  0.499672  1
  Tc  Tc7  1  0.250100  0.749772  0.499672  1
  Tc  Tc8  1  0.250100  0.500328  0.750428  1
  Ge  Ge9  1  0.687868  0.998571  0.686440  1
  Ge  Ge10  1  0.687868  0.689297  0.001429  1
  Ge  Ge11  1  0.312132  0.313560  0.001429  1
  Ge  Ge12  1  0.000000  0.687132  0.687132  1
  Ge  Ge13  1  0.000000  0.312868  0.312868  1
  Ge  Ge14  1  0.312132  0.998571  0.310703  1
  Rh  Rh15  1  0.500000  0.750000  0.250000  1
  Rh  Rh16  1  0.000000  0.000000  0.000000  1
