# generated using pymatgen
data_PmNd(CuGe)2
_symmetry_space_group_name_H-M   'P 1'
_cell_length_a   5.88262090
_cell_length_b   5.88261989
_cell_length_c   5.88262100
_cell_angle_alpha   138.63252566
_cell_angle_beta   102.75507952
_cell_angle_gamma   91.64632085
_symmetry_Int_Tables_number   1
_chemical_formula_structural   PmNd(CuGe)2
_chemical_formula_sum   'Pm1 Nd1 Cu2 Ge2'
_cell_volume   125.10470903
_cell_formula_units_Z   1
loop_
 _symmetry_equiv_pos_site_id
 _symmetry_equiv_pos_as_xyz
  1  'x, y, z'
loop_
 _atom_site_type_symbol
 _atom_site_label
 _atom_site_symmetry_multiplicity
 _atom_site_fract_x
 _atom_site_fract_y
 _atom_site_fract_z
 _atom_site_occupancy
  Pm  Pm0  1  0.000446  0.000000  0.000446  1
  Nd  Nd1  1  0.500184  0.500000  0.000184  1
  Cu  Cu2  1  0.584896  0.250684  0.334213  1
  Cu  Cu3  1  0.083528  0.749315  0.334213  1
  Ge  Ge4  1  0.916277  0.250805  0.665473  1
  Ge  Ge5  1  0.414667  0.749194  0.665472  1
