# generated using pymatgen
data_Nd2Ho3Co11(P3Ru2)4
_symmetry_space_group_name_H-M   'P 1'
_cell_length_a   12.28191991
_cell_length_b   12.30336112
_cell_length_c   3.76451800
_cell_angle_alpha   90.00000000
_cell_angle_beta   90.00000000
_cell_angle_gamma   119.98669456
_symmetry_Int_Tables_number   1
_chemical_formula_structural   Nd2Ho3Co11(P3Ru2)4
_chemical_formula_sum   'Nd2 Ho3 Co11 P12 Ru8'
_cell_volume   492.70645735
_cell_formula_units_Z   1
loop_
 _symmetry_equiv_pos_site_id
 _symmetry_equiv_pos_as_xyz
  1  'x, y, z'
loop_
 _atom_site_type_symbol
 _atom_site_label
 _atom_site_symmetry_multiplicity
 _atom_site_fract_x
 _atom_site_fract_y
 _atom_site_fract_z
 _atom_site_occupancy
  Nd  Nd0  1  0.667470  0.333385  0.000000  1
  Nd  Nd1  1  0.329192  0.663395  0.000000  1
  Ho  Ho2  1  0.819437  0.819189  0.500000  1
  Ho  Ho3  1  0.180210  0.000541  0.500000  1
  Ho  Ho4  1  0.999905  0.181033  0.500000  1
  Co  Co5  1  0.127086  0.479359  0.500000  1
  Co  Co6  1  0.804612  0.171585  0.000000  1
  Co  Co7  1  0.830074  0.631802  0.000000  1
  Co  Co8  1  0.366334  0.196424  0.000000  1
  Co  Co9  1  0.171491  0.804015  0.000000  1
  Co  Co10  1  0.632224  0.828268  0.000000  1
  Co  Co11  1  0.193616  0.370201  0.000000  1
  Co  Co12  1  0.277858  0.280207  0.500000  1
  Co  Co13  1  0.720670  0.999875  0.500000  1
  Co  Co14  1  0.000821  0.719955  0.500000  1
  Co  Co15  1  0.000035  0.999496  0.000000  1
  P  P16  1  0.686424  0.159229  0.500000  1
  P  P17  1  0.843317  0.526569  0.500000  1
  P  P18  1  0.472675  0.316128  0.500000  1
  P  P19  1  0.157180  0.681253  0.500000  1
  P  P20  1  0.525760  0.841695  0.500000  1
  P  P21  1  0.309920  0.472725  0.500000  1
  P  P22  1  0.176294  0.177977  0.000000  1
  P  P23  1  0.822670  0.999582  0.000000  1
  P  P24  1  0.000215  0.822257  0.000000  1
  P  P25  1  0.637216  0.637927  0.000000  1
  P  P26  1  0.361359  0.999924  0.000000  1
  P  P27  1  0.004374  0.363070  0.000000  1
  Ru  Ru28  1  0.879166  0.353838  0.500000  1
  Ru  Ru29  1  0.648827  0.521928  0.500000  1
  Ru  Ru30  1  0.478945  0.127593  0.500000  1
  Ru  Ru31  1  0.350733  0.871720  0.500000  1
  Ru  Ru32  1  0.518135  0.647131  0.500000  1
  Ru  Ru33  1  0.444197  0.445356  0.000000  1
  Ru  Ru34  1  0.554715  0.999986  0.000000  1
  Ru  Ru35  1  0.006841  0.555381  0.000000  1
