# generated using pymatgen
data_Tb9YSnBi5
_symmetry_space_group_name_H-M   'P 1'
_cell_length_a   9.15235400
_cell_length_b   9.15235315
_cell_length_c   6.44303500
_cell_angle_alpha   90.00000000
_cell_angle_beta   90.00000000
_cell_angle_gamma   119.76613370
_symmetry_Int_Tables_number   1
_chemical_formula_structural   Tb9YSnBi5
_chemical_formula_sum   'Tb9 Y1 Sn1 Bi5'
_cell_volume   468.49540943
_cell_formula_units_Z   1
loop_
 _symmetry_equiv_pos_site_id
 _symmetry_equiv_pos_as_xyz
  1  'x, y, z'
loop_
 _atom_site_type_symbol
 _atom_site_label
 _atom_site_symmetry_multiplicity
 _atom_site_fract_x
 _atom_site_fract_y
 _atom_site_fract_z
 _atom_site_occupancy
  Tb  Tb0  1  0.663514  0.334514  0.998438  1
  Tb  Tb1  1  0.334514  0.663514  0.998438  1
  Tb  Tb2  1  0.334514  0.663514  0.501562  1
  Tb  Tb3  1  0.663514  0.334514  0.501562  1
  Tb  Tb4  1  0.242639  0.006520  0.750000  1
  Tb  Tb5  1  0.006520  0.242639  0.750000  1
  Tb  Tb6  1  0.240896  0.240896  0.250000  1
  Tb  Tb7  1  0.758072  0.000928  0.250000  1
  Tb  Tb8  1  0.000928  0.758072  0.250000  1
  Y  Y9  1  0.752199  0.752199  0.750000  1
  Sn  Sn10  1  0.393367  0.393367  0.750000  1
  Bi  Bi11  1  0.610739  0.001015  0.750000  1
  Bi  Bi12  1  0.001015  0.610739  0.750000  1
  Bi  Bi13  1  0.609444  0.609444  0.250000  1
  Bi  Bi14  1  0.390487  0.997637  0.250000  1
  Bi  Bi15  1  0.997637  0.390487  0.250000  1
