# generated using pymatgen
data_TbGa9CoNi2
_symmetry_space_group_name_H-M   'P 1'
_cell_length_a   10.12475000
_cell_length_b   10.12848094
_cell_length_c   10.12240457
_cell_angle_alpha   42.07719969
_cell_angle_beta   42.12653886
_cell_angle_gamma   42.09216112
_symmetry_Int_Tables_number   1
_chemical_formula_structural   TbGa9CoNi2
_chemical_formula_sum   'Tb2 Ga18 Co2 Ni4'
_cell_volume   422.10432983
_cell_formula_units_Z   2
loop_
 _symmetry_equiv_pos_site_id
 _symmetry_equiv_pos_as_xyz
  1  'x, y, z'
loop_
 _atom_site_type_symbol
 _atom_site_label
 _atom_site_symmetry_multiplicity
 _atom_site_fract_x
 _atom_site_fract_y
 _atom_site_fract_z
 _atom_site_occupancy
  Tb  Tb0  1  0.167118  0.167425  0.167460  1
  Tb  Tb1  1  0.833274  0.833191  0.833614  1
  Ga  Ga2  1  0.050495  0.051029  0.050286  1
  Ga  Ga3  1  0.709754  0.500214  0.291512  1
  Ga  Ga4  1  0.665735  0.332460  0.000744  1
  Ga  Ga5  1  0.105031  0.433618  0.762619  1
  Ga  Ga6  1  0.434074  0.762105  0.105797  1
  Ga  Ga7  1  0.386269  0.384811  0.384583  1
  Ga  Ga8  1  0.332605  0.998597  0.666583  1
  Ga  Ga9  1  0.613763  0.616540  0.611130  1
  Ga  Ga10  1  0.237156  0.569986  0.895663  1
  Ga  Ga11  1  0.567572  0.894315  0.241068  1
  Ga  Ga12  1  0.500044  0.291221  0.707840  1
  Ga  Ga13  1  0.762420  0.104666  0.434009  1
  Ga  Ga14  1  0.952096  0.945708  0.947981  1
  Ga  Ga15  1  0.290536  0.709467  0.501297  1
  Ga  Ga16  1  0.998606  0.667809  0.332113  1
  Ga  Ga17  1  0.715878  0.716161  0.716951  1
  Ga  Ga18  1  0.280209  0.282826  0.284908  1
  Ga  Ga19  1  0.897948  0.239265  0.565761  1
  Co  Co20  1  0.240542  0.923449  0.581158  1
  Co  Co21  1  0.923410  0.581743  0.240684  1
  Ni  Ni22  1  0.758577  0.417737  0.077819  1
  Ni  Ni23  1  0.077738  0.758204  0.417789  1
  Ni  Ni24  1  0.417871  0.076675  0.758253  1
  Ni  Ni25  1  0.581279  0.240781  0.922378  1
