# generated using pymatgen
data_Dy3YSe3N2
_symmetry_space_group_name_H-M   'P 1'
_cell_length_a   6.95315089
_cell_length_b   6.95315046
_cell_length_c   10.29693934
_cell_angle_alpha   52.26181062
_cell_angle_beta   52.26181276
_cell_angle_gamma   32.85117328
_symmetry_Int_Tables_number   1
_chemical_formula_structural   Dy3YSe3N2
_chemical_formula_sum   'Dy3 Y1 Se3 N2'
_cell_volume   207.92386171
_cell_formula_units_Z   1
loop_
 _symmetry_equiv_pos_site_id
 _symmetry_equiv_pos_as_xyz
  1  'x, y, z'
loop_
 _atom_site_type_symbol
 _atom_site_label
 _atom_site_symmetry_multiplicity
 _atom_site_fract_x
 _atom_site_fract_y
 _atom_site_fract_z
 _atom_site_occupancy
  Dy  Dy0  1  0.241726  0.241726  0.640492  1
  Dy  Dy1  1  0.758301  0.758302  0.359526  1
  Dy  Dy2  1  0.558659  0.558659  0.151097  1
  Y  Y3  1  0.440987  0.440987  0.849202  1
  Se  Se4  1  0.000109  0.000109  0.000271  1
  Se  Se5  1  0.831872  0.831872  0.773234  1
  Se  Se6  1  0.167892  0.167892  0.226594  1
  N  N7  1  0.352921  0.352921  0.361989  1
  N  N8  1  0.647532  0.647532  0.637595  1
