# generated using pymatgen
data_Gd7Y(BeB14)2
_symmetry_space_group_name_H-M   'P 1'
_cell_length_a   7.24775400
_cell_length_b   7.24785493
_cell_length_c   7.45260100
_cell_angle_alpha   90.00000000
_cell_angle_beta   90.00000000
_cell_angle_gamma   90.09483088
_symmetry_Int_Tables_number   1
_chemical_formula_structural   Gd7Y(BeB14)2
_chemical_formula_sum   'Gd7 Y1 Be2 B28'
_cell_volume   391.48958413
_cell_formula_units_Z   1
loop_
 _symmetry_equiv_pos_site_id
 _symmetry_equiv_pos_as_xyz
  1  'x, y, z'
loop_
 _atom_site_type_symbol
 _atom_site_label
 _atom_site_symmetry_multiplicity
 _atom_site_fract_x
 _atom_site_fract_y
 _atom_site_fract_z
 _atom_site_occupancy
  Gd  Gd0  1  0.194635  0.328894  0.000000  1
  Gd  Gd1  1  0.671251  0.194832  0.000000  1
  Gd  Gd2  1  0.328662  0.804965  0.000000  1
  Gd  Gd3  1  0.695204  0.171514  0.500000  1
  Gd  Gd4  1  0.305192  0.828735  0.500000  1
  Gd  Gd5  1  0.805204  0.671148  0.000000  1
  Gd  Gd6  1  0.828698  0.695007  0.500000  1
  Y  Y7  1  0.170974  0.305355  0.500000  1
  Be  Be8  1  0.000094  0.999958  0.000000  1
  Be  Be9  1  0.499527  0.499680  0.500000  1
  B  B10  1  0.173756  0.039358  0.228745  1
  B  B11  1  0.961449  0.173925  0.228993  1
  B  B12  1  0.039161  0.826705  0.229005  1
  B  B13  1  0.673190  0.460871  0.271766  1
  B  B14  1  0.326122  0.538577  0.271732  1
  B  B15  1  0.826691  0.961195  0.228945  1
  B  B16  1  0.538830  0.673265  0.271650  1
  B  B17  1  0.460510  0.326198  0.271773  1
  B  B18  1  0.826691  0.961195  0.771055  1
  B  B19  1  0.039161  0.826705  0.770995  1
  B  B20  1  0.961449  0.173925  0.771007  1
  B  B21  1  0.326122  0.538577  0.728268  1
  B  B22  1  0.673190  0.460871  0.728234  1
  B  B23  1  0.173756  0.039358  0.771255  1
  B  B24  1  0.460510  0.326198  0.728227  1
  B  B25  1  0.538830  0.673265  0.728350  1
  B  B26  1  0.088863  0.588793  0.250695  1
  B  B27  1  0.411349  0.088690  0.250241  1
  B  B28  1  0.588818  0.911223  0.250323  1
  B  B29  1  0.911392  0.411143  0.251034  1
  B  B30  1  0.911392  0.411143  0.748966  1
  B  B31  1  0.588818  0.911223  0.749677  1
  B  B32  1  0.411349  0.088690  0.749759  1
  B  B33  1  0.088863  0.588793  0.749305  1
  B  B34  1  0.000330  0.000312  0.388162  1
  B  B35  1  0.499817  0.499702  0.112180  1
  B  B36  1  0.000330  0.000312  0.611838  1
  B  B37  1  0.499817  0.499702  0.887820  1
