# generated using pymatgen
data_Sc12Mn(GeI8)2
_symmetry_space_group_name_H-M   'P 1'
_cell_length_a   9.28439665
_cell_length_b   11.88687159
_cell_length_c   12.59023167
_cell_angle_alpha   116.80191632
_cell_angle_beta   101.42708341
_cell_angle_gamma   100.89079717
_symmetry_Int_Tables_number   1
_chemical_formula_structural   Sc12Mn(GeI8)2
_chemical_formula_sum   'Sc12 Mn1 Ge2 I16'
_cell_volume   1152.50191084
_cell_formula_units_Z   1
loop_
 _symmetry_equiv_pos_site_id
 _symmetry_equiv_pos_as_xyz
  1  'x, y, z'
loop_
 _atom_site_type_symbol
 _atom_site_label
 _atom_site_symmetry_multiplicity
 _atom_site_fract_x
 _atom_site_fract_y
 _atom_site_fract_z
 _atom_site_occupancy
  Sc  Sc0  1  0.082173  0.273561  0.361305  1
  Sc  Sc1  1  0.896408  0.728844  0.640239  1
  Sc  Sc2  1  0.766678  0.535991  0.330847  1
  Sc  Sc3  1  0.211290  0.464156  0.667262  1
  Sc  Sc4  1  0.266240  0.726739  0.638384  1
  Sc  Sc5  1  0.710147  0.270751  0.360054  1
  Sc  Sc6  1  0.137940  0.535795  0.332715  1
  Sc  Sc7  1  0.839934  0.463859  0.669372  1
  Sc  Sc8  1  0.421002  0.362670  0.279695  1
  Sc  Sc9  1  0.605264  0.637434  0.720290  1
  Sc  Sc10  1  0.472677  0.311704  0.520551  1
  Sc  Sc11  1  0.553487  0.688531  0.479286  1
  Mn  Mn12  1  0.659491  0.499986  0.500197  1
  Ge  Ge13  1  0.981625  0.499886  0.500063  1
  Ge  Ge14  1  0.363264  0.500221  0.499812  1
  I  I15  1  0.392965  0.732901  0.872850  1
  I  I16  1  0.605011  0.258410  0.112636  1
  I  I17  1  0.184638  0.957993  0.778631  1
  I  I18  1  0.813721  0.042162  0.221507  1
  I  I19  1  0.341262  0.094264  0.251416  1
  I  I20  1  0.669052  0.905590  0.748320  1
  I  I21  1  0.566634  0.436407  0.799549  1
  I  I22  1  0.442028  0.563964  0.200356  1
  I  I23  1  0.306565  0.819671  0.464275  1
  I  I24  1  0.694181  0.168256  0.537767  1
  I  I25  1  0.170401  0.180115  0.534412  1
  I  I26  1  0.836828  0.831476  0.463599  1
  I  I27  1  0.926741  0.574816  0.164324  1
  I  I28  1  0.072210  0.424891  0.835534  1
  I  I29  1  0.928869  0.741130  0.887743  1
  I  I30  1  0.081274  0.267824  0.127007  1
