# generated using pymatgen
data_LiDy4Y12In(AgRh2)2
_symmetry_space_group_name_H-M   'P 1'
_cell_length_a   9.62603709
_cell_length_b   9.64982000
_cell_length_c   9.62009100
_cell_angle_alpha   59.87447572
_cell_angle_beta   59.95213569
_cell_angle_gamma   59.99957536
_symmetry_Int_Tables_number   1
_chemical_formula_structural   LiDy4Y12In(AgRh2)2
_chemical_formula_sum   'Li1 Dy4 Y12 In1 Ag2 Rh4'
_cell_volume   631.04277590
_cell_formula_units_Z   1
loop_
 _symmetry_equiv_pos_site_id
 _symmetry_equiv_pos_as_xyz
  1  'x, y, z'
loop_
 _atom_site_type_symbol
 _atom_site_label
 _atom_site_symmetry_multiplicity
 _atom_site_fract_x
 _atom_site_fract_y
 _atom_site_fract_z
 _atom_site_occupancy
  Li  Li0  1  0.927387  0.223093  0.928007  1
  Dy  Dy1  1  0.146874  0.555077  0.147209  1
  Dy  Dy2  1  0.310679  0.689749  0.688990  1
  Dy  Dy3  1  0.689261  0.310432  0.688688  1
  Dy  Dy4  1  0.551422  0.148265  0.149009  1
  Y  Y5  1  0.686032  0.314714  0.314581  1
  Y  Y6  1  0.689427  0.690110  0.309485  1
  Y  Y7  1  0.312256  0.688661  0.312142  1
  Y  Y8  1  0.934637  0.936253  0.560078  1
  Y  Y9  1  0.148196  0.147174  0.555511  1
  Y  Y10  1  0.563308  0.935307  0.563133  1
  Y  Y11  1  0.150180  0.149726  0.149307  1
  Y  Y12  1  0.315176  0.315292  0.685097  1
  Y  Y13  1  0.933691  0.567540  0.559897  1
  Y  Y14  1  0.559219  0.566739  0.934355  1
  Y  Y15  1  0.560078  0.936172  0.934015  1
  Y  Y16  1  0.934349  0.566111  0.933944  1
  In  In17  1  0.919953  0.918812  0.921456  1
  Ag  Ag18  1  0.918496  0.918550  0.247293  1
  Ag  Ag19  1  0.247745  0.918238  0.918881  1
  Rh  Rh20  1  0.355971  0.357960  0.353451  1
  Rh  Rh21  1  0.928959  0.357477  0.358753  1
  Rh  Rh22  1  0.359067  0.359550  0.927873  1
  Rh  Rh23  1  0.357633  0.928998  0.358842  1
