# generated using pymatgen
data_La7Tb(PBr6)2
_symmetry_space_group_name_H-M   'P 1'
_cell_length_a   4.27042500
_cell_length_b   13.67146323
_cell_length_c   14.54664613
_cell_angle_alpha   89.39749291
_cell_angle_beta   90.00000000
_cell_angle_gamma   90.00000000
_symmetry_Int_Tables_number   1
_chemical_formula_structural   La7Tb(PBr6)2
_chemical_formula_sum   'La7 Tb1 P2 Br12'
_cell_volume   849.22927868
_cell_formula_units_Z   1
loop_
 _symmetry_equiv_pos_site_id
 _symmetry_equiv_pos_as_xyz
  1  'x, y, z'
loop_
 _atom_site_type_symbol
 _atom_site_label
 _atom_site_symmetry_multiplicity
 _atom_site_fract_x
 _atom_site_fract_y
 _atom_site_fract_z
 _atom_site_occupancy
  La  La0  1  0.500000  0.121460  0.338070  1
  La  La1  1  0.500000  0.881050  0.659092  1
  La  La2  1  0.500000  0.616431  0.159832  1
  La  La3  1  0.500000  0.379643  0.842706  1
  La  La4  1  0.000000  0.116763  0.576248  1
  La  La5  1  0.000000  0.883950  0.422533  1
  La  La6  1  0.000000  0.613819  0.924598  1
  Tb  Tb7  1  0.000000  0.388609  0.073697  1
  P  P8  1  0.500000  0.001063  0.498405  1
  P  P9  1  0.500000  0.495595  0.002860  1
  Br  Br10  1  0.500000  0.256312  0.157345  1
  Br  Br11  1  0.500000  0.754038  0.839409  1
  Br  Br12  1  0.500000  0.742748  0.337640  1
  Br  Br13  1  0.500000  0.255954  0.663221  1
  Br  Br14  1  0.000000  0.258503  0.410799  1
  Br  Br15  1  0.000000  0.742270  0.588556  1
  Br  Br16  1  0.000000  0.755739  0.088576  1
  Br  Br17  1  0.000000  0.245575  0.922896  1
  Br  Br18  1  0.000000  0.002501  0.240750  1
  Br  Br19  1  0.000000  0.998864  0.758047  1
  Br  Br20  1  0.000000  0.490837  0.251453  1
  Br  Br21  1  0.000000  0.498272  0.743266  1
