# generated using pymatgen
data_TbTmP7(RuRh)6
_symmetry_space_group_name_H-M   'P 1'
_cell_length_a   3.87211005
_cell_length_b   9.55348862
_cell_length_c   9.55001037
_cell_angle_alpha   119.98259022
_cell_angle_beta   90.00354964
_cell_angle_gamma   90.00080773
_symmetry_Int_Tables_number   1
_chemical_formula_structural   TbTmP7(RuRh)6
_chemical_formula_sum   'Tb1 Tm1 P7 Ru6 Rh6'
_cell_volume   305.99921923
_cell_formula_units_Z   1
loop_
 _symmetry_equiv_pos_site_id
 _symmetry_equiv_pos_as_xyz
  1  'x, y, z'
loop_
 _atom_site_type_symbol
 _atom_site_label
 _atom_site_symmetry_multiplicity
 _atom_site_fract_x
 _atom_site_fract_y
 _atom_site_fract_z
 _atom_site_occupancy
  Tb  Tb0  1  0.746557  0.333167  0.666564  1
  Tm  Tm1  1  0.253290  0.666833  0.333427  1
  P  P2  1  0.498841  0.000004  0.000009  1
  P  P3  1  0.753865  0.882220  0.596963  1
  P  P4  1  0.753804  0.403310  0.285358  1
  P  P5  1  0.754052  0.714710  0.117825  1
  P  P6  1  0.246123  0.117347  0.402070  1
  P  P7  1  0.246195  0.597667  0.715182  1
  P  P8  1  0.245939  0.284765  0.882621  1
  Ru  Ru9  1  0.742857  0.115101  0.851618  1
  Ru  Ru10  1  0.743136  0.148545  0.263314  1
  Ru  Ru11  1  0.743068  0.736848  0.885226  1
  Ru  Ru12  1  0.257455  0.884700  0.148301  1
  Ru  Ru13  1  0.257178  0.851543  0.736573  1
  Ru  Ru14  1  0.257239  0.263242  0.114955  1
  Rh  Rh15  1  0.752855  0.617282  0.551676  1
  Rh  Rh16  1  0.752943  0.448609  0.065924  1
  Rh  Rh17  1  0.752924  0.934353  0.382757  1
  Rh  Rh18  1  0.247261  0.383892  0.446756  1
  Rh  Rh19  1  0.247183  0.552956  0.936790  1
  Rh  Rh20  1  0.247237  0.062907  0.616092  1
