# generated using pymatgen
data_LiMn(TcSn4)2
_symmetry_space_group_name_H-M   'P 1'
_cell_length_a   7.39979344
_cell_length_b   7.39979249
_cell_length_c   7.39979318
_cell_angle_alpha   125.66922663
_cell_angle_beta   125.66922266
_cell_angle_gamma   80.43247036
_symmetry_Int_Tables_number   1
_chemical_formula_structural   LiMn(TcSn4)2
_chemical_formula_sum   'Li1 Mn1 Tc2 Sn8'
_cell_volume   257.98166720
_cell_formula_units_Z   1
loop_
 _symmetry_equiv_pos_site_id
 _symmetry_equiv_pos_as_xyz
  1  'x, y, z'
loop_
 _atom_site_type_symbol
 _atom_site_label
 _atom_site_symmetry_multiplicity
 _atom_site_fract_x
 _atom_site_fract_y
 _atom_site_fract_z
 _atom_site_occupancy
  Li  Li0  1  0.000000  0.000000  0.000000  1
  Mn  Mn1  1  0.500000  0.500000  0.000000  1
  Tc  Tc2  1  0.253359  0.253359  0.000000  1
  Tc  Tc3  1  0.746641  0.746641  0.000000  1
  Sn  Sn4  1  0.703318  0.523172  0.499801  1
  Sn  Sn5  1  0.523172  0.023370  0.819854  1
  Sn  Sn6  1  0.203517  0.703318  0.180146  1
  Sn  Sn7  1  0.796483  0.296682  0.819854  1
  Sn  Sn8  1  0.476828  0.976630  0.180146  1
  Sn  Sn9  1  0.296682  0.476828  0.500199  1
  Sn  Sn10  1  0.976630  0.796483  0.499801  1
  Sn  Sn11  1  0.023370  0.203517  0.500199  1
