# generated using pymatgen
data_ErTm3(B4Mo)4
_symmetry_space_group_name_H-M   'P 1'
_cell_length_a   3.60047000
_cell_length_b   6.00250405
_cell_length_c   11.60400209
_cell_angle_alpha   90.01448833
_cell_angle_beta   90.00000000
_cell_angle_gamma   90.00000000
_symmetry_Int_Tables_number   1
_chemical_formula_structural   ErTm3(B4Mo)4
_chemical_formula_sum   'Er1 Tm3 B16 Mo4'
_cell_volume   250.78377925
_cell_formula_units_Z   1
loop_
 _symmetry_equiv_pos_site_id
 _symmetry_equiv_pos_as_xyz
  1  'x, y, z'
loop_
 _atom_site_type_symbol
 _atom_site_label
 _atom_site_symmetry_multiplicity
 _atom_site_fract_x
 _atom_site_fract_y
 _atom_site_fract_z
 _atom_site_occupancy
  Er  Er0  1  0.000000  0.873063  0.850187  1
  Tm  Tm1  1  0.000000  0.627014  0.350274  1
  Tm  Tm2  1  0.000000  0.372948  0.649685  1
  Tm  Tm3  1  0.000000  0.127017  0.149768  1
  B  B4  1  0.500000  0.787295  0.186809  1
  B  B5  1  0.500000  0.212972  0.813193  1
  B  B6  1  0.500000  0.287307  0.313224  1
  B  B7  1  0.500000  0.712621  0.686641  1
  B  B8  1  0.500000  0.867655  0.032176  1
  B  B9  1  0.500000  0.132490  0.968073  1
  B  B10  1  0.500000  0.367696  0.467957  1
  B  B11  1  0.500000  0.632248  0.532002  1
  B  B12  1  0.500000  0.884964  0.452213  1
  B  B13  1  0.500000  0.115074  0.547734  1
  B  B14  1  0.500000  0.384960  0.047819  1
  B  B15  1  0.500000  0.614736  0.952384  1
  B  B16  1  0.500000  0.975663  0.305998  1
  B  B17  1  0.500000  0.024482  0.693819  1
  B  B18  1  0.500000  0.475682  0.194026  1
  B  B19  1  0.500000  0.524139  0.806013  1
  Mo  Mo20  1  0.000000  0.630240  0.084264  1
  Mo  Mo21  1  0.000000  0.369698  0.915914  1
  Mo  Mo22  1  0.000000  0.130375  0.415800  1
  Mo  Mo23  1  0.000000  0.869661  0.584027  1
