# generated using pymatgen
data_Sc7Cr(Co4P3)4
_symmetry_space_group_name_H-M   'P 1'
_cell_length_a   12.00450905
_cell_length_b   12.00451002
_cell_length_c   3.61629700
_cell_angle_alpha   90.00000000
_cell_angle_beta   90.00000000
_cell_angle_gamma   120.01085659
_symmetry_Int_Tables_number   1
_chemical_formula_structural   Sc7Cr(Co4P3)4
_chemical_formula_sum   'Sc7 Cr1 Co16 P12'
_cell_volume   451.26956357
_cell_formula_units_Z   1
loop_
 _symmetry_equiv_pos_site_id
 _symmetry_equiv_pos_as_xyz
  1  'x, y, z'
loop_
 _atom_site_type_symbol
 _atom_site_label
 _atom_site_symmetry_multiplicity
 _atom_site_fract_x
 _atom_site_fract_y
 _atom_site_fract_z
 _atom_site_occupancy
  Sc  Sc0  1  0.557484  0.000553  0.000000  1
  Sc  Sc1  1  0.000553  0.557484  0.000000  1
  Sc  Sc2  1  0.666118  0.334250  0.000000  1
  Sc  Sc3  1  0.334250  0.666118  0.000000  1
  Sc  Sc4  1  0.811914  0.811914  0.500000  1
  Sc  Sc5  1  0.182164  0.000766  0.500000  1
  Sc  Sc6  1  0.000766  0.182164  0.500000  1
  Cr  Cr7  1  0.445089  0.445089  0.000000  1
  Co  Co8  1  0.201087  0.373580  0.000000  1
  Co  Co9  1  0.178191  0.808032  0.000000  1
  Co  Co10  1  0.816825  0.624218  0.000000  1
  Co  Co11  1  0.808032  0.178191  0.000000  1
  Co  Co12  1  0.373580  0.201087  0.000000  1
  Co  Co13  1  0.131353  0.481809  0.500000  1
  Co  Co14  1  0.355175  0.877184  0.500000  1
  Co  Co15  1  0.516664  0.640287  0.500000  1
  Co  Co16  1  0.640287  0.516664  0.500000  1
  Co  Co17  1  0.877184  0.355175  0.500000  1
  Co  Co18  1  0.481809  0.131353  0.500000  1
  Co  Co19  1  0.000206  0.000206  0.000000  1
  Co  Co20  1  0.721198  0.997265  0.500000  1
  Co  Co21  1  0.997265  0.721198  0.500000  1
  Co  Co22  1  0.624218  0.816825  0.000000  1
  Co  Co23  1  0.282143  0.282143  0.500000  1
  P  P24  1  0.639715  0.639715  0.000000  1
  P  P25  1  0.351307  0.004550  0.000000  1
  P  P26  1  0.004550  0.351307  0.000000  1
  P  P27  1  0.481690  0.316736  0.500000  1
  P  P28  1  0.691553  0.174453  0.500000  1
  P  P29  1  0.825431  0.514671  0.500000  1
  P  P30  1  0.514671  0.825431  0.500000  1
  P  P31  1  0.174453  0.691553  0.500000  1
  P  P32  1  0.822494  0.997411  0.000000  1
  P  P33  1  0.997411  0.822494  0.000000  1
  P  P34  1  0.316736  0.481690  0.500000  1
  P  P35  1  0.176424  0.176424  0.000000  1
