# generated using pymatgen
data_DyTm11Co4
_symmetry_space_group_name_H-M   'P 1'
_cell_length_a   6.15825037
_cell_length_b   6.89392888
_cell_length_c   9.19745800
_cell_angle_alpha   90.00000000
_cell_angle_beta   90.00000000
_cell_angle_gamma   89.86361552
_symmetry_Int_Tables_number   1
_chemical_formula_structural   DyTm11Co4
_chemical_formula_sum   'Dy1 Tm11 Co4'
_cell_volume   390.47274265
_cell_formula_units_Z   1
loop_
 _symmetry_equiv_pos_site_id
 _symmetry_equiv_pos_as_xyz
  1  'x, y, z'
loop_
 _atom_site_type_symbol
 _atom_site_label
 _atom_site_symmetry_multiplicity
 _atom_site_fract_x
 _atom_site_fract_y
 _atom_site_fract_z
 _atom_site_occupancy
  Dy  Dy0  1  0.635644  0.041739  0.250000  1
  Tm  Tm1  1  0.138360  0.459260  0.750000  1
  Tm  Tm2  1  0.676736  0.323977  0.932730  1
  Tm  Tm3  1  0.362682  0.958354  0.750000  1
  Tm  Tm4  1  0.863034  0.540312  0.250000  1
  Tm  Tm5  1  0.175648  0.177266  0.433980  1
  Tm  Tm6  1  0.823826  0.822439  0.567077  1
  Tm  Tm7  1  0.175648  0.177266  0.066020  1
  Tm  Tm8  1  0.823826  0.822439  0.932923  1
  Tm  Tm9  1  0.676736  0.323977  0.567270  1
  Tm  Tm10  1  0.323352  0.676237  0.066630  1
  Tm  Tm11  1  0.323352  0.676237  0.433370  1
  Co  Co12  1  0.545961  0.613144  0.750000  1
  Co  Co13  1  0.954855  0.113112  0.750000  1
  Co  Co14  1  0.047339  0.886161  0.250000  1
  Co  Co15  1  0.453001  0.388082  0.250000  1
