# generated using pymatgen
data_Dy4Co7GeO20
_symmetry_space_group_name_H-M   'P 1'
_cell_length_a   5.67094400
_cell_length_b   7.25719223
_cell_length_c   8.44903212
_cell_angle_alpha   90.06284190
_cell_angle_beta   90.00000000
_cell_angle_gamma   90.00000000
_symmetry_Int_Tables_number   1
_chemical_formula_structural   Dy4Co7GeO20
_chemical_formula_sum   'Dy4 Co7 Ge1 O20'
_cell_volume   347.72081225
_cell_formula_units_Z   1
loop_
 _symmetry_equiv_pos_site_id
 _symmetry_equiv_pos_as_xyz
  1  'x, y, z'
loop_
 _atom_site_type_symbol
 _atom_site_label
 _atom_site_symmetry_multiplicity
 _atom_site_fract_x
 _atom_site_fract_y
 _atom_site_fract_z
 _atom_site_occupancy
  Dy  Dy0  1  0.002768  0.859696  0.829337  1
  Dy  Dy1  1  0.002768  0.140304  0.170663  1
  Dy  Dy2  1  0.001479  0.361637  0.673672  1
  Dy  Dy3  1  0.001479  0.638363  0.326328  1
  Co  Co4  1  0.500653  0.585981  0.650574  1
  Co  Co5  1  0.500653  0.414019  0.349426  1
  Co  Co6  1  0.501870  0.908958  0.149225  1
  Co  Co7  1  0.501870  0.091042  0.850775  1
  Co  Co8  1  0.254053  0.500000  0.000000  1
  Co  Co9  1  0.742165  0.500000  0.000000  1
  Co  Co10  1  0.254464  0.000000  0.500000  1
  Ge  Ge11  1  0.741083  0.000000  0.500000  1
  O  O12  1  0.998075  0.337838  0.947173  1
  O  O13  1  0.727252  0.000000  0.000000  1
  O  O14  1  0.274424  0.000000  0.000000  1
  O  O15  1  0.497295  0.154348  0.433166  1
  O  O16  1  0.997966  0.162846  0.445613  1
  O  O17  1  0.730034  0.500000  0.500000  1
  O  O18  1  0.997966  0.837154  0.554387  1
  O  O19  1  0.753961  0.599705  0.791815  1
  O  O20  1  0.244258  0.101648  0.707755  1
  O  O21  1  0.499082  0.653261  0.062728  1
  O  O22  1  0.499082  0.346739  0.937272  1
  O  O23  1  0.998075  0.662162  0.052827  1
  O  O24  1  0.758319  0.895672  0.289220  1
  O  O25  1  0.753961  0.400295  0.208185  1
  O  O26  1  0.758319  0.104328  0.710780  1
  O  O27  1  0.243290  0.598280  0.792920  1
  O  O28  1  0.278492  0.500000  0.500000  1
  O  O29  1  0.244258  0.898352  0.292245  1
  O  O30  1  0.243290  0.401720  0.207080  1
  O  O31  1  0.497295  0.845652  0.566834  1
