# generated using pymatgen
data_Pu5PaSe8
_symmetry_space_group_name_H-M   'P 1'
_cell_length_a   7.59578798
_cell_length_b   7.59578739
_cell_length_c   7.59578871
_cell_angle_alpha   109.49598471
_cell_angle_beta   109.49598838
_cell_angle_gamma   109.42170017
_symmetry_Int_Tables_number   1
_chemical_formula_structural   Pu5PaSe8
_chemical_formula_sum   'Pu5 Pa1 Se8'
_cell_volume   337.36216516
_cell_formula_units_Z   1
loop_
 _symmetry_equiv_pos_site_id
 _symmetry_equiv_pos_as_xyz
  1  'x, y, z'
loop_
 _atom_site_type_symbol
 _atom_site_label
 _atom_site_symmetry_multiplicity
 _atom_site_fract_x
 _atom_site_fract_y
 _atom_site_fract_z
 _atom_site_occupancy
  Pu  Pu0  1  0.375000  0.625000  0.750000  1
  Pu  Pu1  1  0.872873  0.249393  0.125456  1
  Pu  Pu2  1  0.623937  0.747417  0.374544  1
  Pu  Pu3  1  0.252583  0.127127  0.876520  1
  Pu  Pu4  1  0.750607  0.376063  0.623480  1
  Pa  Pa5  1  0.125000  0.875000  0.250000  1
  Se  Se6  1  0.348096  0.346783  0.349787  1
  Se  Se7  1  0.147715  0.501752  0.002344  1
  Se  Se8  1  0.999409  0.145371  0.497656  1
  Se  Se9  1  0.854629  0.852285  0.854038  1
  Se  Se10  1  0.496996  0.998309  0.150213  1
  Se  Se11  1  0.653217  0.503004  0.001314  1
  Se  Se12  1  0.498248  0.000591  0.645962  1
  Se  Se13  1  0.001691  0.651904  0.498686  1
