# generated using pymatgen
data_SrLiTb3Al17Pd6
_symmetry_space_group_name_H-M   'P 1'
_cell_length_a   7.65763161
_cell_length_b   7.66154552
_cell_length_c   9.53646300
_cell_angle_alpha   90.00000000
_cell_angle_beta   90.00000000
_cell_angle_gamma   119.25848677
_symmetry_Int_Tables_number   1
_chemical_formula_structural   SrLiTb3Al17Pd6
_chemical_formula_sum   'Sr1 Li1 Tb3 Al17 Pd6'
_cell_volume   488.11887320
_cell_formula_units_Z   1
loop_
 _symmetry_equiv_pos_site_id
 _symmetry_equiv_pos_as_xyz
  1  'x, y, z'
loop_
 _atom_site_type_symbol
 _atom_site_label
 _atom_site_symmetry_multiplicity
 _atom_site_fract_x
 _atom_site_fract_y
 _atom_site_fract_z
 _atom_site_occupancy
  Sr  Sr0  1  0.008210  0.329141  0.750000  1
  Li  Li1  1  0.128937  0.127971  0.250000  1
  Tb  Tb2  1  0.995048  0.662731  0.250000  1
  Tb  Tb3  1  0.666041  0.996331  0.250000  1
  Tb  Tb4  1  0.327184  0.005798  0.750000  1
  Al  Al5  1  0.866516  0.860421  0.750000  1
  Al  Al6  1  0.002407  0.328669  0.084339  1
  Al  Al7  1  0.999392  0.666728  0.929049  1
  Al  Al8  1  0.999392  0.666728  0.570951  1
  Al  Al9  1  0.328651  0.000827  0.416420  1
  Al  Al10  1  0.002407  0.328669  0.415661  1
  Al  Al11  1  0.662543  0.998049  0.571468  1
  Al  Al12  1  0.662543  0.998049  0.928532  1
  Al  Al13  1  0.328651  0.000827  0.083580  1
  Al  Al14  1  0.337186  0.335325  0.537333  1
  Al  Al15  1  0.672448  0.672277  0.437406  1
  Al  Al16  1  0.672448  0.672277  0.062594  1
  Al  Al17  1  0.337186  0.335325  0.962667  1
  Al  Al18  1  0.342094  0.544819  0.250000  1
  Al  Al19  1  0.649051  0.449300  0.750000  1
  Al  Al20  1  0.541099  0.341287  0.250000  1
  Al  Al21  1  0.458355  0.666780  0.750000  1
  Pd  Pd22  1  0.674948  0.330296  0.002829  1
  Pd  Pd23  1  0.331647  0.677023  0.002179  1
  Pd  Pd24  1  0.331647  0.677023  0.497821  1
  Pd  Pd25  1  0.674948  0.330296  0.497171  1
  Pd  Pd26  1  0.999511  0.998515  0.996033  1
  Pd  Pd27  1  0.999511  0.998515  0.503967  1
