# generated using pymatgen
data_TbDy4Tm5Sn6
_symmetry_space_group_name_H-M   'P 1'
_cell_length_a   6.48501800
_cell_length_b   8.92559978
_cell_length_c   8.93410820
_cell_angle_alpha   120.05006461
_cell_angle_beta   90.00000183
_cell_angle_gamma   89.99998794
_symmetry_Int_Tables_number   1
_chemical_formula_structural   TbDy4Tm5Sn6
_chemical_formula_sum   'Tb1 Dy4 Tm5 Sn6'
_cell_volume   447.62168637
_cell_formula_units_Z   1
loop_
 _symmetry_equiv_pos_site_id
 _symmetry_equiv_pos_as_xyz
  1  'x, y, z'
loop_
 _atom_site_type_symbol
 _atom_site_label
 _atom_site_symmetry_multiplicity
 _atom_site_fract_x
 _atom_site_fract_y
 _atom_site_fract_z
 _atom_site_occupancy
  Tb  Tb0  1  0.249998  0.239270  0.239058  1
  Dy  Dy1  1  0.750000  0.239071  0.999645  1
  Dy  Dy2  1  0.749999  0.760972  0.760722  1
  Dy  Dy3  1  0.750000  0.999890  0.240037  1
  Dy  Dy4  1  0.250002  0.760603  0.999745  1
  Tm  Tm5  1  0.499896  0.333301  0.666780  1
  Tm  Tm6  1  0.499900  0.666743  0.333422  1
  Tm  Tm7  1  0.000103  0.666750  0.333418  1
  Tm  Tm8  1  0.000102  0.333314  0.666781  1
  Tm  Tm9  1  0.249999  0.999969  0.760193  1
  Sn  Sn10  1  0.749998  0.604116  0.999911  1
  Sn  Sn11  1  0.750001  0.395816  0.395744  1
  Sn  Sn12  1  0.750002  0.999976  0.604081  1
  Sn  Sn13  1  0.249998  0.394793  0.998964  1
  Sn  Sn14  1  0.250000  0.605627  0.604806  1
  Sn  Sn15  1  0.250002  0.999793  0.396691  1
