# generated using pymatgen
data_Tb4Er4Lu4Co5Bi
_symmetry_space_group_name_H-M   'P 1'
_cell_length_a   8.22709431
_cell_length_b   8.22585359
_cell_length_c   8.22709453
_cell_angle_alpha   111.26979819
_cell_angle_beta   110.50338565
_cell_angle_gamma   106.68295036
_symmetry_Int_Tables_number   1
_chemical_formula_structural   Tb4Er4Lu4Co5Bi
_chemical_formula_sum   'Tb4 Er4 Lu4 Co5 Bi1'
_cell_volume   427.79045371
_cell_formula_units_Z   1
loop_
 _symmetry_equiv_pos_site_id
 _symmetry_equiv_pos_as_xyz
  1  'x, y, z'
loop_
 _atom_site_type_symbol
 _atom_site_label
 _atom_site_symmetry_multiplicity
 _atom_site_fract_x
 _atom_site_fract_y
 _atom_site_fract_z
 _atom_site_occupancy
  Tb  Tb0  1  0.596272  0.791681  0.804615  1
  Tb  Tb1  1  0.403728  0.208319  0.195385  1
  Tb  Tb2  1  0.987067  0.791681  0.195409  1
  Tb  Tb3  1  0.012933  0.208319  0.804591  1
  Er  Er4  1  0.817045  0.710394  0.527433  1
  Er  Er5  1  0.182955  0.289606  0.472567  1
  Er  Er6  1  0.182961  0.710394  0.893350  1
  Er  Er7  1  0.817039  0.289606  0.106650  1
  Lu  Lu8  1  0.686543  0.375641  0.689098  1
  Lu  Lu9  1  0.313457  0.624359  0.310902  1
  Lu  Lu10  1  0.686575  0.997442  0.310867  1
  Lu  Lu11  1  0.313425  0.002558  0.689133  1
  Co  Co12  1  0.623084  0.000000  0.623084  1
  Co  Co13  1  0.376916  0.000000  0.376916  1
  Co  Co14  1  0.112366  0.612384  0.500018  1
  Co  Co15  1  0.887634  0.387616  0.499982  1
  Co  Co16  1  0.000000  0.000000  0.000000  1
  Bi  Bi17  1  0.500000  0.500000  0.000000  1
