# generated using pymatgen
data_YHoPa2(ReN3)4
_symmetry_space_group_name_H-M   'P 1'
_cell_length_a   5.33612623
_cell_length_b   5.76222325
_cell_length_c   7.75571500
_cell_angle_alpha   90.00000000
_cell_angle_beta   90.00000000
_cell_angle_gamma   89.96642403
_symmetry_Int_Tables_number   1
_chemical_formula_structural   YHoPa2(ReN3)4
_chemical_formula_sum   'Y1 Ho1 Pa2 Re4 N12'
_cell_volume   238.47230080
_cell_formula_units_Z   1
loop_
 _symmetry_equiv_pos_site_id
 _symmetry_equiv_pos_as_xyz
  1  'x, y, z'
loop_
 _atom_site_type_symbol
 _atom_site_label
 _atom_site_symmetry_multiplicity
 _atom_site_fract_x
 _atom_site_fract_y
 _atom_site_fract_z
 _atom_site_occupancy
  Y  Y0  1  0.982008  0.067650  0.750000  1
  Ho  Ho1  1  0.518456  0.568262  0.750000  1
  Pa  Pa2  1  0.477061  0.424566  0.250000  1
  Pa  Pa3  1  0.022982  0.924567  0.250000  1
  Re  Re4  1  0.508956  0.000104  0.509223  1
  Re  Re5  1  0.991002  0.500360  0.990815  1
  Re  Re6  1  0.991002  0.500360  0.509185  1
  Re  Re7  1  0.508956  0.000104  0.990777  1
  N  N8  1  0.697172  0.293436  0.548151  1
  N  N9  1  0.312433  0.696879  0.062467  1
  N  N10  1  0.187489  0.196902  0.062565  1
  N  N11  1  0.412179  0.983114  0.750000  1
  N  N12  1  0.882457  0.544262  0.250000  1
  N  N13  1  0.312433  0.696879  0.437533  1
  N  N14  1  0.801191  0.791747  0.952368  1
  N  N15  1  0.697172  0.293436  0.951849  1
  N  N16  1  0.801191  0.791747  0.547632  1
  N  N17  1  0.090540  0.484442  0.750000  1
  N  N18  1  0.187489  0.196902  0.437435  1
  N  N19  1  0.617830  0.044280  0.250000  1
