# generated using pymatgen
data_TbDy4Pt9
_symmetry_space_group_name_H-M   'P 1'
_cell_length_a   9.79839629
_cell_length_b   9.79128329
_cell_length_c   5.78499700
_cell_angle_alpha   90.00000000
_cell_angle_beta   90.00000000
_cell_angle_gamma   90.02789084
_symmetry_Int_Tables_number   1
_chemical_formula_structural   TbDy4Pt9
_chemical_formula_sum   'Tb2 Dy8 Pt18'
_cell_volume   555.00603174
_cell_formula_units_Z   2
loop_
 _symmetry_equiv_pos_site_id
 _symmetry_equiv_pos_as_xyz
  1  'x, y, z'
loop_
 _atom_site_type_symbol
 _atom_site_label
 _atom_site_symmetry_multiplicity
 _atom_site_fract_x
 _atom_site_fract_y
 _atom_site_fract_z
 _atom_site_occupancy
  Tb  Tb0  1  0.452512  0.808873  0.000000  1
  Tb  Tb1  1  0.547488  0.191127  0.000000  1
  Dy  Dy2  1  0.191014  0.547456  0.000000  1
  Dy  Dy3  1  0.808986  0.452544  0.000000  1
  Dy  Dy4  1  0.500000  0.500000  0.500000  1
  Dy  Dy5  1  0.308865  0.047516  0.500000  1
  Dy  Dy6  1  0.691135  0.952484  0.500000  1
  Dy  Dy7  1  0.952515  0.691074  0.500000  1
  Dy  Dy8  1  0.047485  0.308926  0.500000  1
  Dy  Dy9  1  0.000000  0.000000  0.000000  1
  Pt  Pt10  1  0.191611  0.808179  0.250742  1
  Pt  Pt11  1  0.808389  0.191821  0.749258  1
  Pt  Pt12  1  0.808389  0.191821  0.250742  1
  Pt  Pt13  1  0.191611  0.808179  0.749258  1
  Pt  Pt14  1  0.440262  0.781809  0.500000  1
  Pt  Pt15  1  0.559738  0.218191  0.500000  1
  Pt  Pt16  1  0.218183  0.559734  0.500000  1
  Pt  Pt17  1  0.781817  0.440266  0.500000  1
  Pt  Pt18  1  0.308023  0.308254  0.249587  1
  Pt  Pt19  1  0.691977  0.691746  0.750413  1
  Pt  Pt20  1  0.691977  0.691746  0.249587  1
  Pt  Pt21  1  0.308023  0.308254  0.750413  1
  Pt  Pt22  1  0.281528  0.059817  0.000000  1
  Pt  Pt23  1  0.718472  0.940183  0.000000  1
  Pt  Pt24  1  0.940275  0.718153  0.000000  1
  Pt  Pt25  1  0.059725  0.281847  0.000000  1
  Pt  Pt26  1  0.000000  0.000000  0.500000  1
  Pt  Pt27  1  0.500000  0.500000  0.000000  1
