# generated using pymatgen
data_La2B6Ir2Rh7
_symmetry_space_group_name_H-M   'P 1'
_cell_length_a   5.69766252
_cell_length_b   5.69760898
_cell_length_c   8.60152203
_cell_angle_alpha   89.99901516
_cell_angle_beta   89.99573922
_cell_angle_gamma   119.91657117
_symmetry_Int_Tables_number   1
_chemical_formula_structural   La2B6Ir2Rh7
_chemical_formula_sum   'La2 B6 Ir2 Rh7'
_cell_volume   242.02475494
_cell_formula_units_Z   1
loop_
 _symmetry_equiv_pos_site_id
 _symmetry_equiv_pos_as_xyz
  1  'x, y, z'
loop_
 _atom_site_type_symbol
 _atom_site_label
 _atom_site_symmetry_multiplicity
 _atom_site_fract_x
 _atom_site_fract_y
 _atom_site_fract_z
 _atom_site_occupancy
  La  La0  1  0.000019  0.999994  0.288350  1
  La  La1  1  0.999992  0.000004  0.711788  1
  B  B2  1  0.333336  0.666660  0.999991  1
  B  B3  1  0.666637  0.333344  0.999991  1
  B  B4  1  0.332742  0.667249  0.333383  1
  B  B5  1  0.667249  0.332751  0.333383  1
  B  B6  1  0.667235  0.332756  0.666596  1
  B  B7  1  0.332750  0.667247  0.666594  1
  Ir  Ir8  1  0.499997  0.000009  0.500001  1
  Ir  Ir9  1  0.999999  0.499995  0.499999  1
  Rh  Rh10  1  0.499962  0.000005  0.162488  1
  Rh  Rh11  1  0.499968  0.499980  0.162811  1
  Rh  Rh12  1  0.999989  0.499998  0.162519  1
  Rh  Rh13  1  0.500026  0.000012  0.837474  1
  Rh  Rh14  1  0.499980  0.499988  0.837164  1
  Rh  Rh15  1  0.000001  0.499997  0.837462  1
  Rh  Rh16  1  0.500015  0.500011  0.500006  1
