# generated using pymatgen
data_TbLu5Np3O18
_symmetry_space_group_name_H-M   'P 1'
_cell_length_a   9.39194004
_cell_length_b   9.39066573
_cell_length_c   5.05480201
_cell_angle_alpha   90.00000124
_cell_angle_beta   90.00552938
_cell_angle_gamma   119.99551703
_symmetry_Int_Tables_number   1
_chemical_formula_structural   TbLu5Np3O18
_chemical_formula_sum   'Tb1 Lu5 Np3 O18'
_cell_volume   386.10558875
_cell_formula_units_Z   1
loop_
 _symmetry_equiv_pos_site_id
 _symmetry_equiv_pos_as_xyz
  1  'x, y, z'
loop_
 _atom_site_type_symbol
 _atom_site_label
 _atom_site_symmetry_multiplicity
 _atom_site_fract_x
 _atom_site_fract_y
 _atom_site_fract_z
 _atom_site_occupancy
  Tb  Tb0  1  0.000000  0.629126  0.000000  1
  Lu  Lu1  1  0.000000  0.293676  0.500000  1
  Lu  Lu2  1  0.368204  0.368378  0.000618  1
  Lu  Lu3  1  0.294484  0.000097  0.500243  1
  Lu  Lu4  1  0.705516  0.705614  0.499757  1
  Lu  Lu5  1  0.631796  0.000173  0.999382  1
  Np  Np6  1  0.336017  0.666789  0.500446  1
  Np  Np7  1  0.000000  0.002571  0.000000  1
  Np  Np8  1  0.663983  0.330771  0.499554  1
  O  O9  1  0.091923  0.882052  0.777948  1
  O  O10  1  0.222745  0.770029  0.282873  1
  O  O11  1  0.122896  0.536456  0.717990  1
  O  O12  1  0.419299  0.879309  0.727481  1
  O  O13  1  0.232672  0.451847  0.274124  1
  O  O14  1  0.122929  0.216175  0.781458  1
  O  O15  1  0.214979  0.123472  0.219863  1
  O  O16  1  0.549966  0.782139  0.277437  1
  O  O17  1  0.461306  0.579281  0.723329  1
  O  O18  1  0.785021  0.908493  0.780137  1
  O  O19  1  0.450034  0.232174  0.722563  1
  O  O20  1  0.580701  0.460011  0.272519  1
  O  O21  1  0.538694  0.117975  0.276671  1
  O  O22  1  0.777255  0.547284  0.717127  1
  O  O23  1  0.908077  0.790129  0.222052  1
  O  O24  1  0.767328  0.219175  0.725876  1
  O  O25  1  0.877104  0.413561  0.282010  1
  O  O26  1  0.877071  0.093245  0.218542  1
