# generated using pymatgen
data_TbDy4Y5Pb6
_symmetry_space_group_name_H-M   'P 1'
_cell_length_a   9.06501600
_cell_length_b   9.06966720
_cell_length_c   6.65469600
_cell_angle_alpha   90.00000000
_cell_angle_beta   90.00000000
_cell_angle_gamma   119.98302988
_symmetry_Int_Tables_number   1
_chemical_formula_structural   TbDy4Y5Pb6
_chemical_formula_sum   'Tb1 Dy4 Y5 Pb6'
_cell_volume   473.90688555
_cell_formula_units_Z   1
loop_
 _symmetry_equiv_pos_site_id
 _symmetry_equiv_pos_as_xyz
  1  'x, y, z'
loop_
 _atom_site_type_symbol
 _atom_site_label
 _atom_site_symmetry_multiplicity
 _atom_site_fract_x
 _atom_site_fract_y
 _atom_site_fract_z
 _atom_site_occupancy
  Tb  Tb0  1  0.761654  0.000000  0.750000  1
  Dy  Dy1  1  0.333324  0.666669  0.000005  1
  Dy  Dy2  1  0.666657  0.333331  0.000005  1
  Dy  Dy3  1  0.333324  0.666669  0.499995  1
  Dy  Dy4  1  0.666657  0.333331  0.499995  1
  Y  Y5  1  0.238335  0.238318  0.750000  1
  Y  Y6  1  0.238356  0.000000  0.250000  1
  Y  Y7  1  0.000018  0.761682  0.750000  1
  Y  Y8  1  0.761578  0.761641  0.250000  1
  Y  Y9  1  0.999937  0.238359  0.250000  1
  Pb  Pb10  1  0.000020  0.394760  0.750000  1
  Pb  Pb11  1  0.394705  0.394675  0.250000  1
  Pb  Pb12  1  0.605468  0.000000  0.250000  1
  Pb  Pb13  1  0.605260  0.605240  0.750000  1
  Pb  Pb14  1  0.394676  0.000000  0.750000  1
  Pb  Pb15  1  0.000031  0.605325  0.250000  1
