# generated using pymatgen
data_Tb5EuRuO12
_symmetry_space_group_name_H-M   'P 1'
_cell_length_a   6.50153903
_cell_length_b   6.53078113
_cell_length_c   6.51454928
_cell_angle_alpha   98.81612649
_cell_angle_beta   98.42936943
_cell_angle_gamma   98.37481854
_symmetry_Int_Tables_number   1
_chemical_formula_structural   Tb5EuRuO12
_chemical_formula_sum   'Tb5 Eu1 Ru1 O12'
_cell_volume   266.35893335
_cell_formula_units_Z   1
loop_
 _symmetry_equiv_pos_site_id
 _symmetry_equiv_pos_as_xyz
  1  'x, y, z'
loop_
 _atom_site_type_symbol
 _atom_site_label
 _atom_site_symmetry_multiplicity
 _atom_site_fract_x
 _atom_site_fract_y
 _atom_site_fract_z
 _atom_site_occupancy
  Tb  Tb0  1  0.144121  0.307374  0.615131  1
  Tb  Tb1  1  0.388953  0.860494  0.698088  1
  Tb  Tb2  1  0.690491  0.385028  0.857842  1
  Tb  Tb3  1  0.307220  0.609807  0.138544  1
  Tb  Tb4  1  0.610323  0.142899  0.307082  1
  Eu  Eu5  1  0.857310  0.692035  0.398557  1
  Ru  Ru6  1  0.999816  0.999173  0.000979  1
  O  O7  1  0.067387  0.299594  0.965267  1
  O  O8  1  0.043221  0.941546  0.703669  1
  O  O9  1  0.408302  0.562245  0.819396  1
  O  O10  1  0.174457  0.592059  0.436497  1
  O  O11  1  0.700334  0.036231  0.930818  1
  O  O12  1  0.437607  0.174697  0.589710  1
  O  O13  1  0.562611  0.819951  0.408115  1
  O  O14  1  0.300617  0.961143  0.069156  1
  O  O15  1  0.822931  0.404110  0.564344  1
  O  O16  1  0.586165  0.433919  0.176281  1
  O  O17  1  0.966545  0.073358  0.295082  1
  O  O18  1  0.931588  0.704337  0.025442  1
