# generated using pymatgen
data_YbEr3Ga15(SiIr2)3
_symmetry_space_group_name_H-M   'P 1'
_cell_length_a   7.56079453
_cell_length_b   7.48993549
_cell_length_c   9.46347828
_cell_angle_alpha   89.94405699
_cell_angle_beta   89.91062887
_cell_angle_gamma   119.89881400
_symmetry_Int_Tables_number   1
_chemical_formula_structural   YbEr3Ga15(SiIr2)3
_chemical_formula_sum   'Yb1 Er3 Ga15 Si3 Ir6'
_cell_volume   464.58740216
_cell_formula_units_Z   1
loop_
 _symmetry_equiv_pos_site_id
 _symmetry_equiv_pos_as_xyz
  1  'x, y, z'
loop_
 _atom_site_type_symbol
 _atom_site_label
 _atom_site_symmetry_multiplicity
 _atom_site_fract_x
 _atom_site_fract_y
 _atom_site_fract_z
 _atom_site_occupancy
  Yb  Yb0  1  0.324059  0.993728  0.749911  1
  Er  Er1  1  0.996658  0.666166  0.248090  1
  Er  Er2  1  0.004717  0.340419  0.750645  1
  Er  Er3  1  0.673547  0.003921  0.247390  1
  Ga  Ga4  1  0.129480  0.127643  0.250852  1
  Ga  Ga5  1  0.872276  0.869528  0.750914  1
  Ga  Ga6  1  0.340619  0.004412  0.420586  1
  Ga  Ga7  1  0.999753  0.327923  0.420517  1
  Ga  Ga8  1  0.665295  0.002440  0.580883  1
  Ga  Ga9  1  0.660601  0.998634  0.917077  1
  Ga  Ga10  1  0.339298  0.003020  0.080359  1
  Ga  Ga11  1  0.332548  0.327758  0.569983  1
  Ga  Ga12  1  0.660747  0.669201  0.431089  1
  Ga  Ga13  1  0.660890  0.668772  0.071036  1
  Ga  Ga14  1  0.337409  0.328748  0.928914  1
  Ga  Ga15  1  0.335750  0.546608  0.251098  1
  Ga  Ga16  1  0.662903  0.455034  0.751730  1
  Ga  Ga17  1  0.549295  0.341286  0.250786  1
  Ga  Ga18  1  0.452359  0.661523  0.750793  1
  Si  Si19  1  0.000600  0.328719  0.072544  1
  Si  Si20  1  0.998906  0.670728  0.930111  1
  Si  Si21  1  0.000748  0.666037  0.566988  1
  Ir  Ir22  1  0.696983  0.343086  0.003412  1
  Ir  Ir23  1  0.303462  0.655949  0.999233  1
  Ir  Ir24  1  0.315515  0.668287  0.502721  1
  Ir  Ir25  1  0.686544  0.343672  0.500738  1
  Ir  Ir26  1  0.999196  0.000087  0.001423  1
  Ir  Ir27  1  0.999841  0.986671  0.500176  1
