# generated using pymatgen
data_Tb10CoAg3
_symmetry_space_group_name_H-M   'P 1'
_cell_length_a   9.51995900
_cell_length_b   9.51995982
_cell_length_c   9.62456100
_cell_angle_alpha   90.00000000
_cell_angle_beta   90.00000000
_cell_angle_gamma   120.00000061
_symmetry_Int_Tables_number   1
_chemical_formula_structural   Tb10CoAg3
_chemical_formula_sum   'Tb20 Co2 Ag6'
_cell_volume   755.40829948
_cell_formula_units_Z   2
loop_
 _symmetry_equiv_pos_site_id
 _symmetry_equiv_pos_as_xyz
  1  'x, y, z'
loop_
 _atom_site_type_symbol
 _atom_site_label
 _atom_site_symmetry_multiplicity
 _atom_site_fract_x
 _atom_site_fract_y
 _atom_site_fract_z
 _atom_site_occupancy
  Tb  Tb0  1  0.000000  0.000000  0.500000  1
  Tb  Tb1  1  0.000000  0.000000  0.000000  1
  Tb  Tb2  1  0.543526  0.456474  0.250000  1
  Tb  Tb3  1  0.543526  0.087054  0.250000  1
  Tb  Tb4  1  0.912946  0.456474  0.250000  1
  Tb  Tb5  1  0.456474  0.543526  0.750000  1
  Tb  Tb6  1  0.456474  0.912946  0.750000  1
  Tb  Tb7  1  0.087054  0.543526  0.750000  1
  Tb  Tb8  1  0.210646  0.789354  0.437789  1
  Tb  Tb9  1  0.210646  0.421293  0.437789  1
  Tb  Tb10  1  0.578707  0.789354  0.437789  1
  Tb  Tb11  1  0.789354  0.210646  0.562211  1
  Tb  Tb12  1  0.789354  0.578707  0.562211  1
  Tb  Tb13  1  0.421293  0.210646  0.562211  1
  Tb  Tb14  1  0.789354  0.210646  0.937789  1
  Tb  Tb15  1  0.789354  0.578707  0.937789  1
  Tb  Tb16  1  0.421293  0.210646  0.937789  1
  Tb  Tb17  1  0.210646  0.789354  0.062211  1
  Tb  Tb18  1  0.210646  0.421293  0.062211  1
  Tb  Tb19  1  0.578707  0.789354  0.062211  1
  Co  Co20  1  0.333333  0.666667  0.250000  1
  Co  Co21  1  0.666667  0.333333  0.750000  1
  Ag  Ag22  1  0.883488  0.116512  0.250000  1
  Ag  Ag23  1  0.883488  0.766974  0.250000  1
  Ag  Ag24  1  0.233026  0.116512  0.250000  1
  Ag  Ag25  1  0.116512  0.883488  0.750000  1
  Ag  Ag26  1  0.116512  0.233026  0.750000  1
  Ag  Ag27  1  0.766974  0.883488  0.750000  1
