# generated using pymatgen
data_Y3ErAl18(PdRh)3
_symmetry_space_group_name_H-M   'P 1'
_cell_length_a   7.59874659
_cell_length_b   7.60119319
_cell_length_c   9.46015902
_cell_angle_alpha   89.98730464
_cell_angle_beta   89.98325865
_cell_angle_gamma   119.59282978
_symmetry_Int_Tables_number   1
_chemical_formula_structural   Y3ErAl18(PdRh)3
_chemical_formula_sum   'Y3 Er1 Al18 Pd3 Rh3'
_cell_volume   475.13829574
_cell_formula_units_Z   1
loop_
 _symmetry_equiv_pos_site_id
 _symmetry_equiv_pos_as_xyz
  1  'x, y, z'
loop_
 _atom_site_type_symbol
 _atom_site_label
 _atom_site_symmetry_multiplicity
 _atom_site_fract_x
 _atom_site_fract_y
 _atom_site_fract_z
 _atom_site_occupancy
  Y  Y0  1  0.995646  0.670034  0.750364  1
  Y  Y1  1  0.006013  0.330881  0.249797  1
  Y  Y2  1  0.669025  0.993902  0.750210  1
  Er  Er3  1  0.329708  0.004490  0.249548  1
  Al  Al4  1  0.126010  0.126662  0.750701  1
  Al  Al5  1  0.873806  0.874256  0.249294  1
  Al  Al6  1  0.000690  0.331260  0.575928  1
  Al  Al7  1  0.999371  0.669430  0.422983  1
  Al  Al8  1  0.996787  0.665406  0.075122  1
  Al  Al9  1  0.334978  0.003645  0.925928  1
  Al  Al10  1  0.996137  0.330751  0.925522  1
  Al  Al11  1  0.668675  0.003863  0.075046  1
  Al  Al12  1  0.668155  0.999368  0.423543  1
  Al  Al13  1  0.331099  0.001180  0.575921  1
  Al  Al14  1  0.332736  0.329254  0.052671  1
  Al  Al15  1  0.670401  0.667269  0.948095  1
  Al  Al16  1  0.669366  0.669307  0.555123  1
  Al  Al17  1  0.330733  0.330240  0.444071  1
  Al  Al18  1  0.340397  0.545590  0.750680  1
  Al  Al19  1  0.658405  0.451005  0.246690  1
  Al  Al20  1  0.548250  0.340813  0.753393  1
  Al  Al21  1  0.454310  0.660172  0.249322  1
  Pd  Pd22  1  0.672147  0.327519  0.499935  1
  Pd  Pd23  1  0.327419  0.672833  0.499896  1
  Pd  Pd24  1  0.327420  0.672826  0.000090  1
  Rh  Rh25  1  0.671739  0.327901  0.000220  1
  Rh  Rh26  1  0.000156  0.000157  0.499827  1
  Rh  Rh27  1  0.000423  0.999984  0.000080  1
