# generated using pymatgen
data_TbTm3Nb2(B2Ru5)2
_symmetry_space_group_name_H-M   'P 1'
_cell_length_a   9.64716764
_cell_length_b   9.64908863
_cell_length_c   3.12074500
_cell_angle_alpha   90.00000000
_cell_angle_beta   90.00000000
_cell_angle_gamma   90.13441291
_symmetry_Int_Tables_number   1
_chemical_formula_structural   TbTm3Nb2(B2Ru5)2
_chemical_formula_sum   'Tb1 Tm3 Nb2 B4 Ru10'
_cell_volume   290.49804194
_cell_formula_units_Z   1
loop_
 _symmetry_equiv_pos_site_id
 _symmetry_equiv_pos_as_xyz
  1  'x, y, z'
loop_
 _atom_site_type_symbol
 _atom_site_label
 _atom_site_symmetry_multiplicity
 _atom_site_fract_x
 _atom_site_fract_y
 _atom_site_fract_z
 _atom_site_occupancy
  Tb  Tb0  1  0.825512  0.674495  0.000000  1
  Tm  Tm1  1  0.175017  0.324998  0.000000  1
  Tm  Tm2  1  0.325549  0.825495  0.000000  1
  Tm  Tm3  1  0.674487  0.174452  0.000000  1
  Nb  Nb4  1  0.499400  0.499785  0.000000  1
  Nb  Nb5  1  0.000210  0.000591  0.000000  1
  B  B6  1  0.619297  0.880733  0.000000  1
  B  B7  1  0.379423  0.120536  0.000000  1
  B  B8  1  0.121148  0.620063  0.000000  1
  B  B9  1  0.879962  0.378819  0.000000  1
  Ru  Ru10  1  0.569217  0.718932  0.500000  1
  Ru  Ru11  1  0.428795  0.281802  0.500000  1
  Ru  Ru12  1  0.073507  0.782278  0.500000  1
  Ru  Ru13  1  0.928289  0.217790  0.500000  1
  Ru  Ru14  1  0.282277  0.571693  0.500000  1
  Ru  Ru15  1  0.717652  0.426522  0.500000  1
  Ru  Ru16  1  0.218265  0.071250  0.500000  1
  Ru  Ru17  1  0.780990  0.930760  0.500000  1
  Ru  Ru18  1  0.499449  0.000543  0.500000  1
  Ru  Ru19  1  0.001554  0.498461  0.500000  1
