# generated using pymatgen
data_Tb9Y(In2Pt)4
_symmetry_space_group_name_H-M   'P 1'
_cell_length_a   3.63640400
_cell_length_b   8.21351080
_cell_length_c   18.39160200
_cell_angle_alpha   89.95264829
_cell_angle_beta   90.00000000
_cell_angle_gamma   90.00000000
_symmetry_Int_Tables_number   1
_chemical_formula_structural   Tb9Y(In2Pt)4
_chemical_formula_sum   'Tb9 Y1 In8 Pt4'
_cell_volume   549.31362517
_cell_formula_units_Z   1
loop_
 _symmetry_equiv_pos_site_id
 _symmetry_equiv_pos_as_xyz
  1  'x, y, z'
loop_
 _atom_site_type_symbol
 _atom_site_label
 _atom_site_symmetry_multiplicity
 _atom_site_fract_x
 _atom_site_fract_y
 _atom_site_fract_z
 _atom_site_occupancy
  Tb  Tb0  1  0.000000  0.116897  0.414841  1
  Tb  Tb1  1  0.000000  0.883103  0.585159  1
  Tb  Tb2  1  0.000000  0.382640  0.914701  1
  Tb  Tb3  1  0.000000  0.617360  0.085299  1
  Tb  Tb4  1  0.000000  0.243068  0.220311  1
  Tb  Tb5  1  0.000000  0.756932  0.779689  1
  Tb  Tb6  1  0.000000  0.257089  0.720119  1
  Tb  Tb7  1  0.000000  0.742911  0.279881  1
  Tb  Tb8  1  0.000000  0.500000  0.500000  1
  Y  Y9  1  0.000000  0.000000  0.000000  1
  In  In10  1  0.500000  0.424209  0.351161  1
  In  In11  1  0.500000  0.575791  0.648839  1
  In  In12  1  0.500000  0.075276  0.851150  1
  In  In13  1  0.500000  0.924724  0.148850  1
  In  In14  1  0.500000  0.292376  0.067141  1
  In  In15  1  0.500000  0.707624  0.932859  1
  In  In16  1  0.500000  0.208088  0.567046  1
  In  In17  1  0.500000  0.791912  0.432954  1
  Pt  Pt18  1  0.500000  0.024514  0.303241  1
  Pt  Pt19  1  0.500000  0.975486  0.696759  1
  Pt  Pt20  1  0.500000  0.476049  0.803183  1
  Pt  Pt21  1  0.500000  0.523951  0.196817  1
