# generated using pymatgen
data_Sr12InGe11Au12
_symmetry_space_group_name_H-M   'P 1'
_cell_length_a   4.69617800
_cell_length_b   8.06277909
_cell_length_c   23.24197641
_cell_angle_alpha   89.80984585
_cell_angle_beta   90.00000000
_cell_angle_gamma   90.00000000
_symmetry_Int_Tables_number   1
_chemical_formula_structural   Sr12InGe11Au12
_chemical_formula_sum   'Sr12 In1 Ge11 Au12'
_cell_volume   880.03506098
_cell_formula_units_Z   1
loop_
 _symmetry_equiv_pos_site_id
 _symmetry_equiv_pos_as_xyz
  1  'x, y, z'
loop_
 _atom_site_type_symbol
 _atom_site_label
 _atom_site_symmetry_multiplicity
 _atom_site_fract_x
 _atom_site_fract_y
 _atom_site_fract_z
 _atom_site_occupancy
  Sr  Sr0  1  0.750000  0.212703  0.498064  1
  Sr  Sr1  1  0.250000  0.793741  0.166281  1
  Sr  Sr2  1  0.250000  0.786898  0.500179  1
  Sr  Sr3  1  0.250000  0.793995  0.833663  1
  Sr  Sr4  1  0.250000  0.705427  0.332558  1
  Sr  Sr5  1  0.750000  0.208901  0.836582  1
  Sr  Sr6  1  0.750000  0.285268  0.999599  1
  Sr  Sr7  1  0.750000  0.295883  0.666034  1
  Sr  Sr8  1  0.750000  0.293152  0.333739  1
  Sr  Sr9  1  0.250000  0.700696  0.663115  1
  Sr  Sr10  1  0.250000  0.715147  0.001840  1
  Sr  Sr11  1  0.750000  0.205680  0.167564  1
  In  In12  1  0.750000  0.917338  0.727742  1
  Ge  Ge13  1  0.250000  0.409439  0.564730  1
  Ge  Ge14  1  0.250000  0.081260  0.393052  1
  Ge  Ge15  1  0.250000  0.088928  0.067179  1
  Ge  Ge16  1  0.250000  0.419402  0.894354  1
  Ge  Ge17  1  0.750000  0.582096  0.106607  1
  Ge  Ge18  1  0.250000  0.420778  0.775338  1
  Ge  Ge19  1  0.750000  0.580427  0.225830  1
  Ge  Ge20  1  0.750000  0.587848  0.432614  1
  Ge  Ge21  1  0.750000  0.910689  0.934421  1
  Ge  Ge22  1  0.250000  0.080347  0.274232  1
  Ge  Ge23  1  0.750000  0.916548  0.601949  1
  Au  Au24  1  0.250000  0.084721  0.594123  1
  Au  Au25  1  0.250000  0.102883  0.740413  1
  Au  Au26  1  0.750000  0.586477  0.906114  1
  Au  Au27  1  0.750000  0.913952  0.403706  1
  Au  Au28  1  0.750000  0.580482  0.566313  1
  Au  Au29  1  0.750000  0.577708  0.763835  1
  Au  Au30  1  0.250000  0.418588  0.431497  1
  Au  Au31  1  0.250000  0.413938  0.237678  1
  Au  Au32  1  0.750000  0.918612  0.068505  1
  Au  Au33  1  0.250000  0.414085  0.095676  1
  Au  Au34  1  0.250000  0.082014  0.932678  1
  Au  Au35  1  0.750000  0.913945  0.262194  1
