# generated using pymatgen
data_La20Si11Ni
_symmetry_space_group_name_H-M   'P 1'
_cell_length_a   7.88506500
_cell_length_b   7.88506500
_cell_length_c   14.46408100
_cell_angle_alpha   90.00000000
_cell_angle_beta   90.00000000
_cell_angle_gamma   90.00000000
_symmetry_Int_Tables_number   1
_chemical_formula_structural   La20Si11Ni
_chemical_formula_sum   'La20 Si11 Ni1'
_cell_volume   899.29338890
_cell_formula_units_Z   1
loop_
 _symmetry_equiv_pos_site_id
 _symmetry_equiv_pos_as_xyz
  1  'x, y, z'
loop_
 _atom_site_type_symbol
 _atom_site_label
 _atom_site_symmetry_multiplicity
 _atom_site_fract_x
 _atom_site_fract_y
 _atom_site_fract_z
 _atom_site_occupancy
  La  La0  1  0.500000  0.000000  0.771896  1
  La  La1  1  0.328074  0.314356  0.105488  1
  La  La2  1  0.828060  0.814629  0.894568  1
  La  La3  1  0.000000  0.500000  0.224034  1
  La  La4  1  0.830199  0.188293  0.397250  1
  La  La5  1  0.171940  0.185371  0.894568  1
  La  La6  1  0.671926  0.685644  0.105488  1
  La  La7  1  0.000000  0.500000  0.709812  1
  La  La8  1  0.812039  0.835910  0.605768  1
  La  La9  1  0.311707  0.330199  0.397250  1
  La  La10  1  0.185644  0.828074  0.105488  1
  La  La11  1  0.187961  0.164090  0.605768  1
  La  La12  1  0.814356  0.171926  0.105488  1
  La  La13  1  0.335910  0.687961  0.605768  1
  La  La14  1  0.500000  0.000000  0.275249  1
  La  La15  1  0.685371  0.328060  0.894568  1
  La  La16  1  0.664090  0.312039  0.605768  1
  La  La17  1  0.314629  0.671940  0.894568  1
  La  La18  1  0.169801  0.811707  0.397250  1
  La  La19  1  0.688293  0.669801  0.397250  1
  Si  Si20  1  0.613162  0.387823  0.250315  1
  Si  Si21  1  0.887747  0.114721  0.751134  1
  Si  Si22  1  0.500000  0.000000  0.496204  1
  Si  Si23  1  0.887823  0.886838  0.250315  1
  Si  Si24  1  0.000000  0.500000  0.005395  1
  Si  Si25  1  0.112253  0.885279  0.751134  1
  Si  Si26  1  0.385279  0.387747  0.751134  1
  Si  Si27  1  0.112177  0.113162  0.250315  1
  Si  Si28  1  0.386838  0.612177  0.250315  1
  Si  Si29  1  0.614721  0.612253  0.751134  1
  Si  Si30  1  0.500000  0.000000  0.994188  1
  Ni  Ni31  1  0.000000  0.500000  0.505128  1
