# generated using pymatgen
data_Dy8Si16RuW11
_symmetry_space_group_name_H-M   'P 1'
_cell_length_a   6.87700669
_cell_length_b   6.87700644
_cell_length_c   12.74080523
_cell_angle_alpha   89.97800561
_cell_angle_beta   90.02199176
_cell_angle_gamma   89.79343567
_symmetry_Int_Tables_number   1
_chemical_formula_structural   Dy8Si16RuW11
_chemical_formula_sum   'Dy8 Si16 Ru1 W11'
_cell_volume   602.54969054
_cell_formula_units_Z   1
loop_
 _symmetry_equiv_pos_site_id
 _symmetry_equiv_pos_as_xyz
  1  'x, y, z'
loop_
 _atom_site_type_symbol
 _atom_site_label
 _atom_site_symmetry_multiplicity
 _atom_site_fract_x
 _atom_site_fract_y
 _atom_site_fract_z
 _atom_site_occupancy
  Dy  Dy0  1  0.001244  0.662837  0.031138  1
  Dy  Dy1  1  0.996505  0.338443  0.531625  1
  Dy  Dy2  1  0.662837  0.001244  0.968862  1
  Dy  Dy3  1  0.162136  0.498934  0.780364  1
  Dy  Dy4  1  0.838067  0.500918  0.281807  1
  Dy  Dy5  1  0.498934  0.162136  0.219636  1
  Dy  Dy6  1  0.500918  0.838067  0.718193  1
  Dy  Dy7  1  0.338443  0.996505  0.468375  1
  Si  Si8  1  0.035902  0.715386  0.437409  1
  Si  Si9  1  0.963680  0.288689  0.936348  1
  Si  Si10  1  0.715386  0.035902  0.562591  1
  Si  Si11  1  0.209780  0.462765  0.185760  1
  Si  Si12  1  0.787653  0.539219  0.683416  1
  Si  Si13  1  0.462765  0.209780  0.814240  1
  Si  Si14  1  0.539219  0.787653  0.316584  1
  Si  Si15  1  0.288689  0.963680  0.063652  1
  Si  Si16  1  0.796979  0.873133  0.185206  1
  Si  Si17  1  0.301243  0.621858  0.564688  1
  Si  Si18  1  0.700521  0.373713  0.066489  1
  Si  Si19  1  0.621858  0.301243  0.435312  1
  Si  Si20  1  0.373713  0.700521  0.933511  1
  Si  Si21  1  0.126670  0.201160  0.316981  1
  Si  Si22  1  0.201160  0.126670  0.683019  1
  Si  Si23  1  0.873133  0.796979  0.814794  1
  Ru  Ru24  1  0.669415  0.669415  0.500000  1
  W  W25  1  0.333572  0.499460  0.375023  1
  W  W26  1  0.834785  0.007128  0.373473  1
  W  W27  1  0.998962  0.162503  0.126966  1
  W  W28  1  0.007128  0.834785  0.626527  1
  W  W29  1  0.499460  0.333572  0.624977  1
  W  W30  1  0.162503  0.998962  0.873034  1
  W  W31  1  0.833827  0.167541  0.750257  1
  W  W32  1  0.167541  0.833827  0.249743  1
  W  W33  1  0.331658  0.331658  0.000000  1
  W  W34  1  0.498825  0.664888  0.124938  1
  W  W35  1  0.664888  0.498825  0.875062  1
