# generated using pymatgen
data_Tb5Lu5(GaSb)4
_symmetry_space_group_name_H-M   'P 1'
_cell_length_a   8.41372213
_cell_length_b   8.74169073
_cell_length_c   7.85630566
_cell_angle_alpha   90.08083414
_cell_angle_beta   90.13340443
_cell_angle_gamma   125.59280018
_symmetry_Int_Tables_number   1
_chemical_formula_structural   Tb5Lu5(GaSb)4
_chemical_formula_sum   'Tb5 Lu5 Ga4 Sb4'
_cell_volume   469.87432794
_cell_formula_units_Z   1
loop_
 _symmetry_equiv_pos_site_id
 _symmetry_equiv_pos_as_xyz
  1  'x, y, z'
loop_
 _atom_site_type_symbol
 _atom_site_label
 _atom_site_symmetry_multiplicity
 _atom_site_fract_x
 _atom_site_fract_y
 _atom_site_fract_z
 _atom_site_occupancy
  Tb  Tb0  1  0.821889  0.548887  0.174828  1
  Tb  Tb1  1  0.530740  0.785907  0.164963  1
  Tb  Tb2  1  0.180675  0.452083  0.824779  1
  Tb  Tb3  1  0.679932  0.951209  0.673128  1
  Tb  Tb4  1  0.318637  0.047337  0.326925  1
  Lu  Lu5  1  0.029582  0.279342  0.337420  1
  Lu  Lu6  1  0.967705  0.717578  0.662716  1
  Lu  Lu7  1  0.470593  0.218841  0.837734  1
  Lu  Lu8  1  0.002112  0.002186  0.998240  1
  Lu  Lu9  1  0.498531  0.497401  0.500960  1
  Ga  Ga10  1  0.375777  0.372310  0.126870  1
  Ga  Ga11  1  0.624969  0.625674  0.872784  1
  Ga  Ga12  1  0.125084  0.126337  0.626983  1
  Ga  Ga13  1  0.876009  0.873312  0.374543  1
  Sb  Sb14  1  0.783553  0.195628  0.017472  1
  Sb  Sb15  1  0.219196  0.810249  0.977439  1
  Sb  Sb16  1  0.720874  0.307756  0.520177  1
  Sb  Sb17  1  0.274142  0.687961  0.482039  1
