# generated using pymatgen
data_K2Rh2F11
_symmetry_space_group_name_H-M   'P 1'
_cell_length_a   5.24384100
_cell_length_b   7.37968433
_cell_length_c   13.75217900
_cell_angle_alpha   80.22950045
_cell_angle_beta   90.00000000
_cell_angle_gamma   90.00000000
_symmetry_Int_Tables_number   1
_chemical_formula_structural   K2Rh2F11
_chemical_formula_sum   'K4 Rh4 F22'
_cell_volume   524.46126754
_cell_formula_units_Z   2
loop_
 _symmetry_equiv_pos_site_id
 _symmetry_equiv_pos_as_xyz
  1  'x, y, z'
loop_
 _atom_site_type_symbol
 _atom_site_label
 _atom_site_symmetry_multiplicity
 _atom_site_fract_x
 _atom_site_fract_y
 _atom_site_fract_z
 _atom_site_occupancy
  K  K0  1  0.418488  0.222483  0.597310  1
  K  K1  1  0.581512  0.222483  0.097310  1
  K  K2  1  0.581512  0.777517  0.402690  1
  K  K3  1  0.418488  0.777517  0.902690  1
  Rh  Rh4  1  0.022970  0.282422  0.339591  1
  Rh  Rh5  1  0.977030  0.282422  0.839591  1
  Rh  Rh6  1  0.022970  0.717578  0.160409  1
  Rh  Rh7  1  0.977030  0.717578  0.660409  1
  F  F8  1  0.140787  0.500000  0.750000  1
  F  F9  1  0.859213  0.500000  0.250000  1
  F  F10  1  0.727659  0.859558  0.183886  1
  F  F11  1  0.684894  0.578386  0.633475  1
  F  F12  1  0.173292  0.789388  0.273909  1
  F  F13  1  0.828803  0.075651  0.923994  1
  F  F14  1  0.315106  0.421614  0.366525  1
  F  F15  1  0.171197  0.924349  0.076006  1
  F  F16  1  0.173292  0.210612  0.226091  1
  F  F17  1  0.272341  0.859558  0.683886  1
  F  F18  1  0.826708  0.210612  0.726091  1
  F  F19  1  0.684894  0.421614  0.866525  1
  F  F20  1  0.171197  0.075651  0.423994  1
  F  F21  1  0.144458  0.356895  0.949960  1
  F  F22  1  0.272341  0.140442  0.816114  1
  F  F23  1  0.855542  0.643105  0.050040  1
  F  F24  1  0.826708  0.789388  0.773909  1
  F  F25  1  0.727659  0.140442  0.316114  1
  F  F26  1  0.828803  0.924349  0.576006  1
  F  F27  1  0.855542  0.356895  0.449960  1
  F  F28  1  0.315106  0.578386  0.133475  1
  F  F29  1  0.144458  0.643105  0.550040  1
