# generated using pymatgen
data_ErTaNb4C5
_symmetry_space_group_name_H-M   'P 1'
_cell_length_a   5.59526540
_cell_length_b   5.59526669
_cell_length_c   5.56594265
_cell_angle_alpha   80.96468882
_cell_angle_beta   80.96468737
_cell_angle_gamma   120.33373299
_symmetry_Int_Tables_number   1
_chemical_formula_structural   ErTaNb4C5
_chemical_formula_sum   'Er1 Ta1 Nb4 C5'
_cell_volume   142.70698959
_cell_formula_units_Z   1
loop_
 _symmetry_equiv_pos_site_id
 _symmetry_equiv_pos_as_xyz
  1  'x, y, z'
loop_
 _atom_site_type_symbol
 _atom_site_label
 _atom_site_symmetry_multiplicity
 _atom_site_fract_x
 _atom_site_fract_y
 _atom_site_fract_z
 _atom_site_occupancy
  Er  Er0  1  0.749932  0.749932  0.748418  1
  Ta  Ta1  1  0.260166  0.260166  0.262179  1
  Nb  Nb2  1  0.087603  0.445100  0.743381  1
  Nb  Nb3  1  0.557005  0.909256  0.253988  1
  Nb  Nb4  1  0.909256  0.557005  0.253988  1
  Nb  Nb5  1  0.445100  0.087603  0.743381  1
  C  C6  1  0.491474  0.491474  0.495141  1
  C  C7  1  0.659601  0.319416  0.010134  1
  C  C8  1  0.319416  0.659601  0.010134  1
  C  C9  1  0.840018  0.180427  0.489629  1
  C  C10  1  0.180427  0.840018  0.489629  1
