# generated using pymatgen
data_Nd3ZnAg3Sn4
_symmetry_space_group_name_H-M   'P 1'
_cell_length_a   8.86774399
_cell_length_b   8.91532265
_cell_length_c   8.91532216
_cell_angle_alpha   149.37169535
_cell_angle_beta   130.86355997
_cell_angle_gamma   59.06924101
_symmetry_Int_Tables_number   1
_chemical_formula_structural   Nd3ZnAg3Sn4
_chemical_formula_sum   'Nd3 Zn1 Ag3 Sn4'
_cell_volume   269.36516060
_cell_formula_units_Z   1
loop_
 _symmetry_equiv_pos_site_id
 _symmetry_equiv_pos_as_xyz
  1  'x, y, z'
loop_
 _atom_site_type_symbol
 _atom_site_label
 _atom_site_symmetry_multiplicity
 _atom_site_fract_x
 _atom_site_fract_y
 _atom_site_fract_z
 _atom_site_occupancy
  Nd  Nd0  1  0.502641  0.999470  0.503171  1
  Nd  Nd1  1  0.869569  0.874368  0.995201  1
  Nd  Nd2  1  0.132708  0.126768  0.005940  1
  Zn  Zn3  1  0.474836  0.667841  0.806996  1
  Ag  Ag4  1  0.861816  0.672693  0.189123  1
  Ag  Ag5  1  0.130276  0.326193  0.804084  1
  Ag  Ag6  1  0.525986  0.333108  0.192876  1
  Sn  Sn7  1  0.289637  0.781788  0.507848  1
  Sn  Sn8  1  0.704513  0.215445  0.489068  1
  Sn  Sn9  1  0.810370  0.502880  0.307489  1
  Sn  Sn10  1  0.197647  0.499445  0.698203  1
