# generated using pymatgen
data_CeDy(Si7Ir3)2
_symmetry_space_group_name_H-M   'P 1'
_cell_length_a   8.07999983
_cell_length_b   8.07999975
_cell_length_c   8.07999905
_cell_angle_alpha   56.54113938
_cell_angle_beta   56.54114239
_cell_angle_gamma   56.54113888
_symmetry_Int_Tables_number   1
_chemical_formula_structural   CeDy(Si7Ir3)2
_chemical_formula_sum   'Ce1 Dy1 Si14 Ir6'
_cell_volume   343.19378110
_cell_formula_units_Z   1
loop_
 _symmetry_equiv_pos_site_id
 _symmetry_equiv_pos_as_xyz
  1  'x, y, z'
loop_
 _atom_site_type_symbol
 _atom_site_label
 _atom_site_symmetry_multiplicity
 _atom_site_fract_x
 _atom_site_fract_y
 _atom_site_fract_z
 _atom_site_occupancy
  Ce  Ce0  1  0.500000  0.500000  0.500000  1
  Dy  Dy1  1  0.000000  0.000000  0.000000  1
  Si  Si2  1  0.851187  0.064171  0.672730  1
  Si  Si3  1  0.672730  0.851187  0.064171  1
  Si  Si4  1  0.064171  0.672730  0.851187  1
  Si  Si5  1  0.649872  0.827756  0.435857  1
  Si  Si6  1  0.250088  0.250088  0.250088  1
  Si  Si7  1  0.749912  0.749912  0.749912  1
  Si  Si8  1  0.172244  0.564143  0.350128  1
  Si  Si9  1  0.564143  0.350128  0.172244  1
  Si  Si10  1  0.350128  0.172244  0.564143  1
  Si  Si11  1  0.935829  0.327270  0.148813  1
  Si  Si12  1  0.327270  0.148813  0.935829  1
  Si  Si13  1  0.148813  0.935829  0.327270  1
  Si  Si14  1  0.827756  0.435857  0.649872  1
  Si  Si15  1  0.435857  0.649872  0.827756  1
  Ir  Ir16  1  0.751080  0.068242  0.429882  1
  Ir  Ir17  1  0.429882  0.751080  0.068242  1
  Ir  Ir18  1  0.068242  0.429882  0.751080  1
  Ir  Ir19  1  0.248920  0.931758  0.570118  1
  Ir  Ir20  1  0.570118  0.248920  0.931758  1
  Ir  Ir21  1  0.931758  0.570118  0.248920  1
