# generated using pymatgen
data_Ho8Co3Si12Ni
_symmetry_space_group_name_H-M   'P 1'
_cell_length_a   7.98114800
_cell_length_b   7.98114720
_cell_length_c   7.90802600
_cell_angle_alpha   90.00000000
_cell_angle_beta   90.00000000
_cell_angle_gamma   120.00000330
_symmetry_Int_Tables_number   1
_chemical_formula_structural   Ho8Co3Si12Ni
_chemical_formula_sum   'Ho8 Co3 Si12 Ni1'
_cell_volume   436.24392390
_cell_formula_units_Z   1
loop_
 _symmetry_equiv_pos_site_id
 _symmetry_equiv_pos_as_xyz
  1  'x, y, z'
loop_
 _atom_site_type_symbol
 _atom_site_label
 _atom_site_symmetry_multiplicity
 _atom_site_fract_x
 _atom_site_fract_y
 _atom_site_fract_z
 _atom_site_occupancy
  Ho  Ho0  1  0.000000  0.000000  0.249410  1
  Ho  Ho1  1  0.000000  0.000000  0.749129  1
  Ho  Ho2  1  0.505795  0.494205  0.252215  1
  Ho  Ho3  1  0.505795  0.011590  0.252215  1
  Ho  Ho4  1  0.988410  0.494205  0.252215  1
  Ho  Ho5  1  0.495410  0.504590  0.748216  1
  Ho  Ho6  1  0.495410  0.990820  0.748216  1
  Ho  Ho7  1  0.009180  0.504590  0.748216  1
  Co  Co8  1  0.333333  0.666667  0.471452  1
  Co  Co9  1  0.666667  0.333333  0.534483  1
  Co  Co10  1  0.666667  0.333333  0.963667  1
  Si  Si11  1  0.171531  0.828469  0.499022  1
  Si  Si12  1  0.171531  0.343062  0.499022  1
  Si  Si13  1  0.656938  0.828469  0.499022  1
  Si  Si14  1  0.828488  0.171512  0.500129  1
  Si  Si15  1  0.828488  0.656979  0.500129  1
  Si  Si16  1  0.343021  0.171512  0.500129  1
  Si  Si17  1  0.827727  0.172273  0.000882  1
  Si  Si18  1  0.827727  0.655454  0.000882  1
  Si  Si19  1  0.344546  0.172273  0.000882  1
  Si  Si20  1  0.169720  0.830280  0.999471  1
  Si  Si21  1  0.169720  0.339439  0.999471  1
  Si  Si22  1  0.660561  0.830280  0.999471  1
  Ni  Ni23  1  0.333333  0.666667  0.032052  1
