# generated using pymatgen
data_Dy8Lu4AlZnNi4
_symmetry_space_group_name_H-M   'P 1'
_cell_length_a   8.25693168
_cell_length_b   8.25692963
_cell_length_c   8.25693200
_cell_angle_alpha   111.47697252
_cell_angle_beta   110.16226145
_cell_angle_gamma   106.80963246
_symmetry_Int_Tables_number   1
_chemical_formula_structural   Dy8Lu4AlZnNi4
_chemical_formula_sum   'Dy8 Lu4 Al1 Zn1 Ni4'
_cell_volume   432.58819835
_cell_formula_units_Z   1
loop_
 _symmetry_equiv_pos_site_id
 _symmetry_equiv_pos_as_xyz
  1  'x, y, z'
loop_
 _atom_site_type_symbol
 _atom_site_label
 _atom_site_symmetry_multiplicity
 _atom_site_fract_x
 _atom_site_fract_y
 _atom_site_fract_z
 _atom_site_occupancy
  Dy  Dy0  1  0.428660  0.232033  0.196503  1
  Dy  Dy1  1  0.571340  0.767967  0.803497  1
  Dy  Dy2  1  0.035530  0.232033  0.803374  1
  Dy  Dy3  1  0.964470  0.767967  0.196626  1
  Dy  Dy4  1  0.181572  0.288774  0.470225  1
  Dy  Dy5  1  0.818428  0.711226  0.529775  1
  Dy  Dy6  1  0.181451  0.711226  0.892799  1
  Dy  Dy7  1  0.818549  0.288774  0.107201  1
  Lu  Lu8  1  0.326755  0.633147  0.306390  1
  Lu  Lu9  1  0.673245  0.366853  0.693610  1
  Lu  Lu10  1  0.326698  0.020177  0.693479  1
  Lu  Lu11  1  0.673302  0.979823  0.306521  1
  Al  Al12  1  0.500000  0.500000  0.000000  1
  Zn  Zn13  1  0.000000  0.000000  0.000000  1
  Ni  Ni14  1  0.357526  0.000000  0.357526  1
  Ni  Ni15  1  0.642474  0.000000  0.642474  1
  Ni  Ni16  1  0.126893  0.626972  0.500079  1
  Ni  Ni17  1  0.873107  0.373028  0.499921  1
