# generated using pymatgen
data_MnZn22NiRh
_symmetry_space_group_name_H-M   'P 1'
_cell_length_a   7.76242483
_cell_length_b   7.76242535
_cell_length_c   7.77481700
_cell_angle_alpha   72.19782752
_cell_angle_beta   72.19782621
_cell_angle_gamma   57.86465310
_symmetry_Int_Tables_number   1
_chemical_formula_structural   MnZn22NiRh
_chemical_formula_sum   'Mn1 Zn22 Ni1 Rh1'
_cell_volume   371.70816258
_cell_formula_units_Z   1
loop_
 _symmetry_equiv_pos_site_id
 _symmetry_equiv_pos_as_xyz
  1  'x, y, z'
loop_
 _atom_site_type_symbol
 _atom_site_label
 _atom_site_symmetry_multiplicity
 _atom_site_fract_x
 _atom_site_fract_y
 _atom_site_fract_z
 _atom_site_occupancy
  Mn  Mn0  1  0.000022  0.000022  0.501189  1
  Zn  Zn1  1  0.340513  0.742323  0.316284  1
  Zn  Zn2  1  0.654039  0.257989  0.690882  1
  Zn  Zn3  1  0.257989  0.654039  0.690882  1
  Zn  Zn4  1  0.742323  0.340513  0.316284  1
  Zn  Zn5  1  0.676170  0.322126  0.999412  1
  Zn  Zn6  1  0.322126  0.676170  0.999412  1
  Zn  Zn7  1  0.831910  0.831910  0.779647  1
  Zn  Zn8  1  0.169614  0.169614  0.215975  1
  Zn  Zn9  1  0.977663  0.977663  0.176282  1
  Zn  Zn10  1  0.022122  0.022122  0.825184  1
  Zn  Zn11  1  0.350906  0.350906  0.273059  1
  Zn  Zn12  1  0.648493  0.648493  0.721380  1
  Zn  Zn13  1  0.687912  0.687912  0.375599  1
  Zn  Zn14  1  0.314698  0.314698  0.621961  1
  Zn  Zn15  1  0.660797  0.024751  0.464100  1
  Zn  Zn16  1  0.337247  0.976746  0.536719  1
  Zn  Zn17  1  0.976746  0.337247  0.536719  1
  Zn  Zn18  1  0.024751  0.660797  0.464100  1
  Zn  Zn19  1  0.613492  0.003835  0.098843  1
  Zn  Zn20  1  0.378448  0.008234  0.898589  1
  Zn  Zn21  1  0.008234  0.378448  0.898589  1
  Zn  Zn22  1  0.003835  0.613492  0.098843  1
  Ni  Ni23  1  0.342533  0.342533  0.946372  1
  Rh  Rh24  1  0.657418  0.657418  0.053694  1
