# generated using pymatgen
data_Lu12Mn2Ga2Tc
_symmetry_space_group_name_H-M   'P 1'
_cell_length_a   8.10082765
_cell_length_b   8.10082775
_cell_length_c   8.10082718
_cell_angle_alpha   108.96852395
_cell_angle_beta   108.96852030
_cell_angle_gamma   110.48136022
_symmetry_Int_Tables_number   1
_chemical_formula_structural   Lu12Mn2Ga2Tc
_chemical_formula_sum   'Lu12 Mn2 Ga2 Tc1'
_cell_volume   409.13330142
_cell_formula_units_Z   1
loop_
 _symmetry_equiv_pos_site_id
 _symmetry_equiv_pos_as_xyz
  1  'x, y, z'
loop_
 _atom_site_type_symbol
 _atom_site_label
 _atom_site_symmetry_multiplicity
 _atom_site_fract_x
 _atom_site_fract_y
 _atom_site_fract_z
 _atom_site_occupancy
  Lu  Lu0  1  0.306437  0.306437  0.612876  1
  Lu  Lu1  1  0.693563  0.693563  0.387124  1
  Lu  Lu2  1  0.693563  0.306437  0.000000  1
  Lu  Lu3  1  0.306437  0.693563  0.000000  1
  Lu  Lu4  1  0.190151  0.434076  0.243925  1
  Lu  Lu5  1  0.809849  0.565924  0.756075  1
  Lu  Lu6  1  0.190151  0.946225  0.756075  1
  Lu  Lu7  1  0.946225  0.190151  0.756075  1
  Lu  Lu8  1  0.809849  0.053775  0.243925  1
  Lu  Lu9  1  0.053775  0.809849  0.243925  1
  Lu  Lu10  1  0.434076  0.190151  0.243925  1
  Lu  Lu11  1  0.565924  0.809849  0.756075  1
  Mn  Mn12  1  0.382675  0.382675  0.000000  1
  Mn  Mn13  1  0.617325  0.617325  0.000000  1
  Ga  Ga14  1  0.000000  0.500000  0.500000  1
  Ga  Ga15  1  0.500000  0.000000  0.500000  1
  Tc  Tc16  1  0.000000  0.000000  0.000000  1
