# generated using pymatgen
data_Hf5Zr3Nb2(GaSn3)2
_symmetry_space_group_name_H-M   'P 1'
_cell_length_a   8.62537200
_cell_length_b   8.62537090
_cell_length_c   5.79328400
_cell_angle_alpha   90.00000000
_cell_angle_beta   90.00000000
_cell_angle_gamma   120.00000422
_symmetry_Int_Tables_number   1
_chemical_formula_structural   Hf5Zr3Nb2(GaSn3)2
_chemical_formula_sum   'Hf5 Zr3 Nb2 Ga2 Sn6'
_cell_volume   373.25965159
_cell_formula_units_Z   1
loop_
 _symmetry_equiv_pos_site_id
 _symmetry_equiv_pos_as_xyz
  1  'x, y, z'
loop_
 _atom_site_type_symbol
 _atom_site_label
 _atom_site_symmetry_multiplicity
 _atom_site_fract_x
 _atom_site_fract_y
 _atom_site_fract_z
 _atom_site_occupancy
  Hf  Hf0  1  0.270567  0.270567  0.250412  1
  Hf  Hf1  1  0.729433  0.000000  0.250412  1
  Hf  Hf2  1  0.000000  0.729433  0.250412  1
  Hf  Hf3  1  0.333333  0.666667  0.497875  1
  Hf  Hf4  1  0.666667  0.333333  0.497875  1
  Zr  Zr5  1  0.734756  0.734756  0.749205  1
  Zr  Zr6  1  0.265244  0.000000  0.749205  1
  Zr  Zr7  1  0.000000  0.265244  0.749205  1
  Nb  Nb8  1  0.666667  0.333333  0.001521  1
  Nb  Nb9  1  0.333333  0.666667  0.001521  1
  Ga  Ga10  1  0.000000  0.000000  0.008702  1
  Ga  Ga11  1  0.000000  0.000000  0.492308  1
  Sn  Sn12  1  0.391101  0.391101  0.755314  1
  Sn  Sn13  1  0.608899  0.000000  0.755314  1
  Sn  Sn14  1  0.000000  0.608899  0.755314  1
  Sn  Sn15  1  0.610898  0.610898  0.245135  1
  Sn  Sn16  1  0.389102  0.000000  0.245135  1
  Sn  Sn17  1  0.000000  0.389102  0.245135  1
