# generated using pymatgen
data_La11Nd5(TmIr3)4
_symmetry_space_group_name_H-M   'P 1'
_cell_length_a   11.30313377
_cell_length_b   11.31980228
_cell_length_c   6.54002963
_cell_angle_alpha   90.00625692
_cell_angle_beta   89.89759421
_cell_angle_gamma   90.07256314
_symmetry_Int_Tables_number   1
_chemical_formula_structural   La11Nd5(TmIr3)4
_chemical_formula_sum   'La11 Nd5 Tm4 Ir12'
_cell_volume   836.78980452
_cell_formula_units_Z   1
loop_
 _symmetry_equiv_pos_site_id
 _symmetry_equiv_pos_as_xyz
  1  'x, y, z'
loop_
 _atom_site_type_symbol
 _atom_site_label
 _atom_site_symmetry_multiplicity
 _atom_site_fract_x
 _atom_site_fract_y
 _atom_site_fract_z
 _atom_site_occupancy
  La  La0  1  0.286623  0.088381  0.383996  1
  La  La1  1  0.286623  0.911328  0.884142  1
  La  La2  1  0.713290  0.088381  0.884590  1
  La  La3  1  0.713581  0.911028  0.385138  1
  La  La4  1  0.590004  0.786302  0.885130  1
  La  La5  1  0.589522  0.212941  0.386617  1
  La  La6  1  0.411090  0.787030  0.385401  1
  La  La7  1  0.410580  0.212915  0.886345  1
  La  La8  1  0.211028  0.413259  0.613422  1
  La  La9  1  0.211068  0.586931  0.113513  1
  La  La10  1  0.789111  0.414418  0.113262  1
  Nd  Nd11  1  0.789568  0.586392  0.614176  1
  Nd  Nd12  1  0.913859  0.712648  0.114937  1
  Nd  Nd13  1  0.914414  0.288139  0.614136  1
  Nd  Nd14  1  0.083529  0.712553  0.614725  1
  Nd  Nd15  1  0.085275  0.286762  0.114635  1
  Tm  Tm16  1  0.999581  0.000144  0.500842  1
  Tm  Tm17  1  0.999848  0.999813  0.000805  1
  Tm  Tm18  1  0.500042  0.499849  0.001786  1
  Tm  Tm19  1  0.501309  0.500721  0.502324  1
  Ir  Ir20  1  0.853044  0.146540  0.248799  1
  Ir  Ir21  1  0.853007  0.852711  0.748939  1
  Ir  Ir22  1  0.146924  0.146264  0.748329  1
  Ir  Ir23  1  0.146487  0.853216  0.248784  1
  Ir  Ir24  1  0.648229  0.353533  0.749903  1
  Ir  Ir25  1  0.646890  0.647968  0.249733  1
  Ir  Ir26  1  0.352688  0.352490  0.251080  1
  Ir  Ir27  1  0.352549  0.647493  0.750310  1
  Ir  Ir28  1  0.500000  0.000193  0.119182  1
  Ir  Ir29  1  0.500210  0.999771  0.619440  1
  Ir  Ir30  1  0.000492  0.499662  0.883633  1
  Ir  Ir31  1  0.999535  0.500226  0.381949  1
