# generated using pymatgen
data_Fe2AgBr6
_symmetry_space_group_name_H-M   'P 1'
_cell_length_a   7.41722915
_cell_length_b   7.41920736
_cell_length_c   8.38554988
_cell_angle_alpha   72.12189543
_cell_angle_beta   71.55880032
_cell_angle_gamma   50.78416941
_symmetry_Int_Tables_number   1
_chemical_formula_structural   Fe2AgBr6
_chemical_formula_sum   'Fe2 Ag1 Br6'
_cell_volume   335.55036609
_cell_formula_units_Z   1
loop_
 _symmetry_equiv_pos_site_id
 _symmetry_equiv_pos_as_xyz
  1  'x, y, z'
loop_
 _atom_site_type_symbol
 _atom_site_label
 _atom_site_symmetry_multiplicity
 _atom_site_fract_x
 _atom_site_fract_y
 _atom_site_fract_z
 _atom_site_occupancy
  Fe  Fe0  1  0.860038  0.618060  0.275693  1
  Fe  Fe1  1  0.000516  0.810071  0.947316  1
  Ag  Ag2  1  0.186183  0.969555  0.576225  1
  Br  Br3  1  0.496628  0.667302  0.351329  1
  Br  Br4  1  0.062457  0.431728  0.019447  1
  Br  Br5  1  0.110189  0.391085  0.482813  1
  Br  Br6  1  0.771253  0.029306  0.726131  1
  Br  Br7  1  0.366425  0.752311  0.875894  1
  Br  Br8  1  0.790312  0.998948  0.203474  1
