# generated using pymatgen
data_Sc8Ti9Si16Mo2Ru
_symmetry_space_group_name_H-M   'P 1'
_cell_length_a   6.60590717
_cell_length_b   6.77943702
_cell_length_c   12.96020600
_cell_angle_alpha   90.00000000
_cell_angle_beta   90.00000000
_cell_angle_gamma   90.05658390
_symmetry_Int_Tables_number   1
_chemical_formula_structural   Sc8Ti9Si16Mo2Ru
_chemical_formula_sum   'Sc8 Ti9 Si16 Mo2 Ru1'
_cell_volume   580.41388062
_cell_formula_units_Z   1
loop_
 _symmetry_equiv_pos_site_id
 _symmetry_equiv_pos_as_xyz
  1  'x, y, z'
loop_
 _atom_site_type_symbol
 _atom_site_label
 _atom_site_symmetry_multiplicity
 _atom_site_fract_x
 _atom_site_fract_y
 _atom_site_fract_z
 _atom_site_occupancy
  Sc  Sc0  1  0.501625  0.325379  0.095757  1
  Sc  Sc1  1  0.001738  0.174826  0.404173  1
  Sc  Sc2  1  0.499518  0.673125  0.594131  1
  Sc  Sc3  1  0.997764  0.826205  0.906187  1
  Sc  Sc4  1  0.499518  0.673125  0.905869  1
  Sc  Sc5  1  0.997764  0.826205  0.593813  1
  Sc  Sc6  1  0.501625  0.325379  0.404243  1
  Sc  Sc7  1  0.001738  0.174826  0.095827  1
  Ti  Ti8  1  0.832992  0.329015  0.626245  1
  Ti  Ti9  1  0.333005  0.171907  0.873904  1
  Ti  Ti10  1  0.167302  0.672718  0.125983  1
  Ti  Ti11  1  0.667590  0.827746  0.373528  1
  Ti  Ti12  1  0.167302  0.672718  0.374017  1
  Ti  Ti13  1  0.667590  0.827746  0.126472  1
  Ti  Ti14  1  0.832992  0.329015  0.873755  1
  Ti  Ti15  1  0.333005  0.171907  0.626096  1
  Ti  Ti16  1  0.660192  0.008472  0.750000  1
  Si  Si17  1  0.665189  0.035276  0.540504  1
  Si  Si18  1  0.166294  0.461875  0.958532  1
  Si  Si19  1  0.334680  0.964680  0.041031  1
  Si  Si20  1  0.833680  0.536339  0.459455  1
  Si  Si21  1  0.334680  0.964680  0.458969  1
  Si  Si22  1  0.833680  0.536339  0.040545  1
  Si  Si23  1  0.665189  0.035276  0.959496  1
  Si  Si24  1  0.166294  0.461875  0.541468  1
  Si  Si25  1  0.531061  0.384073  0.750000  1
  Si  Si26  1  0.034398  0.115405  0.750000  1
  Si  Si27  1  0.465308  0.615078  0.250000  1
  Si  Si28  1  0.966165  0.884889  0.250000  1
  Si  Si29  1  0.796636  0.637785  0.750000  1
  Si  Si30  1  0.294318  0.859999  0.750000  1
  Si  Si31  1  0.204953  0.361775  0.250000  1
  Si  Si32  1  0.705168  0.137937  0.250000  1
  Mo  Mo33  1  0.339491  0.991699  0.250000  1
  Mo  Mo34  1  0.839923  0.508361  0.250000  1
  Ru  Ru35  1  0.159634  0.496345  0.750000  1
