# generated using pymatgen
data_LaCePr4(CI5)2
_symmetry_space_group_name_H-M   'P 1'
_cell_length_a   8.05506982
_cell_length_b   9.84227991
_cell_length_c   9.92147327
_cell_angle_alpha   107.01936520
_cell_angle_beta   96.94435361
_cell_angle_gamma   104.68436002
_symmetry_Int_Tables_number   1
_chemical_formula_structural   LaCePr4(CI5)2
_chemical_formula_sum   'La1 Ce1 Pr4 C2 I10'
_cell_volume   711.19383277
_cell_formula_units_Z   1
loop_
 _symmetry_equiv_pos_site_id
 _symmetry_equiv_pos_as_xyz
  1  'x, y, z'
loop_
 _atom_site_type_symbol
 _atom_site_label
 _atom_site_symmetry_multiplicity
 _atom_site_fract_x
 _atom_site_fract_y
 _atom_site_fract_z
 _atom_site_occupancy
  La  La0  1  0.109840  0.042081  0.774578  1
  Ce  Ce1  1  0.626140  0.866155  0.820418  1
  Pr  Pr2  1  0.372342  0.133018  0.179988  1
  Pr  Pr3  1  0.891522  0.958489  0.222653  1
  Pr  Pr4  1  0.032437  0.735721  0.925265  1
  Pr  Pr5  1  0.967932  0.263852  0.076550  1
  C  C6  1  0.911472  0.969685  0.957978  1
  C  C7  1  0.084536  0.028979  0.039525  1
  I  I8  1  0.193579  0.733238  0.645630  1
  I  I9  1  0.087474  0.371879  0.821587  1
  I  I10  1  0.456906  0.809668  0.093360  1
  I  I11  1  0.252864  0.084322  0.460001  1
  I  I12  1  0.544955  0.191909  0.909433  1
  I  I13  1  0.808913  0.264650  0.354244  1
  I  I14  1  0.343149  0.454398  0.272263  1
  I  I15  1  0.912648  0.630833  0.179471  1
  I  I16  1  0.657799  0.545733  0.728284  1
  I  I17  1  0.745491  0.915389  0.538774  1
