# generated using pymatgen
data_PuMnH5
_symmetry_space_group_name_H-M   'P 1'
_cell_length_a   4.27278400
_cell_length_b   4.52390200
_cell_length_c   11.27210600
_cell_angle_alpha   90.00000000
_cell_angle_beta   90.00000000
_cell_angle_gamma   90.00000000
_symmetry_Int_Tables_number   1
_chemical_formula_structural   PuMnH5
_chemical_formula_sum   'Pu4 Mn4 H20'
_cell_volume   217.88593231
_cell_formula_units_Z   4
loop_
 _symmetry_equiv_pos_site_id
 _symmetry_equiv_pos_as_xyz
  1  'x, y, z'
loop_
 _atom_site_type_symbol
 _atom_site_label
 _atom_site_symmetry_multiplicity
 _atom_site_fract_x
 _atom_site_fract_y
 _atom_site_fract_z
 _atom_site_occupancy
  Pu  Pu0  1  0.269017  0.244253  0.645896  1
  Pu  Pu1  1  0.769017  0.255747  0.354104  1
  Pu  Pu2  1  0.230983  0.755747  0.145896  1
  Pu  Pu3  1  0.730983  0.744253  0.854104  1
  Mn  Mn4  1  0.290192  0.243389  0.920140  1
  Mn  Mn5  1  0.790192  0.256611  0.079860  1
  Mn  Mn6  1  0.209808  0.756611  0.420140  1
  Mn  Mn7  1  0.709808  0.743389  0.579860  1
  H  H8  1  0.490498  0.519582  0.495027  1
  H  H9  1  0.990498  0.980418  0.504973  1
  H  H10  1  0.009502  0.480418  0.995027  1
  H  H11  1  0.509502  0.019582  0.004973  1
  H  H12  1  0.198314  0.982057  0.824169  1
  H  H13  1  0.698314  0.517943  0.175831  1
  H  H14  1  0.301686  0.017943  0.324169  1
  H  H15  1  0.801686  0.482057  0.675831  1
  H  H16  1  0.190150  0.496744  0.822004  1
  H  H17  1  0.690150  0.003256  0.177996  1
  H  H18  1  0.309850  0.503256  0.322004  1
  H  H19  1  0.809850  0.996744  0.677996  1
  H  H20  1  0.588760  0.243006  0.829875  1
  H  H21  1  0.088760  0.256994  0.170125  1
  H  H22  1  0.911240  0.756994  0.329875  1
  H  H23  1  0.411240  0.743006  0.670125  1
  H  H24  1  0.003380  0.023224  0.995211  1
  H  H25  1  0.503380  0.476776  0.004789  1
  H  H26  1  0.496620  0.976776  0.495211  1
  H  H27  1  0.996620  0.523224  0.504789  1
