# generated using pymatgen
data_Ho7ErTi3Si16Tc9
_symmetry_space_group_name_H-M   'P 1'
_cell_length_a   6.77845959
_cell_length_b   6.77887218
_cell_length_c   12.91292905
_cell_angle_alpha   90.03325260
_cell_angle_beta   89.97650678
_cell_angle_gamma   89.59602704
_symmetry_Int_Tables_number   1
_chemical_formula_structural   Ho7ErTi3Si16Tc9
_chemical_formula_sum   'Ho7 Er1 Ti3 Si16 Tc9'
_cell_volume   593.33820825
_cell_formula_units_Z   1
loop_
 _symmetry_equiv_pos_site_id
 _symmetry_equiv_pos_as_xyz
  1  'x, y, z'
loop_
 _atom_site_type_symbol
 _atom_site_label
 _atom_site_symmetry_multiplicity
 _atom_site_fract_x
 _atom_site_fract_y
 _atom_site_fract_z
 _atom_site_occupancy
  Ho  Ho0  1  0.337375  0.994826  0.468594  1
  Ho  Ho1  1  0.507078  0.835405  0.718166  1
  Ho  Ho2  1  0.489301  0.166327  0.216408  1
  Ho  Ho3  1  0.835421  0.507090  0.281817  1
  Ho  Ho4  1  0.166315  0.489320  0.783610  1
  Ho  Ho5  1  0.659876  0.007445  0.969318  1
  Ho  Ho6  1  0.994824  0.337372  0.531410  1
  Er  Er7  1  0.007595  0.659636  0.030648  1
  Ti  Ti8  1  0.157038  0.843550  0.248814  1
  Ti  Ti9  1  0.843557  0.157058  0.751141  1
  Ti  Ti10  1  0.658028  0.658013  0.499998  1
  Si  Si11  1  0.206398  0.121406  0.680405  1
  Si  Si12  1  0.386316  0.693498  0.931579  1
  Si  Si13  1  0.621449  0.296197  0.431490  1
  Si  Si14  1  0.693617  0.386579  0.068448  1
  Si  Si15  1  0.296201  0.621446  0.568515  1
  Si  Si16  1  0.793683  0.880482  0.180968  1
  Si  Si17  1  0.121410  0.206388  0.319596  1
  Si  Si18  1  0.880606  0.793555  0.819028  1
  Si  Si19  1  0.267038  0.986765  0.053562  1
  Si  Si20  1  0.520522  0.782792  0.308263  1
  Si  Si21  1  0.479700  0.220717  0.810073  1
  Si  Si22  1  0.782798  0.520526  0.691743  1
  Si  Si23  1  0.220623  0.479795  0.189844  1
  Si  Si24  1  0.724938  0.019698  0.555790  1
  Si  Si25  1  0.986887  0.267337  0.946467  1
  Si  Si26  1  0.019697  0.724931  0.444215  1
  Tc  Tc27  1  0.337728  0.337871  0.000009  1
  Tc  Tc28  1  0.180826  0.989435  0.863310  1
  Tc  Tc29  1  0.498217  0.693405  0.117143  1
  Tc  Tc30  1  0.501426  0.318446  0.617716  1
  Tc  Tc31  1  0.693532  0.498295  0.882893  1
  Tc  Tc32  1  0.318430  0.501420  0.382293  1
  Tc  Tc33  1  0.819840  0.002231  0.363874  1
  Tc  Tc34  1  0.989485  0.180898  0.136707  1
  Tc  Tc35  1  0.002225  0.819845  0.636144  1
