# generated using pymatgen
data_Ho10Er6MgIn3Ni4
_symmetry_space_group_name_H-M   'P 1'
_cell_length_a   9.53288298
_cell_length_b   9.50853913
_cell_length_c   9.50854000
_cell_angle_alpha   59.99999698
_cell_angle_beta   60.08443586
_cell_angle_gamma   60.08443725
_symmetry_Int_Tables_number   1
_chemical_formula_structural   Ho10Er6MgIn3Ni4
_chemical_formula_sum   'Ho10 Er6 Mg1 In3 Ni4'
_cell_volume   610.22498394
_cell_formula_units_Z   1
loop_
 _symmetry_equiv_pos_site_id
 _symmetry_equiv_pos_as_xyz
  1  'x, y, z'
loop_
 _atom_site_type_symbol
 _atom_site_label
 _atom_site_symmetry_multiplicity
 _atom_site_fract_x
 _atom_site_fract_y
 _atom_site_fract_z
 _atom_site_occupancy
  Ho  Ho0  1  0.186005  0.814367  0.814367  1
  Ho  Ho1  1  0.813391  0.186753  0.186753  1
  Ho  Ho2  1  0.813391  0.186753  0.813104  1
  Ho  Ho3  1  0.186005  0.814367  0.185262  1
  Ho  Ho4  1  0.813391  0.813104  0.186753  1
  Ho  Ho5  1  0.186005  0.185262  0.814367  1
  Ho  Ho6  1  0.598260  0.596232  0.596232  1
  Ho  Ho7  1  0.598260  0.596232  0.209276  1
  Ho  Ho8  1  0.598260  0.209276  0.596232  1
  Ho  Ho9  1  0.206151  0.597949  0.597949  1
  Er  Er10  1  0.060476  0.438892  0.438892  1
  Er  Er11  1  0.435006  0.063828  0.063828  1
  Er  Er12  1  0.435006  0.063828  0.437338  1
  Er  Er13  1  0.060476  0.438892  0.061740  1
  Er  Er14  1  0.435006  0.437338  0.063828  1
  Er  Er15  1  0.060476  0.061740  0.438892  1
  Mg  Mg16  1  0.517496  0.827501  0.827501  1
  In  In17  1  0.832069  0.832500  0.832500  1
  In  In18  1  0.832069  0.832500  0.502932  1
  In  In19  1  0.832069  0.502932  0.832500  1
  Ni  Ni20  1  0.391806  0.391722  0.391722  1
  Ni  Ni21  1  0.391806  0.391722  0.824749  1
  Ni  Ni22  1  0.391806  0.824749  0.391722  1
  Ni  Ni23  1  0.825314  0.391562  0.391562  1
