# generated using pymatgen
data_Nd5GaSiSn
_symmetry_space_group_name_H-M   'P 1'
_cell_length_a   9.14482891
_cell_length_b   9.14482971
_cell_length_c   9.12269575
_cell_angle_alpha   127.73979079
_cell_angle_beta   127.73979395
_cell_angle_gamma   77.22106883
_symmetry_Int_Tables_number   1
_chemical_formula_structural   Nd5GaSiSn
_chemical_formula_sum   'Nd10 Ga2 Si2 Sn2'
_cell_volume   462.51093925
_cell_formula_units_Z   2
loop_
 _symmetry_equiv_pos_site_id
 _symmetry_equiv_pos_as_xyz
  1  'x, y, z'
loop_
 _atom_site_type_symbol
 _atom_site_label
 _atom_site_symmetry_multiplicity
 _atom_site_fract_x
 _atom_site_fract_y
 _atom_site_fract_z
 _atom_site_occupancy
  Nd  Nd0  1  0.500000  0.500000  0.000000  1
  Nd  Nd1  1  0.000000  0.000000  0.000000  1
  Nd  Nd2  1  0.535656  0.035656  0.854470  1
  Nd  Nd3  1  0.181184  0.681184  0.145530  1
  Nd  Nd4  1  0.020883  0.192037  0.500000  1
  Nd  Nd5  1  0.692037  0.520883  0.500000  1
  Nd  Nd6  1  0.464344  0.964344  0.145530  1
  Nd  Nd7  1  0.818816  0.318816  0.854470  1
  Nd  Nd8  1  0.979117  0.807963  0.500000  1
  Nd  Nd9  1  0.307963  0.479117  0.500000  1
  Ga  Ga10  1  0.375686  0.124314  0.500000  1
  Ga  Ga11  1  0.624314  0.875686  0.500000  1
  Si  Si12  1  0.880738  0.380738  0.261476  1
  Si  Si13  1  0.119262  0.619262  0.738524  1
  Sn  Sn14  1  0.250000  0.250000  0.000000  1
  Sn  Sn15  1  0.750000  0.750000  0.000000  1
