# generated using pymatgen
data_Tb7HoMg2(SiB4)4
_symmetry_space_group_name_H-M   'P 1'
_cell_length_a   7.18766906
_cell_length_b   7.18765906
_cell_length_c   7.88951300
_cell_angle_alpha   90.00068414
_cell_angle_beta   89.99926290
_cell_angle_gamma   90.01423693
_symmetry_Int_Tables_number   1
_chemical_formula_structural   Tb7HoMg2(SiB4)4
_chemical_formula_sum   'Tb7 Ho1 Mg2 Si4 B16'
_cell_volume   407.59206773
_cell_formula_units_Z   1
loop_
 _symmetry_equiv_pos_site_id
 _symmetry_equiv_pos_as_xyz
  1  'x, y, z'
loop_
 _atom_site_type_symbol
 _atom_site_label
 _atom_site_symmetry_multiplicity
 _atom_site_fract_x
 _atom_site_fract_y
 _atom_site_fract_z
 _atom_site_occupancy
  Tb  Tb0  1  0.683207  0.183209  0.233847  1
  Tb  Tb1  1  0.316749  0.816887  0.766124  1
  Tb  Tb2  1  0.316791  0.816787  0.233847  1
  Tb  Tb3  1  0.816905  0.683097  0.233973  1
  Tb  Tb4  1  0.816858  0.683143  0.765975  1
  Tb  Tb5  1  0.683109  0.183254  0.766123  1
  Tb  Tb6  1  0.183253  0.316744  0.766113  1
  Ho  Ho7  1  0.183226  0.316768  0.232387  1
  Mg  Mg8  1  0.000217  0.000432  0.499643  1
  Mg  Mg9  1  0.499593  0.499791  0.499654  1
  Si  Si10  1  0.115310  0.614383  0.499448  1
  Si  Si11  1  0.885616  0.384690  0.499447  1
  Si  Si12  1  0.384410  0.115590  0.499315  1
  Si  Si13  1  0.614854  0.885146  0.499863  1
  B  B14  1  0.173573  0.040265  0.000238  1
  B  B15  1  0.826695  0.960179  0.000219  1
  B  B16  1  0.960338  0.173552  0.000376  1
  B  B17  1  0.326447  0.539660  0.000376  1
  B  B18  1  0.040111  0.826754  0.000196  1
  B  B19  1  0.673245  0.459889  0.000196  1
  B  B20  1  0.539820  0.673304  0.000220  1
  B  B21  1  0.459734  0.326427  0.000237  1
  B  B22  1  0.089997  0.589756  0.000443  1
  B  B23  1  0.910243  0.410001  0.000443  1
  B  B24  1  0.410054  0.089945  0.000114  1
  B  B25  1  0.589863  0.910137  0.000114  1
  B  B26  1  0.000260  0.000544  0.161451  1
  B  B27  1  0.000114  0.000043  0.839083  1
  B  B28  1  0.499955  0.499886  0.839084  1
  B  B29  1  0.499455  0.499738  0.161451  1
