# generated using pymatgen
data_K3Al2SbAsP
_symmetry_space_group_name_H-M   'P 1'
_cell_length_a   6.08062800
_cell_length_b   7.75685089
_cell_length_c   10.66219965
_cell_angle_alpha   70.63572871
_cell_angle_beta   90.00000000
_cell_angle_gamma   90.00000000
_symmetry_Int_Tables_number   1
_chemical_formula_structural   K3Al2SbAsP
_chemical_formula_sum   'K6 Al4 Sb2 As2 P2'
_cell_volume   474.44971364
_cell_formula_units_Z   2
loop_
 _symmetry_equiv_pos_site_id
 _symmetry_equiv_pos_as_xyz
  1  'x, y, z'
loop_
 _atom_site_type_symbol
 _atom_site_label
 _atom_site_symmetry_multiplicity
 _atom_site_fract_x
 _atom_site_fract_y
 _atom_site_fract_z
 _atom_site_occupancy
  K  K0  1  0.250000  0.460686  0.420165  1
  K  K1  1  0.750000  0.144084  0.949011  1
  K  K2  1  0.750000  0.474744  0.169850  1
  K  K3  1  0.250000  0.525256  0.830150  1
  K  K4  1  0.750000  0.539314  0.579835  1
  K  K5  1  0.250000  0.855916  0.050989  1
  Al  Al6  1  0.994848  0.012629  0.354654  1
  Al  Al7  1  0.494848  0.987371  0.645346  1
  Al  Al8  1  0.505152  0.012629  0.354654  1
  Al  Al9  1  0.005152  0.987371  0.645346  1
  Sb  Sb10  1  0.250000  0.253669  0.169026  1
  Sb  Sb11  1  0.750000  0.746331  0.830974  1
  As  As12  1  0.250000  0.176151  0.730016  1
  As  As13  1  0.750000  0.823849  0.269984  1
  P  P14  1  0.250000  0.829686  0.528413  1
  P  P15  1  0.750000  0.170314  0.471587  1
