# generated using pymatgen
data_La4Nd2FeI10
_symmetry_space_group_name_H-M   'P 1'
_cell_length_a   8.12270884
_cell_length_b   10.13782429
_cell_length_c   9.89586759
_cell_angle_alpha   106.89159591
_cell_angle_beta   96.55549064
_cell_angle_gamma   106.01639524
_symmetry_Int_Tables_number   1
_chemical_formula_structural   La4Nd2FeI10
_chemical_formula_sum   'La4 Nd2 Fe1 I10'
_cell_volume   732.54450155
_cell_formula_units_Z   1
loop_
 _symmetry_equiv_pos_site_id
 _symmetry_equiv_pos_as_xyz
  1  'x, y, z'
loop_
 _atom_site_type_symbol
 _atom_site_label
 _atom_site_symmetry_multiplicity
 _atom_site_fract_x
 _atom_site_fract_y
 _atom_site_fract_z
 _atom_site_occupancy
  La  La0  1  0.860718  0.134157  0.678566  1
  La  La1  1  0.139282  0.865843  0.321434  1
  La  La2  1  0.391871  0.959152  0.717028  1
  La  La3  1  0.608129  0.040848  0.282972  1
  Nd  Nd4  1  0.468375  0.290151  0.586890  1
  Nd  Nd5  1  0.531625  0.709849  0.413110  1
  Fe  Fe6  1  0.500000  0.000000  0.500000  1
  I  I7  1  0.415687  0.629758  0.680629  1
  I  I8  1  0.584313  0.370242  0.319371  1
  I  I9  1  0.293503  0.261104  0.851327  1
  I  I10  1  0.706497  0.738896  0.148673  1
  I  I11  1  0.849896  0.456863  0.771232  1
  I  I12  1  0.150104  0.543137  0.228768  1
  I  I13  1  0.048379  0.183063  0.408117  1
  I  I14  1  0.243365  0.914542  0.036360  1
  I  I15  1  0.756635  0.085458  0.963640  1
  I  I16  1  0.951621  0.816937  0.591883  1
