# generated using pymatgen
data_Mo(S8F)3
_symmetry_space_group_name_H-M   'P 1'
_cell_length_a   14.97892766
_cell_length_b   14.97892885
_cell_length_c   14.97892657
_cell_angle_alpha   118.70736325
_cell_angle_beta   118.70736360
_cell_angle_gamma   118.70737442
_symmetry_Int_Tables_number   1
_chemical_formula_structural   Mo(S8F)3
_chemical_formula_sum   'Mo1 S24 F3'
_cell_volume   986.62116483
_cell_formula_units_Z   1
loop_
 _symmetry_equiv_pos_site_id
 _symmetry_equiv_pos_as_xyz
  1  'x, y, z'
loop_
 _atom_site_type_symbol
 _atom_site_label
 _atom_site_symmetry_multiplicity
 _atom_site_fract_x
 _atom_site_fract_y
 _atom_site_fract_z
 _atom_site_occupancy
  Mo  Mo0  1  0.927800  0.927800  0.927800  1
  S  S1  1  0.802855  0.522387  0.522387  1
  S  S2  1  0.522387  0.522387  0.802855  1
  S  S3  1  0.522387  0.802855  0.522387  1
  S  S4  1  0.245824  0.376416  0.634341  1
  S  S5  1  0.353034  0.953437  0.353034  1
  S  S6  1  0.353034  0.353034  0.953437  1
  S  S7  1  0.953437  0.353034  0.353034  1
  S  S8  1  0.126747  0.740075  0.256634  1
  S  S9  1  0.256634  0.126747  0.740075  1
  S  S10  1  0.740075  0.256634  0.126747  1
  S  S11  1  0.740075  0.126747  0.256634  1
  S  S12  1  0.256634  0.740075  0.126747  1
  S  S13  1  0.126747  0.256634  0.740075  1
  S  S14  1  0.348621  0.880734  0.532173  1
  S  S15  1  0.532173  0.348621  0.880734  1
  S  S16  1  0.880734  0.532173  0.348621  1
  S  S17  1  0.880734  0.348621  0.532173  1
  S  S18  1  0.532173  0.880734  0.348621  1
  S  S19  1  0.348621  0.532173  0.880734  1
  S  S20  1  0.245824  0.634341  0.376416  1
  S  S21  1  0.376416  0.245824  0.634341  1
  S  S22  1  0.634341  0.376416  0.245824  1
  S  S23  1  0.634341  0.245824  0.376416  1
  S  S24  1  0.376416  0.634341  0.245824  1
  F  F25  1  0.849841  0.978697  0.978697  1
  F  F26  1  0.978697  0.978697  0.849841  1
  F  F27  1  0.978697  0.849841  0.978697  1
