# generated using pymatgen
data_La7DyGaPd24
_symmetry_space_group_name_H-M   'P 1'
_cell_length_a   8.54149600
_cell_length_b   8.54149600
_cell_length_c   8.54149600
_cell_angle_alpha   90.00135500
_cell_angle_beta   89.99864500
_cell_angle_gamma   89.99864503
_symmetry_Int_Tables_number   1
_chemical_formula_structural   La7DyGaPd24
_chemical_formula_sum   'La7 Dy1 Ga1 Pd24'
_cell_volume   623.16323836
_cell_formula_units_Z   1
loop_
 _symmetry_equiv_pos_site_id
 _symmetry_equiv_pos_as_xyz
  1  'x, y, z'
loop_
 _atom_site_type_symbol
 _atom_site_label
 _atom_site_symmetry_multiplicity
 _atom_site_fract_x
 _atom_site_fract_y
 _atom_site_fract_z
 _atom_site_occupancy
  La  La0  1  0.251802  0.252714  0.252714  1
  La  La1  1  0.747895  0.747669  0.747669  1
  La  La2  1  0.747286  0.748198  0.252714  1
  La  La3  1  0.747286  0.252714  0.748198  1
  La  La4  1  0.252331  0.252105  0.747669  1
  La  La5  1  0.252331  0.747669  0.252105  1
  La  La6  1  0.251835  0.748165  0.748165  1
  Dy  Dy7  1  0.747911  0.252089  0.252089  1
  Ga  Ga8  1  0.001555  0.998445  0.998445  1
  Pd  Pd9  1  0.260034  0.499489  0.999578  1
  Pd  Pd10  1  0.739795  0.498319  0.004202  1
  Pd  Pd11  1  0.995798  0.260205  0.498319  1
  Pd  Pd12  1  0.501681  0.260205  0.004202  1
  Pd  Pd13  1  0.000422  0.739966  0.499489  1
  Pd  Pd14  1  0.500511  0.739966  0.999578  1
  Pd  Pd15  1  0.501681  0.004202  0.260205  1
  Pd  Pd16  1  0.260034  0.999578  0.499489  1
  Pd  Pd17  1  0.500511  0.999578  0.739966  1
  Pd  Pd18  1  0.739795  0.004202  0.498319  1
  Pd  Pd19  1  0.995798  0.498319  0.260205  1
  Pd  Pd20  1  0.000422  0.499489  0.739966  1
  Pd  Pd21  1  0.252364  0.500121  0.500121  1
  Pd  Pd22  1  0.747448  0.497119  0.497119  1
  Pd  Pd23  1  0.502881  0.252552  0.497119  1
  Pd  Pd24  1  0.499879  0.747636  0.500121  1
  Pd  Pd25  1  0.502881  0.497119  0.252552  1
  Pd  Pd26  1  0.499879  0.500121  0.747636  1
  Pd  Pd27  1  0.295239  0.000333  0.000333  1
  Pd  Pd28  1  0.708469  0.002545  0.002545  1
  Pd  Pd29  1  0.997455  0.291531  0.002545  1
  Pd  Pd30  1  0.999667  0.704761  0.000333  1
  Pd  Pd31  1  0.997455  0.002545  0.291531  1
  Pd  Pd32  1  0.999667  0.000333  0.704761  1
