# generated using pymatgen
data_OsRu3Pb4O13
_symmetry_space_group_name_H-M   'P 1'
_cell_length_a   7.35878187
_cell_length_b   7.36813130
_cell_length_c   7.35878200
_cell_angle_alpha   60.04196545
_cell_angle_beta   59.99999940
_cell_angle_gamma   60.04196046
_symmetry_Int_Tables_number   1
_chemical_formula_structural   OsRu3Pb4O13
_chemical_formula_sum   'Os1 Ru3 Pb4 O13'
_cell_volume   282.31203482
_cell_formula_units_Z   1
loop_
 _symmetry_equiv_pos_site_id
 _symmetry_equiv_pos_as_xyz
  1  'x, y, z'
loop_
 _atom_site_type_symbol
 _atom_site_label
 _atom_site_symmetry_multiplicity
 _atom_site_fract_x
 _atom_site_fract_y
 _atom_site_fract_z
 _atom_site_occupancy
  Os  Os0  1  0.874975  0.375075  0.874975  1
  Ru  Ru1  1  0.874723  0.875608  0.374945  1
  Ru  Ru2  1  0.874723  0.875608  0.874723  1
  Ru  Ru3  1  0.374945  0.875608  0.874723  1
  Pb  Pb4  1  0.881424  0.375059  0.371759  1
  Pb  Pb5  1  0.371759  0.375059  0.371759  1
  Pb  Pb6  1  0.371759  0.375059  0.881424  1
  Pb  Pb7  1  0.373596  0.879212  0.373596  1
  O  O8  1  0.200767  0.795846  0.802619  1
  O  O9  1  0.200767  0.795846  0.200767  1
  O  O10  1  0.553273  0.950195  0.943260  1
  O  O11  1  0.553273  0.950195  0.553273  1
  O  O12  1  0.943260  0.950195  0.553273  1
  O  O13  1  0.802619  0.795846  0.200767  1
  O  O14  1  0.559472  0.552799  0.943865  1
  O  O15  1  0.803876  0.199937  0.803876  1
  O  O16  1  0.803876  0.199937  0.192311  1
  O  O17  1  0.943865  0.552799  0.943865  1
  O  O18  1  0.943865  0.552799  0.559472  1
  O  O19  1  0.192311  0.199937  0.803876  1
  O  O20  1  0.500873  0.497382  0.500873  1
