# generated using pymatgen
data_Ca3LuBi3
_symmetry_space_group_name_H-M   'P 1'
_cell_length_a   8.13253417
_cell_length_b   8.35632549
_cell_length_c   8.35632635
_cell_angle_alpha   110.00736288
_cell_angle_beta   108.92959944
_cell_angle_gamma   108.92960922
_symmetry_Int_Tables_number   1
_chemical_formula_structural   Ca3LuBi3
_chemical_formula_sum   'Ca6 Lu2 Bi6'
_cell_volume   440.04200236
_cell_formula_units_Z   2
loop_
 _symmetry_equiv_pos_site_id
 _symmetry_equiv_pos_as_xyz
  1  'x, y, z'
loop_
 _atom_site_type_symbol
 _atom_site_label
 _atom_site_symmetry_multiplicity
 _atom_site_fract_x
 _atom_site_fract_y
 _atom_site_fract_z
 _atom_site_occupancy
  Ca  Ca0  1  0.501038  0.000572  0.647523  1
  Ca  Ca1  1  0.353515  0.353050  0.352477  1
  Ca  Ca2  1  0.500465  0.999428  0.146950  1
  Ca  Ca3  1  0.000465  0.646950  0.499428  1
  Ca  Ca4  1  0.853515  0.852477  0.853050  1
  Ca  Ca5  1  0.001038  0.147523  0.500572  1
  Lu  Lu6  1  0.143139  0.500000  0.000000  1
  Lu  Lu7  1  0.643139  0.500000  0.000000  1
  Bi  Bi8  1  0.377426  0.621155  0.759280  1
  Bi  Bi9  1  0.877426  0.259280  0.121155  1
  Bi  Bi10  1  0.618146  0.740720  0.361875  1
  Bi  Bi11  1  0.118146  0.861875  0.240720  1
  Bi  Bi12  1  0.256271  0.138125  0.878845  1
  Bi  Bi13  1  0.756271  0.378845  0.638125  1
