# generated using pymatgen
data_Pa2P7Ru12
_symmetry_space_group_name_H-M   'P 1'
_cell_length_a   9.53645300
_cell_length_b   9.53645213
_cell_length_c   3.86743600
_cell_angle_alpha   90.00000000
_cell_angle_beta   90.00000000
_cell_angle_gamma   119.99999769
_symmetry_Int_Tables_number   1
_chemical_formula_structural   Pa2P7Ru12
_chemical_formula_sum   'Pa2 P7 Ru12'
_cell_volume   304.59830565
_cell_formula_units_Z   1
loop_
 _symmetry_equiv_pos_site_id
 _symmetry_equiv_pos_as_xyz
  1  'x, y, z'
loop_
 _atom_site_type_symbol
 _atom_site_label
 _atom_site_symmetry_multiplicity
 _atom_site_fract_x
 _atom_site_fract_y
 _atom_site_fract_z
 _atom_site_occupancy
  Pa  Pa0  1  0.666667  0.333333  0.500000  1
  Pa  Pa1  1  0.333333  0.666667  0.000000  1
  P  P2  1  0.599734  0.711583  0.500000  1
  P  P3  1  0.000000  0.000000  0.000000  1
  P  P4  1  0.288417  0.888152  0.500000  1
  P  P5  1  0.111848  0.400266  0.500000  1
  P  P6  1  0.889637  0.593140  0.000000  1
  P  P7  1  0.406860  0.296497  0.000000  1
  P  P8  1  0.703503  0.110363  0.000000  1
  Ru  Ru9  1  0.553882  0.937864  0.500000  1
  Ru  Ru10  1  0.383984  0.446118  0.500000  1
  Ru  Ru11  1  0.896561  0.133089  0.500000  1
  Ru  Ru12  1  0.236528  0.103439  0.500000  1
  Ru  Ru13  1  0.866911  0.763472  0.500000  1
  Ru  Ru14  1  0.729671  0.881872  0.000000  1
  Ru  Ru15  1  0.118128  0.847798  0.000000  1
  Ru  Ru16  1  0.152202  0.270329  0.000000  1
  Ru  Ru17  1  0.442579  0.072426  0.000000  1
  Ru  Ru18  1  0.927574  0.370154  0.000000  1
  Ru  Ru19  1  0.629846  0.557421  0.000000  1
  Ru  Ru20  1  0.062136  0.616016  0.500000  1
