# generated using pymatgen
data_Lu5(RhPb2)2
_symmetry_space_group_name_H-M   'P 1'
_cell_length_a   3.67839300
_cell_length_b   8.04072400
_cell_length_c   18.10377700
_cell_angle_alpha   90.00000000
_cell_angle_beta   90.00000000
_cell_angle_gamma   90.00000000
_symmetry_Int_Tables_number   1
_chemical_formula_structural   Lu5(RhPb2)2
_chemical_formula_sum   'Lu10 Rh4 Pb8'
_cell_volume   535.45437818
_cell_formula_units_Z   2
loop_
 _symmetry_equiv_pos_site_id
 _symmetry_equiv_pos_as_xyz
  1  'x, y, z'
loop_
 _atom_site_type_symbol
 _atom_site_label
 _atom_site_symmetry_multiplicity
 _atom_site_fract_x
 _atom_site_fract_y
 _atom_site_fract_z
 _atom_site_occupancy
  Lu  Lu0  1  0.000000  0.110476  0.409339  1
  Lu  Lu1  1  0.000000  0.889524  0.590661  1
  Lu  Lu2  1  0.000000  0.389524  0.909339  1
  Lu  Lu3  1  0.000000  0.610476  0.090661  1
  Lu  Lu4  1  0.000000  0.243682  0.218321  1
  Lu  Lu5  1  0.000000  0.756318  0.781679  1
  Lu  Lu6  1  0.000000  0.256318  0.718321  1
  Lu  Lu7  1  0.000000  0.743682  0.281679  1
  Lu  Lu8  1  0.000000  0.000000  0.000000  1
  Lu  Lu9  1  0.000000  0.500000  0.500000  1
  Rh  Rh10  1  0.500000  0.026492  0.304241  1
  Rh  Rh11  1  0.500000  0.973508  0.695759  1
  Rh  Rh12  1  0.500000  0.473508  0.804241  1
  Rh  Rh13  1  0.500000  0.526492  0.195759  1
  Pb  Pb14  1  0.500000  0.415732  0.349515  1
  Pb  Pb15  1  0.500000  0.584268  0.650485  1
  Pb  Pb16  1  0.500000  0.084268  0.849515  1
  Pb  Pb17  1  0.500000  0.915732  0.150485  1
  Pb  Pb18  1  0.500000  0.293738  0.062788  1
  Pb  Pb19  1  0.500000  0.706262  0.937212  1
  Pb  Pb20  1  0.500000  0.206262  0.562788  1
  Pb  Pb21  1  0.500000  0.793738  0.437212  1
