# generated using pymatgen
data_DyErFe3Tc14C3
_symmetry_space_group_name_H-M   'P 1'
_cell_length_a   6.88355945
_cell_length_b   6.88355999
_cell_length_c   6.88355814
_cell_angle_alpha   82.38901144
_cell_angle_beta   82.38901333
_cell_angle_gamma   82.38900828
_symmetry_Int_Tables_number   1
_chemical_formula_structural   DyErFe3Tc14C3
_chemical_formula_sum   'Dy1 Er1 Fe3 Tc14 C3'
_cell_volume   318.24553204
_cell_formula_units_Z   1
loop_
 _symmetry_equiv_pos_site_id
 _symmetry_equiv_pos_as_xyz
  1  'x, y, z'
loop_
 _atom_site_type_symbol
 _atom_site_label
 _atom_site_symmetry_multiplicity
 _atom_site_fract_x
 _atom_site_fract_y
 _atom_site_fract_z
 _atom_site_occupancy
  Dy  Dy0  1  0.651620  0.651620  0.651620  1
  Er  Er1  1  0.348218  0.348218  0.348218  1
  Fe  Fe2  1  0.000039  0.000039  0.499996  1
  Fe  Fe3  1  0.499996  0.000039  0.000039  1
  Fe  Fe4  1  0.000039  0.499996  0.000039  1
  Tc  Tc5  1  0.724170  0.275741  0.000114  1
  Tc  Tc6  1  0.000114  0.724170  0.275741  1
  Tc  Tc7  1  0.275741  0.000114  0.724170  1
  Tc  Tc8  1  0.000114  0.275741  0.724170  1
  Tc  Tc9  1  0.724170  0.000114  0.275741  1
  Tc  Tc10  1  0.275741  0.724170  0.000114  1
  Tc  Tc11  1  0.348521  0.860302  0.348521  1
  Tc  Tc12  1  0.348521  0.348521  0.860302  1
  Tc  Tc13  1  0.860302  0.348521  0.348521  1
  Tc  Tc14  1  0.651254  0.140008  0.651254  1
  Tc  Tc15  1  0.651254  0.651254  0.140008  1
  Tc  Tc16  1  0.140008  0.651254  0.651254  1
  Tc  Tc17  1  0.898770  0.898770  0.898770  1
  Tc  Tc18  1  0.101378  0.101378  0.101378  1
  C  C19  1  0.499613  0.499613  0.000800  1
  C  C20  1  0.000800  0.499613  0.499613  1
  C  C21  1  0.499613  0.000800  0.499613  1
