# generated using pymatgen
data_YEr2(CuSi)4
_symmetry_space_group_name_H-M   'P 1'
_cell_length_a   7.81802040
_cell_length_b   7.81801941
_cell_length_c   7.81801987
_cell_angle_alpha   149.36164955
_cell_angle_beta   130.59881682
_cell_angle_gamma   59.25889942
_symmetry_Int_Tables_number   1
_chemical_formula_structural   YEr2(CuSi)4
_chemical_formula_sum   'Y1 Er2 Cu4 Si4'
_cell_volume   183.42746167
_cell_formula_units_Z   1
loop_
 _symmetry_equiv_pos_site_id
 _symmetry_equiv_pos_as_xyz
  1  'x, y, z'
loop_
 _atom_site_type_symbol
 _atom_site_label
 _atom_site_symmetry_multiplicity
 _atom_site_fract_x
 _atom_site_fract_y
 _atom_site_fract_z
 _atom_site_occupancy
  Y  Y0  1  0.500000  0.000000  0.500000  1
  Er  Er1  1  0.871220  0.871220  0.000000  1
  Er  Er2  1  0.128780  0.128780  0.000000  1
  Cu  Cu3  1  0.521590  0.330492  0.191098  1
  Cu  Cu4  1  0.860606  0.669508  0.191098  1
  Cu  Cu5  1  0.139394  0.330492  0.808902  1
  Cu  Cu6  1  0.478410  0.669508  0.808902  1
  Si  Si7  1  0.815986  0.500000  0.315986  1
  Si  Si8  1  0.184014  0.500000  0.684014  1
  Si  Si9  1  0.283344  0.783344  0.500000  1
  Si  Si10  1  0.716656  0.216656  0.500000  1
