# generated using pymatgen
data_PrNd5PtCl10
_symmetry_space_group_name_H-M   'P 1'
_cell_length_a   7.42661696
_cell_length_b   9.33109692
_cell_length_c   9.34219888
_cell_angle_alpha   110.05512919
_cell_angle_beta   96.17688653
_cell_angle_gamma   106.81003380
_symmetry_Int_Tables_number   1
_chemical_formula_structural   PrNd5PtCl10
_chemical_formula_sum   'Pr1 Nd5 Pt1 Cl10'
_cell_volume   566.55749732
_cell_formula_units_Z   1
loop_
 _symmetry_equiv_pos_site_id
 _symmetry_equiv_pos_as_xyz
  1  'x, y, z'
loop_
 _atom_site_type_symbol
 _atom_site_label
 _atom_site_symmetry_multiplicity
 _atom_site_fract_x
 _atom_site_fract_y
 _atom_site_fract_z
 _atom_site_occupancy
  Pr  Pr0  1  0.972636  0.314971  0.109245  1
  Nd  Nd1  1  0.145094  0.057005  0.751933  1
  Nd  Nd2  1  0.627015  0.851690  0.801726  1
  Nd  Nd3  1  0.854260  0.943417  0.248009  1
  Nd  Nd4  1  0.027825  0.687279  0.891725  1
  Nd  Nd5  1  0.372791  0.147019  0.197823  1
  Pt  Pt6  1  0.999766  0.999940  0.999836  1
  Cl  Cl7  1  0.207023  0.750666  0.652458  1
  Cl  Cl8  1  0.644665  0.544044  0.727315  1
  Cl  Cl9  1  0.233732  0.073806  0.445203  1
  Cl  Cl10  1  0.791269  0.248604  0.348999  1
  Cl  Cl11  1  0.550004  0.164526  0.928515  1
  Cl  Cl12  1  0.765489  0.925371  0.554460  1
  Cl  Cl13  1  0.911094  0.637080  0.157895  1
  Cl  Cl14  1  0.359777  0.455804  0.273736  1
  Cl  Cl15  1  0.089268  0.365077  0.840638  1
  Cl  Cl16  1  0.448292  0.833702  0.070484  1
