# generated using pymatgen
data_Pr2Nd2In2Si3Ge
_symmetry_space_group_name_H-M   'P 1'
_cell_length_a   7.54017482
_cell_length_b   7.54017493
_cell_length_c   4.34483700
_cell_angle_alpha   90.00000000
_cell_angle_beta   90.00000000
_cell_angle_gamma   89.93724955
_symmetry_Int_Tables_number   1
_chemical_formula_structural   Pr2Nd2In2Si3Ge
_chemical_formula_sum   'Pr2 Nd2 In2 Si3 Ge1'
_cell_volume   247.02224505
_cell_formula_units_Z   1
loop_
 _symmetry_equiv_pos_site_id
 _symmetry_equiv_pos_as_xyz
  1  'x, y, z'
loop_
 _atom_site_type_symbol
 _atom_site_label
 _atom_site_symmetry_multiplicity
 _atom_site_fract_x
 _atom_site_fract_y
 _atom_site_fract_z
 _atom_site_occupancy
  Pr  Pr0  1  0.316713  0.818878  0.500000  1
  Pr  Pr1  1  0.681122  0.183287  0.500000  1
  Nd  Nd2  1  0.821068  0.678932  0.500000  1
  Nd  Nd3  1  0.179861  0.320139  0.500000  1
  In  In4  1  0.003698  0.001482  0.000000  1
  In  In5  1  0.498518  0.496302  0.000000  1
  Si  Si6  1  0.383188  0.116812  0.000000  1
  Si  Si7  1  0.888078  0.387487  0.000000  1
  Si  Si8  1  0.112513  0.611922  0.000000  1
  Ge  Ge9  1  0.615241  0.884759  0.000000  1
