# generated using pymatgen
data_Na4SnPPt4
_symmetry_space_group_name_H-M   'P 1'
_cell_length_a   5.59466738
_cell_length_b   5.59466919
_cell_length_c   7.73234707
_cell_angle_alpha   80.61754854
_cell_angle_beta   80.61754399
_cell_angle_gamma   64.49798765
_symmetry_Int_Tables_number   1
_chemical_formula_structural   Na4SnPPt4
_chemical_formula_sum   'Na4 Sn1 P1 Pt4'
_cell_volume   214.34774303
_cell_formula_units_Z   1
loop_
 _symmetry_equiv_pos_site_id
 _symmetry_equiv_pos_as_xyz
  1  'x, y, z'
loop_
 _atom_site_type_symbol
 _atom_site_label
 _atom_site_symmetry_multiplicity
 _atom_site_fract_x
 _atom_site_fract_y
 _atom_site_fract_z
 _atom_site_occupancy
  Na  Na0  1  0.769213  0.529390  0.855120  1
  Na  Na1  1  0.470610  0.230787  0.644880  1
  Na  Na2  1  0.233649  0.483837  0.144274  1
  Na  Na3  1  0.516163  0.766351  0.355726  1
  Sn  Sn4  1  0.097063  0.902937  0.750000  1
  P  P5  1  0.936759  0.063241  0.250000  1
  Pt  Pt6  1  0.995171  0.730128  0.479944  1
  Pt  Pt7  1  0.269872  0.004829  0.020056  1
  Pt  Pt8  1  0.981613  0.270114  0.469959  1
  Pt  Pt9  1  0.729886  0.018387  0.030041  1
