# generated using pymatgen
data_Th10AlSn3Sb4
_symmetry_space_group_name_H-M   'P 1'
_cell_length_a   9.63000900
_cell_length_b   9.63000888
_cell_length_c   6.53575000
_cell_angle_alpha   90.00000000
_cell_angle_beta   90.00000000
_cell_angle_gamma   120.00000386
_symmetry_Int_Tables_number   1
_chemical_formula_structural   Th10AlSn3Sb4
_chemical_formula_sum   'Th10 Al1 Sn3 Sb4'
_cell_volume   524.90344942
_cell_formula_units_Z   1
loop_
 _symmetry_equiv_pos_site_id
 _symmetry_equiv_pos_as_xyz
  1  'x, y, z'
loop_
 _atom_site_type_symbol
 _atom_site_label
 _atom_site_symmetry_multiplicity
 _atom_site_fract_x
 _atom_site_fract_y
 _atom_site_fract_z
 _atom_site_occupancy
  Th  Th0  1  0.000000  0.723397  0.756528  1
  Th  Th1  1  0.276603  0.276603  0.756528  1
  Th  Th2  1  0.333333  0.666667  0.498168  1
  Th  Th3  1  0.666667  0.333333  0.498168  1
  Th  Th4  1  0.722276  0.722276  0.243142  1
  Th  Th5  1  0.723397  0.000000  0.756528  1
  Th  Th6  1  0.000000  0.277724  0.243142  1
  Th  Th7  1  0.277724  0.000000  0.243142  1
  Th  Th8  1  0.333333  0.666667  0.001613  1
  Th  Th9  1  0.666667  0.333333  0.001613  1
  Al  Al10  1  0.000000  0.000000  0.000610  1
  Sn  Sn11  1  0.619838  0.000000  0.250861  1
  Sn  Sn12  1  0.380162  0.380162  0.250861  1
  Sn  Sn13  1  0.000000  0.619838  0.250861  1
  Sb  Sb14  1  0.617902  0.617902  0.749309  1
  Sb  Sb15  1  0.000000  0.382098  0.749309  1
  Sb  Sb16  1  0.382098  0.000000  0.749309  1
  Sb  Sb17  1  0.000000  0.000000  0.500310  1
