# generated using pymatgen
data_SmTa3(NiH6)2
_symmetry_space_group_name_H-M   'P 1'
_cell_length_a   5.96769300
_cell_length_b   5.96750684
_cell_length_c   4.63272300
_cell_angle_alpha   90.00000000
_cell_angle_beta   90.00000000
_cell_angle_gamma   119.99808963
_symmetry_Int_Tables_number   1
_chemical_formula_structural   SmTa3(NiH6)2
_chemical_formula_sum   'Sm1 Ta3 Ni2 H12'
_cell_volume   142.88107991
_cell_formula_units_Z   1
loop_
 _symmetry_equiv_pos_site_id
 _symmetry_equiv_pos_as_xyz
  1  'x, y, z'
loop_
 _atom_site_type_symbol
 _atom_site_label
 _atom_site_symmetry_multiplicity
 _atom_site_fract_x
 _atom_site_fract_y
 _atom_site_fract_z
 _atom_site_occupancy
  Sm  Sm0  1  0.000000  0.000000  0.000000  1
  Ta  Ta1  1  0.500000  0.000000  0.500000  1
  Ta  Ta2  1  0.000000  0.500000  0.500000  1
  Ta  Ta3  1  0.500000  0.500000  0.500000  1
  Ni  Ni4  1  0.666707  0.333345  0.000000  1
  Ni  Ni5  1  0.333293  0.666655  0.000000  1
  H  H6  1  0.796788  0.593573  0.756962  1
  H  H7  1  0.203212  0.406427  0.243038  1
  H  H8  1  0.203212  0.796775  0.243008  1
  H  H9  1  0.796788  0.203225  0.243008  1
  H  H10  1  0.593493  0.796742  0.242943  1
  H  H11  1  0.406507  0.203258  0.242943  1
  H  H12  1  0.406507  0.203258  0.757057  1
  H  H13  1  0.203212  0.406427  0.756962  1
  H  H14  1  0.796788  0.203225  0.756992  1
  H  H15  1  0.593493  0.796742  0.757057  1
  H  H16  1  0.796788  0.593573  0.243038  1
  H  H17  1  0.203212  0.796775  0.756992  1
