# generated using pymatgen
data_KPr(PSe3)2
_symmetry_space_group_name_H-M   'P 1'
_cell_length_a   7.84507700
_cell_length_b   6.97758821
_cell_length_c   10.53634621
_cell_angle_alpha   87.90737298
_cell_angle_beta   90.00000000
_cell_angle_gamma   90.00000000
_symmetry_Int_Tables_number   1
_chemical_formula_structural   KPr(PSe3)2
_chemical_formula_sum   'K2 Pr2 P4 Se12'
_cell_volume   576.37196918
_cell_formula_units_Z   2
loop_
 _symmetry_equiv_pos_site_id
 _symmetry_equiv_pos_as_xyz
  1  'x, y, z'
loop_
 _atom_site_type_symbol
 _atom_site_label
 _atom_site_symmetry_multiplicity
 _atom_site_fract_x
 _atom_site_fract_y
 _atom_site_fract_z
 _atom_site_occupancy
  K  K0  1  0.044230  0.305390  0.497056  1
  K  K1  1  0.544230  0.694610  0.502944  1
  Pr  Pr2  1  0.257783  0.216004  0.997089  1
  Pr  Pr3  1  0.757783  0.783996  0.002911  1
  P  P4  1  0.749771  0.314739  0.826414  1
  P  P5  1  0.249771  0.685261  0.173586  1
  P  P6  1  0.033335  0.799017  0.293475  1
  P  P7  1  0.533335  0.200983  0.706525  1
  Se  Se8  1  0.633379  0.357797  0.018090  1
  Se  Se9  1  0.123093  0.829432  0.484595  1
  Se  Se10  1  0.944835  0.080972  0.826083  1
  Se  Se11  1  0.828415  0.589365  0.268279  1
  Se  Se12  1  0.345298  0.411036  0.253715  1
  Se  Se13  1  0.328415  0.410635  0.731721  1
  Se  Se14  1  0.453361  0.939725  0.823420  1
  Se  Se15  1  0.953361  0.060275  0.176580  1
  Se  Se16  1  0.623093  0.170568  0.515405  1
  Se  Se17  1  0.133379  0.642203  0.981910  1
  Se  Se18  1  0.444835  0.919028  0.173917  1
  Se  Se19  1  0.845298  0.588964  0.746285  1
