# generated using pymatgen
data_Tb2LuGa6(CuNi2)3
_symmetry_space_group_name_H-M   'P 1'
_cell_length_a   4.06727300
_cell_length_b   8.76761113
_cell_length_c   8.76761011
_cell_angle_alpha   60.07993963
_cell_angle_beta   90.00000000
_cell_angle_gamma   90.00000000
_symmetry_Int_Tables_number   1
_chemical_formula_structural   Tb2LuGa6(CuNi2)3
_chemical_formula_sum   'Tb2 Lu1 Ga6 Cu3 Ni6'
_cell_volume   270.98530168
_cell_formula_units_Z   1
loop_
 _symmetry_equiv_pos_site_id
 _symmetry_equiv_pos_as_xyz
  1  'x, y, z'
loop_
 _atom_site_type_symbol
 _atom_site_label
 _atom_site_symmetry_multiplicity
 _atom_site_fract_x
 _atom_site_fract_y
 _atom_site_fract_z
 _atom_site_occupancy
  Tb  Tb0  1  0.500000  0.333361  0.333390  1
  Tb  Tb1  1  0.500000  0.666610  0.666639  1
  Lu  Lu2  1  0.000000  0.999445  0.000555  1
  Ga  Ga3  1  0.500000  0.722744  0.277256  1
  Ga  Ga4  1  0.500000  0.276948  0.999964  1
  Ga  Ga5  1  0.500000  0.000036  0.723052  1
  Ga  Ga6  1  0.000000  0.484988  0.515012  1
  Ga  Ga7  1  0.000000  0.515263  0.999556  1
  Ga  Ga8  1  0.000000  0.000444  0.484737  1
  Cu  Cu9  1  0.500000  0.293391  0.706609  1
  Cu  Cu10  1  0.500000  0.707024  0.999756  1
  Cu  Cu11  1  0.500000  0.000244  0.292976  1
  Ni  Ni12  1  0.000000  0.194590  0.173376  1
  Ni  Ni13  1  0.000000  0.173351  0.633571  1
  Ni  Ni14  1  0.000000  0.632452  0.194043  1
  Ni  Ni15  1  0.000000  0.826623  0.805410  1
  Ni  Ni16  1  0.000000  0.366429  0.826649  1
  Ni  Ni17  1  0.000000  0.805957  0.367548  1
