# generated using pymatgen
data_Pa2Ti(Fe3P2)3
_symmetry_space_group_name_H-M   'P 1'
_cell_length_a   3.70825600
_cell_length_b   10.45075900
_cell_length_c   11.88331200
_cell_angle_alpha   90.00000000
_cell_angle_beta   90.00000000
_cell_angle_gamma   90.00000000
_symmetry_Int_Tables_number   1
_chemical_formula_structural   Pa2Ti(Fe3P2)3
_chemical_formula_sum   'Pa4 Ti2 Fe18 P12'
_cell_volume   460.52693997
_cell_formula_units_Z   2
loop_
 _symmetry_equiv_pos_site_id
 _symmetry_equiv_pos_as_xyz
  1  'x, y, z'
loop_
 _atom_site_type_symbol
 _atom_site_label
 _atom_site_symmetry_multiplicity
 _atom_site_fract_x
 _atom_site_fract_y
 _atom_site_fract_z
 _atom_site_occupancy
  Pa  Pa0  1  0.250000  0.574242  0.698988  1
  Pa  Pa1  1  0.250000  0.925758  0.198988  1
  Pa  Pa2  1  0.750000  0.418711  0.294938  1
  Pa  Pa3  1  0.750000  0.081289  0.794938  1
  Ti  Ti4  1  0.250000  0.695835  0.994527  1
  Ti  Ti5  1  0.250000  0.804165  0.494527  1
  Fe  Fe6  1  0.750000  0.295533  0.006246  1
  Fe  Fe7  1  0.750000  0.204467  0.506246  1
  Fe  Fe8  1  0.250000  0.397549  0.483208  1
  Fe  Fe9  1  0.250000  0.102451  0.983208  1
  Fe  Fe10  1  0.750000  0.589257  0.518952  1
  Fe  Fe11  1  0.750000  0.910743  0.018952  1
  Fe  Fe12  1  0.250000  0.227156  0.170186  1
  Fe  Fe13  1  0.250000  0.272844  0.670186  1
  Fe  Fe14  1  0.750000  0.779262  0.829106  1
  Fe  Fe15  1  0.750000  0.720738  0.329106  1
  Fe  Fe16  1  0.250000  0.882891  0.706748  1
  Fe  Fe17  1  0.250000  0.617109  0.206748  1
  Fe  Fe18  1  0.750000  0.118844  0.296881  1
  Fe  Fe19  1  0.750000  0.381156  0.796881  1
  Fe  Fe20  1  0.250000  0.461057  0.931279  1
  Fe  Fe21  1  0.250000  0.038943  0.431279  1
  Fe  Fe22  1  0.750000  0.529636  0.068393  1
  Fe  Fe23  1  0.750000  0.970364  0.568393  1
  P  P24  1  0.250000  0.422692  0.110047  1
  P  P25  1  0.250000  0.077308  0.610047  1
  P  P26  1  0.750000  0.573318  0.885736  1
  P  P27  1  0.750000  0.926682  0.385736  1
  P  P28  1  0.250000  0.272849  0.861476  1
  P  P29  1  0.250000  0.227151  0.361476  1
  P  P30  1  0.750000  0.725425  0.141024  1
  P  P31  1  0.750000  0.774575  0.641024  1
  P  P32  1  0.250000  0.594332  0.398112  1
  P  P33  1  0.250000  0.905668  0.898112  1
  P  P34  1  0.750000  0.386554  0.604152  1
  P  P35  1  0.750000  0.113446  0.104152  1
