# generated using pymatgen
data_Nd2Hf3As7Pd9
_symmetry_space_group_name_H-M   'P 1'
_cell_length_a   4.09763500
_cell_length_b   10.27718896
_cell_length_c   10.27718900
_cell_angle_alpha   119.99999690
_cell_angle_beta   90.00000000
_cell_angle_gamma   90.00000000
_symmetry_Int_Tables_number   1
_chemical_formula_structural   Nd2Hf3As7Pd9
_chemical_formula_sum   'Nd2 Hf3 As7 Pd9'
_cell_volume   374.81123563
_cell_formula_units_Z   1
loop_
 _symmetry_equiv_pos_site_id
 _symmetry_equiv_pos_as_xyz
  1  'x, y, z'
loop_
 _atom_site_type_symbol
 _atom_site_label
 _atom_site_symmetry_multiplicity
 _atom_site_fract_x
 _atom_site_fract_y
 _atom_site_fract_z
 _atom_site_occupancy
  Nd  Nd0  1  0.000000  0.666667  0.333333  1
  Nd  Nd1  1  0.500000  0.333333  0.666667  1
  Hf  Hf2  1  0.500000  0.773190  0.898331  1
  Hf  Hf3  1  0.500000  0.125140  0.226810  1
  Hf  Hf4  1  0.500000  0.101669  0.874860  1
  As  As5  1  0.000000  0.000000  0.000000  1
  As  As6  1  0.500000  0.703406  0.117190  1
  As  As7  1  0.500000  0.413784  0.296594  1
  As  As8  1  0.500000  0.882810  0.586216  1
  As  As9  1  0.000000  0.586124  0.703995  1
  As  As10  1  0.000000  0.117873  0.413876  1
  As  As11  1  0.000000  0.296005  0.882127  1
  Pd  Pd12  1  0.000000  0.562929  0.933427  1
  Pd  Pd13  1  0.000000  0.370499  0.437071  1
  Pd  Pd14  1  0.000000  0.066573  0.629501  1
  Pd  Pd15  1  0.000000  0.874292  0.152183  1
  Pd  Pd16  1  0.000000  0.277892  0.125708  1
  Pd  Pd17  1  0.000000  0.847817  0.722108  1
  Pd  Pd18  1  0.500000  0.943116  0.377801  1
  Pd  Pd19  1  0.500000  0.434684  0.056884  1
  Pd  Pd20  1  0.500000  0.622199  0.565316  1
