# generated using pymatgen
data_Th2Ga3Cu2Ge
_symmetry_space_group_name_H-M   'P 1'
_cell_length_a   9.07556510
_cell_length_b   9.07556575
_cell_length_c   4.21345600
_cell_angle_alpha   90.00000000
_cell_angle_beta   90.00000000
_cell_angle_gamma   153.37632784
_symmetry_Int_Tables_number   1
_chemical_formula_structural   Th2Ga3Cu2Ge
_chemical_formula_sum   'Th2 Ga3 Cu2 Ge1'
_cell_volume   155.52076661
_cell_formula_units_Z   1
loop_
 _symmetry_equiv_pos_site_id
 _symmetry_equiv_pos_as_xyz
  1  'x, y, z'
loop_
 _atom_site_type_symbol
 _atom_site_label
 _atom_site_symmetry_multiplicity
 _atom_site_fract_x
 _atom_site_fract_y
 _atom_site_fract_z
 _atom_site_occupancy
  Th  Th0  1  0.895288  0.104712  0.750000  1
  Th  Th1  1  0.103835  0.896165  0.250000  1
  Ga  Ga2  1  0.250600  0.749400  0.750000  1
  Ga  Ga3  1  0.749551  0.250449  0.250000  1
  Ga  Ga4  1  0.538520  0.461480  0.750000  1
  Cu  Cu5  1  0.673148  0.326852  0.750000  1
  Cu  Cu6  1  0.327019  0.672981  0.250000  1
  Ge  Ge7  1  0.462037  0.537963  0.250000  1
