# generated using pymatgen
data_La5NdAl3Sn7
_symmetry_space_group_name_H-M   'P 1'
_cell_length_a   6.61150173
_cell_length_b   6.61150235
_cell_length_c   10.42734400
_cell_angle_alpha   90.20839358
_cell_angle_beta   90.20839360
_cell_angle_gamma   102.32090049
_symmetry_Int_Tables_number   1
_chemical_formula_structural   La5NdAl3Sn7
_chemical_formula_sum   'La5 Nd1 Al3 Sn7'
_cell_volume   445.29407853
_cell_formula_units_Z   1
loop_
 _symmetry_equiv_pos_site_id
 _symmetry_equiv_pos_as_xyz
  1  'x, y, z'
loop_
 _atom_site_type_symbol
 _atom_site_label
 _atom_site_symmetry_multiplicity
 _atom_site_fract_x
 _atom_site_fract_y
 _atom_site_fract_z
 _atom_site_occupancy
  La  La0  1  0.361310  0.361310  0.750896  1
  La  La1  1  0.203273  0.800088  0.500622  1
  La  La2  1  0.204330  0.795405  0.001866  1
  La  La3  1  0.800088  0.203273  0.500622  1
  La  La4  1  0.795405  0.204330  0.001866  1
  Nd  Nd5  1  0.640323  0.640323  0.240591  1
  Al  Al6  1  0.313389  0.313389  0.051149  1
  Al  Al7  1  0.684399  0.684399  0.948494  1
  Al  Al8  1  0.310617  0.310617  0.447631  1
  Sn  Sn9  1  0.027777  0.027777  0.249474  1
  Sn  Sn10  1  0.974206  0.974206  0.755468  1
  Sn  Sn11  1  0.674534  0.674534  0.539275  1
  Sn  Sn12  1  0.492573  0.095011  0.250553  1
  Sn  Sn13  1  0.913569  0.509195  0.755469  1
  Sn  Sn14  1  0.509195  0.913569  0.755469  1
  Sn  Sn15  1  0.095011  0.492573  0.250553  1
