# generated using pymatgen
data_Nd2Os3Ru
_symmetry_space_group_name_H-M   'P 1'
_cell_length_a   5.34176600
_cell_length_b   5.34176732
_cell_length_c   9.23202600
_cell_angle_alpha   90.00000000
_cell_angle_beta   90.00000000
_cell_angle_gamma   120.00000423
_symmetry_Int_Tables_number   1
_chemical_formula_structural   Nd2Os3Ru
_chemical_formula_sum   'Nd4 Os6 Ru2'
_cell_volume   228.13790976
_cell_formula_units_Z   2
loop_
 _symmetry_equiv_pos_site_id
 _symmetry_equiv_pos_as_xyz
  1  'x, y, z'
loop_
 _atom_site_type_symbol
 _atom_site_label
 _atom_site_symmetry_multiplicity
 _atom_site_fract_x
 _atom_site_fract_y
 _atom_site_fract_z
 _atom_site_occupancy
  Nd  Nd0  1  0.333333  0.666667  0.434091  1
  Nd  Nd1  1  0.666667  0.333333  0.565909  1
  Nd  Nd2  1  0.666667  0.333333  0.934091  1
  Nd  Nd3  1  0.333333  0.666667  0.065909  1
  Os  Os4  1  0.829669  0.170331  0.250000  1
  Os  Os5  1  0.829669  0.659338  0.250000  1
  Os  Os6  1  0.340662  0.170331  0.250000  1
  Os  Os7  1  0.170331  0.829669  0.750000  1
  Os  Os8  1  0.170331  0.340662  0.750000  1
  Os  Os9  1  0.659338  0.829669  0.750000  1
  Ru  Ru10  1  0.000000  0.000000  0.500000  1
  Ru  Ru11  1  0.000000  0.000000  0.000000  1
