# generated using pymatgen
data_ErTm2Sn3Ir2Rh
_symmetry_space_group_name_H-M   'P 1'
_cell_length_a   7.65581408
_cell_length_b   7.65391180
_cell_length_c   3.68281100
_cell_angle_alpha   90.00000000
_cell_angle_beta   90.00000000
_cell_angle_gamma   119.99178348
_symmetry_Int_Tables_number   1
_chemical_formula_structural   ErTm2Sn3Ir2Rh
_chemical_formula_sum   'Er1 Tm2 Sn3 Ir2 Rh1'
_cell_volume   186.90496845
_cell_formula_units_Z   1
loop_
 _symmetry_equiv_pos_site_id
 _symmetry_equiv_pos_as_xyz
  1  'x, y, z'
loop_
 _atom_site_type_symbol
 _atom_site_label
 _atom_site_symmetry_multiplicity
 _atom_site_fract_x
 _atom_site_fract_y
 _atom_site_fract_z
 _atom_site_occupancy
  Er  Er0  1  0.000000  0.403528  0.000000  1
  Tm  Tm1  1  0.596448  0.596457  0.000000  1
  Tm  Tm2  1  0.403552  0.000009  0.000000  1
  Sn  Sn3  1  0.266291  0.266187  0.500000  1
  Sn  Sn4  1  0.000000  0.733891  0.500000  1
  Sn  Sn5  1  0.733709  0.999895  0.500000  1
  Ir  Ir6  1  0.666489  0.333295  0.500000  1
  Ir  Ir7  1  0.333511  0.666807  0.500000  1
  Rh  Rh8  1  0.000000  0.999932  0.000000  1
