# generated using pymatgen
data_KTh(AsPt)2
_symmetry_space_group_name_H-M   'P 1'
_cell_length_a   4.30288000
_cell_length_b   4.30288053
_cell_length_c   9.30895700
_cell_angle_alpha   90.00000000
_cell_angle_beta   90.00000000
_cell_angle_gamma   119.99999593
_symmetry_Int_Tables_number   1
_chemical_formula_structural   KTh(AsPt)2
_chemical_formula_sum   'K1 Th1 As2 Pt2'
_cell_volume   149.26232291
_cell_formula_units_Z   1
loop_
 _symmetry_equiv_pos_site_id
 _symmetry_equiv_pos_as_xyz
  1  'x, y, z'
loop_
 _atom_site_type_symbol
 _atom_site_label
 _atom_site_symmetry_multiplicity
 _atom_site_fract_x
 _atom_site_fract_y
 _atom_site_fract_z
 _atom_site_occupancy
  K  K0  1  0.000000  0.000000  0.000000  1
  Th  Th1  1  0.000000  0.000000  0.500000  1
  As  As2  1  0.333333  0.666667  0.735053  1
  As  As3  1  0.666667  0.333333  0.264947  1
  Pt  Pt4  1  0.333333  0.666667  0.304855  1
  Pt  Pt5  1  0.666667  0.333333  0.695145  1
