# generated using pymatgen
data_Rb8Li4TbIn3As8
_symmetry_space_group_name_H-M   'P 1'
_cell_length_a   10.56960741
_cell_length_b   10.56960768
_cell_length_c   6.65251379
_cell_angle_alpha   90.08578394
_cell_angle_beta   89.91422497
_cell_angle_gamma   102.19416911
_symmetry_Int_Tables_number   1
_chemical_formula_structural   Rb8Li4TbIn3As8
_chemical_formula_sum   'Rb8 Li4 Tb1 In3 As8'
_cell_volume   726.42645945
_cell_formula_units_Z   1
loop_
 _symmetry_equiv_pos_site_id
 _symmetry_equiv_pos_as_xyz
  1  'x, y, z'
loop_
 _atom_site_type_symbol
 _atom_site_label
 _atom_site_symmetry_multiplicity
 _atom_site_fract_x
 _atom_site_fract_y
 _atom_site_fract_z
 _atom_site_occupancy
  Rb  Rb0  1  0.077491  0.431395  0.743831  1
  Rb  Rb1  1  0.670861  0.328922  0.775635  1
  Rb  Rb2  1  0.328922  0.670861  0.224365  1
  Rb  Rb3  1  0.573939  0.924492  0.749015  1
  Rb  Rb4  1  0.431395  0.077491  0.256169  1
  Rb  Rb5  1  0.924492  0.573939  0.250985  1
  Rb  Rb6  1  0.820963  0.171706  0.282855  1
  Rb  Rb7  1  0.171706  0.820963  0.717145  1
  Li  Li8  1  0.121782  0.121782  0.500000  1
  Li  Li9  1  0.877273  0.877273  0.500000  1
  Li  Li10  1  0.381744  0.381744  0.000000  1
  Li  Li11  1  0.621700  0.621700  0.000000  1
  Tb  Tb12  1  0.126390  0.126390  0.000000  1
  In  In13  1  0.869879  0.869879  0.000000  1
  In  In14  1  0.369813  0.369813  0.500000  1
  In  In15  1  0.632517  0.632517  0.500000  1
  As  As16  1  0.844206  0.656211  0.752725  1
  As  As17  1  0.090594  0.902282  0.234956  1
  As  As18  1  0.410695  0.592745  0.728515  1
  As  As19  1  0.592745  0.410695  0.271485  1
  As  As20  1  0.656211  0.844206  0.247275  1
  As  As21  1  0.157768  0.344630  0.253457  1
  As  As22  1  0.344630  0.157768  0.746543  1
  As  As23  1  0.902282  0.090594  0.765044  1
