# generated using pymatgen
data_Sr2LuNpO6
_symmetry_space_group_name_H-M   'P 1'
_cell_length_a   5.95513248
_cell_length_b   6.04004200
_cell_length_c   8.40690964
_cell_angle_alpha   90.00000000
_cell_angle_beta   90.20720523
_cell_angle_gamma   90.00000000
_symmetry_Int_Tables_number   1
_chemical_formula_structural   Sr2LuNpO6
_chemical_formula_sum   'Sr4 Lu2 Np2 O12'
_cell_volume   302.38825961
_cell_formula_units_Z   2
loop_
 _symmetry_equiv_pos_site_id
 _symmetry_equiv_pos_as_xyz
  1  'x, y, z'
loop_
 _atom_site_type_symbol
 _atom_site_label
 _atom_site_symmetry_multiplicity
 _atom_site_fract_x
 _atom_site_fract_y
 _atom_site_fract_z
 _atom_site_occupancy
  Sr  Sr0  1  0.989453  0.461518  0.250006  1
  Sr  Sr1  1  0.510546  0.961516  0.249994  1
  Sr  Sr2  1  0.489454  0.038483  0.750005  1
  Sr  Sr3  1  0.010547  0.538483  0.749995  1
  Lu  Lu4  1  0.500000  0.500001  0.000000  1
  Lu  Lu5  1  0.999999  0.000000  0.500000  1
  Np  Np6  1  0.000000  0.000000  0.000000  1
  Np  Np7  1  0.499999  0.500001  0.500000  1
  O  O8  1  0.711990  0.206579  0.046942  1
  O  O9  1  0.794797  0.711887  0.048546  1
  O  O10  1  0.088844  0.028080  0.243869  1
  O  O11  1  0.411155  0.528079  0.256131  1
  O  O12  1  0.705204  0.211886  0.451454  1
  O  O13  1  0.788010  0.706580  0.453057  1
  O  O14  1  0.211990  0.293421  0.546943  1
  O  O15  1  0.294796  0.788113  0.548545  1
  O  O16  1  0.588845  0.471920  0.743869  1
  O  O17  1  0.911156  0.971921  0.756132  1
  O  O18  1  0.205204  0.288113  0.951455  1
  O  O19  1  0.288010  0.793420  0.953057  1
