# generated using pymatgen
data_NaFe2(P6Rh)2
_symmetry_space_group_name_H-M   'P 1'
_cell_length_a   6.85246783
_cell_length_b   6.85228740
_cell_length_c   6.89587618
_cell_angle_alpha   109.48398813
_cell_angle_beta   109.39379794
_cell_angle_gamma   109.27168367
_symmetry_Int_Tables_number   1
_chemical_formula_structural   NaFe2(P6Rh)2
_chemical_formula_sum   'Na1 Fe2 P12 Rh2'
_cell_volume   250.06734631
_cell_formula_units_Z   1
loop_
 _symmetry_equiv_pos_site_id
 _symmetry_equiv_pos_as_xyz
  1  'x, y, z'
loop_
 _atom_site_type_symbol
 _atom_site_label
 _atom_site_symmetry_multiplicity
 _atom_site_fract_x
 _atom_site_fract_y
 _atom_site_fract_z
 _atom_site_occupancy
  Na  Na0  1  0.000000  0.000000  0.000000  1
  Fe  Fe1  1  0.000000  0.000000  0.500000  1
  Fe  Fe2  1  0.500000  0.500000  0.500000  1
  P  P3  1  0.500481  0.845446  0.634106  1
  P  P4  1  0.211305  0.866280  0.365848  1
  P  P5  1  0.788695  0.133720  0.634152  1
  P  P6  1  0.148283  0.349044  0.497246  1
  P  P7  1  0.365742  0.499219  0.154326  1
  P  P8  1  0.499519  0.154554  0.365894  1
  P  P9  1  0.139286  0.637935  0.777128  1
  P  P10  1  0.344861  0.211436  0.845647  1
  P  P11  1  0.851717  0.650956  0.502754  1
  P  P12  1  0.655139  0.788564  0.154353  1
  P  P13  1  0.860714  0.362065  0.222872  1
  P  P14  1  0.634258  0.500781  0.845674  1
  Rh  Rh15  1  0.500000  0.000000  0.000000  1
  Rh  Rh16  1  0.000000  0.500000  0.000000  1
