# generated using pymatgen
data_Sc5P3
_symmetry_space_group_name_H-M   'P 1'
_cell_length_a   5.59580300
_cell_length_b   7.73169774
_cell_length_c   7.73169800
_cell_angle_alpha   120.00000969
_cell_angle_beta   90.00000000
_cell_angle_gamma   90.00000000
_symmetry_Int_Tables_number   1
_chemical_formula_structural   Sc5P3
_chemical_formula_sum   'Sc10 P6'
_cell_volume   289.69617133
_cell_formula_units_Z   2
loop_
 _symmetry_equiv_pos_site_id
 _symmetry_equiv_pos_as_xyz
  1  'x, y, z'
loop_
 _atom_site_type_symbol
 _atom_site_label
 _atom_site_symmetry_multiplicity
 _atom_site_fract_x
 _atom_site_fract_y
 _atom_site_fract_z
 _atom_site_occupancy
  Sc  Sc0  1  0.750000  0.747271  0.747271  1
  Sc  Sc1  1  0.250000  0.252729  0.252729  1
  Sc  Sc2  1  0.750000  0.000000  0.252729  1
  Sc  Sc3  1  0.250000  0.000000  0.747271  1
  Sc  Sc4  1  0.750000  0.252729  0.000000  1
  Sc  Sc5  1  0.250000  0.747271  0.000000  1
  Sc  Sc6  1  0.000000  0.666667  0.333333  1
  Sc  Sc7  1  0.000000  0.333333  0.666667  1
  Sc  Sc8  1  0.500000  0.333333  0.666667  1
  Sc  Sc9  1  0.500000  0.666667  0.333333  1
  P  P10  1  0.750000  0.384784  0.384784  1
  P  P11  1  0.250000  0.615216  0.615216  1
  P  P12  1  0.750000  0.000000  0.615216  1
  P  P13  1  0.250000  0.000000  0.384784  1
  P  P14  1  0.750000  0.615216  0.000000  1
  P  P15  1  0.250000  0.384784  0.000000  1
