# generated using pymatgen
data_TbY7(TmBi)12
_symmetry_space_group_name_H-M   'P 1'
_cell_length_a   8.22120410
_cell_length_b   9.43598400
_cell_length_c   12.02815214
_cell_angle_alpha   90.00000000
_cell_angle_beta   89.98251956
_cell_angle_gamma   90.00000000
_symmetry_Int_Tables_number   1
_chemical_formula_structural   TbY7(TmBi)12
_chemical_formula_sum   'Tb1 Y7 Tm12 Bi12'
_cell_volume   933.08566675
_cell_formula_units_Z   1
loop_
 _symmetry_equiv_pos_site_id
 _symmetry_equiv_pos_as_xyz
  1  'x, y, z'
loop_
 _atom_site_type_symbol
 _atom_site_label
 _atom_site_symmetry_multiplicity
 _atom_site_fract_x
 _atom_site_fract_y
 _atom_site_fract_z
 _atom_site_occupancy
  Tb  Tb0  1  0.186410  0.750000  0.718703  1
  Y  Y1  1  0.686408  0.750000  0.781364  1
  Y  Y2  1  0.813551  0.250000  0.281350  1
  Y  Y3  1  0.313608  0.250000  0.218660  1
  Y  Y4  1  0.353697  0.750000  0.216107  1
  Y  Y5  1  0.853645  0.750000  0.283922  1
  Y  Y6  1  0.646301  0.250000  0.783913  1
  Y  Y7  1  0.146351  0.250000  0.716120  1
  Tm  Tm8  1  0.025201  0.750000  0.988965  1
  Tm  Tm9  1  0.525069  0.750000  0.510907  1
  Tm  Tm10  1  0.974851  0.250000  0.010925  1
  Tm  Tm11  1  0.474869  0.250000  0.489065  1
  Tm  Tm12  1  0.306882  0.434396  0.940484  1
  Tm  Tm13  1  0.806919  0.065557  0.559520  1
  Tm  Tm14  1  0.693130  0.934396  0.059538  1
  Tm  Tm15  1  0.193136  0.565600  0.440529  1
  Tm  Tm16  1  0.693130  0.565604  0.059538  1
  Tm  Tm17  1  0.193136  0.934400  0.440529  1
  Tm  Tm18  1  0.306882  0.065604  0.940484  1
  Tm  Tm19  1  0.806919  0.434443  0.559520  1
  Bi  Bi20  1  0.433992  0.004026  0.672491  1
  Bi  Bi21  1  0.933795  0.496022  0.827516  1
  Bi  Bi22  1  0.566099  0.503881  0.327484  1
  Bi  Bi23  1  0.066127  0.996104  0.172465  1
  Bi  Bi24  1  0.566099  0.996119  0.327484  1
  Bi  Bi25  1  0.066127  0.503896  0.172465  1
  Bi  Bi26  1  0.433992  0.495974  0.672491  1
  Bi  Bi27  1  0.933795  0.003978  0.827516  1
  Bi  Bi28  1  0.406985  0.750000  0.957905  1
  Bi  Bi29  1  0.906541  0.750000  0.542014  1
  Bi  Bi30  1  0.593157  0.250000  0.042128  1
  Bi  Bi31  1  0.093196  0.250000  0.457895  1
