# generated using pymatgen
data_Sc5Ti3Al14GeRh7
_symmetry_space_group_name_H-M   'P 1'
_cell_length_a   8.79758858
_cell_length_b   8.79758942
_cell_length_c   8.79758872
_cell_angle_alpha   120.20294244
_cell_angle_beta   119.98763365
_cell_angle_gamma   89.83513414
_symmetry_Int_Tables_number   1
_chemical_formula_structural   Sc5Ti3Al14GeRh7
_chemical_formula_sum   'Sc5 Ti3 Al14 Ge1 Rh7'
_cell_volume   480.77976219
_cell_formula_units_Z   1
loop_
 _symmetry_equiv_pos_site_id
 _symmetry_equiv_pos_as_xyz
  1  'x, y, z'
loop_
 _atom_site_type_symbol
 _atom_site_label
 _atom_site_symmetry_multiplicity
 _atom_site_fract_x
 _atom_site_fract_y
 _atom_site_fract_z
 _atom_site_occupancy
  Sc  Sc0  1  0.792667  0.286780  0.071913  1
  Sc  Sc1  1  0.214867  0.286780  0.494113  1
  Sc  Sc2  1  0.206206  0.706206  0.500000  1
  Sc  Sc3  1  0.214867  0.720754  0.928087  1
  Sc  Sc4  1  0.792667  0.720754  0.505887  1
  Ti  Ti5  1  0.785912  0.285912  0.500000  1
  Ti  Ti6  1  0.379442  0.123959  0.744517  1
  Ti  Ti7  1  0.379442  0.634925  0.255483  1
  Al  Al8  1  0.164035  0.334468  0.170433  1
  Al  Al9  1  0.164035  0.993603  0.829567  1
  Al  Al10  1  0.155586  0.338167  0.817419  1
  Al  Al11  1  0.520748  0.338167  0.182581  1
  Al  Al12  1  0.836682  0.657482  0.820801  1
  Al  Al13  1  0.836682  0.015880  0.179199  1
  Al  Al14  1  0.831320  0.663617  0.167702  1
  Al  Al15  1  0.495914  0.663617  0.832298  1
  Al  Al16  1  0.388579  0.124121  0.264458  1
  Al  Al17  1  0.859665  0.124121  0.735542  1
  Al  Al18  1  0.622238  0.884403  0.262165  1
  Al  Al19  1  0.622238  0.360072  0.737835  1
  Al  Al20  1  0.618034  0.876359  0.741676  1
  Al  Al21  1  0.134683  0.876359  0.258324  1
  Ge  Ge22  1  0.989235  0.489235  0.500000  1
  Rh  Rh23  1  0.000757  0.000679  0.501559  1
  Rh  Rh24  1  0.499120  0.000679  0.999922  1
  Rh  Rh25  1  0.497166  0.497166  0.000000  1
  Rh  Rh26  1  0.499120  0.499198  0.498441  1
  Rh  Rh27  1  0.000757  0.499198  0.000078  1
  Rh  Rh28  1  0.000413  0.000413  0.000000  1
  Rh  Rh29  1  0.496922  0.996922  0.500000  1
