# generated using pymatgen
data_Ho4MnFeC4
_symmetry_space_group_name_H-M   'P 1'
_cell_length_a   5.02653900
_cell_length_b   6.27276200
_cell_length_c   9.62011400
_cell_angle_alpha   90.00000000
_cell_angle_beta   90.00000000
_cell_angle_gamma   90.00000000
_symmetry_Int_Tables_number   1
_chemical_formula_structural   Ho4MnFeC4
_chemical_formula_sum   'Ho8 Mn2 Fe2 C8'
_cell_volume   303.32491528
_cell_formula_units_Z   2
loop_
 _symmetry_equiv_pos_site_id
 _symmetry_equiv_pos_as_xyz
  1  'x, y, z'
loop_
 _atom_site_type_symbol
 _atom_site_label
 _atom_site_symmetry_multiplicity
 _atom_site_fract_x
 _atom_site_fract_y
 _atom_site_fract_z
 _atom_site_occupancy
  Ho  Ho0  1  0.250000  0.479396  0.785470  1
  Ho  Ho1  1  0.750000  0.020604  0.285470  1
  Ho  Ho2  1  0.250000  0.979405  0.713600  1
  Ho  Ho3  1  0.750000  0.520595  0.213600  1
  Ho  Ho4  1  0.250000  0.818378  0.054581  1
  Ho  Ho5  1  0.750000  0.681622  0.554581  1
  Ho  Ho6  1  0.250000  0.315431  0.444244  1
  Ho  Ho7  1  0.750000  0.184569  0.944244  1
  Mn  Mn8  1  0.250000  0.771186  0.357040  1
  Mn  Mn9  1  0.750000  0.728814  0.857040  1
  Fe  Fe10  1  0.250000  0.271381  0.142929  1
  Fe  Fe11  1  0.750000  0.228619  0.642929  1
  C  C12  1  0.250000  0.190864  0.962667  1
  C  C13  1  0.750000  0.810511  0.037986  1
  C  C14  1  0.250000  0.689489  0.537986  1
  C  C15  1  0.750000  0.309136  0.462667  1
  C  C16  1  0.250000  0.034964  0.260496  1
  C  C17  1  0.750000  0.465036  0.760496  1
  C  C18  1  0.250000  0.537064  0.240987  1
  C  C19  1  0.750000  0.962936  0.740987  1
