# generated using pymatgen
data_Cs2Ru(WO4)3
_symmetry_space_group_name_H-M   'P 1'
_cell_length_a   7.36432112
_cell_length_b   7.35136857
_cell_length_c   7.37174689
_cell_angle_alpha   60.47501946
_cell_angle_beta   60.41236393
_cell_angle_gamma   60.58390970
_symmetry_Int_Tables_number   1
_chemical_formula_structural   Cs2Ru(WO4)3
_chemical_formula_sum   'Cs2 Ru1 W3 O12'
_cell_volume   285.32627614
_cell_formula_units_Z   1
loop_
 _symmetry_equiv_pos_site_id
 _symmetry_equiv_pos_as_xyz
  1  'x, y, z'
loop_
 _atom_site_type_symbol
 _atom_site_label
 _atom_site_symmetry_multiplicity
 _atom_site_fract_x
 _atom_site_fract_y
 _atom_site_fract_z
 _atom_site_occupancy
  Cs  Cs0  1  0.631960  0.631398  0.631366  1
  Cs  Cs1  1  0.368040  0.368602  0.368634  1
  Ru  Ru2  1  0.000000  0.000000  0.000000  1
  W  W3  1  0.500000  0.000000  0.000000  1
  W  W4  1  0.000000  0.000000  0.500000  1
  W  W5  1  0.000000  0.500000  0.000000  1
  O  O6  1  0.942456  0.312627  0.312960  1
  O  O7  1  0.314464  0.939497  0.940066  1
  O  O8  1  0.313119  0.312518  0.942393  1
  O  O9  1  0.939871  0.939500  0.315413  1
  O  O10  1  0.939583  0.315788  0.939748  1
  O  O11  1  0.312716  0.942371  0.312437  1
  O  O12  1  0.057544  0.687373  0.687040  1
  O  O13  1  0.685536  0.060503  0.059934  1
  O  O14  1  0.686881  0.687482  0.057607  1
  O  O15  1  0.060129  0.060500  0.684587  1
  O  O16  1  0.060417  0.684212  0.060252  1
  O  O17  1  0.687284  0.057629  0.687563  1
