# generated using pymatgen
data_Li8PrTh7Sn8
_symmetry_space_group_name_H-M   'P 1'
_cell_length_a   9.65156600
_cell_length_b   9.65156570
_cell_length_c   7.42800700
_cell_angle_alpha   90.00000000
_cell_angle_beta   90.00000000
_cell_angle_gamma   120.00000102
_symmetry_Int_Tables_number   1
_chemical_formula_structural   Li8PrTh7Sn8
_chemical_formula_sum   'Li8 Pr1 Th7 Sn8'
_cell_volume   599.23681625
_cell_formula_units_Z   1
loop_
 _symmetry_equiv_pos_site_id
 _symmetry_equiv_pos_as_xyz
  1  'x, y, z'
loop_
 _atom_site_type_symbol
 _atom_site_label
 _atom_site_symmetry_multiplicity
 _atom_site_fract_x
 _atom_site_fract_y
 _atom_site_fract_z
 _atom_site_occupancy
  Li  Li0  1  0.833074  0.166926  0.723641  1
  Li  Li1  1  0.833074  0.666148  0.723641  1
  Li  Li2  1  0.333852  0.166926  0.723641  1
  Li  Li3  1  0.166207  0.833793  0.220867  1
  Li  Li4  1  0.166207  0.332414  0.220867  1
  Li  Li5  1  0.667586  0.833793  0.220867  1
  Li  Li6  1  0.666667  0.333333  0.315502  1
  Li  Li7  1  0.333333  0.666667  0.814657  1
  Pr  Pr8  1  0.000000  0.000000  0.000170  1
  Th  Th9  1  0.490389  0.509611  0.505146  1
  Th  Th10  1  0.490389  0.980777  0.505146  1
  Th  Th11  1  0.019223  0.509611  0.505146  1
  Th  Th12  1  0.509307  0.490693  0.005560  1
  Th  Th13  1  0.509307  0.018614  0.005560  1
  Th  Th14  1  0.981386  0.490693  0.005560  1
  Th  Th15  1  0.000000  0.000000  0.500922  1
  Sn  Sn16  1  0.832741  0.167259  0.267151  1
  Sn  Sn17  1  0.832741  0.665483  0.267151  1
  Sn  Sn18  1  0.334517  0.167259  0.267151  1
  Sn  Sn19  1  0.167160  0.832840  0.763494  1
  Sn  Sn20  1  0.167160  0.334319  0.763494  1
  Sn  Sn21  1  0.665681  0.832840  0.763494  1
  Sn  Sn22  1  0.666667  0.333333  0.735361  1
  Sn  Sn23  1  0.333333  0.666667  0.233814  1
