# generated using pymatgen
data_Li4La2DyErSn4
_symmetry_space_group_name_H-M   'P 1'
_cell_length_a   9.50183100
_cell_length_b   9.50263701
_cell_length_c   7.65305400
_cell_angle_alpha   89.99960003
_cell_angle_beta   90.00000000
_cell_angle_gamma   119.99719076
_symmetry_Int_Tables_number   1
_chemical_formula_structural   Li4La2DyErSn4
_chemical_formula_sum   'Li8 La4 Dy2 Er2 Sn8'
_cell_volume   598.45175408
_cell_formula_units_Z   2
loop_
 _symmetry_equiv_pos_site_id
 _symmetry_equiv_pos_as_xyz
  1  'x, y, z'
loop_
 _atom_site_type_symbol
 _atom_site_label
 _atom_site_symmetry_multiplicity
 _atom_site_fract_x
 _atom_site_fract_y
 _atom_site_fract_z
 _atom_site_occupancy
  Li  Li0  1  0.166310  0.332621  0.238372  1
  Li  Li1  1  0.166206  0.833638  0.238290  1
  Li  Li2  1  0.667431  0.833638  0.238290  1
  Li  Li3  1  0.666762  0.333522  0.341810  1
  Li  Li4  1  0.832572  0.665145  0.686058  1
  Li  Li5  1  0.334761  0.167516  0.686190  1
  Li  Li6  1  0.832754  0.167516  0.686190  1
  Li  Li7  1  0.333271  0.666543  0.807515  1
  La  La8  1  0.999995  0.999990  0.999417  1
  La  La9  1  0.510987  0.021976  0.004430  1
  La  La10  1  0.511057  0.488982  0.004420  1
  La  La11  1  0.977924  0.488982  0.004420  1
  Dy  Dy12  1  0.999990  0.999981  0.501018  1
  Dy  Dy13  1  0.486977  0.973954  0.505634  1
  Er  Er14  1  0.025931  0.512935  0.505603  1
  Er  Er15  1  0.487005  0.512935  0.505603  1
  Sn  Sn16  1  0.333209  0.666419  0.244329  1
  Sn  Sn17  1  0.832917  0.665834  0.286532  1
  Sn  Sn18  1  0.333961  0.167243  0.286282  1
  Sn  Sn19  1  0.833282  0.167243  0.286282  1
  Sn  Sn20  1  0.666982  0.333962  0.725086  1
  Sn  Sn21  1  0.166517  0.333033  0.758401  1
  Sn  Sn22  1  0.166247  0.833196  0.758905  1
  Sn  Sn23  1  0.666950  0.833196  0.758905  1
