# generated using pymatgen
data_Tb2Y10GaCo4Sn
_symmetry_space_group_name_H-M   'P 1'
_cell_length_a   8.36424700
_cell_length_b   8.38860830
_cell_length_c   8.36424823
_cell_angle_alpha   111.85747813
_cell_angle_beta   109.10811023
_cell_angle_gamma   107.36127356
_symmetry_Int_Tables_number   1
_chemical_formula_structural   Tb2Y10GaCo4Sn
_chemical_formula_sum   'Tb2 Y10 Ga1 Co4 Sn1'
_cell_volume   451.72466178
_cell_formula_units_Z   1
loop_
 _symmetry_equiv_pos_site_id
 _symmetry_equiv_pos_as_xyz
  1  'x, y, z'
loop_
 _atom_site_type_symbol
 _atom_site_label
 _atom_site_symmetry_multiplicity
 _atom_site_fract_x
 _atom_site_fract_y
 _atom_site_fract_z
 _atom_site_occupancy
  Tb  Tb0  1  0.325024  0.009384  0.684360  1
  Tb  Tb1  1  0.674976  0.990616  0.315640  1
  Y  Y2  1  0.432683  0.232613  0.199667  1
  Y  Y3  1  0.567317  0.767387  0.800333  1
  Y  Y4  1  0.032945  0.232613  0.799930  1
  Y  Y5  1  0.967055  0.767387  0.200070  1
  Y  Y6  1  0.180325  0.281356  0.461169  1
  Y  Y7  1  0.819675  0.718644  0.538831  1
  Y  Y8  1  0.179812  0.718644  0.898970  1
  Y  Y9  1  0.820188  0.281356  0.101030  1
  Y  Y10  1  0.325282  0.638639  0.313357  1
  Y  Y11  1  0.674718  0.361361  0.686643  1
  Ga  Ga12  1  0.000000  0.000000  0.000000  1
  Co  Co13  1  0.339439  0.000000  0.339439  1
  Co  Co14  1  0.660561  0.000000  0.660561  1
  Co  Co15  1  0.113207  0.614083  0.500876  1
  Co  Co16  1  0.886793  0.385917  0.499124  1
  Sn  Sn17  1  0.500000  0.500000  0.000000  1
