# generated using pymatgen
data_Tm3Lu(ZrPt)4
_symmetry_space_group_name_H-M   'P 1'
_cell_length_a   4.67374400
_cell_length_b   7.03534829
_cell_length_c   8.22001781
_cell_angle_alpha   89.94474287
_cell_angle_beta   90.00000000
_cell_angle_gamma   90.00000000
_symmetry_Int_Tables_number   1
_chemical_formula_structural   Tm3Lu(ZrPt)4
_chemical_formula_sum   'Tm3 Lu1 Zr4 Pt4'
_cell_volume   270.28570666
_cell_formula_units_Z   1
loop_
 _symmetry_equiv_pos_site_id
 _symmetry_equiv_pos_as_xyz
  1  'x, y, z'
loop_
 _atom_site_type_symbol
 _atom_site_label
 _atom_site_symmetry_multiplicity
 _atom_site_fract_x
 _atom_site_fract_y
 _atom_site_fract_z
 _atom_site_occupancy
  Tm  Tm0  1  0.250000  0.516128  0.178275  1
  Tm  Tm1  1  0.750000  0.484003  0.822278  1
  Tm  Tm2  1  0.750000  0.983883  0.677618  1
  Lu  Lu3  1  0.250000  0.016792  0.322065  1
  Zr  Zr4  1  0.250000  0.649229  0.579456  1
  Zr  Zr5  1  0.750000  0.350721  0.420127  1
  Zr  Zr6  1  0.750000  0.851089  0.080379  1
  Zr  Zr7  1  0.250000  0.148975  0.920440  1
  Pt  Pt8  1  0.250000  0.767252  0.905587  1
  Pt  Pt9  1  0.750000  0.232156  0.094940  1
  Pt  Pt10  1  0.750000  0.733141  0.405558  1
  Pt  Pt11  1  0.250000  0.266629  0.593277  1
