# generated using pymatgen
data_Er3Lu7CuIrPb6
_symmetry_space_group_name_H-M   'P 1'
_cell_length_a   9.05936201
_cell_length_b   9.05950718
_cell_length_c   6.69433300
_cell_angle_alpha   89.99864503
_cell_angle_beta   90.00353622
_cell_angle_gamma   119.99799336
_symmetry_Int_Tables_number   1
_chemical_formula_structural   Er3Lu7CuIrPb6
_chemical_formula_sum   'Er3 Lu7 Cu1 Ir1 Pb6'
_cell_volume   475.82681356
_cell_formula_units_Z   1
loop_
 _symmetry_equiv_pos_site_id
 _symmetry_equiv_pos_as_xyz
  1  'x, y, z'
loop_
 _atom_site_type_symbol
 _atom_site_label
 _atom_site_symmetry_multiplicity
 _atom_site_fract_x
 _atom_site_fract_y
 _atom_site_fract_z
 _atom_site_occupancy
  Er  Er0  1  0.666672  0.333336  0.999979  1
  Er  Er1  1  0.666667  0.333341  0.500000  1
  Er  Er2  1  0.333323  0.666660  0.499996  1
  Lu  Lu3  1  0.243197  0.999847  0.236664  1
  Lu  Lu4  1  0.756643  0.999857  0.763327  1
  Lu  Lu5  1  0.000144  0.243378  0.236668  1
  Lu  Lu6  1  0.000159  0.756788  0.763315  1
  Lu  Lu7  1  0.756633  0.756794  0.236652  1
  Lu  Lu8  1  0.243218  0.243379  0.763300  1
  Lu  Lu9  1  0.333332  0.666672  0.999989  1
  Cu  Cu10  1  0.000001  0.000007  0.499989  1
  Ir  Ir11  1  0.999995  0.000001  0.999992  1
  Pb  Pb12  1  0.601358  0.999291  0.252960  1
  Pb  Pb13  1  0.398104  0.999335  0.747092  1
  Pb  Pb14  1  0.000651  0.601978  0.252926  1
  Pb  Pb15  1  0.000572  0.398576  0.747055  1
  Pb  Pb16  1  0.398117  0.398785  0.253006  1
  Pb  Pb17  1  0.601213  0.601975  0.747090  1
