# generated using pymatgen
data_Ca6TaIO12
_symmetry_space_group_name_H-M   'P 1'
_cell_length_a   5.89432005
_cell_length_b   5.63050219
_cell_length_c   9.88534914
_cell_angle_alpha   55.34555638
_cell_angle_beta   90.12912446
_cell_angle_gamma   89.95085829
_symmetry_Int_Tables_number   1
_chemical_formula_structural   Ca6TaIO12
_chemical_formula_sum   'Ca6 Ta1 I1 O12'
_cell_volume   269.87154939
_cell_formula_units_Z   1
loop_
 _symmetry_equiv_pos_site_id
 _symmetry_equiv_pos_as_xyz
  1  'x, y, z'
loop_
 _atom_site_type_symbol
 _atom_site_label
 _atom_site_symmetry_multiplicity
 _atom_site_fract_x
 _atom_site_fract_y
 _atom_site_fract_z
 _atom_site_occupancy
  Ca  Ca0  1  0.050514  0.720360  0.773620  1
  Ca  Ca1  1  0.949486  0.279640  0.226380  1
  Ca  Ca2  1  0.561605  0.261320  0.761869  1
  Ca  Ca3  1  0.438395  0.738680  0.238131  1
  Ca  Ca4  1  0.500000  0.500000  0.000000  1
  Ca  Ca5  1  0.000000  0.500000  0.500000  1
  Ta  Ta6  1  0.000000  0.000000  0.000000  1
  I  I7  1  0.500000  0.000000  0.500000  1
  O  O8  1  0.443944  0.907257  0.715595  1
  O  O9  1  0.556056  0.092743  0.284405  1
  O  O10  1  0.942156  0.122439  0.767079  1
  O  O11  1  0.057844  0.877561  0.232921  1
  O  O12  1  0.766109  0.760477  0.576727  1
  O  O13  1  0.233891  0.239523  0.423273  1
  O  O14  1  0.283927  0.241415  0.932327  1
  O  O15  1  0.716073  0.758585  0.067673  1
  O  O16  1  0.326305  0.671143  0.556609  1
  O  O17  1  0.673695  0.328857  0.443391  1
  O  O18  1  0.820061  0.339544  0.954073  1
  O  O19  1  0.179939  0.660456  0.045927  1
