# generated using pymatgen
data_HfSc(NiP)3
_symmetry_space_group_name_H-M   'P 1'
_cell_length_a   3.63363800
_cell_length_b   10.02938600
_cell_length_c   12.25517300
_cell_angle_alpha   90.00000000
_cell_angle_beta   90.00000000
_cell_angle_gamma   90.00000000
_symmetry_Int_Tables_number   1
_chemical_formula_structural   HfSc(NiP)3
_chemical_formula_sum   'Hf4 Sc4 Ni12 P12'
_cell_volume   446.61720701
_cell_formula_units_Z   4
loop_
 _symmetry_equiv_pos_site_id
 _symmetry_equiv_pos_as_xyz
  1  'x, y, z'
loop_
 _atom_site_type_symbol
 _atom_site_label
 _atom_site_symmetry_multiplicity
 _atom_site_fract_x
 _atom_site_fract_y
 _atom_site_fract_z
 _atom_site_occupancy
  Hf  Hf0  1  0.250000  0.160978  0.496743  1
  Hf  Hf1  1  0.750000  0.839022  0.503257  1
  Hf  Hf2  1  0.750000  0.660978  0.003257  1
  Hf  Hf3  1  0.250000  0.339022  0.996743  1
  Sc  Sc4  1  0.250000  0.073151  0.209825  1
  Sc  Sc5  1  0.750000  0.926849  0.790175  1
  Sc  Sc6  1  0.750000  0.573151  0.290175  1
  Sc  Sc7  1  0.250000  0.426849  0.709825  1
  Ni  Ni8  1  0.250000  0.727277  0.664414  1
  Ni  Ni9  1  0.750000  0.272723  0.335586  1
  Ni  Ni10  1  0.750000  0.227277  0.835586  1
  Ni  Ni11  1  0.250000  0.772723  0.164414  1
  Ni  Ni12  1  0.250000  0.365973  0.218711  1
  Ni  Ni13  1  0.750000  0.634027  0.781289  1
  Ni  Ni14  1  0.750000  0.865973  0.281289  1
  Ni  Ni15  1  0.250000  0.134027  0.718711  1
  Ni  Ni16  1  0.250000  0.596167  0.481446  1
  Ni  Ni17  1  0.750000  0.403833  0.518554  1
  Ni  Ni18  1  0.750000  0.096167  0.018554  1
  Ni  Ni19  1  0.250000  0.903833  0.981446  1
  P  P20  1  0.250000  0.945961  0.625854  1
  P  P21  1  0.750000  0.054039  0.374146  1
  P  P22  1  0.750000  0.445961  0.874146  1
  P  P23  1  0.250000  0.554039  0.125854  1
  P  P24  1  0.250000  0.396818  0.399114  1
  P  P25  1  0.750000  0.603182  0.600886  1
  P  P26  1  0.750000  0.896818  0.100886  1
  P  P27  1  0.250000  0.103182  0.899114  1
  P  P28  1  0.250000  0.764223  0.354726  1
  P  P29  1  0.750000  0.235777  0.645274  1
  P  P30  1  0.750000  0.264223  0.145274  1
  P  P31  1  0.250000  0.735777  0.854726  1
