# generated using pymatgen
data_Tb4Er12MgCd3Ir4
_symmetry_space_group_name_H-M   'P 1'
_cell_length_a   9.60488978
_cell_length_b   9.59635099
_cell_length_c   9.59635096
_cell_angle_alpha   59.83540950
_cell_angle_beta   59.78472975
_cell_angle_gamma   59.78473559
_symmetry_Int_Tables_number   1
_chemical_formula_structural   Tb4Er12MgCd3Ir4
_chemical_formula_sum   'Tb4 Er12 Mg1 Cd3 Ir4'
_cell_volume   622.62887587
_cell_formula_units_Z   1
loop_
 _symmetry_equiv_pos_site_id
 _symmetry_equiv_pos_as_xyz
  1  'x, y, z'
loop_
 _atom_site_type_symbol
 _atom_site_label
 _atom_site_symmetry_multiplicity
 _atom_site_fract_x
 _atom_site_fract_y
 _atom_site_fract_z
 _atom_site_occupancy
  Tb  Tb0  1  0.812489  0.189104  0.812540  1
  Tb  Tb1  1  0.187959  0.812042  0.187881  1
  Tb  Tb2  1  0.812489  0.812540  0.189104  1
  Tb  Tb3  1  0.187959  0.187881  0.812042  1
  Er  Er4  1  0.599015  0.598746  0.598746  1
  Er  Er5  1  0.598660  0.598682  0.204256  1
  Er  Er6  1  0.598660  0.204256  0.598682  1
  Er  Er7  1  0.203945  0.598738  0.598738  1
  Er  Er8  1  0.060043  0.438949  0.438949  1
  Er  Er9  1  0.437063  0.062049  0.062049  1
  Er  Er10  1  0.439214  0.059972  0.439193  1
  Er  Er11  1  0.061807  0.437235  0.061748  1
  Er  Er12  1  0.439214  0.439193  0.059972  1
  Er  Er13  1  0.061807  0.061748  0.437235  1
  Er  Er14  1  0.190554  0.811199  0.811199  1
  Er  Er15  1  0.810969  0.189007  0.189007  1
  Mg  Mg16  1  0.828479  0.827863  0.827863  1
  Cd  Cd17  1  0.830665  0.831425  0.507363  1
  Cd  Cd18  1  0.830665  0.507363  0.831425  1
  Cd  Cd19  1  0.507271  0.830808  0.830808  1
  Ir  Ir20  1  0.392537  0.391525  0.391525  1
  Ir  Ir21  1  0.391912  0.393048  0.824677  1
  Ir  Ir22  1  0.391912  0.824677  0.393048  1
  Ir  Ir23  1  0.824711  0.391951  0.391951  1
