# generated using pymatgen
data_Li2Ho(PPd)2
_symmetry_space_group_name_H-M   'P 1'
_cell_length_a   7.54661700
_cell_length_b   7.33323300
_cell_length_c   3.83192400
_cell_angle_alpha   90.00000000
_cell_angle_beta   90.00000000
_cell_angle_gamma   90.00000000
_symmetry_Int_Tables_number   1
_chemical_formula_structural   Li2Ho(PPd)2
_chemical_formula_sum   'Li4 Ho2 P4 Pd4'
_cell_volume   212.06289243
_cell_formula_units_Z   2
loop_
 _symmetry_equiv_pos_site_id
 _symmetry_equiv_pos_as_xyz
  1  'x, y, z'
loop_
 _atom_site_type_symbol
 _atom_site_label
 _atom_site_symmetry_multiplicity
 _atom_site_fract_x
 _atom_site_fract_y
 _atom_site_fract_z
 _atom_site_occupancy
  Li  Li0  1  0.149716  0.580544  0.500000  1
  Li  Li1  1  0.850284  0.419456  0.500000  1
  Li  Li2  1  0.350284  0.080544  0.000000  1
  Li  Li3  1  0.649716  0.919456  0.000000  1
  Ho  Ho4  1  0.500000  0.500000  0.000000  1
  Ho  Ho5  1  0.000000  0.000000  0.500000  1
  P  P6  1  0.705115  0.718461  0.500000  1
  P  P7  1  0.294885  0.281539  0.500000  1
  P  P8  1  0.205115  0.781539  0.000000  1
  P  P9  1  0.794885  0.218461  0.000000  1
  Pd  Pd10  1  0.597794  0.176492  0.500000  1
  Pd  Pd11  1  0.402206  0.823508  0.500000  1
  Pd  Pd12  1  0.097794  0.323508  0.000000  1
  Pd  Pd13  1  0.902206  0.676492  0.000000  1
