# generated using pymatgen
data_Ce4Zn2Sb8Pd
_symmetry_space_group_name_H-M   'P 1'
_cell_length_a   4.42846300
_cell_length_b   4.42846300
_cell_length_c   19.85627700
_cell_angle_alpha   90.00000000
_cell_angle_beta   90.00000000
_cell_angle_gamma   90.00000000
_symmetry_Int_Tables_number   1
_chemical_formula_structural   Ce4Zn2Sb8Pd
_chemical_formula_sum   'Ce4 Zn2 Sb8 Pd1'
_cell_volume   389.40709820
_cell_formula_units_Z   1
loop_
 _symmetry_equiv_pos_site_id
 _symmetry_equiv_pos_as_xyz
  1  'x, y, z'
loop_
 _atom_site_type_symbol
 _atom_site_label
 _atom_site_symmetry_multiplicity
 _atom_site_fract_x
 _atom_site_fract_y
 _atom_site_fract_z
 _atom_site_occupancy
  Ce  Ce0  1  0.500000  0.000000  0.124475  1
  Ce  Ce1  1  0.500000  0.000000  0.629064  1
  Ce  Ce2  1  0.000000  0.500000  0.370936  1
  Ce  Ce3  1  0.000000  0.500000  0.875525  1
  Zn  Zn4  1  0.000000  0.000000  0.500000  1
  Zn  Zn5  1  0.500000  0.500000  0.000000  1
  Sb  Sb6  1  0.500000  0.000000  0.412139  1
  Sb  Sb7  1  0.500000  0.000000  0.920197  1
  Sb  Sb8  1  0.000000  0.500000  0.079803  1
  Sb  Sb9  1  0.000000  0.500000  0.587861  1
  Sb  Sb10  1  0.000000  0.000000  0.248349  1
  Sb  Sb11  1  0.000000  0.000000  0.751651  1
  Sb  Sb12  1  0.500000  0.500000  0.247925  1
  Sb  Sb13  1  0.500000  0.500000  0.752075  1
  Pd  Pd14  1  0.500000  0.500000  0.500000  1
