# generated using pymatgen
data_Ho2Er6Ga12CoPd3
_symmetry_space_group_name_H-M   'P 1'
_cell_length_a   6.97570700
_cell_length_b   8.83891618
_cell_length_c   8.83891500
_cell_angle_alpha   119.99999935
_cell_angle_beta   90.00000000
_cell_angle_gamma   90.00000000
_symmetry_Int_Tables_number   1
_chemical_formula_structural   Ho2Er6Ga12CoPd3
_chemical_formula_sum   'Ho2 Er6 Ga12 Co1 Pd3'
_cell_volume   471.97265567
_cell_formula_units_Z   1
loop_
 _symmetry_equiv_pos_site_id
 _symmetry_equiv_pos_as_xyz
  1  'x, y, z'
loop_
 _atom_site_type_symbol
 _atom_site_label
 _atom_site_symmetry_multiplicity
 _atom_site_fract_x
 _atom_site_fract_y
 _atom_site_fract_z
 _atom_site_occupancy
  Ho  Ho0  1  0.743414  0.000000  0.000000  1
  Ho  Ho1  1  0.247588  0.000000  0.000000  1
  Er  Er2  1  0.750457  0.481866  0.518134  1
  Er  Er3  1  0.255836  0.523546  0.476454  1
  Er  Er4  1  0.750457  0.036270  0.518134  1
  Er  Er5  1  0.255836  0.952908  0.476454  1
  Er  Er6  1  0.750457  0.481866  0.963730  1
  Er  Er7  1  0.255836  0.523546  0.047092  1
  Ga  Ga8  1  0.955910  0.833491  0.166509  1
  Ga  Ga9  1  0.046654  0.167614  0.832386  1
  Ga  Ga10  1  0.955910  0.333019  0.166509  1
  Ga  Ga11  1  0.455501  0.166754  0.833246  1
  Ga  Ga12  1  0.046654  0.664772  0.832386  1
  Ga  Ga13  1  0.545452  0.826608  0.173392  1
  Ga  Ga14  1  0.955910  0.833491  0.666981  1
  Ga  Ga15  1  0.455501  0.666492  0.833246  1
  Ga  Ga16  1  0.046654  0.167614  0.335228  1
  Ga  Ga17  1  0.545452  0.346785  0.173392  1
  Ga  Ga18  1  0.455501  0.166754  0.333508  1
  Ga  Ga19  1  0.545452  0.826608  0.653215  1
  Co  Co20  1  0.515835  0.666667  0.333333  1
  Pd  Pd21  1  0.962177  0.666667  0.333333  1
  Pd  Pd22  1  0.030775  0.333333  0.666667  1
  Pd  Pd23  1  0.470786  0.333333  0.666667  1
