# generated using pymatgen
data_Ho12Si12Pd3Au
_symmetry_space_group_name_H-M   'P 1'
_cell_length_a   4.23005400
_cell_length_b   10.69294077
_cell_length_c   12.33258700
_cell_angle_alpha   89.95187727
_cell_angle_beta   90.00000000
_cell_angle_gamma   90.00000000
_symmetry_Int_Tables_number   1
_chemical_formula_structural   Ho12Si12Pd3Au
_chemical_formula_sum   'Ho12 Si12 Pd3 Au1'
_cell_volume   557.82388686
_cell_formula_units_Z   1
loop_
 _symmetry_equiv_pos_site_id
 _symmetry_equiv_pos_as_xyz
  1  'x, y, z'
loop_
 _atom_site_type_symbol
 _atom_site_label
 _atom_site_symmetry_multiplicity
 _atom_site_fract_x
 _atom_site_fract_y
 _atom_site_fract_z
 _atom_site_occupancy
  Ho  Ho0  1  0.250000  0.879032  0.022667  1
  Ho  Ho1  1  0.250000  0.623229  0.520380  1
  Ho  Ho2  1  0.750000  0.120936  0.979276  1
  Ho  Ho3  1  0.750000  0.377681  0.478649  1
  Ho  Ho4  1  0.250000  0.921280  0.599605  1
  Ho  Ho5  1  0.250000  0.579074  0.101406  1
  Ho  Ho6  1  0.750000  0.079162  0.397260  1
  Ho  Ho7  1  0.750000  0.420702  0.898780  1
  Ho  Ho8  1  0.250000  0.667788  0.802537  1
  Ho  Ho9  1  0.250000  0.838354  0.300979  1
  Ho  Ho10  1  0.750000  0.338656  0.198947  1
  Ho  Ho11  1  0.750000  0.159399  0.698871  1
  Si  Si12  1  0.250000  0.016432  0.823436  1
  Si  Si13  1  0.250000  0.481453  0.325017  1
  Si  Si14  1  0.750000  0.980944  0.176461  1
  Si  Si15  1  0.750000  0.525285  0.675572  1
  Si  Si16  1  0.250000  0.242458  0.848064  1
  Si  Si17  1  0.250000  0.252866  0.343419  1
  Si  Si18  1  0.750000  0.752983  0.156222  1
  Si  Si19  1  0.750000  0.750296  0.655335  1
  Si  Si20  1  0.250000  0.186700  0.535451  1
  Si  Si21  1  0.250000  0.305967  0.040146  1
  Si  Si22  1  0.750000  0.805840  0.459855  1
  Si  Si23  1  0.750000  0.693993  0.961664  1
  Pd  Pd24  1  0.250000  0.109804  0.181403  1
  Pd  Pd25  1  0.750000  0.609780  0.317167  1
  Pd  Pd26  1  0.750000  0.889998  0.818086  1
  Au  Au27  1  0.250000  0.389911  0.683341  1
