# generated using pymatgen
data_Dy2ErGa6(CuNi2)3
_symmetry_space_group_name_H-M   'P 1'
_cell_length_a   4.09619700
_cell_length_b   8.83070955
_cell_length_c   8.83070834
_cell_angle_alpha   59.98913258
_cell_angle_beta   90.00000000
_cell_angle_gamma   90.00000000
_symmetry_Int_Tables_number   1
_chemical_formula_structural   Dy2ErGa6(CuNi2)3
_chemical_formula_sum   'Dy2 Er1 Ga6 Cu3 Ni6'
_cell_volume   276.60182407
_cell_formula_units_Z   1
loop_
 _symmetry_equiv_pos_site_id
 _symmetry_equiv_pos_as_xyz
  1  'x, y, z'
loop_
 _atom_site_type_symbol
 _atom_site_label
 _atom_site_symmetry_multiplicity
 _atom_site_fract_x
 _atom_site_fract_y
 _atom_site_fract_z
 _atom_site_occupancy
  Dy  Dy0  1  0.500000  0.333315  0.333342  1
  Dy  Dy1  1  0.500000  0.666658  0.666685  1
  Er  Er2  1  0.000000  0.000013  0.999987  1
  Ga  Ga3  1  0.000000  0.515221  0.484779  1
  Ga  Ga4  1  0.000000  0.484825  0.000012  1
  Ga  Ga5  1  0.000000  0.999988  0.515175  1
  Ga  Ga6  1  0.500000  0.279281  0.720719  1
  Ga  Ga7  1  0.500000  0.720669  0.000069  1
  Ga  Ga8  1  0.500000  0.999931  0.279331  1
  Cu  Cu9  1  0.500000  0.705444  0.294556  1
  Cu  Cu10  1  0.500000  0.294383  0.000009  1
  Cu  Cu11  1  0.500000  0.999991  0.705617  1
  Ni  Ni12  1  0.000000  0.174842  0.196045  1
  Ni  Ni13  1  0.000000  0.196132  0.628926  1
  Ni  Ni14  1  0.000000  0.629018  0.174841  1
  Ni  Ni15  1  0.000000  0.803955  0.825158  1
  Ni  Ni16  1  0.000000  0.371074  0.803868  1
  Ni  Ni17  1  0.000000  0.825159  0.370982  1
