# generated using pymatgen
data_Ba8Zn5Co3Te4(P2O11)4
_symmetry_space_group_name_H-M   'P 1'
_cell_length_a   16.40250200
_cell_length_b   7.13335918
_cell_length_c   9.94596100
_cell_angle_alpha   74.06385521
_cell_angle_beta   90.00000000
_cell_angle_gamma   90.00000000
_symmetry_Int_Tables_number   1
_chemical_formula_structural   Ba8Zn5Co3Te4(P2O11)4
_chemical_formula_sum   'Ba8 Zn5 Co3 Te4 P8 O44'
_cell_volume   1119.00255278
_cell_formula_units_Z   1
loop_
 _symmetry_equiv_pos_site_id
 _symmetry_equiv_pos_as_xyz
  1  'x, y, z'
loop_
 _atom_site_type_symbol
 _atom_site_label
 _atom_site_symmetry_multiplicity
 _atom_site_fract_x
 _atom_site_fract_y
 _atom_site_fract_z
 _atom_site_occupancy
  Ba  Ba0  1  0.405570  0.741030  0.537378  1
  Ba  Ba1  1  0.905887  0.259250  0.962824  1
  Ba  Ba2  1  0.594295  0.258877  0.462748  1
  Ba  Ba3  1  0.094441  0.740826  0.037280  1
  Ba  Ba4  1  0.259097  0.276781  0.386043  1
  Ba  Ba5  1  0.758855  0.723102  0.113515  1
  Ba  Ba6  1  0.741024  0.723029  0.613809  1
  Ba  Ba7  1  0.240941  0.276753  0.886532  1
  Zn  Zn8  1  0.043907  0.572061  0.699937  1
  Zn  Zn9  1  0.144146  0.820160  0.417601  1
  Zn  Zn10  1  0.643916  0.180331  0.081945  1
  Zn  Zn11  1  0.856085  0.180119  0.581998  1
  Zn  Zn12  1  0.355984  0.819511  0.917839  1
  Co  Co13  1  0.455240  0.569109  0.201213  1
  Co  Co14  1  0.955279  0.430718  0.298830  1
  Co  Co15  1  0.544779  0.430875  0.798743  1
  Te  Te16  1  0.554700  0.832175  0.887497  1
  Te  Te17  1  0.054844  0.168621  0.612855  1
  Te  Te18  1  0.445261  0.167815  0.112514  1
  Te  Te19  1  0.945045  0.832358  0.387209  1
  P  P20  1  0.286595  0.796245  0.226241  1
  P  P21  1  0.786603  0.203629  0.273717  1
  P  P22  1  0.713478  0.203660  0.773708  1
  P  P23  1  0.213075  0.795695  0.726565  1
  P  P24  1  0.601047  0.773982  0.337528  1
  P  P25  1  0.101038  0.225796  0.162516  1
  P  P26  1  0.398967  0.225958  0.662506  1
  P  P27  1  0.898957  0.774129  0.837648  1
  O  O28  1  0.200112  0.715672  0.281279  1
  O  O29  1  0.700110  0.283977  0.218587  1
  O  O30  1  0.799982  0.284107  0.718592  1
  O  O31  1  0.299642  0.715370  0.781554  1
  O  O32  1  0.345817  0.618193  0.274310  1
  O  O33  1  0.845774  0.381812  0.225639  1
  O  O34  1  0.654270  0.381797  0.725684  1
  O  O35  1  0.153837  0.617560  0.775169  1
  O  O36  1  0.672802  0.626975  0.375766  1
  O  O37  1  0.172802  0.372790  0.124317  1
  O  O38  1  0.327222  0.372962  0.624280  1
  O  O39  1  0.827066  0.627454  0.875685  1
  O  O40  1  0.519482  0.654224  0.344259  1
  O  O41  1  0.019473  0.345575  0.155838  1
  O  O42  1  0.480536  0.345754  0.655757  1
  O  O43  1  0.980314  0.653279  0.845664  1
  O  O44  1  0.594125  0.893910  0.444221  1
  O  O45  1  0.094098  0.105823  0.055884  1
  O  O46  1  0.405942  0.106049  0.555802  1
  O  O47  1  0.905799  0.894559  0.944034  1
  O  O48  1  0.314595  0.959372  0.290141  1
  O  O49  1  0.814747  0.040360  0.210044  1
  O  O50  1  0.685418  0.040516  0.709882  1
  O  O51  1  0.185159  0.959130  0.790212  1
  O  O52  1  0.613035  0.903381  0.183968  1
  O  O53  1  0.112974  0.096402  0.316003  1
  O  O54  1  0.387007  0.096464  0.816043  1
  O  O55  1  0.887296  0.903189  0.683893  1
  O  O56  1  0.281024  0.867826  0.063588  1
  O  O57  1  0.781002  0.132156  0.436389  1
  O  O58  1  0.719045  0.132178  0.936376  1
  O  O59  1  0.218804  0.866973  0.563909  1
  O  O60  1  0.461358  0.743434  0.011977  1
  O  O61  1  0.961421  0.257105  0.488296  1
  O  O62  1  0.538588  0.256560  0.987963  1
  O  O63  1  0.038593  0.744641  0.511390  1
  O  O64  1  0.516610  0.709513  0.750774  1
  O  O65  1  0.018088  0.292000  0.749925  1
  O  O66  1  0.483421  0.290466  0.249209  1
  O  O67  1  0.983302  0.709438  0.250842  1
  O  O68  1  0.631215  0.643956  0.967134  1
  O  O69  1  0.131575  0.354317  0.530887  1
  O  O70  1  0.368771  0.356074  0.032895  1
  O  O71  1  0.868693  0.644115  0.467202  1
