# generated using pymatgen
data_Ba2TmClO3
_symmetry_space_group_name_H-M   'P 1'
_cell_length_a   4.37511900
_cell_length_b   4.37511900
_cell_length_c   15.11437700
_cell_angle_alpha   90.00000000
_cell_angle_beta   90.00000000
_cell_angle_gamma   90.00000000
_symmetry_Int_Tables_number   1
_chemical_formula_structural   Ba2TmClO3
_chemical_formula_sum   'Ba4 Tm2 Cl2 O6'
_cell_volume   289.31436032
_cell_formula_units_Z   2
loop_
 _symmetry_equiv_pos_site_id
 _symmetry_equiv_pos_as_xyz
  1  'x, y, z'
loop_
 _atom_site_type_symbol
 _atom_site_label
 _atom_site_symmetry_multiplicity
 _atom_site_fract_x
 _atom_site_fract_y
 _atom_site_fract_z
 _atom_site_occupancy
  Ba  Ba0  1  0.500000  0.000000  0.094924  1
  Ba  Ba1  1  0.500000  0.000000  0.351320  1
  Ba  Ba2  1  0.000000  0.500000  0.648680  1
  Ba  Ba3  1  0.000000  0.500000  0.905076  1
  Tm  Tm4  1  0.500000  0.000000  0.783715  1
  Tm  Tm5  1  0.000000  0.500000  0.216285  1
  Cl  Cl6  1  0.500000  0.000000  0.577000  1
  Cl  Cl7  1  0.000000  0.500000  0.423000  1
  O  O8  1  0.000000  0.500000  0.076187  1
  O  O9  1  0.000000  0.000000  0.238425  1
  O  O10  1  0.500000  0.500000  0.761575  1
  O  O11  1  0.500000  0.000000  0.923813  1
  O  O12  1  0.000000  0.000000  0.761575  1
  O  O13  1  0.500000  0.500000  0.238425  1
