# generated using pymatgen
data_Ce9Y(Si2Os3)2
_symmetry_space_group_name_H-M   'P 1'
_cell_length_a   8.31110620
_cell_length_b   8.31110597
_cell_length_c   8.31110600
_cell_angle_alpha   109.66866721
_cell_angle_beta   109.66865933
_cell_angle_gamma   109.66866684
_symmetry_Int_Tables_number   1
_chemical_formula_structural   Ce9Y(Si2Os3)2
_chemical_formula_sum   'Ce9 Y1 Si4 Os6'
_cell_volume   438.67079449
_cell_formula_units_Z   1
loop_
 _symmetry_equiv_pos_site_id
 _symmetry_equiv_pos_as_xyz
  1  'x, y, z'
loop_
 _atom_site_type_symbol
 _atom_site_label
 _atom_site_symmetry_multiplicity
 _atom_site_fract_x
 _atom_site_fract_y
 _atom_site_fract_z
 _atom_site_occupancy
  Ce  Ce0  1  0.299915  0.549181  0.752154  1
  Ce  Ce1  1  0.752154  0.299915  0.549181  1
  Ce  Ce2  1  0.549181  0.752154  0.299915  1
  Ce  Ce3  1  0.728491  0.500385  0.005651  1
  Ce  Ce4  1  0.005651  0.728491  0.500385  1
  Ce  Ce5  1  0.500385  0.005651  0.728491  1
  Ce  Ce6  1  0.245800  0.196048  0.948389  1
  Ce  Ce7  1  0.948389  0.245800  0.196048  1
  Ce  Ce8  1  0.196048  0.948389  0.245800  1
  Y  Y9  1  0.758732  0.758732  0.758732  1
  Si  Si10  1  0.388871  0.388871  0.388871  1
  Si  Si11  1  0.107750  0.500772  0.000997  1
  Si  Si12  1  0.000997  0.107750  0.500772  1
  Si  Si13  1  0.500772  0.000997  0.107750  1
  Os  Os14  1  0.887355  0.136833  0.750338  1
  Os  Os15  1  0.750338  0.887355  0.136833  1
  Os  Os16  1  0.136833  0.750338  0.887355  1
  Os  Os17  1  0.255170  0.617892  0.369276  1
  Os  Os18  1  0.369276  0.255170  0.617892  1
  Os  Os19  1  0.617892  0.369276  0.255170  1
