# generated using pymatgen
data_Cd8Hg(SeO6)3
_symmetry_space_group_name_H-M   'P 1'
_cell_length_a   7.38144205
_cell_length_b   7.25767887
_cell_length_c   9.85809243
_cell_angle_alpha   88.91424221
_cell_angle_beta   90.38950229
_cell_angle_gamma   120.98249144
_symmetry_Int_Tables_number   1
_chemical_formula_structural   Cd8Hg(SeO6)3
_chemical_formula_sum   'Cd8 Hg1 Se3 O18'
_cell_volume   452.68550841
_cell_formula_units_Z   1
loop_
 _symmetry_equiv_pos_site_id
 _symmetry_equiv_pos_as_xyz
  1  'x, y, z'
loop_
 _atom_site_type_symbol
 _atom_site_label
 _atom_site_symmetry_multiplicity
 _atom_site_fract_x
 _atom_site_fract_y
 _atom_site_fract_z
 _atom_site_occupancy
  Cd  Cd0  1  0.998506  0.703193  0.662950  1
  Cd  Cd1  1  0.319209  0.803861  0.944802  1
  Cd  Cd2  1  0.194186  0.510080  0.280415  1
  Cd  Cd3  1  0.294509  0.286929  0.000291  1
  Cd  Cd4  1  0.491259  0.684334  0.617854  1
  Cd  Cd5  1  0.511161  0.192666  0.704944  1
  Cd  Cd6  1  0.683892  0.496254  0.371647  1
  Cd  Cd7  1  0.818248  0.325091  0.028926  1
  Hg  Hg8  1  0.692609  0.005585  0.322100  1
  Se  Se9  1  0.224786  0.004061  0.333007  1
  Se  Se10  1  0.773852  0.758725  0.986252  1
  Se  Se11  1  0.998947  0.233276  0.665656  1
  O  O12  1  0.003562  0.841346  0.421733  1
  O  O13  1  0.263841  0.859630  0.218646  1
  O  O14  1  0.326103  0.836649  0.711553  1
  O  O15  1  0.170016  0.489359  0.048315  1
  O  O16  1  0.140186  0.422034  0.545873  1
  O  O17  1  0.153246  0.160234  0.747871  1
  O  O18  1  0.215422  0.200130  0.246356  1
  O  O19  1  0.514775  0.683089  0.378038  1
  O  O20  1  0.576506  0.703267  0.877434  1
  O  O21  1  0.426726  0.123413  0.442287  1
  O  O22  1  0.886834  0.011345  0.039503  1
  O  O23  1  0.493183  0.162773  0.942410  1
  O  O24  1  0.670634  0.511711  0.605690  1
  O  O25  1  0.672725  0.577845  0.114755  1
  O  O26  1  0.951716  0.716520  0.908298  1
  O  O27  1  0.835446  0.329882  0.269415  1
  O  O28  1  0.903584  0.339569  0.774326  1
  O  O29  1  0.794334  0.027149  0.590495  1
