# generated using pymatgen
data_NdAl10TcRh
_symmetry_space_group_name_H-M   'P 1'
_cell_length_a   6.89983670
_cell_length_b   6.92006947
_cell_length_c   9.22341100
_cell_angle_alpha   90.00000000
_cell_angle_beta   90.00000000
_cell_angle_gamma   96.74045269
_symmetry_Int_Tables_number   1
_chemical_formula_structural   NdAl10TcRh
_chemical_formula_sum   'Nd2 Al20 Tc2 Rh2'
_cell_volume   437.34943970
_cell_formula_units_Z   2
loop_
 _symmetry_equiv_pos_site_id
 _symmetry_equiv_pos_as_xyz
  1  'x, y, z'
loop_
 _atom_site_type_symbol
 _atom_site_label
 _atom_site_symmetry_multiplicity
 _atom_site_fract_x
 _atom_site_fract_y
 _atom_site_fract_z
 _atom_site_occupancy
  Nd  Nd0  1  0.871956  0.121106  0.750000  1
  Nd  Nd1  1  0.128044  0.878894  0.250000  1
  Al  Al2  1  0.619615  0.375741  0.548805  1
  Al  Al3  1  0.380385  0.624259  0.451195  1
  Al  Al4  1  0.380385  0.624259  0.048805  1
  Al  Al5  1  0.619615  0.375741  0.951195  1
  Al  Al6  1  0.227726  0.225414  0.498410  1
  Al  Al7  1  0.772274  0.774586  0.501590  1
  Al  Al8  1  0.772274  0.774586  0.998410  1
  Al  Al9  1  0.227726  0.225414  0.001590  1
  Al  Al10  1  0.840669  0.159140  0.101510  1
  Al  Al11  1  0.159331  0.840860  0.898490  1
  Al  Al12  1  0.159331  0.840860  0.601510  1
  Al  Al13  1  0.840669  0.159140  0.398490  1
  Al  Al14  1  0.859853  0.590644  0.750000  1
  Al  Al15  1  0.140147  0.409356  0.250000  1
  Al  Al16  1  0.409618  0.139250  0.750000  1
  Al  Al17  1  0.590382  0.860750  0.250000  1
  Al  Al18  1  0.222938  0.481770  0.750000  1
  Al  Al19  1  0.777062  0.518230  0.250000  1
  Al  Al20  1  0.517727  0.779813  0.750000  1
  Al  Al21  1  0.482273  0.220187  0.250000  1
  Tc  Tc22  1  0.500000  0.000000  0.000000  1
  Tc  Tc23  1  0.500000  0.000000  0.500000  1
  Rh  Rh24  1  0.000000  0.500000  0.500000  1
  Rh  Rh25  1  0.000000  0.500000  0.000000  1
