# generated using pymatgen
data_Tb4AlGa(B2Rh5)2
_symmetry_space_group_name_H-M   'P 1'
_cell_length_a   9.51931700
_cell_length_b   9.51931700
_cell_length_c   3.21052700
_cell_angle_alpha   90.00000000
_cell_angle_beta   90.00000000
_cell_angle_gamma   90.00000000
_symmetry_Int_Tables_number   1
_chemical_formula_structural   Tb4AlGa(B2Rh5)2
_chemical_formula_sum   'Tb4 Al1 Ga1 B4 Rh10'
_cell_volume   290.92959700
_cell_formula_units_Z   1
loop_
 _symmetry_equiv_pos_site_id
 _symmetry_equiv_pos_as_xyz
  1  'x, y, z'
loop_
 _atom_site_type_symbol
 _atom_site_label
 _atom_site_symmetry_multiplicity
 _atom_site_fract_x
 _atom_site_fract_y
 _atom_site_fract_z
 _atom_site_occupancy
  Tb  Tb0  1  0.824801  0.325125  0.000000  1
  Tb  Tb1  1  0.325125  0.175199  0.000000  1
  Tb  Tb2  1  0.674875  0.824801  0.000000  1
  Tb  Tb3  1  0.175199  0.674875  0.000000  1
  Al  Al4  1  0.000000  0.000000  0.000000  1
  Ga  Ga5  1  0.500000  0.500000  0.000000  1
  B  B6  1  0.621242  0.122117  0.000000  1
  B  B7  1  0.122117  0.378758  0.000000  1
  B  B8  1  0.877883  0.621242  0.000000  1
  B  B9  1  0.378758  0.877883  0.000000  1
  Rh  Rh10  1  0.070318  0.218576  0.500000  1
  Rh  Rh11  1  0.218576  0.929682  0.500000  1
  Rh  Rh12  1  0.781424  0.070318  0.500000  1
  Rh  Rh13  1  0.929682  0.781424  0.500000  1
  Rh  Rh14  1  0.429238  0.719451  0.500000  1
  Rh  Rh15  1  0.570762  0.280549  0.500000  1
  Rh  Rh16  1  0.719451  0.570762  0.500000  1
  Rh  Rh17  1  0.280549  0.429238  0.500000  1
  Rh  Rh18  1  0.500000  0.000000  0.500000  1
  Rh  Rh19  1  0.000000  0.500000  0.500000  1
