# generated using pymatgen
data_Dy5YNiBr10
_symmetry_space_group_name_H-M   'P 1'
_cell_length_a   7.31761534
_cell_length_b   9.14823424
_cell_length_c   9.20479600
_cell_angle_alpha   107.77679946
_cell_angle_beta   97.00063916
_cell_angle_gamma   105.08644014
_symmetry_Int_Tables_number   1
_chemical_formula_structural   Dy5YNiBr10
_chemical_formula_sum   'Dy5 Y1 Ni1 Br10'
_cell_volume   552.80202390
_cell_formula_units_Z   1
loop_
 _symmetry_equiv_pos_site_id
 _symmetry_equiv_pos_as_xyz
  1  'x, y, z'
loop_
 _atom_site_type_symbol
 _atom_site_label
 _atom_site_symmetry_multiplicity
 _atom_site_fract_x
 _atom_site_fract_y
 _atom_site_fract_z
 _atom_site_occupancy
  Dy  Dy0  1  0.122615  0.045689  0.757832  1
  Dy  Dy1  1  0.877331  0.954461  0.242257  1
  Dy  Dy2  1  0.968994  0.292884  0.091354  1
  Dy  Dy3  1  0.030759  0.707046  0.908666  1
  Dy  Dy4  1  0.352796  0.130459  0.174906  1
  Y  Y5  1  0.646057  0.869398  0.824813  1
  Ni  Ni6  1  0.000946  0.000377  0.000523  1
  Br  Br7  1  0.546227  0.179383  0.914075  1
  Br  Br8  1  0.453635  0.820448  0.085909  1
  Br  Br9  1  0.350645  0.452103  0.271529  1
  Br  Br10  1  0.649304  0.547595  0.728389  1
  Br  Br11  1  0.250870  0.083523  0.458520  1
  Br  Br12  1  0.749397  0.916587  0.541276  1
  Br  Br13  1  0.779873  0.254887  0.344761  1
  Br  Br14  1  0.220270  0.745003  0.655035  1
  Br  Br15  1  0.085390  0.371031  0.826344  1
  Br  Br16  1  0.914896  0.629124  0.173810  1
