# generated using pymatgen
data_YbCe(TcO4)6
_symmetry_space_group_name_H-M   'P 1'
_cell_length_a   10.27372100
_cell_length_b   10.27372119
_cell_length_c   6.25954000
_cell_angle_alpha   90.00000000
_cell_angle_beta   90.00000000
_cell_angle_gamma   120.00000048
_symmetry_Int_Tables_number   1
_chemical_formula_structural   YbCe(TcO4)6
_chemical_formula_sum   'Yb1 Ce1 Tc6 O24'
_cell_volume   572.17462259
_cell_formula_units_Z   1
loop_
 _symmetry_equiv_pos_site_id
 _symmetry_equiv_pos_as_xyz
  1  'x, y, z'
loop_
 _atom_site_type_symbol
 _atom_site_label
 _atom_site_symmetry_multiplicity
 _atom_site_fract_x
 _atom_site_fract_y
 _atom_site_fract_z
 _atom_site_occupancy
  Yb  Yb0  1  0.333333  0.666667  0.250000  1
  Ce  Ce1  1  0.666667  0.333333  0.750000  1
  Tc  Tc2  1  0.085019  0.395351  0.750000  1
  Tc  Tc3  1  0.393959  0.302314  0.250000  1
  Tc  Tc4  1  0.604649  0.689666  0.750000  1
  Tc  Tc5  1  0.908353  0.606041  0.250000  1
  Tc  Tc6  1  0.310334  0.914981  0.750000  1
  Tc  Tc7  1  0.697686  0.091647  0.250000  1
  O  O8  1  0.492424  0.648911  0.523617  1
  O  O9  1  0.351089  0.843513  0.523617  1
  O  O10  1  0.847570  0.733541  0.250000  1
  O  O11  1  0.123319  0.861140  0.750000  1
  O  O12  1  0.266459  0.114029  0.250000  1
  O  O13  1  0.138860  0.262179  0.750000  1
  O  O14  1  0.509694  0.348517  0.022130  1
  O  O15  1  0.885971  0.152430  0.250000  1
  O  O16  1  0.102110  0.699187  0.250000  1
  O  O17  1  0.156487  0.507576  0.976383  1
  O  O18  1  0.156487  0.507576  0.523617  1
  O  O19  1  0.886123  0.308044  0.750000  1
  O  O20  1  0.300813  0.402923  0.250000  1
  O  O21  1  0.691956  0.578079  0.750000  1
  O  O22  1  0.838824  0.490306  0.477870  1
  O  O23  1  0.421921  0.113877  0.750000  1
  O  O24  1  0.651483  0.161176  0.022130  1
  O  O25  1  0.492424  0.648911  0.976383  1
  O  O26  1  0.351089  0.843513  0.976383  1
  O  O27  1  0.651483  0.161176  0.477870  1
  O  O28  1  0.509694  0.348517  0.477870  1
  O  O29  1  0.838824  0.490306  0.022130  1
  O  O30  1  0.737821  0.876681  0.750000  1
  O  O31  1  0.597077  0.897890  0.250000  1
