# generated using pymatgen
data_Th4Ga24NiPd
_symmetry_space_group_name_H-M   'P 1'
_cell_length_a   6.12627000
_cell_length_b   6.12627000
_cell_length_c   15.40424700
_cell_angle_alpha   90.00000000
_cell_angle_beta   90.00000000
_cell_angle_gamma   90.00000000
_symmetry_Int_Tables_number   1
_chemical_formula_structural   Th4Ga24NiPd
_chemical_formula_sum   'Th4 Ga24 Ni1 Pd1'
_cell_volume   578.13963028
_cell_formula_units_Z   1
loop_
 _symmetry_equiv_pos_site_id
 _symmetry_equiv_pos_as_xyz
  1  'x, y, z'
loop_
 _atom_site_type_symbol
 _atom_site_label
 _atom_site_symmetry_multiplicity
 _atom_site_fract_x
 _atom_site_fract_y
 _atom_site_fract_z
 _atom_site_occupancy
  Th  Th0  1  0.500000  0.000000  0.242783  1
  Th  Th1  1  0.500000  0.000000  0.757217  1
  Th  Th2  1  0.000000  0.500000  0.753287  1
  Th  Th3  1  0.000000  0.500000  0.246713  1
  Ga  Ga4  1  0.332185  0.832185  0.428892  1
  Ga  Ga5  1  0.667815  0.167815  0.428892  1
  Ga  Ga6  1  0.332185  0.167815  0.571108  1
  Ga  Ga7  1  0.667815  0.832185  0.571108  1
  Ga  Ga8  1  0.169496  0.669496  0.570128  1
  Ga  Ga9  1  0.830504  0.330504  0.570128  1
  Ga  Ga10  1  0.830504  0.669496  0.429872  1
  Ga  Ga11  1  0.169496  0.330504  0.429872  1
  Ga  Ga12  1  0.243027  0.743027  0.913492  1
  Ga  Ga13  1  0.756973  0.256973  0.913492  1
  Ga  Ga14  1  0.243027  0.256973  0.086508  1
  Ga  Ga15  1  0.756973  0.743027  0.086508  1
  Ga  Ga16  1  0.241995  0.741995  0.086522  1
  Ga  Ga17  1  0.758005  0.258005  0.086522  1
  Ga  Ga18  1  0.758005  0.741995  0.913478  1
  Ga  Ga19  1  0.241995  0.258005  0.913478  1
  Ga  Ga20  1  0.500000  0.500000  0.343497  1
  Ga  Ga21  1  0.500000  0.500000  0.656503  1
  Ga  Ga22  1  0.000000  0.000000  0.656503  1
  Ga  Ga23  1  0.000000  0.000000  0.343497  1
  Ga  Ga24  1  0.500000  0.500000  0.184167  1
  Ga  Ga25  1  0.500000  0.500000  0.815833  1
  Ga  Ga26  1  0.000000  0.000000  0.815833  1
  Ga  Ga27  1  0.000000  0.000000  0.184167  1
  Ni  Ni28  1  0.000000  0.500000  0.000000  1
  Pd  Pd29  1  0.500000  0.000000  0.000000  1
