# generated using pymatgen
data_Tb2PaRh2
_symmetry_space_group_name_H-M   'P 1'
_cell_length_a   6.11213349
_cell_length_b   6.11213217
_cell_length_c   6.11213363
_cell_angle_alpha   143.73574162
_cell_angle_beta   116.21121821
_cell_angle_gamma   75.64204257
_symmetry_Int_Tables_number   1
_chemical_formula_structural   Tb2PaRh2
_chemical_formula_sum   'Tb2 Pa1 Rh2'
_cell_volume   118.63306594
_cell_formula_units_Z   1
loop_
 _symmetry_equiv_pos_site_id
 _symmetry_equiv_pos_as_xyz
  1  'x, y, z'
loop_
 _atom_site_type_symbol
 _atom_site_label
 _atom_site_symmetry_multiplicity
 _atom_site_fract_x
 _atom_site_fract_y
 _atom_site_fract_z
 _atom_site_occupancy
  Tb  Tb0  1  0.305091  0.805091  0.500000  1
  Tb  Tb1  1  0.694909  0.194909  0.500000  1
  Pa  Pa2  1  0.000000  0.000000  0.000000  1
  Rh  Rh3  1  0.281307  0.500000  0.781307  1
  Rh  Rh4  1  0.718693  0.500000  0.218693  1
