# generated using pymatgen
data_Yb3ThIr3RuO14
_symmetry_space_group_name_H-M   'P 1'
_cell_length_a   7.29233404
_cell_length_b   7.29233355
_cell_length_c   7.29233330
_cell_angle_alpha   59.63966892
_cell_angle_beta   59.63967317
_cell_angle_gamma   59.63967164
_symmetry_Int_Tables_number   1
_chemical_formula_structural   Yb3ThIr3RuO14
_chemical_formula_sum   'Yb3 Th1 Ir3 Ru1 O14'
_cell_volume   271.96562144
_cell_formula_units_Z   1
loop_
 _symmetry_equiv_pos_site_id
 _symmetry_equiv_pos_as_xyz
  1  'x, y, z'
loop_
 _atom_site_type_symbol
 _atom_site_label
 _atom_site_symmetry_multiplicity
 _atom_site_fract_x
 _atom_site_fract_y
 _atom_site_fract_z
 _atom_site_occupancy
  Yb  Yb0  1  0.625000  0.125000  0.125000  1
  Yb  Yb1  1  0.125000  0.125000  0.625000  1
  Yb  Yb2  1  0.125000  0.625000  0.125000  1
  Th  Th3  1  0.125000  0.125000  0.125000  1
  Ir  Ir4  1  0.125000  0.625000  0.625000  1
  Ir  Ir5  1  0.625000  0.625000  0.125000  1
  Ir  Ir6  1  0.625000  0.125000  0.625000  1
  Ru  Ru7  1  0.625000  0.625000  0.625000  1
  O  O8  1  0.003104  0.003104  0.003104  1
  O  O9  1  0.246896  0.246896  0.246896  1
  O  O10  1  0.293027  0.293027  0.704862  1
  O  O11  1  0.549746  0.549746  0.950256  1
  O  O12  1  0.700254  0.299744  0.700254  1
  O  O13  1  0.704862  0.293027  0.293027  1
  O  O14  1  0.299744  0.700254  0.700254  1
  O  O15  1  0.293027  0.704862  0.293027  1
  O  O16  1  0.700254  0.700254  0.299744  1
  O  O17  1  0.950256  0.549746  0.549746  1
  O  O18  1  0.545138  0.956973  0.956973  1
  O  O19  1  0.956973  0.956973  0.545138  1
  O  O20  1  0.956973  0.545138  0.956973  1
  O  O21  1  0.549746  0.950256  0.549746  1
