# generated using pymatgen
data_Er8Ti7Si16W5
_symmetry_space_group_name_H-M   'P 1'
_cell_length_a   6.76461265
_cell_length_b   6.94712650
_cell_length_c   13.13902538
_cell_angle_alpha   90.06297482
_cell_angle_beta   89.95152132
_cell_angle_gamma   89.89653801
_symmetry_Int_Tables_number   1
_chemical_formula_structural   Er8Ti7Si16W5
_chemical_formula_sum   'Er8 Ti7 Si16 W5'
_cell_volume   617.46190070
_cell_formula_units_Z   1
loop_
 _symmetry_equiv_pos_site_id
 _symmetry_equiv_pos_as_xyz
  1  'x, y, z'
loop_
 _atom_site_type_symbol
 _atom_site_label
 _atom_site_symmetry_multiplicity
 _atom_site_fract_x
 _atom_site_fract_y
 _atom_site_fract_z
 _atom_site_occupancy
  Er  Er0  1  0.502642  0.329382  0.096438  1
  Er  Er1  1  0.001900  0.171192  0.403927  1
  Er  Er2  1  0.497782  0.672083  0.595696  1
  Er  Er3  1  0.997717  0.829673  0.903529  1
  Er  Er4  1  0.496585  0.670513  0.902451  1
  Er  Er5  1  0.999584  0.830198  0.595617  1
  Er  Er6  1  0.501902  0.328430  0.405509  1
  Er  Er7  1  0.002647  0.171206  0.096845  1
  Ti  Ti8  1  0.835723  0.327102  0.626249  1
  Ti  Ti9  1  0.331519  0.172124  0.872747  1
  Ti  Ti10  1  0.167198  0.671766  0.126852  1
  Ti  Ti11  1  0.666463  0.829069  0.373634  1
  Ti  Ti12  1  0.166877  0.672549  0.374232  1
  Ti  Ti13  1  0.667633  0.828080  0.127141  1
  Ti  Ti14  1  0.832180  0.326875  0.871494  1
  Si  Si15  1  0.659082  0.039149  0.544000  1
  Si  Si16  1  0.160230  0.459669  0.956416  1
  Si  Si17  1  0.339481  0.960124  0.043562  1
  Si  Si18  1  0.838893  0.538758  0.456531  1
  Si  Si19  1  0.336844  0.959396  0.458000  1
  Si  Si20  1  0.840154  0.539679  0.043895  1
  Si  Si21  1  0.659325  0.039822  0.956322  1
  Si  Si22  1  0.163632  0.459744  0.543318  1
  Si  Si23  1  0.535203  0.374563  0.749108  1
  Si  Si24  1  0.036446  0.123974  0.750127  1
  Si  Si25  1  0.463922  0.625863  0.250530  1
  Si  Si26  1  0.964345  0.874800  0.250298  1
  Si  Si27  1  0.797698  0.628284  0.748878  1
  Si  Si28  1  0.298556  0.872355  0.750108  1
  Si  Si29  1  0.203591  0.371743  0.250631  1
  Si  Si30  1  0.702346  0.128756  0.250185  1
  W  W31  1  0.331819  0.171097  0.627054  1
  W  W32  1  0.661157  0.011068  0.749106  1
  W  W33  1  0.160550  0.488716  0.749196  1
  W  W34  1  0.338696  0.991537  0.250216  1
  W  W35  1  0.839677  0.510662  0.250159  1
