# generated using pymatgen
data_Pr4Ir3OsF28
_symmetry_space_group_name_H-M   'P 1'
_cell_length_a   5.73627897
_cell_length_b   9.24840522
_cell_length_c   12.38035751
_cell_angle_alpha   62.00711142
_cell_angle_beta   90.14568119
_cell_angle_gamma   89.83265799
_symmetry_Int_Tables_number   1
_chemical_formula_structural   Pr4Ir3OsF28
_chemical_formula_sum   'Pr4 Ir3 Os1 F28'
_cell_volume   579.94627850
_cell_formula_units_Z   1
loop_
 _symmetry_equiv_pos_site_id
 _symmetry_equiv_pos_as_xyz
  1  'x, y, z'
loop_
 _atom_site_type_symbol
 _atom_site_label
 _atom_site_symmetry_multiplicity
 _atom_site_fract_x
 _atom_site_fract_y
 _atom_site_fract_z
 _atom_site_occupancy
  Pr  Pr0  1  0.757619  0.815905  0.762560  1
  Pr  Pr1  1  0.257807  0.188368  0.729725  1
  Pr  Pr2  1  0.238595  0.187665  0.243281  1
  Pr  Pr3  1  0.739681  0.804112  0.269791  1
  Ir  Ir4  1  0.254606  0.723311  0.545936  1
  Ir  Ir5  1  0.243370  0.727672  0.041137  1
  Ir  Ir6  1  0.742953  0.272374  0.458399  1
  Os  Os7  1  0.756561  0.274272  0.956586  1
  F  F8  1  0.442820  0.709846  0.917826  1
  F  F9  1  0.932123  0.290563  0.585870  1
  F  F10  1  0.568184  0.293587  0.077880  1
  F  F11  1  0.058621  0.707253  0.420332  1
  F  F12  1  0.450170  0.281914  0.540335  1
  F  F13  1  0.958459  0.716356  0.954110  1
  F  F14  1  0.540606  0.714708  0.459391  1
  F  F15  1  0.042071  0.281964  0.038664  1
  F  F16  1  0.764691  0.509086  0.863432  1
  F  F17  1  0.263357  0.482409  0.643561  1
  F  F18  1  0.237217  0.485330  0.136237  1
  F  F19  1  0.736449  0.511434  0.362598  1
  F  F20  1  0.757375  0.039690  0.045624  1
  F  F21  1  0.256527  0.964249  0.452175  1
  F  F22  1  0.238043  0.969832  0.945692  1
  F  F23  1  0.737477  0.032609  0.550582  1
  F  F24  1  0.973335  0.726408  0.637029  1
  F  F25  1  0.476272  0.271037  0.870353  1
  F  F26  1  0.029981  0.268090  0.371513  1
  F  F27  1  0.522930  0.734701  0.132559  1
  F  F28  1  0.047326  0.746022  0.165565  1
  F  F29  1  0.559375  0.255761  0.328798  1
  F  F30  1  0.942874  0.259510  0.831777  1
  F  F31  1  0.448481  0.738115  0.672706  1
  F  F32  1  0.418251  0.975623  0.228770  1
  F  F33  1  0.910610  0.033727  0.263516  1
  F  F34  1  0.599207  0.039358  0.769659  1
  F  F35  1  0.095977  0.967135  0.726030  1
