# generated using pymatgen
data_Er4Tm6In8IrPt3
_symmetry_space_group_name_H-M   'P 1'
_cell_length_a   3.60788500
_cell_length_b   8.07983449
_cell_length_c   18.10293650
_cell_angle_alpha   89.90397350
_cell_angle_beta   90.00000000
_cell_angle_gamma   90.00000000
_symmetry_Int_Tables_number   1
_chemical_formula_structural   Er4Tm6In8IrPt3
_chemical_formula_sum   'Er4 Tm6 In8 Ir1 Pt3'
_cell_volume   527.72001834
_cell_formula_units_Z   1
loop_
 _symmetry_equiv_pos_site_id
 _symmetry_equiv_pos_as_xyz
  1  'x, y, z'
loop_
 _atom_site_type_symbol
 _atom_site_label
 _atom_site_symmetry_multiplicity
 _atom_site_fract_x
 _atom_site_fract_y
 _atom_site_fract_z
 _atom_site_occupancy
  Er  Er0  1  0.000000  0.256922  0.720915  1
  Er  Er1  1  0.000000  0.749734  0.279478  1
  Er  Er2  1  0.000000  0.999957  0.000267  1
  Er  Er3  1  0.000000  0.500751  0.499561  1
  Tm  Tm4  1  0.000000  0.115249  0.412410  1
  Tm  Tm5  1  0.000000  0.883366  0.585675  1
  Tm  Tm6  1  0.000000  0.383698  0.914309  1
  Tm  Tm7  1  0.000000  0.616588  0.086521  1
  Tm  Tm8  1  0.000000  0.237719  0.221956  1
  Tm  Tm9  1  0.000000  0.757336  0.779275  1
  In  In10  1  0.500000  0.422569  0.351353  1
  In  In11  1  0.500000  0.576721  0.648479  1
  In  In12  1  0.500000  0.076455  0.851689  1
  In  In13  1  0.500000  0.925863  0.149017  1
  In  In14  1  0.500000  0.292499  0.066474  1
  In  In15  1  0.500000  0.707710  0.933484  1
  In  In16  1  0.500000  0.207558  0.566398  1
  In  In17  1  0.500000  0.793542  0.432430  1
  Ir  Ir18  1  0.500000  0.022768  0.303957  1
  Pt  Pt19  1  0.500000  0.974553  0.696271  1
  Pt  Pt20  1  0.500000  0.476094  0.804057  1
  Pt  Pt21  1  0.500000  0.522349  0.196023  1
