# generated using pymatgen
data_Ba8TmLu3Al4O20
_symmetry_space_group_name_H-M   'P 1'
_cell_length_a   5.98154500
_cell_length_b   5.98154395
_cell_length_c   20.09892100
_cell_angle_alpha   90.00000000
_cell_angle_beta   90.00000000
_cell_angle_gamma   120.00000028
_symmetry_Int_Tables_number   1
_chemical_formula_structural   Ba8TmLu3Al4O20
_chemical_formula_sum   'Ba8 Tm1 Lu3 Al4 O20'
_cell_volume   622.77338776
_cell_formula_units_Z   1
loop_
 _symmetry_equiv_pos_site_id
 _symmetry_equiv_pos_as_xyz
  1  'x, y, z'
loop_
 _atom_site_type_symbol
 _atom_site_label
 _atom_site_symmetry_multiplicity
 _atom_site_fract_x
 _atom_site_fract_y
 _atom_site_fract_z
 _atom_site_occupancy
  Ba  Ba0  1  0.666667  0.333333  0.893924  1
  Ba  Ba1  1  0.333333  0.666667  0.106115  1
  Ba  Ba2  1  0.333333  0.666667  0.393671  1
  Ba  Ba3  1  0.000000  0.000000  0.000029  1
  Ba  Ba4  1  0.000000  0.000000  0.499701  1
  Ba  Ba5  1  0.666667  0.333333  0.249984  1
  Ba  Ba6  1  0.666667  0.333333  0.606039  1
  Ba  Ba7  1  0.333333  0.666667  0.750270  1
  Tm  Tm8  1  0.333333  0.666667  0.566674  1
  Lu  Lu9  1  0.666667  0.333333  0.066561  1
  Lu  Lu10  1  0.333333  0.666667  0.933495  1
  Lu  Lu11  1  0.666667  0.333333  0.432978  1
  Al  Al12  1  0.000000  0.000000  0.836453  1
  Al  Al13  1  0.000000  0.000000  0.163722  1
  Al  Al14  1  0.000000  0.000000  0.664154  1
  Al  Al15  1  0.000000  0.000000  0.336156  1
  O  O16  1  0.677618  0.838810  0.634317  1
  O  O17  1  0.998545  0.499272  0.499537  1
  O  O18  1  0.000000  0.000000  0.249955  1
  O  O19  1  0.838471  0.676940  0.366028  1
  O  O20  1  0.838347  0.161653  0.133850  1
  O  O21  1  0.161190  0.322382  0.634317  1
  O  O22  1  0.676586  0.838294  0.866194  1
  O  O23  1  0.323307  0.161653  0.133850  1
  O  O24  1  0.000000  0.000000  0.750285  1
  O  O25  1  0.838471  0.161529  0.366028  1
  O  O26  1  0.161706  0.323414  0.866194  1
  O  O27  1  0.500013  0.000026  0.000019  1
  O  O28  1  0.323060  0.161529  0.366028  1
  O  O29  1  0.500728  0.001455  0.499537  1
  O  O30  1  0.838347  0.676693  0.133850  1
  O  O31  1  0.161190  0.838810  0.634317  1
  O  O32  1  0.500013  0.499987  0.000019  1
  O  O33  1  0.999974  0.499987  0.000019  1
  O  O34  1  0.500728  0.499272  0.499537  1
  O  O35  1  0.161706  0.838294  0.866194  1
