# generated using pymatgen
data_Dy4ErLu3Pt4
_symmetry_space_group_name_H-M   'P 1'
_cell_length_a   4.74260500
_cell_length_b   7.09573742
_cell_length_c   8.69066659
_cell_angle_alpha   90.04075597
_cell_angle_beta   90.00000000
_cell_angle_gamma   90.00000000
_symmetry_Int_Tables_number   1
_chemical_formula_structural   Dy4ErLu3Pt4
_chemical_formula_sum   'Dy4 Er1 Lu3 Pt4'
_cell_volume   292.46066932
_cell_formula_units_Z   1
loop_
 _symmetry_equiv_pos_site_id
 _symmetry_equiv_pos_as_xyz
  1  'x, y, z'
loop_
 _atom_site_type_symbol
 _atom_site_label
 _atom_site_symmetry_multiplicity
 _atom_site_fract_x
 _atom_site_fract_y
 _atom_site_fract_z
 _atom_site_occupancy
  Dy  Dy0  1  0.250000  0.009475  0.329838  1
  Dy  Dy1  1  0.250000  0.511357  0.169144  1
  Dy  Dy2  1  0.750000  0.988300  0.671204  1
  Dy  Dy3  1  0.750000  0.489751  0.829790  1
  Er  Er4  1  0.750000  0.356048  0.421015  1
  Lu  Lu5  1  0.250000  0.143131  0.921628  1
  Lu  Lu6  1  0.250000  0.644161  0.579122  1
  Lu  Lu7  1  0.750000  0.856893  0.078359  1
  Pt  Pt8  1  0.250000  0.243659  0.595411  1
  Pt  Pt9  1  0.250000  0.745296  0.906561  1
  Pt  Pt10  1  0.750000  0.757238  0.406914  1
  Pt  Pt11  1  0.750000  0.254691  0.091013  1
