# generated using pymatgen
data_La3ThH8
_symmetry_space_group_name_H-M   'P 1'
_cell_length_a   5.59347284
_cell_length_b   5.60318404
_cell_length_c   6.87044655
_cell_angle_alpha   114.06509653
_cell_angle_beta   114.02076692
_cell_angle_gamma   90.00000324
_symmetry_Int_Tables_number   1
_chemical_formula_structural   La3ThH8
_chemical_formula_sum   'La3 Th1 H8'
_cell_volume   175.99276135
_cell_formula_units_Z   1
loop_
 _symmetry_equiv_pos_site_id
 _symmetry_equiv_pos_as_xyz
  1  'x, y, z'
loop_
 _atom_site_type_symbol
 _atom_site_label
 _atom_site_symmetry_multiplicity
 _atom_site_fract_x
 _atom_site_fract_y
 _atom_site_fract_z
 _atom_site_occupancy
  La  La0  1  0.505681  0.505681  0.011364  1
  La  La1  1  0.253674  0.753674  0.507348  1
  La  La2  1  0.755687  0.255688  0.511375  1
  Th  Th3  1  0.003821  0.003821  0.007642  1
  H  H4  1  0.369825  0.367092  0.252691  1
  H  H5  1  0.882864  0.367092  0.252691  1
  H  H6  1  0.369825  0.885600  0.252691  1
  H  H7  1  0.882864  0.885600  0.252691  1
  H  H8  1  0.128912  0.126290  0.765877  1
  H  H9  1  0.636967  0.126290  0.765877  1
  H  H10  1  0.128912  0.639589  0.765877  1
  H  H11  1  0.636967  0.639589  0.765877  1
