# generated using pymatgen
data_Dy4BCl6
_symmetry_space_group_name_H-M   'P 1'
_cell_length_a   3.86563900
_cell_length_b   12.65708500
_cell_length_c   13.12504100
_cell_angle_alpha   90.00000000
_cell_angle_beta   90.00000000
_cell_angle_gamma   90.00000000
_symmetry_Int_Tables_number   1
_chemical_formula_structural   Dy4BCl6
_chemical_formula_sum   'Dy8 B2 Cl12'
_cell_volume   642.17834944
_cell_formula_units_Z   2
loop_
 _symmetry_equiv_pos_site_id
 _symmetry_equiv_pos_as_xyz
  1  'x, y, z'
loop_
 _atom_site_type_symbol
 _atom_site_label
 _atom_site_symmetry_multiplicity
 _atom_site_fract_x
 _atom_site_fract_y
 _atom_site_fract_z
 _atom_site_occupancy
  Dy  Dy0  1  0.000000  0.106480  0.084374  1
  Dy  Dy1  1  0.000000  0.893520  0.915626  1
  Dy  Dy2  1  0.000000  0.606480  0.415626  1
  Dy  Dy3  1  0.000000  0.393520  0.584374  1
  Dy  Dy4  1  0.500000  0.126525  0.851166  1
  Dy  Dy5  1  0.500000  0.873475  0.148834  1
  Dy  Dy6  1  0.500000  0.626525  0.648834  1
  Dy  Dy7  1  0.500000  0.373475  0.351166  1
  B  B8  1  0.500000  0.000000  0.000000  1
  B  B9  1  0.500000  0.500000  0.500000  1
  Cl  Cl10  1  0.500000  0.267854  0.682288  1
  Cl  Cl11  1  0.500000  0.732146  0.317712  1
  Cl  Cl12  1  0.500000  0.767854  0.817712  1
  Cl  Cl13  1  0.500000  0.232146  0.182288  1
  Cl  Cl14  1  0.000000  0.256602  0.929844  1
  Cl  Cl15  1  0.000000  0.743398  0.070156  1
  Cl  Cl16  1  0.000000  0.478669  0.243493  1
  Cl  Cl17  1  0.000000  0.521331  0.756507  1
  Cl  Cl18  1  0.000000  0.978669  0.256507  1
  Cl  Cl19  1  0.000000  0.021331  0.743493  1
  Cl  Cl20  1  0.000000  0.243398  0.429844  1
  Cl  Cl21  1  0.000000  0.756602  0.570156  1
