# generated using pymatgen
data_Dy3HoZr4(NiP)12
_symmetry_space_group_name_H-M   'P 1'
_cell_length_a   3.74711400
_cell_length_b   10.18607600
_cell_length_c   12.36071000
_cell_angle_alpha   90.00093404
_cell_angle_beta   90.00000000
_cell_angle_gamma   90.00000000
_symmetry_Int_Tables_number   1
_chemical_formula_structural   Dy3HoZr4(NiP)12
_chemical_formula_sum   'Dy3 Ho1 Zr4 Ni12 P12'
_cell_volume   471.78837501
_cell_formula_units_Z   1
loop_
 _symmetry_equiv_pos_site_id
 _symmetry_equiv_pos_as_xyz
  1  'x, y, z'
loop_
 _atom_site_type_symbol
 _atom_site_label
 _atom_site_symmetry_multiplicity
 _atom_site_fract_x
 _atom_site_fract_y
 _atom_site_fract_z
 _atom_site_occupancy
  Dy  Dy0  1  0.750000  0.928875  0.793051  1
  Dy  Dy1  1  0.750000  0.571278  0.292966  1
  Dy  Dy2  1  0.250000  0.428671  0.706997  1
  Ho  Ho3  1  0.250000  0.071259  0.206969  1
  Zr  Zr4  1  0.250000  0.158661  0.497464  1
  Zr  Zr5  1  0.750000  0.841233  0.502248  1
  Zr  Zr6  1  0.750000  0.658941  0.002417  1
  Zr  Zr7  1  0.250000  0.341037  0.997781  1
  Ni  Ni8  1  0.250000  0.728037  0.663875  1
  Ni  Ni9  1  0.750000  0.271994  0.335972  1
  Ni  Ni10  1  0.750000  0.227794  0.836260  1
  Ni  Ni11  1  0.250000  0.772210  0.163997  1
  Ni  Ni12  1  0.250000  0.365476  0.219951  1
  Ni  Ni13  1  0.750000  0.634384  0.780094  1
  Ni  Ni14  1  0.750000  0.866109  0.279801  1
  Ni  Ni15  1  0.250000  0.134161  0.719932  1
  Ni  Ni16  1  0.250000  0.599542  0.482818  1
  Ni  Ni17  1  0.750000  0.400326  0.516964  1
  Ni  Ni18  1  0.750000  0.099385  0.017604  1
  Ni  Ni19  1  0.250000  0.900710  0.983068  1
  P  P20  1  0.250000  0.944918  0.624249  1
  P  P21  1  0.750000  0.055117  0.375106  1
  P  P22  1  0.750000  0.444897  0.875763  1
  P  P23  1  0.250000  0.555094  0.124350  1
  P  P24  1  0.250000  0.394568  0.403064  1
  P  P25  1  0.750000  0.605461  0.596865  1
  P  P26  1  0.750000  0.894863  0.097096  1
  P  P27  1  0.250000  0.105467  0.903138  1
  P  P28  1  0.250000  0.771231  0.353391  1
  P  P29  1  0.750000  0.228764  0.646508  1
  P  P30  1  0.750000  0.270540  0.146780  1
  P  P31  1  0.250000  0.728998  0.853464  1
