# generated using pymatgen
data_Li8YTh7Sn8
_symmetry_space_group_name_H-M   'P 1'
_cell_length_a   9.66482900
_cell_length_b   9.66482887
_cell_length_c   7.31312500
_cell_angle_alpha   90.00000000
_cell_angle_beta   90.00000000
_cell_angle_gamma   120.00000386
_symmetry_Int_Tables_number   1
_chemical_formula_structural   Li8YTh7Sn8
_chemical_formula_sum   'Li8 Y1 Th7 Sn8'
_cell_volume   591.59153976
_cell_formula_units_Z   1
loop_
 _symmetry_equiv_pos_site_id
 _symmetry_equiv_pos_as_xyz
  1  'x, y, z'
loop_
 _atom_site_type_symbol
 _atom_site_label
 _atom_site_symmetry_multiplicity
 _atom_site_fract_x
 _atom_site_fract_y
 _atom_site_fract_z
 _atom_site_occupancy
  Li  Li0  1  0.165683  0.834317  0.237590  1
  Li  Li1  1  0.330628  0.165314  0.716218  1
  Li  Li2  1  0.834686  0.669372  0.716218  1
  Li  Li3  1  0.165683  0.331364  0.237590  1
  Li  Li4  1  0.668636  0.834317  0.237590  1
  Li  Li5  1  0.834686  0.165314  0.716218  1
  Li  Li6  1  0.333333  0.666667  0.763287  1
  Li  Li7  1  0.666667  0.333333  0.267421  1
  Y  Y8  1  0.000000  0.000000  0.485347  1
  Th  Th9  1  0.503798  0.496202  0.987621  1
  Th  Th10  1  0.007451  0.503726  0.487765  1
  Th  Th11  1  0.496274  0.992549  0.487765  1
  Th  Th12  1  0.503798  0.007595  0.987621  1
  Th  Th13  1  0.992405  0.496202  0.987621  1
  Th  Th14  1  0.496274  0.503726  0.487765  1
  Th  Th15  1  0.000000  0.000000  0.985659  1
  Sn  Sn16  1  0.165552  0.834448  0.738798  1
  Sn  Sn17  1  0.330913  0.165457  0.243679  1
  Sn  Sn18  1  0.834543  0.669087  0.243679  1
  Sn  Sn19  1  0.165552  0.331102  0.738798  1
  Sn  Sn20  1  0.668898  0.834448  0.738798  1
  Sn  Sn21  1  0.834543  0.165457  0.243679  1
  Sn  Sn22  1  0.333333  0.666667  0.225894  1
  Sn  Sn23  1  0.666667  0.333333  0.727375  1
