# generated using pymatgen
data_Lu12Tc3Os
_symmetry_space_group_name_H-M   'P 1'
_cell_length_a   7.38801070
_cell_length_b   8.85149600
_cell_length_c   6.09693741
_cell_angle_alpha   90.00000000
_cell_angle_beta   90.09995679
_cell_angle_gamma   90.00000000
_symmetry_Int_Tables_number   1
_chemical_formula_structural   Lu12Tc3Os
_chemical_formula_sum   'Lu12 Tc3 Os1'
_cell_volume   398.70829319
_cell_formula_units_Z   1
loop_
 _symmetry_equiv_pos_site_id
 _symmetry_equiv_pos_as_xyz
  1  'x, y, z'
loop_
 _atom_site_type_symbol
 _atom_site_label
 _atom_site_symmetry_multiplicity
 _atom_site_fract_x
 _atom_site_fract_y
 _atom_site_fract_z
 _atom_site_occupancy
  Lu  Lu0  1  0.673692  0.061048  0.343460  1
  Lu  Lu1  1  0.174555  0.437754  0.153514  1
  Lu  Lu2  1  0.327368  0.562586  0.656202  1
  Lu  Lu3  1  0.824157  0.937096  0.844089  1
  Lu  Lu4  1  0.327368  0.937414  0.656202  1
  Lu  Lu5  1  0.824157  0.562904  0.844089  1
  Lu  Lu6  1  0.673692  0.438952  0.343460  1
  Lu  Lu7  1  0.174555  0.062246  0.153514  1
  Lu  Lu8  1  0.539685  0.250000  0.876600  1
  Lu  Lu9  1  0.037664  0.250000  0.624221  1
  Lu  Lu10  1  0.458688  0.750000  0.127278  1
  Lu  Lu11  1  0.961853  0.750000  0.376603  1
  Tc  Tc12  1  0.880773  0.250000  0.044891  1
  Tc  Tc13  1  0.381567  0.250000  0.457923  1
  Tc  Tc14  1  0.119351  0.750000  0.956237  1
  Os  Os15  1  0.620874  0.750000  0.541715  1
