# generated using pymatgen
data_Er4B16Ru15Rh
_symmetry_space_group_name_H-M   'P 1'
_cell_length_a   9.19236670
_cell_length_b   7.47004059
_cell_length_c   7.47912424
_cell_angle_alpha   89.90471761
_cell_angle_beta   113.94563323
_cell_angle_gamma   114.05257360
_symmetry_Int_Tables_number   1
_chemical_formula_structural   Er4B16Ru15Rh
_chemical_formula_sum   'Er4 B16 Ru15 Rh1'
_cell_volume   420.28243507
_cell_formula_units_Z   1
loop_
 _symmetry_equiv_pos_site_id
 _symmetry_equiv_pos_as_xyz
  1  'x, y, z'
loop_
 _atom_site_type_symbol
 _atom_site_label
 _atom_site_symmetry_multiplicity
 _atom_site_fract_x
 _atom_site_fract_y
 _atom_site_fract_z
 _atom_site_occupancy
  Er  Er0  1  0.750074  0.873251  0.124982  1
  Er  Er1  1  0.250834  0.625307  0.374616  1
  Er  Er2  1  0.749367  0.374989  0.626028  1
  Er  Er3  1  0.248350  0.124465  0.873905  1
  B  B4  1  0.912092  0.282957  0.068948  1
  B  B5  1  0.413676  0.568131  0.125409  1
  B  B6  1  0.087797  0.211585  0.153629  1
  B  B7  1  0.586324  0.154040  0.210721  1
  B  B8  1  0.412425  0.065989  0.288080  1
  B  B9  1  0.913260  0.624964  0.351983  1
  B  B10  1  0.586443  0.654068  0.374937  1
  B  B11  1  0.086682  0.875071  0.433210  1
  B  B12  1  0.913630  0.125476  0.566868  1
  B  B13  1  0.413521  0.346897  0.623414  1
  B  B14  1  0.087162  0.375104  0.654310  1
  B  B15  1  0.587176  0.934048  0.711377  1
  B  B16  1  0.414110  0.847472  0.788805  1
  B  B17  1  0.914051  0.790731  0.845885  1
  B  B18  1  0.582061  0.429898  0.874420  1
  B  B19  1  0.088201  0.713550  0.931849  1
  Ru  Ru20  1  0.373771  0.836233  0.051537  1
  Ru  Ru21  1  0.125886  0.947213  0.163619  1
  Ru  Ru22  1  0.627626  0.462326  0.178174  1
  Ru  Ru23  1  0.373992  0.335268  0.320400  1
  Ru  Ru24  1  0.873253  0.322081  0.336024  1
  Ru  Ru25  1  0.626896  0.963078  0.448019  1
  Ru  Ru26  1  0.126508  0.178463  0.461250  1
  Ru  Ru27  1  0.872990  0.821570  0.538178  1
  Ru  Ru28  1  0.373536  0.037377  0.551949  1
  Ru  Ru29  1  0.126891  0.678549  0.664436  1
  Ru  Ru30  1  0.624899  0.664438  0.676737  1
  Ru  Ru31  1  0.373724  0.538214  0.822253  1
  Ru  Ru32  1  0.872724  0.052008  0.835549  1
  Ru  Ru33  1  0.627762  0.165613  0.949548  1
  Ru  Ru34  1  0.127093  0.447861  0.962625  1
  Rh  Rh35  1  0.875213  0.551715  0.036334  1
