# generated using pymatgen
data_Tb2Ta3Nb(B2Ru5)2
_symmetry_space_group_name_H-M   'P 1'
_cell_length_a   9.57138028
_cell_length_b   9.57138074
_cell_length_c   3.09341700
_cell_angle_alpha   90.00000000
_cell_angle_beta   90.00000000
_cell_angle_gamma   90.69771960
_symmetry_Int_Tables_number   1
_chemical_formula_structural   Tb2Ta3Nb(B2Ru5)2
_chemical_formula_sum   'Tb2 Ta3 Nb1 B4 Ru10'
_cell_volume   283.37101762
_cell_formula_units_Z   1
loop_
 _symmetry_equiv_pos_site_id
 _symmetry_equiv_pos_as_xyz
  1  'x, y, z'
loop_
 _atom_site_type_symbol
 _atom_site_label
 _atom_site_symmetry_multiplicity
 _atom_site_fract_x
 _atom_site_fract_y
 _atom_site_fract_z
 _atom_site_occupancy
  Tb  Tb0  1  0.823752  0.676282  0.000000  1
  Tb  Tb1  1  0.176282  0.323752  0.000000  1
  Ta  Ta2  1  0.675474  0.175474  0.000000  1
  Ta  Ta3  1  0.499831  0.500050  0.000000  1
  Ta  Ta4  1  0.000050  0.999831  0.000000  1
  Nb  Nb5  1  0.324793  0.824793  0.000000  1
  B  B6  1  0.620040  0.879707  0.000000  1
  B  B7  1  0.379707  0.120040  0.000000  1
  B  B8  1  0.121509  0.621509  0.000000  1
  B  B9  1  0.878590  0.378590  0.000000  1
  Ru  Ru10  1  0.559395  0.723315  0.500000  1
  Ru  Ru11  1  0.441798  0.276829  0.500000  1
  Ru  Ru12  1  0.081422  0.785300  0.500000  1
  Ru  Ru13  1  0.916929  0.214191  0.500000  1
  Ru  Ru14  1  0.285300  0.581422  0.500000  1
  Ru  Ru15  1  0.714191  0.416929  0.500000  1
  Ru  Ru16  1  0.223315  0.059395  0.500000  1
  Ru  Ru17  1  0.776829  0.941798  0.500000  1
  Ru  Ru18  1  0.501125  0.001125  0.500000  1
  Ru  Ru19  1  0.999666  0.499666  0.500000  1
