# generated using pymatgen
data_Al2V4SiMo5
_symmetry_space_group_name_H-M   'P 1'
_cell_length_a   4.89453137
_cell_length_b   4.89490956
_cell_length_c   14.61180400
_cell_angle_alpha   90.03050369
_cell_angle_beta   90.02233520
_cell_angle_gamma   90.22235189
_symmetry_Int_Tables_number   1
_chemical_formula_structural   Al2V4SiMo5
_chemical_formula_sum   'Al4 V8 Si2 Mo10'
_cell_volume   350.07110152
_cell_formula_units_Z   2
loop_
 _symmetry_equiv_pos_site_id
 _symmetry_equiv_pos_as_xyz
  1  'x, y, z'
loop_
 _atom_site_type_symbol
 _atom_site_label
 _atom_site_symmetry_multiplicity
 _atom_site_fract_x
 _atom_site_fract_y
 _atom_site_fract_z
 _atom_site_occupancy
  Al  Al0  1  0.494175  0.495053  0.166752  1
  Al  Al1  1  0.494112  0.495108  0.498826  1
  Al  Al2  1  0.493228  0.494549  0.830878  1
  Al  Al3  1  0.004682  0.005827  0.999922  1
  V  V4  1  0.502045  0.997824  0.417605  1
  V  V5  1  0.502060  0.997233  0.747462  1
  V  V6  1  0.248209  0.502959  0.999301  1
  V  V7  1  0.246419  0.502279  0.334264  1
  V  V8  1  0.247087  0.501470  0.664718  1
  V  V9  1  0.997815  0.249951  0.170250  1
  V  V10  1  0.996986  0.248216  0.501358  1
  V  V11  1  0.995470  0.249659  0.829991  1
  Si  Si12  1  0.006123  0.007480  0.336167  1
  Si  Si13  1  0.005729  0.007274  0.667665  1
  Mo  Mo14  1  0.501490  0.998261  0.254767  1
  Mo  Mo15  1  0.500881  0.998916  0.584159  1
  Mo  Mo16  1  0.502102  0.998195  0.912843  1
  Mo  Mo17  1  0.752572  0.500667  0.999058  1
  Mo  Mo18  1  0.754263  0.500316  0.334818  1
  Mo  Mo19  1  0.753950  0.499754  0.665384  1
  Mo  Mo20  1  0.999561  0.749489  0.169536  1
  Mo  Mo21  1  0.000330  0.751087  0.500688  1
  Mo  Mo22  1  0.999123  0.749661  0.830103  1
  Mo  Mo23  1  0.501589  0.998771  0.083485  1
