# generated using pymatgen
data_Cs3Bi(AsO4)2
_symmetry_space_group_name_H-M   'P 1'
_cell_length_a   6.01960577
_cell_length_b   6.01960400
_cell_length_c   8.78591200
_cell_angle_alpha   89.66519550
_cell_angle_beta   89.66519560
_cell_angle_gamma   60.85085892
_symmetry_Int_Tables_number   1
_chemical_formula_structural   Cs3Bi(AsO4)2
_chemical_formula_sum   'Cs3 Bi1 As2 O8'
_cell_volume   278.03761410
_cell_formula_units_Z   1
loop_
 _symmetry_equiv_pos_site_id
 _symmetry_equiv_pos_as_xyz
  1  'x, y, z'
loop_
 _atom_site_type_symbol
 _atom_site_label
 _atom_site_symmetry_multiplicity
 _atom_site_fract_x
 _atom_site_fract_y
 _atom_site_fract_z
 _atom_site_occupancy
  Cs  Cs0  1  0.686155  0.686155  0.226564  1
  Cs  Cs1  1  0.000000  0.000000  0.000000  1
  Cs  Cs2  1  0.313846  0.313845  0.773436  1
  Bi  Bi3  1  0.000000  0.000000  0.500000  1
  As  As4  1  0.658040  0.658040  0.706548  1
  As  As5  1  0.341960  0.341960  0.293452  1
  O  O6  1  0.282369  0.282369  0.113529  1
  O  O7  1  0.218181  0.218181  0.425561  1
  O  O8  1  0.328901  0.793218  0.684791  1
  O  O9  1  0.793218  0.328901  0.684791  1
  O  O10  1  0.206782  0.671099  0.315209  1
  O  O11  1  0.671099  0.206782  0.315209  1
  O  O12  1  0.781819  0.781819  0.574439  1
  O  O13  1  0.717631  0.717631  0.886471  1
