# generated using pymatgen
data_Re12P25Se
_symmetry_space_group_name_H-M   'P 1'
_cell_length_a   9.55004362
_cell_length_b   9.55004342
_cell_length_c   9.55004285
_cell_angle_alpha   111.78824297
_cell_angle_beta   111.78823992
_cell_angle_gamma   111.78824435
_symmetry_Int_Tables_number   1
_chemical_formula_structural   Re12P25Se
_chemical_formula_sum   'Re12 P25 Se1'
_cell_volume   606.20685082
_cell_formula_units_Z   1
loop_
 _symmetry_equiv_pos_site_id
 _symmetry_equiv_pos_as_xyz
  1  'x, y, z'
loop_
 _atom_site_type_symbol
 _atom_site_label
 _atom_site_symmetry_multiplicity
 _atom_site_fract_x
 _atom_site_fract_y
 _atom_site_fract_z
 _atom_site_occupancy
  Re  Re0  1  0.821601  0.911429  0.330403  1
  Re  Re1  1  0.911429  0.330403  0.821601  1
  Re  Re2  1  0.330403  0.821601  0.911429  1
  Re  Re3  1  0.177496  0.086973  0.669442  1
  Re  Re4  1  0.086973  0.669442  0.177496  1
  Re  Re5  1  0.669442  0.177496  0.086973  1
  Re  Re6  1  0.833475  0.729395  0.502753  1
  Re  Re7  1  0.729395  0.502753  0.833475  1
  Re  Re8  1  0.502753  0.833475  0.729395  1
  Re  Re9  1  0.163668  0.270047  0.499088  1
  Re  Re10  1  0.270047  0.499088  0.163668  1
  Re  Re11  1  0.499088  0.163668  0.270047  1
  P  P12  1  0.641844  0.641844  0.641844  1
  P  P13  1  0.962565  0.002438  0.196392  1
  P  P14  1  0.002438  0.196392  0.962565  1
  P  P15  1  0.196392  0.962565  0.002438  1
  P  P16  1  0.036735  0.997128  0.804588  1
  P  P17  1  0.997128  0.804588  0.036735  1
  P  P18  1  0.804588  0.036735  0.997128  1
  P  P19  1  0.378720  0.006701  0.795209  1
  P  P20  1  0.006701  0.795209  0.378720  1
  P  P21  1  0.795209  0.378720  0.006701  1
  P  P22  1  0.621365  0.991966  0.203425  1
  P  P23  1  0.991966  0.203425  0.621365  1
  P  P24  1  0.203425  0.621365  0.991966  1
  P  P25  1  0.400969  0.223834  0.613300  1
  P  P26  1  0.223834  0.613301  0.400969  1
  P  P27  1  0.613301  0.400969  0.223834  1
  P  P28  1  0.598244  0.776132  0.387839  1
  P  P29  1  0.776132  0.387840  0.598244  1
  P  P30  1  0.387839  0.598244  0.776132  1
  P  P31  1  0.603302  0.611233  0.000497  1
  P  P32  1  0.611233  0.000497  0.603302  1
  P  P33  1  0.000497  0.603302  0.611233  1
  P  P34  1  0.396668  0.388320  0.998658  1
  P  P35  1  0.388320  0.998658  0.396668  1
  P  P36  1  0.998658  0.396668  0.388320  1
  Se  Se37  1  0.366159  0.366159  0.366159  1
