# generated using pymatgen
data_Ho3ErTm4(Si3Rh)4
_symmetry_space_group_name_H-M   'P 1'
_cell_length_a   8.13536500
_cell_length_b   8.13424073
_cell_length_c   7.82225900
_cell_angle_alpha   90.00000000
_cell_angle_beta   90.00000000
_cell_angle_gamma   120.01866153
_symmetry_Int_Tables_number   1
_chemical_formula_structural   Ho3ErTm4(Si3Rh)4
_chemical_formula_sum   'Ho3 Er1 Tm4 Si12 Rh4'
_cell_volume   448.20344387
_cell_formula_units_Z   1
loop_
 _symmetry_equiv_pos_site_id
 _symmetry_equiv_pos_as_xyz
  1  'x, y, z'
loop_
 _atom_site_type_symbol
 _atom_site_label
 _atom_site_symmetry_multiplicity
 _atom_site_fract_x
 _atom_site_fract_y
 _atom_site_fract_z
 _atom_site_occupancy
  Ho  Ho0  1  0.000080  0.999884  0.250000  1
  Ho  Ho1  1  0.999969  0.000079  0.750000  1
  Ho  Ho2  1  0.491484  0.508554  0.250000  1
  Er  Er3  1  0.016775  0.508505  0.250000  1
  Tm  Tm4  1  0.491559  0.983322  0.250000  1
  Tm  Tm5  1  0.508595  0.491403  0.750000  1
  Tm  Tm6  1  0.982705  0.491258  0.750000  1
  Tm  Tm7  1  0.508734  0.017289  0.750000  1
  Si  Si8  1  0.832941  0.166984  0.501216  1
  Si  Si9  1  0.832994  0.665878  0.501491  1
  Si  Si10  1  0.334152  0.166982  0.501470  1
  Si  Si11  1  0.832941  0.166984  0.998784  1
  Si  Si12  1  0.832994  0.665878  0.998509  1
  Si  Si13  1  0.334152  0.166982  0.998530  1
  Si  Si14  1  0.167242  0.832868  0.001159  1
  Si  Si15  1  0.665630  0.832967  0.000774  1
  Si  Si16  1  0.167065  0.334324  0.000705  1
  Si  Si17  1  0.167242  0.832868  0.498841  1
  Si  Si18  1  0.665630  0.832967  0.499226  1
  Si  Si19  1  0.167065  0.334324  0.499295  1
  Rh  Rh20  1  0.666785  0.332967  0.466680  1
  Rh  Rh21  1  0.666785  0.332967  0.033320  1
  Rh  Rh22  1  0.333239  0.666884  0.964631  1
  Rh  Rh23  1  0.333239  0.666884  0.535369  1
