# generated using pymatgen
data_HfZr5(AsN)2
_symmetry_space_group_name_H-M   'P 1'
_cell_length_a   5.89833018
_cell_length_b   5.89833041
_cell_length_c   8.54177400
_cell_angle_alpha   90.00000000
_cell_angle_beta   90.00000000
_cell_angle_gamma   145.53175084
_symmetry_Int_Tables_number   1
_chemical_formula_structural   HfZr5(AsN)2
_chemical_formula_sum   'Hf1 Zr5 As2 N2'
_cell_volume   168.18369870
_cell_formula_units_Z   1
loop_
 _symmetry_equiv_pos_site_id
 _symmetry_equiv_pos_as_xyz
  1  'x, y, z'
loop_
 _atom_site_type_symbol
 _atom_site_label
 _atom_site_symmetry_multiplicity
 _atom_site_fract_x
 _atom_site_fract_y
 _atom_site_fract_z
 _atom_site_occupancy
  Hf  Hf0  1  0.057660  0.942340  0.250000  1
  Zr  Zr1  1  0.631754  0.368246  0.945556  1
  Zr  Zr2  1  0.368831  0.631169  0.443834  1
  Zr  Zr3  1  0.368831  0.631169  0.056166  1
  Zr  Zr4  1  0.631754  0.368246  0.554444  1
  Zr  Zr5  1  0.942542  0.057458  0.750000  1
  As  As6  1  0.255846  0.744154  0.750000  1
  As  As7  1  0.741862  0.258138  0.250000  1
  N  N8  1  0.000460  0.999540  0.003487  1
  N  N9  1  0.000460  0.999540  0.496513  1
