# generated using pymatgen
data_EuFe(Sb4Ru)3
_symmetry_space_group_name_H-M   'P 1'
_cell_length_a   8.08371561
_cell_length_b   8.08371548
_cell_length_c   8.08371466
_cell_angle_alpha   109.40333602
_cell_angle_beta   109.40333013
_cell_angle_gamma   109.40333637
_symmetry_Int_Tables_number   1
_chemical_formula_structural   EuFe(Sb4Ru)3
_chemical_formula_sum   'Eu1 Fe1 Sb12 Ru3'
_cell_volume   407.65982858
_cell_formula_units_Z   1
loop_
 _symmetry_equiv_pos_site_id
 _symmetry_equiv_pos_as_xyz
  1  'x, y, z'
loop_
 _atom_site_type_symbol
 _atom_site_label
 _atom_site_symmetry_multiplicity
 _atom_site_fract_x
 _atom_site_fract_y
 _atom_site_fract_z
 _atom_site_occupancy
  Eu  Eu0  1  0.000000  0.000000  0.000000  1
  Fe  Fe1  1  0.500000  0.500000  0.500000  1
  Sb  Sb2  1  0.658705  0.836162  0.502709  1
  Sb  Sb3  1  0.341295  0.163838  0.497291  1
  Sb  Sb4  1  0.841935  0.182622  0.340429  1
  Sb  Sb5  1  0.817378  0.659571  0.158065  1
  Sb  Sb6  1  0.836162  0.502709  0.658705  1
  Sb  Sb7  1  0.182622  0.340429  0.841935  1
  Sb  Sb8  1  0.158065  0.817378  0.659571  1
  Sb  Sb9  1  0.502709  0.658705  0.836162  1
  Sb  Sb10  1  0.497291  0.341295  0.163838  1
  Sb  Sb11  1  0.163838  0.497291  0.341295  1
  Sb  Sb12  1  0.340429  0.841935  0.182622  1
  Sb  Sb13  1  0.659571  0.158065  0.817378  1
  Ru  Ru14  1  0.000000  0.000000  0.500000  1
  Ru  Ru15  1  0.500000  0.000000  0.000000  1
  Ru  Ru16  1  0.000000  0.500000  0.000000  1
