# generated using pymatgen
data_Dy2UTc2Ir
_symmetry_space_group_name_H-M   'P 1'
_cell_length_a   5.80888417
_cell_length_b   5.84484130
_cell_length_c   8.16505700
_cell_angle_alpha   90.00000000
_cell_angle_beta   90.00000000
_cell_angle_gamma   120.20495462
_symmetry_Int_Tables_number   1
_chemical_formula_structural   Dy2UTc2Ir
_chemical_formula_sum   'Dy4 U2 Tc4 Ir2'
_cell_volume   239.58225744
_cell_formula_units_Z   2
loop_
 _symmetry_equiv_pos_site_id
 _symmetry_equiv_pos_as_xyz
  1  'x, y, z'
loop_
 _atom_site_type_symbol
 _atom_site_label
 _atom_site_symmetry_multiplicity
 _atom_site_fract_x
 _atom_site_fract_y
 _atom_site_fract_z
 _atom_site_occupancy
  Dy  Dy0  1  0.336900  0.668450  0.438014  1
  Dy  Dy1  1  0.671098  0.335548  0.557020  1
  Dy  Dy2  1  0.671098  0.335548  0.942980  1
  Dy  Dy3  1  0.336900  0.668450  0.061986  1
  U  U4  1  0.014105  0.007052  0.504443  1
  U  U5  1  0.014105  0.007052  0.995557  1
  Tc  Tc6  1  0.317317  0.158659  0.250000  1
  Tc  Tc7  1  0.165093  0.843203  0.750000  1
  Tc  Tc8  1  0.165093  0.321889  0.750000  1
  Tc  Tc9  1  0.670688  0.835343  0.750000  1
  Ir  Ir10  1  0.818803  0.164052  0.250000  1
  Ir  Ir11  1  0.818803  0.654752  0.250000  1
