# generated using pymatgen
data_Tb3HoAl4RuPt3
_symmetry_space_group_name_H-M   'P 1'
_cell_length_a   4.36439100
_cell_length_b   6.86155278
_cell_length_c   7.88373723
_cell_angle_alpha   89.72677904
_cell_angle_beta   90.00000000
_cell_angle_gamma   90.00000000
_symmetry_Int_Tables_number   1
_chemical_formula_structural   Tb3HoAl4RuPt3
_chemical_formula_sum   'Tb3 Ho1 Al4 Ru1 Pt3'
_cell_volume   236.08764640
_cell_formula_units_Z   1
loop_
 _symmetry_equiv_pos_site_id
 _symmetry_equiv_pos_as_xyz
  1  'x, y, z'
loop_
 _atom_site_type_symbol
 _atom_site_label
 _atom_site_symmetry_multiplicity
 _atom_site_fract_x
 _atom_site_fract_y
 _atom_site_fract_z
 _atom_site_occupancy
  Tb  Tb0  1  0.250000  0.033897  0.677614  1
  Tb  Tb1  1  0.750000  0.976298  0.320748  1
  Tb  Tb2  1  0.750000  0.467145  0.184449  1
  Ho  Ho3  1  0.250000  0.530840  0.819013  1
  Al  Al4  1  0.250000  0.144011  0.062250  1
  Al  Al5  1  0.250000  0.637631  0.437046  1
  Al  Al6  1  0.750000  0.858176  0.937845  1
  Al  Al7  1  0.750000  0.356252  0.560318  1
  Ru  Ru8  1  0.250000  0.264315  0.381453  1
  Pt  Pt9  1  0.250000  0.771131  0.117755  1
  Pt  Pt10  1  0.750000  0.729090  0.621234  1
  Pt  Pt11  1  0.750000  0.231215  0.880272  1
