# generated using pymatgen
data_NaLu(SiO3)2
_symmetry_space_group_name_H-M   'P 1'
_cell_length_a   6.93452384
_cell_length_b   6.93452314
_cell_length_c   5.45847640
_cell_angle_alpha   77.42713994
_cell_angle_beta   77.42714532
_cell_angle_gamma   85.94038705
_symmetry_Int_Tables_number   1
_chemical_formula_structural   NaLu(SiO3)2
_chemical_formula_sum   'Na2 Lu2 Si4 O12'
_cell_volume   249.97175707
_cell_formula_units_Z   2
loop_
 _symmetry_equiv_pos_site_id
 _symmetry_equiv_pos_as_xyz
  1  'x, y, z'
loop_
 _atom_site_type_symbol
 _atom_site_label
 _atom_site_symmetry_multiplicity
 _atom_site_fract_x
 _atom_site_fract_y
 _atom_site_fract_z
 _atom_site_occupancy
  Na  Na0  1  0.692381  0.307619  0.750000  1
  Na  Na1  1  0.307619  0.692381  0.250000  1
  Lu  Lu2  1  0.109856  0.890144  0.750000  1
  Lu  Lu3  1  0.890144  0.109856  0.250000  1
  Si  Si4  1  0.375170  0.206409  0.247553  1
  Si  Si5  1  0.793591  0.624830  0.252447  1
  Si  Si6  1  0.206409  0.375170  0.747553  1
  Si  Si7  1  0.624830  0.793591  0.752447  1
  O  O8  1  0.877863  0.400844  0.314398  1
  O  O9  1  0.340847  0.354274  0.972564  1
  O  O10  1  0.354274  0.340847  0.472564  1
  O  O11  1  0.659153  0.645726  0.027436  1
  O  O12  1  0.043201  0.199626  0.846295  1
  O  O13  1  0.800374  0.956799  0.653705  1
  O  O14  1  0.599156  0.122137  0.185602  1
  O  O15  1  0.199626  0.043201  0.346295  1
  O  O16  1  0.122137  0.599156  0.685602  1
  O  O17  1  0.400844  0.877863  0.814398  1
  O  O18  1  0.956799  0.800374  0.153705  1
  O  O19  1  0.645726  0.659153  0.527436  1
