# generated using pymatgen
data_K8Zr6BeCl20
_symmetry_space_group_name_H-M   'P 1'
_cell_length_a   11.20533905
_cell_length_b   11.20533934
_cell_length_c   11.20533900
_cell_angle_alpha   59.99999805
_cell_angle_beta   59.99999719
_cell_angle_gamma   59.99999728
_symmetry_Int_Tables_number   1
_chemical_formula_structural   K8Zr6BeCl20
_chemical_formula_sum   'K8 Zr6 Be1 Cl20'
_cell_volume   994.85547092
_cell_formula_units_Z   1
loop_
 _symmetry_equiv_pos_site_id
 _symmetry_equiv_pos_as_xyz
  1  'x, y, z'
loop_
 _atom_site_type_symbol
 _atom_site_label
 _atom_site_symmetry_multiplicity
 _atom_site_fract_x
 _atom_site_fract_y
 _atom_site_fract_z
 _atom_site_occupancy
  K  K0  1  0.359693  0.359693  0.359693  1
  K  K1  1  0.640307  0.640307  0.640307  1
  K  K2  1  0.359693  0.359693  0.920921  1
  K  K3  1  0.359693  0.920921  0.359693  1
  K  K4  1  0.640307  0.640307  0.079079  1
  K  K5  1  0.640307  0.079079  0.640307  1
  K  K6  1  0.920921  0.359693  0.359693  1
  K  K7  1  0.079079  0.640307  0.640307  1
  Zr  Zr8  1  0.851516  0.148484  0.148484  1
  Zr  Zr9  1  0.148484  0.851516  0.851516  1
  Zr  Zr10  1  0.148484  0.851516  0.148484  1
  Zr  Zr11  1  0.851516  0.148484  0.851516  1
  Zr  Zr12  1  0.148484  0.148484  0.851516  1
  Zr  Zr13  1  0.851516  0.851516  0.148484  1
  Be  Be14  1  0.000000  0.000000  0.000000  1
  Cl  Cl15  1  0.327803  0.000000  0.000000  1
  Cl  Cl16  1  0.672197  0.000000  0.000000  1
  Cl  Cl17  1  0.000000  0.327803  0.672197  1
  Cl  Cl18  1  0.000000  0.672197  0.327803  1
  Cl  Cl19  1  0.000000  0.327803  0.000000  1
  Cl  Cl20  1  0.672197  0.000000  0.327803  1
  Cl  Cl21  1  0.000000  0.672197  0.000000  1
  Cl  Cl22  1  0.327803  0.000000  0.672197  1
  Cl  Cl23  1  0.000000  0.000000  0.327803  1
  Cl  Cl24  1  0.000000  0.000000  0.672197  1
  Cl  Cl25  1  0.672197  0.327803  0.000000  1
  Cl  Cl26  1  0.327803  0.672197  0.000000  1
  Cl  Cl27  1  0.681689  0.318311  0.318311  1
  Cl  Cl28  1  0.318311  0.681689  0.681689  1
  Cl  Cl29  1  0.318311  0.681689  0.318311  1
  Cl  Cl30  1  0.681689  0.318311  0.681689  1
  Cl  Cl31  1  0.318311  0.318311  0.681689  1
  Cl  Cl32  1  0.681689  0.681689  0.318311  1
  Cl  Cl33  1  0.250000  0.250000  0.250000  1
  Cl  Cl34  1  0.750000  0.750000  0.750000  1
