# generated using pymatgen
data_TbCd(NiPt)2
_symmetry_space_group_name_H-M   'P 1'
_cell_length_a   5.07401038
_cell_length_b   5.18915723
_cell_length_c   5.18915669
_cell_angle_alpha   63.03014722
_cell_angle_beta   60.73136215
_cell_angle_gamma   60.73135732
_symmetry_Int_Tables_number   1
_chemical_formula_structural   TbCd(NiPt)2
_chemical_formula_sum   'Tb1 Cd1 Ni2 Pt2'
_cell_volume   99.75561924
_cell_formula_units_Z   1
loop_
 _symmetry_equiv_pos_site_id
 _symmetry_equiv_pos_as_xyz
  1  'x, y, z'
loop_
 _atom_site_type_symbol
 _atom_site_label
 _atom_site_symmetry_multiplicity
 _atom_site_fract_x
 _atom_site_fract_y
 _atom_site_fract_z
 _atom_site_occupancy
  Tb  Tb0  1  0.247668  0.252332  0.252332  1
  Cd  Cd1  1  0.007858  0.992142  0.992142  1
  Ni  Ni2  1  0.121916  0.627627  0.627627  1
  Ni  Ni3  1  0.622829  0.627627  0.627627  1
  Pt  Pt4  1  0.624864  0.626249  0.124023  1
  Pt  Pt5  1  0.624864  0.124023  0.626249  1
