# generated using pymatgen
data_LiEr16Cd3Co4
_symmetry_space_group_name_H-M   'P 1'
_cell_length_a   9.42493587
_cell_length_b   9.40423474
_cell_length_c   9.40423700
_cell_angle_alpha   60.00000261
_cell_angle_beta   60.07263308
_cell_angle_gamma   60.07262781
_symmetry_Int_Tables_number   1
_chemical_formula_structural   LiEr16Cd3Co4
_chemical_formula_sum   'Li1 Er16 Cd3 Co4'
_cell_volume   590.04664089
_cell_formula_units_Z   1
loop_
 _symmetry_equiv_pos_site_id
 _symmetry_equiv_pos_as_xyz
  1  'x, y, z'
loop_
 _atom_site_type_symbol
 _atom_site_label
 _atom_site_symmetry_multiplicity
 _atom_site_fract_x
 _atom_site_fract_y
 _atom_site_fract_z
 _atom_site_occupancy
  Li  Li0  1  0.214101  0.928633  0.928633  1
  Er  Er1  1  0.937515  0.935852  0.563316  1
  Er  Er2  1  0.562527  0.937458  0.562558  1
  Er  Er3  1  0.562527  0.937458  0.937458  1
  Er  Er4  1  0.689411  0.687523  0.311534  1
  Er  Er5  1  0.152235  0.155348  0.537069  1
  Er  Er6  1  0.314827  0.685600  0.685600  1
  Er  Er7  1  0.152235  0.155348  0.155348  1
  Er  Er8  1  0.543051  0.152316  0.152316  1
  Er  Er9  1  0.314827  0.685600  0.313975  1
  Er  Er10  1  0.314827  0.313975  0.685600  1
  Er  Er11  1  0.689411  0.311534  0.687523  1
  Er  Er12  1  0.937515  0.563316  0.563316  1
  Er  Er13  1  0.562527  0.562558  0.937458  1
  Er  Er14  1  0.152235  0.537069  0.155348  1
  Er  Er15  1  0.689411  0.311534  0.311534  1
  Er  Er16  1  0.937515  0.563316  0.935852  1
  Cd  Cd17  1  0.922458  0.918419  0.918419  1
  Cd  Cd18  1  0.922458  0.918419  0.240701  1
  Cd  Cd19  1  0.922458  0.240701  0.918419  1
  Co  Co20  1  0.923646  0.358784  0.358784  1
  Co  Co21  1  0.360762  0.357998  0.923243  1
  Co  Co22  1  0.360762  0.923243  0.357998  1
  Co  Co23  1  0.360762  0.357998  0.357998  1
