# generated using pymatgen
data_Yb3Tm(Ga2Ag)4
_symmetry_space_group_name_H-M   'P 1'
_cell_length_a   4.34829100
_cell_length_b   6.97775115
_cell_length_c   10.39169456
_cell_angle_alpha   90.78969594
_cell_angle_beta   90.00000000
_cell_angle_gamma   90.00000000
_symmetry_Int_Tables_number   1
_chemical_formula_structural   Yb3Tm(Ga2Ag)4
_chemical_formula_sum   'Yb3 Tm1 Ga8 Ag4'
_cell_volume   315.26749726
_cell_formula_units_Z   1
loop_
 _symmetry_equiv_pos_site_id
 _symmetry_equiv_pos_as_xyz
  1  'x, y, z'
loop_
 _atom_site_type_symbol
 _atom_site_label
 _atom_site_symmetry_multiplicity
 _atom_site_fract_x
 _atom_site_fract_y
 _atom_site_fract_z
 _atom_site_occupancy
  Yb  Yb0  1  0.750000  0.224962  0.172659  1
  Yb  Yb1  1  0.750000  0.723389  0.328019  1
  Yb  Yb2  1  0.250000  0.276084  0.670983  1
  Tm  Tm3  1  0.250000  0.778588  0.828560  1
  Ga  Ga4  1  0.250000  0.703162  0.536454  1
  Ga  Ga5  1  0.750000  0.298625  0.464831  1
  Ga  Ga6  1  0.750000  0.797008  0.035127  1
  Ga  Ga7  1  0.250000  0.200926  0.964879  1
  Ga  Ga8  1  0.250000  0.925743  0.148772  1
  Ga  Ga9  1  0.750000  0.071994  0.848821  1
  Ga  Ga10  1  0.750000  0.573058  0.651842  1
  Ga  Ga11  1  0.250000  0.426972  0.349447  1
  Ag  Ag12  1  0.250000  0.540015  0.099668  1
  Ag  Ag13  1  0.750000  0.459325  0.899863  1
  Ag  Ag14  1  0.750000  0.959669  0.599378  1
  Ag  Ag15  1  0.250000  0.040478  0.400698  1
