# generated using pymatgen
data_La3Pu5(Si3Pt)4
_symmetry_space_group_name_H-M   'P 1'
_cell_length_a   8.24619600
_cell_length_b   8.24619667
_cell_length_c   8.56549400
_cell_angle_alpha   90.00000000
_cell_angle_beta   90.00000000
_cell_angle_gamma   119.99999729
_symmetry_Int_Tables_number   1
_chemical_formula_structural   La3Pu5(Si3Pt)4
_chemical_formula_sum   'La3 Pu5 Si12 Pt4'
_cell_volume   504.41779642
_cell_formula_units_Z   1
loop_
 _symmetry_equiv_pos_site_id
 _symmetry_equiv_pos_as_xyz
  1  'x, y, z'
loop_
 _atom_site_type_symbol
 _atom_site_label
 _atom_site_symmetry_multiplicity
 _atom_site_fract_x
 _atom_site_fract_y
 _atom_site_fract_z
 _atom_site_occupancy
  La  La0  1  0.500292  0.499708  0.750000  1
  La  La1  1  0.500292  0.000581  0.750000  1
  La  La2  1  0.999419  0.499708  0.750000  1
  Pu  Pu3  1  0.000000  0.000000  0.250000  1
  Pu  Pu4  1  0.000000  0.000000  0.750000  1
  Pu  Pu5  1  0.499965  0.500035  0.250000  1
  Pu  Pu6  1  0.499965  0.999931  0.250000  1
  Pu  Pu7  1  0.000069  0.500035  0.250000  1
  Si  Si8  1  0.163999  0.836001  0.491929  1
  Si  Si9  1  0.163999  0.327998  0.491929  1
  Si  Si10  1  0.672002  0.836001  0.491929  1
  Si  Si11  1  0.835938  0.164062  0.491806  1
  Si  Si12  1  0.835938  0.671876  0.491806  1
  Si  Si13  1  0.328124  0.164062  0.491806  1
  Si  Si14  1  0.835938  0.164062  0.008194  1
  Si  Si15  1  0.835938  0.671876  0.008194  1
  Si  Si16  1  0.328124  0.164062  0.008194  1
  Si  Si17  1  0.163999  0.836001  0.008071  1
  Si  Si18  1  0.163999  0.327998  0.008071  1
  Si  Si19  1  0.672002  0.836001  0.008071  1
  Pt  Pt20  1  0.333333  0.666667  0.491205  1
  Pt  Pt21  1  0.666667  0.333333  0.491166  1
  Pt  Pt22  1  0.666667  0.333333  0.008834  1
  Pt  Pt23  1  0.333333  0.666667  0.008795  1
