# generated using pymatgen
data_Sr10YbRe3N14
_symmetry_space_group_name_H-M   'P 1'
_cell_length_a   6.46178284
_cell_length_b   9.23407244
_cell_length_c   9.53323900
_cell_angle_alpha   114.38988098
_cell_angle_beta   98.36118483
_cell_angle_gamma   90.11062956
_symmetry_Int_Tables_number   1
_chemical_formula_structural   Sr10YbRe3N14
_chemical_formula_sum   'Sr10 Yb1 Re3 N14'
_cell_volume   511.34956361
_cell_formula_units_Z   1
loop_
 _symmetry_equiv_pos_site_id
 _symmetry_equiv_pos_as_xyz
  1  'x, y, z'
loop_
 _atom_site_type_symbol
 _atom_site_label
 _atom_site_symmetry_multiplicity
 _atom_site_fract_x
 _atom_site_fract_y
 _atom_site_fract_z
 _atom_site_occupancy
  Sr  Sr0  1  0.874361  0.559824  0.334045  1
  Sr  Sr1  1  0.244007  0.986535  0.557246  1
  Sr  Sr2  1  0.703405  0.405258  0.860062  1
  Sr  Sr3  1  0.293085  0.583208  0.143801  1
  Sr  Sr4  1  0.387511  0.793537  0.926106  1
  Sr  Sr5  1  0.618582  0.209281  0.109477  1
  Sr  Sr6  1  0.151529  0.386239  0.632766  1
  Sr  Sr7  1  0.877557  0.838738  0.762736  1
  Sr  Sr8  1  0.133279  0.138795  0.236404  1
  Sr  Sr9  1  0.716664  0.014178  0.430096  1
  Yb  Yb10  1  0.621026  0.364854  0.508340  1
  Re  Re11  1  0.421000  0.657141  0.535483  1
  Re  Re12  1  0.123065  0.217142  0.907204  1
  Re  Re13  1  0.871790  0.773507  0.083246  1
  N  N14  1  0.546097  0.608035  0.695567  1
  N  N15  1  0.438427  0.480185  0.352843  1
  N  N16  1  0.152382  0.710502  0.572837  1
  N  N17  1  0.881891  0.304633  0.377252  1
  N  N18  1  0.396182  0.168044  0.473785  1
  N  N19  1  0.578695  0.824009  0.536840  1
  N  N20  1  0.954914  0.162648  0.712912  1
  N  N21  1  0.042167  0.840671  0.273670  1
  N  N22  1  0.216706  0.045238  0.945459  1
  N  N23  1  0.767872  0.940904  0.041535  1
  N  N24  1  0.359755  0.331522  0.915060  1
  N  N25  1  0.973155  0.344696  0.059692  1
  N  N26  1  0.017115  0.648537  0.925458  1
  N  N27  1  0.637780  0.662141  0.090077  1
