# generated using pymatgen
data_Sr5Yb(LuSn2)4
_symmetry_space_group_name_H-M   'P 1'
_cell_length_a   8.04501753
_cell_length_b   8.58096597
_cell_length_c   16.31634021
_cell_angle_alpha   89.99804019
_cell_angle_beta   90.03845119
_cell_angle_gamma   90.31265886
_symmetry_Int_Tables_number   1
_chemical_formula_structural   Sr5Yb(LuSn2)4
_chemical_formula_sum   'Sr10 Yb2 Lu8 Sn16'
_cell_volume   1126.36555927
_cell_formula_units_Z   2
loop_
 _symmetry_equiv_pos_site_id
 _symmetry_equiv_pos_as_xyz
  1  'x, y, z'
loop_
 _atom_site_type_symbol
 _atom_site_label
 _atom_site_symmetry_multiplicity
 _atom_site_fract_x
 _atom_site_fract_y
 _atom_site_fract_z
 _atom_site_occupancy
  Sr  Sr0  1  0.178271  0.330803  0.618433  1
  Sr  Sr1  1  0.503308  0.681172  0.593617  1
  Sr  Sr2  1  0.001944  0.819327  0.910589  1
  Sr  Sr3  1  0.494475  0.318186  0.093662  1
  Sr  Sr4  1  0.995782  0.183540  0.404203  1
  Sr  Sr5  1  0.495537  0.318262  0.405159  1
  Sr  Sr6  1  0.995737  0.182369  0.093690  1
  Sr  Sr7  1  0.503983  0.681353  0.908885  1
  Sr  Sr8  1  0.003241  0.817125  0.590939  1
  Sr  Sr9  1  0.332322  0.990294  0.750406  1
  Yb  Yb10  1  0.163224  0.493889  0.248525  1
  Yb  Yb11  1  0.665567  0.005759  0.250139  1
  Lu  Lu12  1  0.674666  0.165082  0.621752  1
  Lu  Lu13  1  0.171657  0.334746  0.879886  1
  Lu  Lu14  1  0.326680  0.833868  0.122897  1
  Lu  Lu15  1  0.827544  0.666255  0.375614  1
  Lu  Lu16  1  0.328038  0.834446  0.374707  1
  Lu  Lu17  1  0.827710  0.666441  0.122521  1
  Lu  Lu18  1  0.672212  0.164919  0.881164  1
  Lu  Lu19  1  0.839235  0.505297  0.750244  1
  Sn  Sn20  1  0.670905  0.956985  0.457488  1
  Sn  Sn21  1  0.163454  0.540468  0.041643  1
  Sn  Sn22  1  0.335173  0.041733  0.961761  1
  Sn  Sn23  1  0.824661  0.464633  0.541276  1
  Sn  Sn24  1  0.348498  0.031861  0.535942  1
  Sn  Sn25  1  0.835346  0.461601  0.956030  1
  Sn  Sn26  1  0.664294  0.959165  0.042581  1
  Sn  Sn27  1  0.158254  0.547380  0.451780  1
  Sn  Sn28  1  0.484318  0.380504  0.757240  1
  Sn  Sn29  1  0.956352  0.137631  0.754406  1
  Sn  Sn30  1  0.529607  0.634103  0.249132  1
  Sn  Sn31  1  0.029367  0.866671  0.247730  1
  Sn  Sn32  1  0.725266  0.869512  0.751569  1
  Sn  Sn33  1  0.207303  0.613970  0.756473  1
  Sn  Sn34  1  0.284474  0.116056  0.249034  1
  Sn  Sn35  1  0.781593  0.384595  0.248880  1
