# generated using pymatgen
data_KCaH9W
_symmetry_space_group_name_H-M   'P 1'
_cell_length_a   8.92005700
_cell_length_b   8.92005591
_cell_length_c   5.38289400
_cell_angle_alpha   90.00000000
_cell_angle_beta   90.00000000
_cell_angle_gamma   120.00000032
_symmetry_Int_Tables_number   1
_chemical_formula_structural   KCaH9W
_chemical_formula_sum   'K3 Ca3 H27 W3'
_cell_volume   370.92120700
_cell_formula_units_Z   3
loop_
 _symmetry_equiv_pos_site_id
 _symmetry_equiv_pos_as_xyz
  1  'x, y, z'
loop_
 _atom_site_type_symbol
 _atom_site_label
 _atom_site_symmetry_multiplicity
 _atom_site_fract_x
 _atom_site_fract_y
 _atom_site_fract_z
 _atom_site_occupancy
  K  K0  1  0.000000  0.588090  0.000000  1
  K  K1  1  0.411910  0.411910  0.000000  1
  K  K2  1  0.588090  0.000000  0.000000  1
  Ca  Ca3  1  0.000000  0.274004  0.500000  1
  Ca  Ca4  1  0.725996  0.725996  0.500000  1
  Ca  Ca5  1  0.274004  0.000000  0.500000  1
  H  H6  1  0.791448  0.304566  0.734394  1
  H  H7  1  0.695434  0.486881  0.734394  1
  H  H8  1  0.513119  0.208552  0.734394  1
  H  H9  1  0.208552  0.513119  0.265606  1
  H  H10  1  0.513119  0.208552  0.265606  1
  H  H11  1  0.791448  0.304566  0.265606  1
  H  H12  1  0.695434  0.486881  0.265606  1
  H  H13  1  0.304566  0.791448  0.734394  1
  H  H14  1  0.486881  0.695434  0.734394  1
  H  H15  1  0.196331  0.000000  0.000000  1
  H  H16  1  0.803669  0.803669  0.000000  1
  H  H17  1  0.000000  0.196331  0.000000  1
  H  H18  1  0.860641  0.000000  0.239866  1
  H  H19  1  0.139359  0.139359  0.760134  1
  H  H20  1  0.000000  0.860641  0.760134  1
  H  H21  1  0.000000  0.860641  0.239866  1
  H  H22  1  0.139359  0.139359  0.239866  1
  H  H23  1  0.860641  0.000000  0.760134  1
  H  H24  1  0.122717  0.629737  0.500000  1
  H  H25  1  0.507020  0.877283  0.500000  1
  H  H26  1  0.370263  0.492980  0.500000  1
  H  H27  1  0.492980  0.370263  0.500000  1
  H  H28  1  0.877283  0.507020  0.500000  1
  H  H29  1  0.629737  0.122717  0.500000  1
  H  H30  1  0.208552  0.513119  0.734394  1
  H  H31  1  0.304566  0.791448  0.265606  1
  H  H32  1  0.486881  0.695434  0.265606  1
  W  W33  1  0.666667  0.333333  0.500000  1
  W  W34  1  0.333333  0.666667  0.500000  1
  W  W35  1  0.000000  0.000000  0.000000  1
