# generated using pymatgen
data_Dy4Er4Ti11Si16Ru
_symmetry_space_group_name_H-M   'P 1'
_cell_length_a   7.01319687
_cell_length_b   7.01200277
_cell_length_c   12.85711544
_cell_angle_alpha   89.98729511
_cell_angle_beta   90.01915888
_cell_angle_gamma   89.90193531
_symmetry_Int_Tables_number   1
_chemical_formula_structural   Dy4Er4Ti11Si16Ru
_chemical_formula_sum   'Dy4 Er4 Ti11 Si16 Ru1'
_cell_volume   632.26767887
_cell_formula_units_Z   1
loop_
 _symmetry_equiv_pos_site_id
 _symmetry_equiv_pos_as_xyz
  1  'x, y, z'
loop_
 _atom_site_type_symbol
 _atom_site_label
 _atom_site_symmetry_multiplicity
 _atom_site_fract_x
 _atom_site_fract_y
 _atom_site_fract_z
 _atom_site_occupancy
  Dy  Dy0  1  0.840938  0.499232  0.284807  1
  Dy  Dy1  1  0.503545  0.158740  0.217497  1
  Dy  Dy2  1  0.499419  0.840800  0.715093  1
  Dy  Dy3  1  0.342084  0.001482  0.468637  1
  Er  Er4  1  0.996563  0.659007  0.032488  1
  Er  Er5  1  0.001327  0.341993  0.531709  1
  Er  Er6  1  0.658888  0.996486  0.967121  1
  Er  Er7  1  0.158437  0.503283  0.782120  1
  Ti  Ti8  1  0.344136  0.506549  0.374980  1
  Ti  Ti9  1  0.849307  0.996536  0.375389  1
  Ti  Ti10  1  0.005609  0.151262  0.124334  1
  Ti  Ti11  1  0.997459  0.849680  0.625057  1
  Ti  Ti12  1  0.507050  0.344839  0.625640  1
  Ti  Ti13  1  0.150899  0.005659  0.875290  1
  Ti  Ti14  1  0.825375  0.172997  0.748768  1
  Ti  Ti15  1  0.172302  0.825172  0.251326  1
  Ti  Ti16  1  0.325709  0.326120  0.999709  1
  Ti  Ti17  1  0.493655  0.651206  0.127357  1
  Ti  Ti18  1  0.650725  0.493929  0.872076  1
  Si  Si19  1  0.045805  0.712169  0.436063  1
  Si  Si20  1  0.951816  0.292001  0.934261  1
  Si  Si21  1  0.714035  0.046881  0.564522  1
  Si  Si22  1  0.207614  0.453248  0.184135  1
  Si  Si23  1  0.792027  0.549592  0.682075  1
  Si  Si24  1  0.452427  0.208032  0.815878  1
  Si  Si25  1  0.550332  0.790290  0.317895  1
  Si  Si26  1  0.291317  0.951368  0.065180  1
  Si  Si27  1  0.797530  0.867332  0.184298  1
  Si  Si28  1  0.298589  0.626379  0.566587  1
  Si  Si29  1  0.703839  0.369074  0.064984  1
  Si  Si30  1  0.628049  0.300378  0.434392  1
  Si  Si31  1  0.368265  0.703614  0.934087  1
  Si  Si32  1  0.131517  0.203406  0.316025  1
  Si  Si33  1  0.202893  0.133020  0.684063  1
  Si  Si34  1  0.867819  0.796779  0.815867  1
  Ru  Ru35  1  0.672699  0.671464  0.500289  1
