# generated using pymatgen
data_Zr3Co2OsN
_symmetry_space_group_name_H-M   'P 1'
_cell_length_a   8.37876386
_cell_length_b   8.37877507
_cell_length_c   8.37877500
_cell_angle_alpha   60.00003519
_cell_angle_beta   59.99997468
_cell_angle_gamma   60.00013952
_symmetry_Int_Tables_number   1
_chemical_formula_structural   Zr3Co2OsN
_chemical_formula_sum   'Zr12 Co8 Os4 N4'
_cell_volume   415.93599254
_cell_formula_units_Z   4
loop_
 _symmetry_equiv_pos_site_id
 _symmetry_equiv_pos_as_xyz
  1  'x, y, z'
loop_
 _atom_site_type_symbol
 _atom_site_label
 _atom_site_symmetry_multiplicity
 _atom_site_fract_x
 _atom_site_fract_y
 _atom_site_fract_z
 _atom_site_occupancy
  Zr  Zr0  1  0.803828  0.803827  0.196174  1
  Zr  Zr1  1  0.196172  0.196172  0.803828  1
  Zr  Zr2  1  0.803827  0.196174  0.803827  1
  Zr  Zr3  1  0.196171  0.803829  0.196172  1
  Zr  Zr4  1  0.196174  0.803827  0.803828  1
  Zr  Zr5  1  0.803828  0.196171  0.196172  1
  Zr  Zr6  1  0.446172  0.446173  0.053826  1
  Zr  Zr7  1  0.053828  0.053828  0.446172  1
  Zr  Zr8  1  0.446173  0.053826  0.446173  1
  Zr  Zr9  1  0.053829  0.446171  0.053828  1
  Zr  Zr10  1  0.053826  0.446173  0.446172  1
  Zr  Zr11  1  0.446172  0.053829  0.053828  1
  Co  Co12  1  0.719721  0.426760  0.426760  1
  Co  Co13  1  0.426761  0.719720  0.426760  1
  Co  Co14  1  0.426761  0.426760  0.719720  1
  Co  Co15  1  0.426761  0.426761  0.426761  1
  Co  Co16  1  0.530279  0.823240  0.823240  1
  Co  Co17  1  0.823239  0.530280  0.823240  1
  Co  Co18  1  0.823239  0.823240  0.530280  1
  Co  Co19  1  0.823239  0.823239  0.823239  1
  Os  Os20  1  0.125000  0.625000  0.625000  1
  Os  Os21  1  0.625000  0.125000  0.625000  1
  Os  Os22  1  0.625000  0.625000  0.125000  1
  Os  Os23  1  0.625000  0.625000  0.625000  1
  N  N24  1  0.625000  0.125000  0.125000  1
  N  N25  1  0.125000  0.625000  0.125000  1
  N  N26  1  0.125000  0.125000  0.625000  1
  N  N27  1  0.125000  0.125000  0.125000  1
