# generated using pymatgen
data_Hf18Re7SiWSe
_symmetry_space_group_name_H-M   'P 1'
_cell_length_a   8.63909514
_cell_length_b   8.63937350
_cell_length_c   8.63516019
_cell_angle_alpha   89.97882514
_cell_angle_beta   90.02080976
_cell_angle_gamma   119.99905000
_symmetry_Int_Tables_number   1
_chemical_formula_structural   Hf18Re7SiWSe
_chemical_formula_sum   'Hf18 Re7 Si1 W1 Se1'
_cell_volume   558.15607456
_cell_formula_units_Z   1
loop_
 _symmetry_equiv_pos_site_id
 _symmetry_equiv_pos_as_xyz
  1  'x, y, z'
loop_
 _atom_site_type_symbol
 _atom_site_label
 _atom_site_symmetry_multiplicity
 _atom_site_fract_x
 _atom_site_fract_y
 _atom_site_fract_z
 _atom_site_occupancy
  Hf  Hf0  1  0.195021  0.804985  0.451348  1
  Hf  Hf1  1  0.195020  0.390030  0.451354  1
  Hf  Hf2  1  0.609972  0.804981  0.451359  1
  Hf  Hf3  1  0.805919  0.194078  0.546380  1
  Hf  Hf4  1  0.805920  0.611847  0.546381  1
  Hf  Hf5  1  0.388151  0.194081  0.546377  1
  Hf  Hf6  1  0.807569  0.192424  0.953096  1
  Hf  Hf7  1  0.807583  0.615136  0.953078  1
  Hf  Hf8  1  0.384864  0.192414  0.953082  1
  Hf  Hf9  1  0.193385  0.806634  0.048635  1
  Hf  Hf10  1  0.193356  0.386747  0.048655  1
  Hf  Hf11  1  0.613252  0.806650  0.048649  1
  Hf  Hf12  1  0.539415  0.460582  0.249041  1
  Hf  Hf13  1  0.539427  0.078833  0.249034  1
  Hf  Hf14  1  0.921166  0.460568  0.249035  1
  Hf  Hf15  1  0.455713  0.544292  0.750941  1
  Hf  Hf16  1  0.455709  0.911428  0.750942  1
  Hf  Hf17  1  0.088575  0.544299  0.750943  1
  Re  Re18  1  0.890095  0.109891  0.250887  1
  Re  Re19  1  0.890098  0.780202  0.250912  1
  Re  Re20  1  0.219792  0.109893  0.250911  1
  Re  Re21  1  0.110049  0.889953  0.749559  1
  Re  Re22  1  0.110044  0.220097  0.749549  1
  Re  Re23  1  0.779909  0.889959  0.749550  1
  Re  Re24  1  0.999999  0.999993  0.000349  1
  Si  Si25  1  0.333334  0.666672  0.248417  1
  W  W26  1  0.999998  0.000002  0.500045  1
  Se  Se27  1  0.666663  0.333329  0.751493  1
