# generated using pymatgen
data_Na3Dy2P12Ir11Rh8
_symmetry_space_group_name_H-M   'P 1'
_cell_length_a   12.64914047
_cell_length_b   12.65315439
_cell_length_c   3.95826800
_cell_angle_alpha   90.00000000
_cell_angle_beta   90.00000000
_cell_angle_gamma   120.07436118
_symmetry_Int_Tables_number   1
_chemical_formula_structural   Na3Dy2P12Ir11Rh8
_chemical_formula_sum   'Na3 Dy2 P12 Ir11 Rh8'
_cell_volume   548.23876406
_cell_formula_units_Z   1
loop_
 _symmetry_equiv_pos_site_id
 _symmetry_equiv_pos_as_xyz
  1  'x, y, z'
loop_
 _atom_site_type_symbol
 _atom_site_label
 _atom_site_symmetry_multiplicity
 _atom_site_fract_x
 _atom_site_fract_y
 _atom_site_fract_z
 _atom_site_occupancy
  Na  Na0  1  0.000010  0.819900  0.000000  1
  Na  Na1  1  0.179979  0.179999  0.000000  1
  Na  Na2  1  0.820086  0.999327  0.000000  1
  Dy  Dy3  1  0.333351  0.666617  0.500000  1
  Dy  Dy4  1  0.666157  0.333489  0.500000  1
  P  P5  1  0.000040  0.638234  0.500000  1
  P  P6  1  0.361426  0.361726  0.500000  1
  P  P7  1  0.639490  0.999926  0.500000  1
  P  P8  1  0.519762  0.688295  0.000000  1
  P  P9  1  0.312005  0.831534  0.000000  1
  P  P10  1  0.168782  0.480175  0.000000  1
  P  P11  1  0.479844  0.169079  0.000000  1
  P  P12  1  0.688476  0.519819  0.000000  1
  P  P13  1  0.830631  0.311556  0.000000  1
  P  P14  1  0.998666  0.177139  0.500000  1
  P  P15  1  0.821824  0.821860  0.500000  1
  P  P16  1  0.178313  0.999673  0.500000  1
  Ir  Ir17  1  0.508543  0.869052  0.000000  1
  Ir  Ir18  1  0.131616  0.639441  0.000000  1
  Ir  Ir19  1  0.360753  0.491669  0.000000  1
  Ir  Ir20  1  0.491631  0.360998  0.000000  1
  Ir  Ir21  1  0.868931  0.507933  0.000000  1
  Ir  Ir22  1  0.638174  0.131238  0.000000  1
  Ir  Ir23  1  0.999424  0.282370  0.000000  1
  Ir  Ir24  1  0.717257  0.717084  0.000000  1
  Ir  Ir25  1  0.282908  0.999871  0.000000  1
  Ir  Ir26  1  0.817575  0.195969  0.500000  1
  Ir  Ir27  1  0.000175  0.999737  0.500000  1
  Rh  Rh28  1  0.001122  0.458537  0.500000  1
  Rh  Rh29  1  0.542008  0.542528  0.500000  1
  Rh  Rh30  1  0.459064  0.000415  0.500000  1
  Rh  Rh31  1  0.623283  0.804910  0.500000  1
  Rh  Rh32  1  0.195295  0.818130  0.500000  1
  Rh  Rh33  1  0.181510  0.376893  0.500000  1
  Rh  Rh34  1  0.377088  0.181991  0.500000  1
  Rh  Rh35  1  0.804801  0.622888  0.500000  1
