# generated using pymatgen
data_Pr4Tm2Al24ZnOs7
_symmetry_space_group_name_H-M   'P 1'
_cell_length_a   8.96320613
_cell_length_b   8.96320729
_cell_length_c   9.62566936
_cell_angle_alpha   90.29950322
_cell_angle_beta   89.70049773
_cell_angle_gamma   120.59731978
_symmetry_Int_Tables_number   1
_chemical_formula_structural   Pr4Tm2Al24ZnOs7
_chemical_formula_sum   'Pr4 Tm2 Al24 Zn1 Os7'
_cell_volume   665.63311962
_cell_formula_units_Z   1
loop_
 _symmetry_equiv_pos_site_id
 _symmetry_equiv_pos_as_xyz
  1  'x, y, z'
loop_
 _atom_site_type_symbol
 _atom_site_label
 _atom_site_symmetry_multiplicity
 _atom_site_fract_x
 _atom_site_fract_y
 _atom_site_fract_z
 _atom_site_occupancy
  Pr  Pr0  1  0.191977  0.379781  0.245773  1
  Pr  Pr1  1  0.808023  0.620219  0.754227  1
  Pr  Pr2  1  0.620219  0.808023  0.245773  1
  Pr  Pr3  1  0.379781  0.191977  0.754227  1
  Tm  Tm4  1  0.198540  0.801460  0.255152  1
  Tm  Tm5  1  0.801460  0.198540  0.744848  1
  Al  Al6  1  0.328574  0.671426  0.015091  1
  Al  Al7  1  0.671426  0.328574  0.984909  1
  Al  Al8  1  0.665793  0.334207  0.514888  1
  Al  Al9  1  0.334207  0.665793  0.485112  1
  Al  Al10  1  0.160195  0.326671  0.572930  1
  Al  Al11  1  0.839805  0.673329  0.427070  1
  Al  Al12  1  0.673329  0.839805  0.572930  1
  Al  Al13  1  0.853917  0.677636  0.083268  1
  Al  Al14  1  0.326671  0.160195  0.427070  1
  Al  Al15  1  0.146083  0.322364  0.916732  1
  Al  Al16  1  0.162662  0.837338  0.572837  1
  Al  Al17  1  0.322364  0.146083  0.083268  1
  Al  Al18  1  0.837338  0.162662  0.427163  1
  Al  Al19  1  0.677636  0.853917  0.916732  1
  Al  Al20  1  0.836548  0.163452  0.071597  1
  Al  Al21  1  0.163452  0.836548  0.928403  1
  Al  Al22  1  0.561761  0.119914  0.249479  1
  Al  Al23  1  0.438239  0.880086  0.750521  1
  Al  Al24  1  0.880086  0.438239  0.249479  1
  Al  Al25  1  0.119914  0.561761  0.750521  1
  Al  Al26  1  0.566895  0.433105  0.256926  1
  Al  Al27  1  0.433105  0.566895  0.743074  1
  Al  Al28  1  0.005904  0.994096  0.250767  1
  Al  Al29  1  0.994096  0.005904  0.749233  1
  Zn  Zn30  1  0.500000  0.500000  0.000000  1
  Os  Os31  1  0.500000  0.000000  0.000000  1
  Os  Os32  1  0.000000  0.500000  0.000000  1
  Os  Os33  1  0.500000  0.000000  0.500000  1
  Os  Os34  1  0.000000  0.500000  0.500000  1
  Os  Os35  1  0.500000  0.500000  0.500000  1
  Os  Os36  1  0.000000  0.000000  0.000000  1
  Os  Os37  1  0.000000  0.000000  0.500000  1
