# generated using pymatgen
data_Cs4Tb5Dy7Te20
_symmetry_space_group_name_H-M   'P 1'
_cell_length_a   4.42361900
_cell_length_b   13.37219718
_cell_length_c   23.84601231
_cell_angle_alpha   89.98140120
_cell_angle_beta   90.00000000
_cell_angle_gamma   90.00000000
_symmetry_Int_Tables_number   1
_chemical_formula_structural   Cs4Tb5Dy7Te20
_chemical_formula_sum   'Cs4 Tb5 Dy7 Te20'
_cell_volume   1410.57514626
_cell_formula_units_Z   1
loop_
 _symmetry_equiv_pos_site_id
 _symmetry_equiv_pos_as_xyz
  1  'x, y, z'
loop_
 _atom_site_type_symbol
 _atom_site_label
 _atom_site_symmetry_multiplicity
 _atom_site_fract_x
 _atom_site_fract_y
 _atom_site_fract_z
 _atom_site_occupancy
  Cs  Cs0  1  0.250000  0.353881  0.089701  1
  Cs  Cs1  1  0.750000  0.646106  0.910312  1
  Cs  Cs2  1  0.750000  0.853878  0.410289  1
  Cs  Cs3  1  0.250000  0.146152  0.589700  1
  Tb  Tb4  1  0.250000  0.454447  0.697726  1
  Tb  Tb5  1  0.750000  0.545473  0.302281  1
  Tb  Tb6  1  0.750000  0.954574  0.802317  1
  Tb  Tb7  1  0.250000  0.045466  0.197717  1
  Tb  Tb8  1  0.250000  0.796585  0.674581  1
  Dy  Dy9  1  0.750000  0.203299  0.325373  1
  Dy  Dy10  1  0.750000  0.296697  0.825372  1
  Dy  Dy11  1  0.250000  0.703301  0.174624  1
  Dy  Dy12  1  0.250000  0.392190  0.444383  1
  Dy  Dy13  1  0.750000  0.607748  0.555560  1
  Dy  Dy14  1  0.750000  0.892192  0.055608  1
  Dy  Dy15  1  0.250000  0.107803  0.944390  1
  Te  Te16  1  0.250000  0.444711  0.568643  1
  Te  Te17  1  0.750000  0.555289  0.431353  1
  Te  Te18  1  0.750000  0.944714  0.931362  1
  Te  Te19  1  0.250000  0.055301  0.068646  1
  Te  Te20  1  0.250000  0.767751  0.546425  1
  Te  Te21  1  0.750000  0.232140  0.453240  1
  Te  Te22  1  0.750000  0.267861  0.953236  1
  Te  Te23  1  0.250000  0.732143  0.046762  1
  Te  Te24  1  0.250000  0.798876  0.803294  1
  Te  Te25  1  0.750000  0.201148  0.197019  1
  Te  Te26  1  0.750000  0.298843  0.697020  1
  Te  Te27  1  0.250000  0.701138  0.302979  1
  Te  Te28  1  0.250000  0.452944  0.826602  1
  Te  Te29  1  0.750000  0.547056  0.173399  1
  Te  Te30  1  0.750000  0.953700  0.673445  1
  Te  Te31  1  0.250000  0.047061  0.326603  1
  Te  Te32  1  0.250000  0.374525  0.313645  1
  Te  Te33  1  0.750000  0.625008  0.686390  1
  Te  Te34  1  0.750000  0.874519  0.186360  1
  Te  Te35  1  0.250000  0.125477  0.813640  1
