# generated using pymatgen
data_Zr6Zn22AgGe
_symmetry_space_group_name_H-M   'P 1'
_cell_length_a   8.78812878
_cell_length_b   8.78812872
_cell_length_c   8.78812800
_cell_angle_alpha   60.00000270
_cell_angle_beta   60.00000293
_cell_angle_gamma   59.99999737
_symmetry_Int_Tables_number   1
_chemical_formula_structural   Zr6Zn22AgGe
_chemical_formula_sum   'Zr6 Zn22 Ag1 Ge1'
_cell_volume   479.92592151
_cell_formula_units_Z   1
loop_
 _symmetry_equiv_pos_site_id
 _symmetry_equiv_pos_as_xyz
  1  'x, y, z'
loop_
 _atom_site_type_symbol
 _atom_site_label
 _atom_site_symmetry_multiplicity
 _atom_site_fract_x
 _atom_site_fract_y
 _atom_site_fract_z
 _atom_site_occupancy
  Zr  Zr0  1  0.713891  0.286109  0.286109  1
  Zr  Zr1  1  0.286109  0.713891  0.713891  1
  Zr  Zr2  1  0.286109  0.713891  0.286109  1
  Zr  Zr3  1  0.713891  0.286109  0.713891  1
  Zr  Zr4  1  0.286109  0.286109  0.713891  1
  Zr  Zr5  1  0.713891  0.713891  0.286109  1
  Zn  Zn6  1  0.124893  0.124893  0.124893  1
  Zn  Zn7  1  0.875107  0.875107  0.875107  1
  Zn  Zn8  1  0.124893  0.124893  0.625321  1
  Zn  Zn9  1  0.124893  0.625321  0.124893  1
  Zn  Zn10  1  0.875107  0.875107  0.374679  1
  Zn  Zn11  1  0.875107  0.374679  0.875107  1
  Zn  Zn12  1  0.625321  0.124893  0.124893  1
  Zn  Zn13  1  0.374679  0.875107  0.875107  1
  Zn  Zn14  1  0.500000  0.000000  0.000000  1
  Zn  Zn15  1  0.000000  0.500000  0.500000  1
  Zn  Zn16  1  0.000000  0.500000  0.000000  1
  Zn  Zn17  1  0.500000  0.000000  0.500000  1
  Zn  Zn18  1  0.000000  0.000000  0.500000  1
  Zn  Zn19  1  0.500000  0.500000  0.000000  1
  Zn  Zn20  1  0.336112  0.336112  0.336112  1
  Zn  Zn21  1  0.663888  0.663888  0.663888  1
  Zn  Zn22  1  0.336112  0.336112  0.991664  1
  Zn  Zn23  1  0.336112  0.991664  0.336112  1
  Zn  Zn24  1  0.663888  0.663888  0.008336  1
  Zn  Zn25  1  0.663888  0.008336  0.663888  1
  Zn  Zn26  1  0.991664  0.336112  0.336112  1
  Zn  Zn27  1  0.008336  0.663888  0.663888  1
  Ag  Ag28  1  0.000000  0.000000  0.000000  1
  Ge  Ge29  1  0.500000  0.500000  0.500000  1
