# generated using pymatgen
data_Ti5AlSn2Sb
_symmetry_space_group_name_H-M   'P 1'
_cell_length_a   8.28308900
_cell_length_b   8.24379388
_cell_length_c   5.56455900
_cell_angle_alpha   90.00000000
_cell_angle_beta   90.00000000
_cell_angle_gamma   120.15780857
_symmetry_Int_Tables_number   1
_chemical_formula_structural   Ti5AlSn2Sb
_chemical_formula_sum   'Ti10 Al2 Sn4 Sb2'
_cell_volume   328.53983036
_cell_formula_units_Z   2
loop_
 _symmetry_equiv_pos_site_id
 _symmetry_equiv_pos_as_xyz
  1  'x, y, z'
loop_
 _atom_site_type_symbol
 _atom_site_label
 _atom_site_symmetry_multiplicity
 _atom_site_fract_x
 _atom_site_fract_y
 _atom_site_fract_z
 _atom_site_occupancy
  Ti  Ti0  1  0.274250  0.000000  0.750000  1
  Ti  Ti1  1  0.725750  0.000000  0.250000  1
  Ti  Ti2  1  0.998041  0.270057  0.750000  1
  Ti  Ti3  1  0.001959  0.729943  0.250000  1
  Ti  Ti4  1  0.727983  0.729943  0.750000  1
  Ti  Ti5  1  0.272017  0.270057  0.250000  1
  Ti  Ti6  1  0.335111  0.670223  0.500000  1
  Ti  Ti7  1  0.664889  0.329777  0.500000  1
  Ti  Ti8  1  0.664889  0.329777  0.000000  1
  Ti  Ti9  1  0.335111  0.670223  0.000000  1
  Al  Al10  1  0.000000  0.000000  0.500000  1
  Al  Al11  1  0.000000  0.000000  0.000000  1
  Sn  Sn12  1  0.998378  0.613652  0.750000  1
  Sn  Sn13  1  0.001622  0.386348  0.250000  1
  Sn  Sn14  1  0.384727  0.386348  0.750000  1
  Sn  Sn15  1  0.615273  0.613652  0.250000  1
  Sb  Sb16  1  0.614689  0.000000  0.750000  1
  Sb  Sb17  1  0.385311  0.000000  0.250000  1
