# generated using pymatgen
data_NdY3CoHg
_symmetry_space_group_name_H-M   'P 1'
_cell_length_a   9.58092573
_cell_length_b   9.58092652
_cell_length_c   9.58092600
_cell_angle_alpha   60.00000181
_cell_angle_beta   59.99999908
_cell_angle_gamma   60.00000212
_symmetry_Int_Tables_number   1
_chemical_formula_structural   NdY3CoHg
_chemical_formula_sum   'Nd4 Y12 Co4 Hg4'
_cell_volume   621.88127634
_cell_formula_units_Z   4
loop_
 _symmetry_equiv_pos_site_id
 _symmetry_equiv_pos_as_xyz
  1  'x, y, z'
loop_
 _atom_site_type_symbol
 _atom_site_label
 _atom_site_symmetry_multiplicity
 _atom_site_fract_x
 _atom_site_fract_y
 _atom_site_fract_z
 _atom_site_occupancy
  Nd  Nd0  1  0.599500  0.599500  0.599500  1
  Nd  Nd1  1  0.599500  0.599500  0.201500  1
  Nd  Nd2  1  0.599500  0.201500  0.599500  1
  Nd  Nd3  1  0.201500  0.599500  0.599500  1
  Y  Y4  1  0.062586  0.437414  0.437414  1
  Y  Y5  1  0.437414  0.062586  0.062586  1
  Y  Y6  1  0.437414  0.062586  0.437414  1
  Y  Y7  1  0.062586  0.437414  0.062586  1
  Y  Y8  1  0.437414  0.437414  0.062586  1
  Y  Y9  1  0.062586  0.062586  0.437414  1
  Y  Y10  1  0.187476  0.812524  0.812524  1
  Y  Y11  1  0.812524  0.187476  0.187476  1
  Y  Y12  1  0.812524  0.187476  0.812524  1
  Y  Y13  1  0.187476  0.812524  0.187476  1
  Y  Y14  1  0.812524  0.812524  0.187476  1
  Y  Y15  1  0.187476  0.187476  0.812524  1
  Co  Co16  1  0.390420  0.390420  0.390420  1
  Co  Co17  1  0.390420  0.390420  0.828743  1
  Co  Co18  1  0.390420  0.828743  0.390420  1
  Co  Co19  1  0.828743  0.390420  0.390420  1
  Hg  Hg20  1  0.834164  0.834164  0.834164  1
  Hg  Hg21  1  0.834164  0.834164  0.497506  1
  Hg  Hg22  1  0.834164  0.497506  0.834164  1
  Hg  Hg23  1  0.497506  0.834164  0.834164  1
