# generated using pymatgen
data_Ho3Lu5Sc12Si15Os
_symmetry_space_group_name_H-M   'P 1'
_cell_length_a   7.04332246
_cell_length_b   7.39985039
_cell_length_c   13.88001044
_cell_angle_alpha   90.03911856
_cell_angle_beta   89.96534768
_cell_angle_gamma   90.19728282
_symmetry_Int_Tables_number   1
_chemical_formula_structural   Ho3Lu5Sc12Si15Os
_chemical_formula_sum   'Ho3 Lu5 Sc12 Si15 Os1'
_cell_volume   723.41506615
_cell_formula_units_Z   1
loop_
 _symmetry_equiv_pos_site_id
 _symmetry_equiv_pos_as_xyz
  1  'x, y, z'
loop_
 _atom_site_type_symbol
 _atom_site_label
 _atom_site_symmetry_multiplicity
 _atom_site_fract_x
 _atom_site_fract_y
 _atom_site_fract_z
 _atom_site_occupancy
  Ho  Ho0  1  0.010893  0.179286  0.404408  1
  Ho  Ho1  1  0.511373  0.323287  0.404081  1
  Ho  Ho2  1  0.489209  0.676541  0.595443  1
  Lu  Lu3  1  0.011733  0.180556  0.095477  1
  Lu  Lu4  1  0.990708  0.828082  0.904761  1
  Lu  Lu5  1  0.488569  0.678169  0.904412  1
  Lu  Lu6  1  0.990853  0.827868  0.596838  1
  Lu  Lu7  1  0.511459  0.322064  0.095502  1
  Sc  Sc8  1  0.157127  0.500403  0.750461  1
  Sc  Sc9  1  0.838152  0.495363  0.248964  1
  Sc  Sc10  1  0.339689  0.007155  0.249320  1
  Sc  Sc11  1  0.668186  0.995028  0.750561  1
  Sc  Sc12  1  0.316745  0.171031  0.628197  1
  Sc  Sc13  1  0.672622  0.826150  0.373343  1
  Sc  Sc14  1  0.171061  0.678685  0.373777  1
  Sc  Sc15  1  0.672362  0.825354  0.125462  1
  Sc  Sc16  1  0.837659  0.318717  0.628414  1
  Sc  Sc17  1  0.316192  0.171436  0.872645  1
  Sc  Sc18  1  0.838337  0.317956  0.872647  1
  Sc  Sc19  1  0.171225  0.678431  0.125314  1
  Si  Si20  1  0.969495  0.888159  0.249054  1
  Si  Si21  1  0.469821  0.612823  0.249126  1
  Si  Si22  1  0.529141  0.390151  0.751107  1
  Si  Si23  1  0.285770  0.862644  0.751170  1
  Si  Si24  1  0.713992  0.133085  0.248253  1
  Si  Si25  1  0.214125  0.369579  0.248320  1
  Si  Si26  1  0.779229  0.628427  0.751351  1
  Si  Si27  1  0.159394  0.470213  0.537743  1
  Si  Si28  1  0.843744  0.537522  0.462316  1
  Si  Si29  1  0.344097  0.966190  0.460346  1
  Si  Si30  1  0.842283  0.534728  0.038180  1
  Si  Si31  1  0.656899  0.033400  0.538657  1
  Si  Si32  1  0.161737  0.469671  0.962602  1
  Si  Si33  1  0.656012  0.033225  0.961572  1
  Si  Si34  1  0.342810  0.967406  0.039933  1
  Os  Os35  1  0.027297  0.101215  0.750242  1
