# generated using pymatgen
data_Gd2Y4FeI10
_symmetry_space_group_name_H-M   'P 1'
_cell_length_a   7.98137468
_cell_length_b   10.06364095
_cell_length_c   9.93207500
_cell_angle_alpha   106.60853642
_cell_angle_beta   95.98107536
_cell_angle_gamma   105.11430431
_symmetry_Int_Tables_number   1
_chemical_formula_structural   Gd2Y4FeI10
_chemical_formula_sum   'Gd2 Y4 Fe1 I10'
_cell_volume   724.12924213
_cell_formula_units_Z   1
loop_
 _symmetry_equiv_pos_site_id
 _symmetry_equiv_pos_as_xyz
  1  'x, y, z'
loop_
 _atom_site_type_symbol
 _atom_site_label
 _atom_site_symmetry_multiplicity
 _atom_site_fract_x
 _atom_site_fract_y
 _atom_site_fract_z
 _atom_site_occupancy
  Gd  Gd0  1  0.894989  0.959754  0.208998  1
  Gd  Gd1  1  0.105011  0.040246  0.791002  1
  Y  Y2  1  0.031011  0.721195  0.916969  1
  Y  Y3  1  0.968989  0.278805  0.083031  1
  Y  Y4  1  0.656749  0.878802  0.837291  1
  Y  Y5  1  0.343251  0.121198  0.162709  1
  Fe  Fe6  1  0.000000  0.000000  0.000000  1
  I  I7  1  0.660468  0.563127  0.736452  1
  I  I8  1  0.339532  0.436873  0.263548  1
  I  I9  1  0.755015  0.918734  0.560464  1
  I  I10  1  0.244985  0.081266  0.439536  1
  I  I11  1  0.082050  0.363122  0.826588  1
  I  I12  1  0.917950  0.636878  0.173412  1
  I  I13  1  0.463900  0.826517  0.091247  1
  I  I14  1  0.536100  0.173483  0.908753  1
  I  I15  1  0.222190  0.753611  0.669650  1
  I  I16  1  0.777810  0.246389  0.330350  1
