# generated using pymatgen
data_Ta(VSe6)3
_symmetry_space_group_name_H-M   'P 1'
_cell_length_a   8.72485393
_cell_length_b   8.80663100
_cell_length_c   8.49318282
_cell_angle_alpha   83.15640355
_cell_angle_beta   83.00368261
_cell_angle_gamma   100.58731492
_symmetry_Int_Tables_number   1
_chemical_formula_structural   Ta(VSe6)3
_chemical_formula_sum   'Ta1 V3 Se18'
_cell_volume   629.96548935
_cell_formula_units_Z   1
loop_
 _symmetry_equiv_pos_site_id
 _symmetry_equiv_pos_as_xyz
  1  'x, y, z'
loop_
 _atom_site_type_symbol
 _atom_site_label
 _atom_site_symmetry_multiplicity
 _atom_site_fract_x
 _atom_site_fract_y
 _atom_site_fract_z
 _atom_site_occupancy
  Ta  Ta0  1  0.401987  0.862348  0.087361  1
  V  V1  1  0.134877  0.594400  0.416107  1
  V  V2  1  0.598606  0.139992  0.913434  1
  V  V3  1  0.862630  0.402915  0.585559  1
  Se  Se4  1  0.385191  0.681972  0.532187  1
  Se  Se5  1  0.308481  0.605659  0.961990  1
  Se  Se6  1  0.705621  0.111140  0.616922  1
  Se  Se7  1  0.892412  0.297450  0.880921  1
  Se  Se8  1  0.291041  0.890473  0.390533  1
  Se  Se9  1  0.102452  0.696388  0.117178  1
  Se  Se10  1  0.134566  0.326380  0.563083  1
  Se  Se11  1  0.683051  0.870147  0.934240  1
  Se  Se12  1  0.864156  0.671706  0.441092  1
  Se  Se13  1  0.325601  0.142531  0.058862  1
  Se  Se14  1  0.010687  0.336546  0.337272  1
  Se  Se15  1  0.676224  0.995870  0.161190  1
  Se  Se16  1  0.988888  0.659587  0.666424  1
  Se  Se17  1  0.333651  0.018556  0.831356  1
  Se  Se18  1  0.686810  0.388124  0.031456  1
  Se  Se19  1  0.612748  0.313653  0.466046  1
  Se  Se20  1  0.408484  0.586762  0.257458  1
  Se  Se21  1  0.591838  0.407402  0.749329  1
