# generated using pymatgen
data_NaCe2MnF11
_symmetry_space_group_name_H-M   'P 1'
_cell_length_a   5.99862591
_cell_length_b   5.99862477
_cell_length_c   8.42777743
_cell_angle_alpha   69.02171156
_cell_angle_beta   69.02171819
_cell_angle_gamma   72.62159798
_symmetry_Int_Tables_number   1
_chemical_formula_structural   NaCe2MnF11
_chemical_formula_sum   'Na1 Ce2 Mn1 F11'
_cell_volume   259.28508353
_cell_formula_units_Z   1
loop_
 _symmetry_equiv_pos_site_id
 _symmetry_equiv_pos_as_xyz
  1  'x, y, z'
loop_
 _atom_site_type_symbol
 _atom_site_label
 _atom_site_symmetry_multiplicity
 _atom_site_fract_x
 _atom_site_fract_y
 _atom_site_fract_z
 _atom_site_occupancy
  Na  Na0  1  0.000000  0.000000  0.000000  1
  Ce  Ce1  1  0.494884  0.494884  0.236131  1
  Ce  Ce2  1  0.505116  0.505116  0.763869  1
  Mn  Mn3  1  0.000000  0.000000  0.500000  1
  F  F4  1  0.186206  0.789360  0.316287  1
  F  F5  1  0.210640  0.813794  0.683713  1
  F  F6  1  0.813794  0.210640  0.683713  1
  F  F7  1  0.789360  0.186206  0.316287  1
  F  F8  1  0.500000  0.500000  0.500000  1
  F  F9  1  0.678283  0.321717  0.000000  1
  F  F10  1  0.321717  0.678283  0.000000  1
  F  F11  1  0.756372  0.756372  0.642522  1
  F  F12  1  0.243628  0.243628  0.357478  1
  F  F13  1  0.738068  0.738068  0.108538  1
  F  F14  1  0.261932  0.261932  0.891462  1
