# generated using pymatgen
data_Dy3Ho17(Ga2Bi)4
_symmetry_space_group_name_H-M   'P 1'
_cell_length_a   8.20076101
_cell_length_b   8.20055501
_cell_length_c   12.65896401
_cell_angle_alpha   90.00100054
_cell_angle_beta   90.00381112
_cell_angle_gamma   90.00395448
_symmetry_Int_Tables_number   1
_chemical_formula_structural   Dy3Ho17(Ga2Bi)4
_chemical_formula_sum   'Dy3 Ho17 Ga8 Bi4'
_cell_volume   851.32534812
_cell_formula_units_Z   1
loop_
 _symmetry_equiv_pos_site_id
 _symmetry_equiv_pos_as_xyz
  1  'x, y, z'
loop_
 _atom_site_type_symbol
 _atom_site_label
 _atom_site_symmetry_multiplicity
 _atom_site_fract_x
 _atom_site_fract_y
 _atom_site_fract_z
 _atom_site_occupancy
  Dy  Dy0  1  0.651882  0.651502  0.607867  1
  Dy  Dy1  1  0.652210  0.348202  0.107673  1
  Dy  Dy2  1  0.848109  0.848410  0.392233  1
  Ho  Ho3  1  0.000053  0.499817  0.750678  1
  Ho  Ho4  1  0.000190  0.500094  0.250686  1
  Ho  Ho5  1  0.499897  0.000070  0.249459  1
  Ho  Ho6  1  0.499905  0.999992  0.749470  1
  Ho  Ho7  1  0.151945  0.848230  0.891626  1
  Ho  Ho8  1  0.347827  0.348035  0.608524  1
  Ho  Ho9  1  0.347898  0.651914  0.108340  1
  Ho  Ho10  1  0.152294  0.151977  0.391609  1
  Ho  Ho11  1  0.848230  0.151321  0.891501  1
  Ho  Ho12  1  0.652011  0.347566  0.391528  1
  Ho  Ho13  1  0.347948  0.347829  0.891481  1
  Ho  Ho14  1  0.152079  0.847725  0.608487  1
  Ho  Ho15  1  0.848003  0.847804  0.108338  1
  Ho  Ho16  1  0.347903  0.652294  0.391552  1
  Ho  Ho17  1  0.651880  0.652382  0.891449  1
  Ho  Ho18  1  0.848036  0.152365  0.608532  1
  Ho  Ho19  1  0.151910  0.152300  0.108260  1
  Ga  Ga20  1  0.851722  0.851462  0.749906  1
  Ga  Ga21  1  0.852253  0.148842  0.249904  1
  Ga  Ga22  1  0.647895  0.648690  0.250203  1
  Ga  Ga23  1  0.351133  0.647949  0.750245  1
  Ga  Ga24  1  0.148511  0.148348  0.749984  1
  Ga  Ga25  1  0.149177  0.851781  0.249769  1
  Ga  Ga26  1  0.351086  0.351911  0.250181  1
  Ga  Ga27  1  0.648039  0.351087  0.750373  1
  Bi  Bi28  1  0.000336  0.499569  0.500478  1
  Bi  Bi29  1  0.000108  0.500342  0.000466  1
  Bi  Bi30  1  0.499618  0.000502  0.499602  1
  Bi  Bi31  1  0.499912  0.999687  0.999594  1
