# generated using pymatgen
data_Tb2EuZn11
_symmetry_space_group_name_H-M   'P 1'
_cell_length_a   8.26651407
_cell_length_b   8.26651325
_cell_length_c   8.26651383
_cell_angle_alpha   148.39077039
_cell_angle_beta   116.68259644
_cell_angle_gamma   72.50094162
_symmetry_Int_Tables_number   1
_chemical_formula_structural   Tb2EuZn11
_chemical_formula_sum   'Tb2 Eu1 Zn11'
_cell_volume   260.48388157
_cell_formula_units_Z   1
loop_
 _symmetry_equiv_pos_site_id
 _symmetry_equiv_pos_as_xyz
  1  'x, y, z'
loop_
 _atom_site_type_symbol
 _atom_site_label
 _atom_site_symmetry_multiplicity
 _atom_site_fract_x
 _atom_site_fract_y
 _atom_site_fract_z
 _atom_site_occupancy
  Tb  Tb0  1  0.298480  0.298480  0.000000  1
  Tb  Tb1  1  0.701520  0.701520  0.000000  1
  Eu  Eu2  1  0.000000  0.000000  0.000000  1
  Zn  Zn3  1  0.500000  0.000000  0.500000  1
  Zn  Zn4  1  0.678594  0.500000  0.178594  1
  Zn  Zn5  1  0.321406  0.500000  0.821406  1
  Zn  Zn6  1  0.694186  0.338127  0.356059  1
  Zn  Zn7  1  0.305814  0.661873  0.643941  1
  Zn  Zn8  1  0.982069  0.338127  0.643941  1
  Zn  Zn9  1  0.017931  0.661873  0.356059  1
  Zn  Zn10  1  0.425458  0.139669  0.285790  1
  Zn  Zn11  1  0.574542  0.860331  0.714210  1
  Zn  Zn12  1  0.853879  0.139669  0.714210  1
  Zn  Zn13  1  0.146121  0.860331  0.285790  1
