# generated using pymatgen
data_Hf4Si4Ir3Os
_symmetry_space_group_name_H-M   'P 1'
_cell_length_a   3.99255800
_cell_length_b   6.47270385
_cell_length_c   7.41671577
_cell_angle_alpha   89.80567044
_cell_angle_beta   90.00000000
_cell_angle_gamma   90.00000000
_symmetry_Int_Tables_number   1
_chemical_formula_structural   Hf4Si4Ir3Os
_chemical_formula_sum   'Hf4 Si4 Ir3 Os1'
_cell_volume   191.66645423
_cell_formula_units_Z   1
loop_
 _symmetry_equiv_pos_site_id
 _symmetry_equiv_pos_as_xyz
  1  'x, y, z'
loop_
 _atom_site_type_symbol
 _atom_site_label
 _atom_site_symmetry_multiplicity
 _atom_site_fract_x
 _atom_site_fract_y
 _atom_site_fract_z
 _atom_site_occupancy
  Hf  Hf0  1  0.250000  0.519824  0.178757  1
  Hf  Hf1  1  0.750000  0.485173  0.820251  1
  Hf  Hf2  1  0.250000  0.015138  0.317190  1
  Hf  Hf3  1  0.750000  0.978736  0.683718  1
  Si  Si4  1  0.250000  0.777518  0.877034  1
  Si  Si5  1  0.750000  0.225110  0.120029  1
  Si  Si6  1  0.250000  0.282799  0.622148  1
  Si  Si7  1  0.750000  0.716855  0.380173  1
  Ir  Ir8  1  0.750000  0.845857  0.066770  1
  Ir  Ir9  1  0.250000  0.154698  0.935129  1
  Ir  Ir10  1  0.750000  0.338839  0.438643  1
  Os  Os11  1  0.250000  0.659452  0.560159  1
