# generated using pymatgen
data_Sm4Gd2CoBr10
_symmetry_space_group_name_H-M   'P 1'
_cell_length_a   7.44012576
_cell_length_b   9.22756510
_cell_length_c   9.38883100
_cell_angle_alpha   108.57417122
_cell_angle_beta   96.87337692
_cell_angle_gamma   105.37883219
_symmetry_Int_Tables_number   1
_chemical_formula_structural   Sm4Gd2CoBr10
_chemical_formula_sum   'Sm4 Gd2 Co1 Br10'
_cell_volume   574.24541355
_cell_formula_units_Z   1
loop_
 _symmetry_equiv_pos_site_id
 _symmetry_equiv_pos_as_xyz
  1  'x, y, z'
loop_
 _atom_site_type_symbol
 _atom_site_label
 _atom_site_symmetry_multiplicity
 _atom_site_fract_x
 _atom_site_fract_y
 _atom_site_fract_z
 _atom_site_occupancy
  Sm  Sm0  1  0.029565  0.710740  0.409435  1
  Sm  Sm1  1  0.970435  0.289260  0.590565  1
  Sm  Sm2  1  0.874563  0.953353  0.746098  1
  Sm  Sm3  1  0.125437  0.046647  0.253902  1
  Gd  Gd4  1  0.360015  0.133621  0.678310  1
  Gd  Gd5  1  0.639985  0.866379  0.321690  1
  Co  Co6  1  0.000000  0.000000  0.500000  1
  Br  Br7  1  0.451748  0.821095  0.582617  1
  Br  Br8  1  0.548252  0.178905  0.417383  1
  Br  Br9  1  0.914112  0.629921  0.672290  1
  Br  Br10  1  0.085888  0.370079  0.327710  1
  Br  Br11  1  0.254887  0.085795  0.955154  1
  Br  Br12  1  0.745113  0.914205  0.044846  1
  Br  Br13  1  0.355373  0.454356  0.772479  1
  Br  Br14  1  0.644627  0.545644  0.227521  1
  Br  Br15  1  0.784701  0.258016  0.847416  1
  Br  Br16  1  0.215299  0.741984  0.152584  1
