# generated using pymatgen
data_Er11Te4
_symmetry_space_group_name_H-M   'P 1'
_cell_length_a   3.94650600
_cell_length_b   15.44275919
_cell_length_c   21.27051900
_cell_angle_alpha   102.69055293
_cell_angle_beta   90.00000000
_cell_angle_gamma   97.34124060
_symmetry_Int_Tables_number   1
_chemical_formula_structural   Er11Te4
_chemical_formula_sum   'Er33 Te12'
_cell_volume   1253.76744375
_cell_formula_units_Z   3
loop_
 _symmetry_equiv_pos_site_id
 _symmetry_equiv_pos_as_xyz
  1  'x, y, z'
loop_
 _atom_site_type_symbol
 _atom_site_label
 _atom_site_symmetry_multiplicity
 _atom_site_fract_x
 _atom_site_fract_y
 _atom_site_fract_z
 _atom_site_occupancy
  Er  Er0  1  0.255320  0.510641  0.073404  1
  Er  Er1  1  0.968562  0.937125  0.166129  1
  Er  Er2  1  0.031438  0.062875  0.833871  1
  Er  Er3  1  0.830737  0.661473  0.435163  1
  Er  Er4  1  0.424667  0.849335  0.037423  1
  Er  Er5  1  0.284984  0.569968  0.542406  1
  Er  Er6  1  0.606257  0.212514  0.779003  1
  Er  Er7  1  0.242843  0.485685  0.345630  1
  Er  Er8  1  0.437353  0.874706  0.413213  1
  Er  Er9  1  0.463600  0.927201  0.692311  1
  Er  Er10  1  0.575333  0.150665  0.962577  1
  Er  Er11  1  0.128513  0.257026  0.094041  1
  Er  Er12  1  0.867296  0.734592  0.630758  1
  Er  Er13  1  0.393743  0.787486  0.220997  1
  Er  Er14  1  0.871487  0.742974  0.905959  1
  Er  Er15  1  0.169263  0.338527  0.564837  1
  Er  Er16  1  0.562647  0.125294  0.586787  1
  Er  Er17  1  0.744680  0.489359  0.926596  1
  Er  Er18  1  0.031441  0.062882  0.445332  1
  Er  Er19  1  0.795494  0.590989  0.222911  1
  Er  Er20  1  0.715016  0.430032  0.457594  1
  Er  Er21  1  0.132704  0.265408  0.369242  1
  Er  Er22  1  0.000000  0.000000  0.000000  1
  Er  Er23  1  0.204506  0.409011  0.777089  1
  Er  Er24  1  0.536400  0.072799  0.307689  1
  Er  Er25  1  0.341303  0.682605  0.748236  1
  Er  Er26  1  0.658697  0.317395  0.251764  1
  Er  Er27  1  0.456031  0.912063  0.881720  1
  Er  Er28  1  0.848428  0.696856  0.096303  1
  Er  Er29  1  0.151572  0.303144  0.903697  1
  Er  Er30  1  0.543969  0.087937  0.118280  1
  Er  Er31  1  0.968559  0.937118  0.554668  1
  Er  Er32  1  0.757157  0.514315  0.654370  1
  Te  Te33  1  0.216659  0.433317  0.195317  1
  Te  Te34  1  0.040805  0.081610  0.688543  1
  Te  Te35  1  0.389465  0.778931  0.530026  1
  Te  Te36  1  0.783341  0.566683  0.804683  1
  Te  Te37  1  0.919817  0.839636  0.773064  1
  Te  Te38  1  0.610535  0.221069  0.469974  1
  Te  Te39  1  0.959195  0.918390  0.311457  1
  Te  Te40  1  0.341734  0.683468  0.328709  1
  Te  Te41  1  0.080183  0.160364  0.226936  1
  Te  Te42  1  0.321107  0.642216  0.980277  1
  Te  Te43  1  0.678893  0.357784  0.019723  1
  Te  Te44  1  0.658266  0.316532  0.671291  1
