# generated using pymatgen
data_DyTh(Si2Ni9)2
_symmetry_space_group_name_H-M   'P 1'
_cell_length_a   7.57905252
_cell_length_b   7.57177010
_cell_length_c   7.57905385
_cell_angle_alpha   99.74632141
_cell_angle_beta   99.62037307
_cell_angle_gamma   131.63596783
_symmetry_Int_Tables_number   1
_chemical_formula_structural   DyTh(Si2Ni9)2
_chemical_formula_sum   'Dy1 Th1 Si4 Ni18'
_cell_volume   296.39645034
_cell_formula_units_Z   1
loop_
 _symmetry_equiv_pos_site_id
 _symmetry_equiv_pos_as_xyz
  1  'x, y, z'
loop_
 _atom_site_type_symbol
 _atom_site_label
 _atom_site_symmetry_multiplicity
 _atom_site_fract_x
 _atom_site_fract_y
 _atom_site_fract_z
 _atom_site_occupancy
  Dy  Dy0  1  0.750032  0.249797  0.499765  1
  Th  Th1  1  0.499773  0.500145  0.000372  1
  Si  Si2  1  0.624756  0.876304  0.748464  1
  Si  Si3  1  0.123847  0.375389  0.251542  1
  Si  Si4  1  0.123766  0.872212  0.748446  1
  Si  Si5  1  0.127840  0.876304  0.251548  1
  Ni  Ni6  1  0.249917  0.749916  0.499998  1
  Ni  Ni7  1  0.999959  0.999941  0.999983  1
  Ni  Ni8  1  0.686819  0.014235  0.078648  1
  Ni  Ni9  1  0.686800  0.608075  0.672643  1
  Ni  Ni10  1  0.264108  0.437646  0.578988  1
  Ni  Ni11  1  0.264146  0.685151  0.826502  1
  Ni  Ni12  1  0.935587  0.014235  0.327415  1
  Ni  Ni13  1  0.935432  0.608075  0.921274  1
  Ni  Ni14  1  0.858659  0.437646  0.173538  1
  Ni  Ni15  1  0.858649  0.685151  0.421005  1
  Ni  Ni16  1  0.562271  0.735745  0.420972  1
  Ni  Ni17  1  0.562555  0.141423  0.826537  1
  Ni  Ni18  1  0.985790  0.313263  0.921341  1
  Ni  Ni19  1  0.985858  0.064457  0.672601  1
  Ni  Ni20  1  0.314772  0.735745  0.173475  1
  Ni  Ni21  1  0.314886  0.141423  0.578869  1
  Ni  Ni22  1  0.391921  0.313263  0.327473  1
  Ni  Ni23  1  0.391857  0.064457  0.078600  1
