# generated using pymatgen
data_Nd6PuO12
_symmetry_space_group_name_H-M   'P 1'
_cell_length_a   6.81193039
_cell_length_b   6.81192998
_cell_length_c   6.81193100
_cell_angle_alpha   98.71031206
_cell_angle_beta   98.71031153
_cell_angle_gamma   98.71033753
_symmetry_Int_Tables_number   1
_chemical_formula_structural   Nd6PuO12
_chemical_formula_sum   'Nd6 Pu1 O12'
_cell_volume   303.88270119
_cell_formula_units_Z   1
loop_
 _symmetry_equiv_pos_site_id
 _symmetry_equiv_pos_as_xyz
  1  'x, y, z'
loop_
 _atom_site_type_symbol
 _atom_site_label
 _atom_site_symmetry_multiplicity
 _atom_site_fract_x
 _atom_site_fract_y
 _atom_site_fract_z
 _atom_site_occupancy
  Nd  Nd0  1  0.314060  0.610629  0.145289  1
  Nd  Nd1  1  0.610629  0.145289  0.314060  1
  Nd  Nd2  1  0.389371  0.854711  0.685940  1
  Nd  Nd3  1  0.685940  0.389371  0.854711  1
  Nd  Nd4  1  0.854711  0.685940  0.389371  1
  Nd  Nd5  1  0.145289  0.314060  0.610629  1
  Pu  Pu6  1  0.000000  0.000000  0.000000  1
  O  O7  1  0.436475  0.177566  0.591274  1
  O  O8  1  0.929723  0.701850  0.041800  1
  O  O9  1  0.177566  0.591274  0.436475  1
  O  O10  1  0.822434  0.408726  0.563525  1
  O  O11  1  0.563525  0.822434  0.408726  1
  O  O12  1  0.591274  0.436475  0.177566  1
  O  O13  1  0.408726  0.563525  0.822434  1
  O  O14  1  0.958200  0.070277  0.298150  1
  O  O15  1  0.041800  0.929723  0.701850  1
  O  O16  1  0.701850  0.041800  0.929723  1
  O  O17  1  0.070277  0.298150  0.958200  1
  O  O18  1  0.298150  0.958200  0.070277  1
