# generated using pymatgen
data_Pr2Eu2ReSn3O14
_symmetry_space_group_name_H-M   'P 1'
_cell_length_a   7.60835515
_cell_length_b   7.61719865
_cell_length_c   7.60835500
_cell_angle_alpha   59.74720013
_cell_angle_beta   59.72623566
_cell_angle_gamma   59.74720004
_symmetry_Int_Tables_number   1
_chemical_formula_structural   Pr2Eu2ReSn3O14
_chemical_formula_sum   'Pr2 Eu2 Re1 Sn3 O14'
_cell_volume   309.95028579
_cell_formula_units_Z   1
loop_
 _symmetry_equiv_pos_site_id
 _symmetry_equiv_pos_as_xyz
  1  'x, y, z'
loop_
 _atom_site_type_symbol
 _atom_site_label
 _atom_site_symmetry_multiplicity
 _atom_site_fract_x
 _atom_site_fract_y
 _atom_site_fract_z
 _atom_site_occupancy
  Pr  Pr0  1  0.125000  0.125000  0.125000  1
  Pr  Pr1  1  0.125000  0.625000  0.125000  1
  Eu  Eu2  1  0.625000  0.125000  0.125000  1
  Eu  Eu3  1  0.125000  0.125000  0.625000  1
  Re  Re4  1  0.625000  0.625000  0.625000  1
  Sn  Sn5  1  0.125000  0.625000  0.625000  1
  Sn  Sn6  1  0.625000  0.125000  0.625000  1
  Sn  Sn7  1  0.625000  0.625000  0.125000  1
  O  O8  1  0.959220  0.544820  0.959220  1
  O  O9  1  0.705618  0.291628  0.291449  1
  O  O10  1  0.307922  0.695266  0.704635  1
  O  O11  1  0.696926  0.314207  0.696926  1
  O  O12  1  0.291449  0.291628  0.705618  1
  O  O13  1  0.704635  0.695266  0.307922  1
  O  O14  1  0.958551  0.958372  0.544382  1
  O  O15  1  0.544382  0.958372  0.958551  1
  O  O16  1  0.942078  0.554734  0.545365  1
  O  O17  1  0.545365  0.554734  0.942078  1
  O  O18  1  0.290780  0.705180  0.290780  1
  O  O19  1  0.553074  0.935793  0.553074  1
  O  O20  1  0.999405  0.999631  0.999405  1
  O  O21  1  0.250595  0.250369  0.250595  1
