# generated using pymatgen
data_Sm2P7Ru12
_symmetry_space_group_name_H-M   'P 1'
_cell_length_a   9.44852800
_cell_length_b   9.44852676
_cell_length_c   3.97420900
_cell_angle_alpha   90.00000000
_cell_angle_beta   90.00000000
_cell_angle_gamma   119.99999033
_symmetry_Int_Tables_number   1
_chemical_formula_structural   Sm2P7Ru12
_chemical_formula_sum   'Sm2 P7 Ru12'
_cell_volume   307.26254850
_cell_formula_units_Z   1
loop_
 _symmetry_equiv_pos_site_id
 _symmetry_equiv_pos_as_xyz
  1  'x, y, z'
loop_
 _atom_site_type_symbol
 _atom_site_label
 _atom_site_symmetry_multiplicity
 _atom_site_fract_x
 _atom_site_fract_y
 _atom_site_fract_z
 _atom_site_occupancy
  Sm  Sm0  1  0.666667  0.333333  0.500000  1
  Sm  Sm1  1  0.333333  0.666667  0.000000  1
  P  P2  1  0.602174  0.716843  0.500000  1
  P  P3  1  0.000000  0.000000  0.000000  1
  P  P4  1  0.283157  0.885331  0.500000  1
  P  P5  1  0.114669  0.397826  0.500000  1
  P  P6  1  0.887170  0.576590  0.000000  1
  P  P7  1  0.423410  0.310580  0.000000  1
  P  P8  1  0.689420  0.112830  0.000000  1
  Ru  Ru9  1  0.558617  0.949935  0.500000  1
  Ru  Ru10  1  0.391319  0.441383  0.500000  1
  Ru  Ru11  1  0.913795  0.121479  0.500000  1
  Ru  Ru12  1  0.207684  0.086205  0.500000  1
  Ru  Ru13  1  0.878521  0.792316  0.500000  1
  Ru  Ru14  1  0.729324  0.892020  0.000000  1
  Ru  Ru15  1  0.107980  0.837303  0.000000  1
  Ru  Ru16  1  0.162697  0.270676  0.000000  1
  Ru  Ru17  1  0.423263  0.064947  0.000000  1
  Ru  Ru18  1  0.935053  0.358317  0.000000  1
  Ru  Ru19  1  0.641683  0.576737  0.000000  1
  Ru  Ru20  1  0.050065  0.608681  0.500000  1
