# generated using pymatgen
data_La2Y6Cd2NiIr
_symmetry_space_group_name_H-M   'P 1'
_cell_length_a   9.74027953
_cell_length_b   9.74028060
_cell_length_c   9.79909700
_cell_angle_alpha   59.80005054
_cell_angle_beta   59.80004687
_cell_angle_gamma   59.59442255
_symmetry_Int_Tables_number   1
_chemical_formula_structural   La2Y6Cd2NiIr
_chemical_formula_sum   'La4 Y12 Cd4 Ni2 Ir2'
_cell_volume   653.36208194
_cell_formula_units_Z   2
loop_
 _symmetry_equiv_pos_site_id
 _symmetry_equiv_pos_as_xyz
  1  'x, y, z'
loop_
 _atom_site_type_symbol
 _atom_site_label
 _atom_site_symmetry_multiplicity
 _atom_site_fract_x
 _atom_site_fract_y
 _atom_site_fract_z
 _atom_site_occupancy
  La  La0  1  0.601335  0.601335  0.597001  1
  La  La1  1  0.601335  0.601335  0.200330  1
  La  La2  1  0.603689  0.199482  0.598415  1
  La  La3  1  0.199482  0.603689  0.598415  1
  Y  Y4  1  0.061862  0.434958  0.438359  1
  Y  Y5  1  0.434958  0.061862  0.064821  1
  Y  Y6  1  0.434958  0.061862  0.438359  1
  Y  Y7  1  0.061862  0.434958  0.064821  1
  Y  Y8  1  0.437036  0.437036  0.062964  1
  Y  Y9  1  0.062972  0.062972  0.437028  1
  Y  Y10  1  0.185181  0.813069  0.817919  1
  Y  Y11  1  0.813069  0.185181  0.183831  1
  Y  Y12  1  0.813069  0.185181  0.817919  1
  Y  Y13  1  0.185181  0.813069  0.183831  1
  Y  Y14  1  0.816659  0.816659  0.183341  1
  Y  Y15  1  0.186220  0.186220  0.813780  1
  Cd  Cd16  1  0.831271  0.831271  0.834024  1
  Cd  Cd17  1  0.831271  0.831271  0.503432  1
  Cd  Cd18  1  0.830551  0.503077  0.833186  1
  Cd  Cd19  1  0.503077  0.830551  0.833186  1
  Ni  Ni20  1  0.391601  0.829036  0.389682  1
  Ni  Ni21  1  0.829036  0.391601  0.389682  1
  Ir  Ir22  1  0.392163  0.392163  0.389722  1
  Ir  Ir23  1  0.392163  0.392163  0.825952  1
