# generated using pymatgen
data_Dy3Ho(Er3Ru2)2
_symmetry_space_group_name_H-M   'P 1'
_cell_length_a   6.29920215
_cell_length_b   7.25613774
_cell_length_c   8.41715540
_cell_angle_alpha   96.76643585
_cell_angle_beta   112.03786558
_cell_angle_gamma   89.96131266
_symmetry_Int_Tables_number   1
_chemical_formula_structural   Dy3Ho(Er3Ru2)2
_chemical_formula_sum   'Dy3 Ho1 Er6 Ru4'
_cell_volume   353.74015472
_cell_formula_units_Z   1
loop_
 _symmetry_equiv_pos_site_id
 _symmetry_equiv_pos_as_xyz
  1  'x, y, z'
loop_
 _atom_site_type_symbol
 _atom_site_label
 _atom_site_symmetry_multiplicity
 _atom_site_fract_x
 _atom_site_fract_y
 _atom_site_fract_z
 _atom_site_occupancy
  Dy  Dy0  1  0.790873  0.584095  0.812830  1
  Dy  Dy1  1  0.977540  0.915841  0.186817  1
  Dy  Dy2  1  0.209219  0.415841  0.186997  1
  Ho  Ho3  1  0.022273  0.084271  0.813162  1
  Er  Er4  1  0.205572  0.684985  0.565458  1
  Er  Er5  1  0.640452  0.815382  0.434937  1
  Er  Er6  1  0.794452  0.314974  0.434627  1
  Er  Er7  1  0.359570  0.184728  0.565320  1
  Er  Er8  1  0.419243  0.749873  0.999845  1
  Er  Er9  1  0.580595  0.250145  0.000006  1
  Ru  Ru10  1  0.601944  0.924329  0.779155  1
  Ru  Ru11  1  0.822477  0.576359  0.220756  1
  Ru  Ru12  1  0.398328  0.075709  0.220762  1
  Ru  Ru13  1  0.177462  0.423468  0.779327  1
