# generated using pymatgen
data_Pm4Fe(NiO4)3
_symmetry_space_group_name_H-M   'P 1'
_cell_length_a   5.37747495
_cell_length_b   5.64548289
_cell_length_c   7.69371182
_cell_angle_alpha   90.09022250
_cell_angle_beta   89.86574552
_cell_angle_gamma   90.08032143
_symmetry_Int_Tables_number   1
_chemical_formula_structural   Pm4Fe(NiO4)3
_chemical_formula_sum   'Pm4 Fe1 Ni3 O12'
_cell_volume   233.56795131
_cell_formula_units_Z   1
loop_
 _symmetry_equiv_pos_site_id
 _symmetry_equiv_pos_as_xyz
  1  'x, y, z'
loop_
 _atom_site_type_symbol
 _atom_site_label
 _atom_site_symmetry_multiplicity
 _atom_site_fract_x
 _atom_site_fract_y
 _atom_site_fract_z
 _atom_site_occupancy
  Pm  Pm0  1  0.982010  0.067101  0.254467  1
  Pm  Pm1  1  0.513659  0.561384  0.254677  1
  Pm  Pm2  1  0.486341  0.438617  0.745322  1
  Pm  Pm3  1  0.017991  0.932899  0.745532  1
  Fe  Fe4  1  0.499999  0.000000  0.000000  1
  Ni  Ni5  1  0.000000  0.500000  0.000000  1
  Ni  Ni6  1  0.499999  0.000000  0.500000  1
  Ni  Ni7  1  0.000000  0.500000  0.500000  1
  O  O8  1  0.702100  0.295679  0.049336  1
  O  O9  1  0.787647  0.805149  0.047523  1
  O  O10  1  0.086553  0.479575  0.249470  1
  O  O11  1  0.408633  0.977789  0.245497  1
  O  O12  1  0.701043  0.296557  0.455138  1
  O  O13  1  0.790775  0.802965  0.454185  1
  O  O14  1  0.209223  0.197035  0.545815  1
  O  O15  1  0.298958  0.703444  0.544862  1
  O  O16  1  0.591368  0.022212  0.754502  1
  O  O17  1  0.913447  0.520427  0.750529  1
  O  O18  1  0.212351  0.194851  0.952477  1
  O  O19  1  0.297901  0.704322  0.950664  1
