# generated using pymatgen
data_GdErB5
_symmetry_space_group_name_H-M   'P 1'
_cell_length_a   7.09578700
_cell_length_b   7.08832461
_cell_length_c   7.11175070
_cell_angle_alpha   76.38322129
_cell_angle_beta   90.00000000
_cell_angle_gamma   90.00000000
_symmetry_Int_Tables_number   1
_chemical_formula_structural   GdErB5
_chemical_formula_sum   'Gd4 Er4 B20'
_cell_volume   347.64720612
_cell_formula_units_Z   4
loop_
 _symmetry_equiv_pos_site_id
 _symmetry_equiv_pos_as_xyz
  1  'x, y, z'
loop_
 _atom_site_type_symbol
 _atom_site_label
 _atom_site_symmetry_multiplicity
 _atom_site_fract_x
 _atom_site_fract_y
 _atom_site_fract_z
 _atom_site_occupancy
  Gd  Gd0  1  0.692136  0.772729  0.624409  1
  Gd  Gd1  1  0.192136  0.227271  0.875591  1
  Gd  Gd2  1  0.307864  0.227271  0.375591  1
  Gd  Gd3  1  0.807864  0.772729  0.124409  1
  Er  Er4  1  0.315152  0.753481  0.252337  1
  Er  Er5  1  0.815152  0.246519  0.247663  1
  Er  Er6  1  0.684848  0.246519  0.747663  1
  Er  Er7  1  0.184848  0.753481  0.752337  1
  B  B8  1  0.503196  0.313342  0.041948  1
  B  B9  1  0.003196  0.686658  0.458052  1
  B  B10  1  0.496804  0.686658  0.958052  1
  B  B11  1  0.996804  0.313342  0.541948  1
  B  B12  1  0.486957  0.927035  0.923930  1
  B  B13  1  0.986957  0.072965  0.576070  1
  B  B14  1  0.513043  0.072965  0.076070  1
  B  B15  1  0.013043  0.927035  0.423930  1
  B  B16  1  0.326121  0.495881  0.039900  1
  B  B17  1  0.826121  0.504119  0.460100  1
  B  B18  1  0.673879  0.504119  0.960100  1
  B  B19  1  0.173879  0.495881  0.539900  1
  B  B20  1  0.910917  0.499269  0.910954  1
  B  B21  1  0.410917  0.500731  0.589046  1
  B  B22  1  0.089083  0.500731  0.089046  1
  B  B23  1  0.589083  0.499269  0.410954  1
  B  B24  1  0.961631  0.496656  0.674349  1
  B  B25  1  0.461631  0.503344  0.825651  1
  B  B26  1  0.038369  0.503344  0.325651  1
  B  B27  1  0.538369  0.496656  0.174349  1
