# generated using pymatgen
data_Dy2ErLu17Bi12
_symmetry_space_group_name_H-M   'P 1'
_cell_length_a   8.15248233
_cell_length_b   9.39844000
_cell_length_c   11.81659000
_cell_angle_alpha   90.00000000
_cell_angle_beta   90.03342356
_cell_angle_gamma   90.00000000
_symmetry_Int_Tables_number   1
_chemical_formula_structural   Dy2ErLu17Bi12
_chemical_formula_sum   'Dy2 Er1 Lu17 Bi12'
_cell_volume   905.39425163
_cell_formula_units_Z   1
loop_
 _symmetry_equiv_pos_site_id
 _symmetry_equiv_pos_as_xyz
  1  'x, y, z'
loop_
 _atom_site_type_symbol
 _atom_site_label
 _atom_site_symmetry_multiplicity
 _atom_site_fract_x
 _atom_site_fract_y
 _atom_site_fract_z
 _atom_site_occupancy
  Dy  Dy0  1  0.812736  0.250000  0.282653  1
  Dy  Dy1  1  0.687083  0.750000  0.782563  1
  Er  Er2  1  0.187039  0.750000  0.717199  1
  Lu  Lu3  1  0.352647  0.750000  0.218021  1
  Lu  Lu4  1  0.852610  0.750000  0.282018  1
  Lu  Lu5  1  0.647276  0.250000  0.782163  1
  Lu  Lu6  1  0.147565  0.250000  0.718057  1
  Lu  Lu7  1  0.692133  0.567162  0.059306  1
  Lu  Lu8  1  0.191882  0.932789  0.440690  1
  Lu  Lu9  1  0.307957  0.067161  0.940885  1
  Lu  Lu10  1  0.808163  0.432882  0.559215  1
  Lu  Lu11  1  0.307957  0.432839  0.940885  1
  Lu  Lu12  1  0.808163  0.067118  0.559215  1
  Lu  Lu13  1  0.692133  0.932838  0.059306  1
  Lu  Lu14  1  0.191882  0.567211  0.440690  1
  Lu  Lu15  1  0.477440  0.250000  0.489150  1
  Lu  Lu16  1  0.978038  0.250000  0.010778  1
  Lu  Lu17  1  0.522045  0.750000  0.510451  1
  Lu  Lu18  1  0.022447  0.750000  0.989632  1
  Lu  Lu19  1  0.312599  0.250000  0.216637  1
  Bi  Bi20  1  0.402190  0.750000  0.958201  1
  Bi  Bi21  1  0.902614  0.750000  0.542000  1
  Bi  Bi22  1  0.596728  0.250000  0.042653  1
  Bi  Bi23  1  0.098373  0.250000  0.457918  1
  Bi  Bi24  1  0.564428  0.995403  0.325054  1
  Bi  Bi25  1  0.066237  0.504359  0.174686  1
  Bi  Bi26  1  0.434571  0.495167  0.674662  1
  Bi  Bi27  1  0.934917  0.005007  0.825456  1
  Bi  Bi28  1  0.434571  0.004833  0.674662  1
  Bi  Bi29  1  0.934917  0.494993  0.825456  1
  Bi  Bi30  1  0.564428  0.504597  0.325054  1
  Bi  Bi31  1  0.066237  0.995641  0.174686  1
