# generated using pymatgen
data_Ac2C2I
_symmetry_space_group_name_H-M   'P 1'
_cell_length_a   8.51678855
_cell_length_b   8.51678842
_cell_length_c   7.16640089
_cell_angle_alpha   98.40041152
_cell_angle_beta   98.40041224
_cell_angle_gamma   31.44588092
_symmetry_Int_Tables_number   1
_chemical_formula_structural   Ac2C2I
_chemical_formula_sum   'Ac4 C4 I2'
_cell_volume   268.04491785
_cell_formula_units_Z   2
loop_
 _symmetry_equiv_pos_site_id
 _symmetry_equiv_pos_as_xyz
  1  'x, y, z'
loop_
 _atom_site_type_symbol
 _atom_site_label
 _atom_site_symmetry_multiplicity
 _atom_site_fract_x
 _atom_site_fract_y
 _atom_site_fract_z
 _atom_site_occupancy
  Ac  Ac0  1  0.859370  0.461193  0.150669  1
  Ac  Ac1  1  0.538807  0.140630  0.349330  1
  Ac  Ac2  1  0.461193  0.859370  0.650670  1
  Ac  Ac3  1  0.140630  0.538807  0.849330  1
  C  C4  1  0.363906  0.091016  0.026391  1
  C  C5  1  0.908983  0.636094  0.473608  1
  C  C6  1  0.091016  0.363906  0.526392  1
  C  C7  1  0.636094  0.908984  0.973609  1
  I  I8  1  0.208570  0.791430  0.250000  1
  I  I9  1  0.791430  0.208570  0.750001  1
