# generated using pymatgen
data_Al7Se10
_symmetry_space_group_name_H-M   'P 1'
_cell_length_a   9.68873704
_cell_length_b   9.68873693
_cell_length_c   9.68873650
_cell_angle_alpha   89.39338069
_cell_angle_beta   89.39337888
_cell_angle_gamma   89.39338178
_symmetry_Int_Tables_number   1
_chemical_formula_structural   Al7Se10
_chemical_formula_sum   'Al14 Se20'
_cell_volume   909.34557991
_cell_formula_units_Z   2
loop_
 _symmetry_equiv_pos_site_id
 _symmetry_equiv_pos_as_xyz
  1  'x, y, z'
loop_
 _atom_site_type_symbol
 _atom_site_label
 _atom_site_symmetry_multiplicity
 _atom_site_fract_x
 _atom_site_fract_y
 _atom_site_fract_z
 _atom_site_occupancy
  Al  Al0  1  0.848414  0.890312  0.578498  1
  Al  Al1  1  0.578498  0.848414  0.890312  1
  Al  Al2  1  0.890312  0.578498  0.848414  1
  Al  Al3  1  0.151586  0.421502  0.109688  1
  Al  Al4  1  0.109688  0.151586  0.421502  1
  Al  Al5  1  0.421502  0.109688  0.151586  1
  Al  Al6  1  0.741950  0.164679  0.344862  1
  Al  Al7  1  0.344862  0.741950  0.164679  1
  Al  Al8  1  0.164679  0.344862  0.741950  1
  Al  Al9  1  0.258050  0.655138  0.835321  1
  Al  Al10  1  0.835321  0.258050  0.655138  1
  Al  Al11  1  0.655138  0.835321  0.258050  1
  Al  Al12  1  0.576817  0.576817  0.576817  1
  Al  Al13  1  0.423183  0.423183  0.423183  1
  Se  Se14  1  0.423039  0.920817  0.324275  1
  Se  Se15  1  0.920817  0.324275  0.423039  1
  Se  Se16  1  0.324275  0.423039  0.920817  1
  Se  Se17  1  0.079183  0.576961  0.675725  1
  Se  Se18  1  0.576961  0.675725  0.079183  1
  Se  Se19  1  0.675725  0.079183  0.576961  1
  Se  Se20  1  0.758724  0.697135  0.442574  1
  Se  Se21  1  0.442574  0.758724  0.697135  1
  Se  Se22  1  0.697135  0.442574  0.758724  1
  Se  Se23  1  0.241276  0.557426  0.302865  1
  Se  Se24  1  0.302865  0.241276  0.557426  1
  Se  Se25  1  0.557426  0.302865  0.241276  1
  Se  Se26  1  0.500000  0.077697  0.922303  1
  Se  Se27  1  0.922303  0.500000  0.077697  1
  Se  Se28  1  0.077697  0.922303  0.500000  1
  Se  Se29  1  0.000000  0.183972  0.816028  1
  Se  Se30  1  0.816028  0.000000  0.183972  1
  Se  Se31  1  0.183972  0.816028  0.000000  1
  Se  Se32  1  0.826585  0.826585  0.826585  1
  Se  Se33  1  0.173415  0.173415  0.173415  1
