# generated using pymatgen
data_Er4NbOs7
_symmetry_space_group_name_H-M   'P 1'
_cell_length_a   5.43388300
_cell_length_b   5.43388349
_cell_length_c   8.62651600
_cell_angle_alpha   90.00000000
_cell_angle_beta   90.00000000
_cell_angle_gamma   120.00000309
_symmetry_Int_Tables_number   1
_chemical_formula_structural   Er4NbOs7
_chemical_formula_sum   'Er4 Nb1 Os7'
_cell_volume   220.59042431
_cell_formula_units_Z   1
loop_
 _symmetry_equiv_pos_site_id
 _symmetry_equiv_pos_as_xyz
  1  'x, y, z'
loop_
 _atom_site_type_symbol
 _atom_site_label
 _atom_site_symmetry_multiplicity
 _atom_site_fract_x
 _atom_site_fract_y
 _atom_site_fract_z
 _atom_site_occupancy
  Er  Er0  1  0.333333  0.666667  0.428560  1
  Er  Er1  1  0.666667  0.333333  0.571440  1
  Er  Er2  1  0.666667  0.333333  0.938007  1
  Er  Er3  1  0.333333  0.666667  0.061993  1
  Nb  Nb4  1  0.000000  0.000000  0.500000  1
  Os  Os5  1  0.000000  0.000000  0.000000  1
  Os  Os6  1  0.825880  0.174120  0.248272  1
  Os  Os7  1  0.825880  0.651760  0.248272  1
  Os  Os8  1  0.348240  0.174120  0.248272  1
  Os  Os9  1  0.174120  0.825880  0.751728  1
  Os  Os10  1  0.174120  0.348240  0.751728  1
  Os  Os11  1  0.651760  0.825880  0.751728  1
