# generated using pymatgen
data_SmDy3(Si4Tc3)2
_symmetry_space_group_name_H-M   'P 1'
_cell_length_a   6.81448841
_cell_length_b   6.82355784
_cell_length_c   6.79801258
_cell_angle_alpha   69.68911999
_cell_angle_beta   90.05658718
_cell_angle_gamma   89.87028471
_symmetry_Int_Tables_number   1
_chemical_formula_structural   SmDy3(Si4Tc3)2
_chemical_formula_sum   'Sm1 Dy3 Si8 Tc6'
_cell_volume   296.44566590
_cell_formula_units_Z   1
loop_
 _symmetry_equiv_pos_site_id
 _symmetry_equiv_pos_as_xyz
  1  'x, y, z'
loop_
 _atom_site_type_symbol
 _atom_site_label
 _atom_site_symmetry_multiplicity
 _atom_site_fract_x
 _atom_site_fract_y
 _atom_site_fract_z
 _atom_site_occupancy
  Sm  Sm0  1  0.665803  0.442779  0.189299  1
  Dy  Dy1  1  0.167717  0.056945  0.808812  1
  Dy  Dy2  1  0.332060  0.557380  0.808321  1
  Dy  Dy3  1  0.832602  0.942489  0.191632  1
  Si  Si4  1  0.446860  0.119847  0.102955  1
  Si  Si5  1  0.948907  0.378307  0.894716  1
  Si  Si6  1  0.551948  0.880398  0.894887  1
  Si  Si7  1  0.054581  0.621984  0.103353  1
  Si  Si8  1  0.858725  0.129817  0.514925  1
  Si  Si9  1  0.355920  0.368543  0.487756  1
  Si  Si10  1  0.142230  0.868656  0.487028  1
  Si  Si11  1  0.642283  0.632359  0.515742  1
  Tc  Tc12  1  0.499213  0.998029  0.501156  1
  Tc  Tc13  1  0.001160  0.500104  0.500812  1
  Tc  Tc14  1  0.150290  0.241426  0.240710  1
  Tc  Tc15  1  0.649859  0.257500  0.757911  1
  Tc  Tc16  1  0.851385  0.758972  0.758627  1
  Tc  Tc17  1  0.348456  0.744463  0.241357  1
