# generated using pymatgen
data_DyTl(ReH9)2
_symmetry_space_group_name_H-M   'P 1'
_cell_length_a   5.18124035
_cell_length_b   5.18104316
_cell_length_c   8.48408900
_cell_angle_alpha   92.08824073
_cell_angle_beta   87.89770786
_cell_angle_gamma   125.05112542
_symmetry_Int_Tables_number   1
_chemical_formula_structural   DyTl(ReH9)2
_chemical_formula_sum   'Dy1 Tl1 Re2 H18'
_cell_volume   186.28590605
_cell_formula_units_Z   1
loop_
 _symmetry_equiv_pos_site_id
 _symmetry_equiv_pos_as_xyz
  1  'x, y, z'
loop_
 _atom_site_type_symbol
 _atom_site_label
 _atom_site_symmetry_multiplicity
 _atom_site_fract_x
 _atom_site_fract_y
 _atom_site_fract_z
 _atom_site_occupancy
  Dy  Dy0  1  0.000000  0.000000  0.500000  1
  Tl  Tl1  1  0.000000  0.000000  0.000000  1
  Re  Re2  1  0.338851  0.660956  0.719646  1
  Re  Re3  1  0.661149  0.339044  0.280354  1
  H  H4  1  0.385699  0.613890  0.521513  1
  H  H5  1  0.614301  0.386110  0.478487  1
  H  H6  1  0.419479  0.580310  0.891702  1
  H  H7  1  0.580521  0.419690  0.108298  1
  H  H8  1  0.472098  0.954200  0.855451  1
  H  H9  1  0.954577  0.472487  0.144504  1
  H  H10  1  0.599287  0.022621  0.648025  1
  H  H11  1  0.022979  0.599708  0.351851  1
  H  H12  1  0.527902  0.045800  0.144549  1
  H  H13  1  0.045423  0.527513  0.855496  1
  H  H14  1  0.400713  0.977379  0.351975  1
  H  H15  1  0.977021  0.400292  0.648149  1
  H  H16  1  0.699956  0.718545  0.714061  1
  H  H17  1  0.718806  0.700280  0.285905  1
  H  H18  1  0.300044  0.281455  0.285939  1
  H  H19  1  0.281194  0.299720  0.714095  1
  H  H20  1  0.155607  0.843954  0.692719  1
  H  H21  1  0.844393  0.156046  0.307281  1
