# generated using pymatgen
data_Rb12ZrW3S16
_symmetry_space_group_name_H-M   'P 1'
_cell_length_a   9.64559200
_cell_length_b   9.75335761
_cell_length_c   11.21102900
_cell_angle_alpha   90.00000000
_cell_angle_beta   90.00000000
_cell_angle_gamma   89.40347232
_symmetry_Int_Tables_number   1
_chemical_formula_structural   Rb12ZrW3S16
_chemical_formula_sum   'Rb12 Zr1 W3 S16'
_cell_volume   1054.64178304
_cell_formula_units_Z   1
loop_
 _symmetry_equiv_pos_site_id
 _symmetry_equiv_pos_as_xyz
  1  'x, y, z'
loop_
 _atom_site_type_symbol
 _atom_site_label
 _atom_site_symmetry_multiplicity
 _atom_site_fract_x
 _atom_site_fract_y
 _atom_site_fract_z
 _atom_site_occupancy
  Rb  Rb0  1  0.549005  0.712120  0.042085  1
  Rb  Rb1  1  0.053177  0.795750  0.462543  1
  Rb  Rb2  1  0.441569  0.286484  0.545271  1
  Rb  Rb3  1  0.955417  0.204056  0.950583  1
  Rb  Rb4  1  0.441569  0.286484  0.954729  1
  Rb  Rb5  1  0.955417  0.204056  0.549417  1
  Rb  Rb6  1  0.549005  0.712120  0.457915  1
  Rb  Rb7  1  0.053177  0.795750  0.037457  1
  Rb  Rb8  1  0.356568  0.072580  0.250000  1
  Rb  Rb9  1  0.855760  0.417054  0.250000  1
  Rb  Rb10  1  0.642227  0.920115  0.750000  1
  Rb  Rb11  1  0.142883  0.588497  0.750000  1
  Zr  Zr12  1  0.223674  0.015256  0.750000  1
  W  W13  1  0.276503  0.513065  0.250000  1
  W  W14  1  0.783399  0.985360  0.250000  1
  W  W15  1  0.721367  0.483260  0.750000  1
  S  S16  1  0.294685  0.741086  0.250000  1
  S  S17  1  0.798508  0.755259  0.250000  1
  S  S18  1  0.700803  0.255281  0.750000  1
  S  S19  1  0.199438  0.261677  0.750000  1
  S  S20  1  0.489876  0.418679  0.250000  1
  S  S21  1  0.996476  0.075496  0.250000  1
  S  S22  1  0.509998  0.580035  0.750000  1
  S  S23  1  0.992940  0.919747  0.750000  1
  S  S24  1  0.162565  0.451956  0.085246  1
  S  S25  1  0.671664  0.054347  0.413448  1
  S  S26  1  0.832888  0.543312  0.583435  1
  S  S27  1  0.341161  0.950750  0.932272  1
  S  S28  1  0.832888  0.543312  0.916565  1
  S  S29  1  0.341161  0.950750  0.567728  1
  S  S30  1  0.162565  0.451956  0.414754  1
  S  S31  1  0.671664  0.054347  0.086552  1
