# generated using pymatgen
data_Li2NiF5
_symmetry_space_group_name_H-M   'P 1'
_cell_length_a   5.65382024
_cell_length_b   5.65305748
_cell_length_c   7.10383297
_cell_angle_alpha   71.02687310
_cell_angle_beta   71.01211915
_cell_angle_gamma   52.65400744
_symmetry_Int_Tables_number   1
_chemical_formula_structural   Li2NiF5
_chemical_formula_sum   'Li4 Ni2 F10'
_cell_volume   168.19628584
_cell_formula_units_Z   2
loop_
 _symmetry_equiv_pos_site_id
 _symmetry_equiv_pos_as_xyz
  1  'x, y, z'
loop_
 _atom_site_type_symbol
 _atom_site_label
 _atom_site_symmetry_multiplicity
 _atom_site_fract_x
 _atom_site_fract_y
 _atom_site_fract_z
 _atom_site_occupancy
  Li  Li0  1  0.369220  0.352909  0.738301  1
  Li  Li1  1  0.352936  0.369257  0.238162  1
  Li  Li2  1  0.647064  0.630743  0.761838  1
  Li  Li3  1  0.630780  0.647091  0.261699  1
  Ni  Ni4  1  0.000000  0.000000  0.500000  1
  Ni  Ni5  1  0.000000  0.000000  0.000000  1
  F  F6  1  0.597298  0.233020  0.957444  1
  F  F7  1  0.232955  0.597349  0.457503  1
  F  F8  1  0.671743  0.970881  0.644137  1
  F  F9  1  0.029085  0.328384  0.855846  1
  F  F10  1  0.970915  0.671616  0.144154  1
  F  F11  1  0.328257  0.029119  0.355863  1
  F  F12  1  0.767045  0.402651  0.542497  1
  F  F13  1  0.183991  0.816069  0.750074  1
  F  F14  1  0.402702  0.766980  0.042556  1
  F  F15  1  0.816009  0.183931  0.249926  1
