# generated using pymatgen
data_Cs4Li2AlH12Rh
_symmetry_space_group_name_H-M   'P 1'
_cell_length_a   10.17586263
_cell_length_b   10.17586237
_cell_length_c   10.17586277
_cell_angle_alpha   35.15408184
_cell_angle_beta   35.15408564
_cell_angle_gamma   35.15408123
_symmetry_Int_Tables_number   1
_chemical_formula_structural   Cs4Li2AlH12Rh
_chemical_formula_sum   'Cs4 Li2 Al1 H12 Rh1'
_cell_volume   311.98284809
_cell_formula_units_Z   1
loop_
 _symmetry_equiv_pos_site_id
 _symmetry_equiv_pos_as_xyz
  1  'x, y, z'
loop_
 _atom_site_type_symbol
 _atom_site_label
 _atom_site_symmetry_multiplicity
 _atom_site_fract_x
 _atom_site_fract_y
 _atom_site_fract_z
 _atom_site_occupancy
  Cs  Cs0  1  0.127901  0.127901  0.127901  1
  Cs  Cs1  1  0.872099  0.872099  0.872099  1
  Cs  Cs2  1  0.284342  0.284342  0.284342  1
  Cs  Cs3  1  0.715658  0.715658  0.715658  1
  Li  Li4  1  0.410674  0.410674  0.410674  1
  Li  Li5  1  0.589326  0.589326  0.589326  1
  Al  Al6  1  0.000000  0.000000  0.000000  1
  H  H7  1  0.177118  0.177118  0.752196  1
  H  H8  1  0.752196  0.177118  0.177118  1
  H  H9  1  0.177118  0.752196  0.177118  1
  H  H10  1  0.822882  0.247804  0.822882  1
  H  H11  1  0.822882  0.822882  0.247804  1
  H  H12  1  0.247804  0.822882  0.822882  1
  H  H13  1  0.409952  0.409952  0.787602  1
  H  H14  1  0.787602  0.409952  0.409952  1
  H  H15  1  0.212398  0.590048  0.590048  1
  H  H16  1  0.590048  0.590048  0.212398  1
  H  H17  1  0.590048  0.212398  0.590048  1
  H  H18  1  0.409952  0.787602  0.409952  1
  Rh  Rh19  1  0.500000  0.500000  0.500000  1
