# generated using pymatgen
data_Dy3Er7Tm10(CoSb2)4
_symmetry_space_group_name_H-M   'P 1'
_cell_length_a   7.79511553
_cell_length_b   8.73472800
_cell_length_c   12.08000409
_cell_angle_alpha   90.00000000
_cell_angle_beta   90.01431661
_cell_angle_gamma   90.00000000
_symmetry_Int_Tables_number   1
_chemical_formula_structural   Dy3Er7Tm10(CoSb2)4
_chemical_formula_sum   'Dy3 Er7 Tm10 Co4 Sb8'
_cell_volume   822.50587632
_cell_formula_units_Z   1
loop_
 _symmetry_equiv_pos_site_id
 _symmetry_equiv_pos_as_xyz
  1  'x, y, z'
loop_
 _atom_site_type_symbol
 _atom_site_label
 _atom_site_symmetry_multiplicity
 _atom_site_fract_x
 _atom_site_fract_y
 _atom_site_fract_z
 _atom_site_occupancy
  Dy  Dy0  1  0.878361  0.750000  0.807281  1
  Dy  Dy1  1  0.378474  0.250000  0.692573  1
  Dy  Dy2  1  0.121726  0.250000  0.192764  1
  Er  Er3  1  0.155265  0.750000  0.203628  1
  Er  Er4  1  0.344910  0.750000  0.703611  1
  Er  Er5  1  0.844742  0.250000  0.796428  1
  Er  Er6  1  0.655240  0.250000  0.296524  1
  Er  Er7  1  0.451159  0.750000  0.998027  1
  Er  Er8  1  0.048630  0.750000  0.498070  1
  Er  Er9  1  0.620914  0.750000  0.308053  1
  Tm  Tm10  1  0.549045  0.250000  0.002079  1
  Tm  Tm11  1  0.950432  0.250000  0.501834  1
  Tm  Tm12  1  0.823075  0.536158  0.065224  1
  Tm  Tm13  1  0.677032  0.963304  0.564816  1
  Tm  Tm14  1  0.176888  0.036812  0.934842  1
  Tm  Tm15  1  0.323478  0.464228  0.434535  1
  Tm  Tm16  1  0.176888  0.463188  0.934842  1
  Tm  Tm17  1  0.323478  0.035772  0.434535  1
  Tm  Tm18  1  0.823075  0.963842  0.065224  1
  Tm  Tm19  1  0.677032  0.536696  0.564816  1
  Co  Co20  1  0.433640  0.750000  0.491054  1
  Co  Co21  1  0.066727  0.750000  0.991282  1
  Co  Co22  1  0.566779  0.250000  0.508585  1
  Co  Co23  1  0.933008  0.250000  0.008917  1
  Sb  Sb24  1  0.928870  0.508935  0.327954  1
  Sb  Sb25  1  0.570293  0.991624  0.828019  1
  Sb  Sb26  1  0.070105  0.008976  0.671970  1
  Sb  Sb27  1  0.430732  0.491693  0.172284  1
  Sb  Sb28  1  0.070105  0.491024  0.671970  1
  Sb  Sb29  1  0.430732  0.008307  0.172284  1
  Sb  Sb30  1  0.928870  0.991065  0.327954  1
  Sb  Sb31  1  0.570293  0.508376  0.828019  1
