# generated using pymatgen
data_PrNdC2Br
_symmetry_space_group_name_H-M   'P 1'
_cell_length_a   7.95226628
_cell_length_b   7.95226631
_cell_length_c   6.77352875
_cell_angle_alpha   100.95430903
_cell_angle_beta   100.95430934
_cell_angle_gamma   30.98150897
_symmetry_Int_Tables_number   1
_chemical_formula_structural   PrNdC2Br
_chemical_formula_sum   'Pr2 Nd2 C4 Br2'
_cell_volume   216.16769020
_cell_formula_units_Z   2
loop_
 _symmetry_equiv_pos_site_id
 _symmetry_equiv_pos_as_xyz
  1  'x, y, z'
loop_
 _atom_site_type_symbol
 _atom_site_label
 _atom_site_symmetry_multiplicity
 _atom_site_fract_x
 _atom_site_fract_y
 _atom_site_fract_z
 _atom_site_occupancy
  Pr  Pr0  1  0.457649  0.852465  0.152617  1
  Pr  Pr1  1  0.147536  0.542351  0.347383  1
  Nd  Nd2  1  0.852144  0.460127  0.652897  1
  Nd  Nd3  1  0.539873  0.147855  0.847103  1
  C  C4  1  0.086487  0.360078  0.024670  1
  C  C5  1  0.639921  0.913513  0.475330  1
  C  C6  1  0.358582  0.087254  0.527796  1
  C  C7  1  0.912746  0.641418  0.972204  1
  Br  Br8  1  0.779155  0.220845  0.249999  1
  Br  Br9  1  0.225905  0.774095  0.749999  1
