# generated using pymatgen
data_Ti5SiAs2O
_symmetry_space_group_name_H-M   'P 1'
_cell_length_a   7.45381877
_cell_length_b   7.45381908
_cell_length_c   5.26415600
_cell_angle_alpha   90.00000000
_cell_angle_beta   90.00000000
_cell_angle_gamma   120.04058965
_symmetry_Int_Tables_number   1
_chemical_formula_structural   Ti5SiAs2O
_chemical_formula_sum   'Ti10 Si2 As4 O2'
_cell_volume   253.18576435
_cell_formula_units_Z   2
loop_
 _symmetry_equiv_pos_site_id
 _symmetry_equiv_pos_as_xyz
  1  'x, y, z'
loop_
 _atom_site_type_symbol
 _atom_site_label
 _atom_site_symmetry_multiplicity
 _atom_site_fract_x
 _atom_site_fract_y
 _atom_site_fract_z
 _atom_site_occupancy
  Ti  Ti0  1  0.333847  0.666153  0.000000  1
  Ti  Ti1  1  0.666153  0.333847  0.000000  1
  Ti  Ti2  1  0.666153  0.333847  0.500000  1
  Ti  Ti3  1  0.333847  0.666153  0.500000  1
  Ti  Ti4  1  0.237022  0.006490  0.250000  1
  Ti  Ti5  1  0.762978  0.993510  0.750000  1
  Ti  Ti6  1  0.006490  0.237022  0.250000  1
  Ti  Ti7  1  0.993510  0.762978  0.750000  1
  Ti  Ti8  1  0.761354  0.761354  0.250000  1
  Ti  Ti9  1  0.238646  0.238646  0.750000  1
  Si  Si10  1  0.409219  0.409219  0.250000  1
  Si  Si11  1  0.590781  0.590781  0.750000  1
  As  As12  1  0.599783  0.000132  0.250000  1
  As  As13  1  0.400217  0.999868  0.750000  1
  As  As14  1  0.000132  0.599783  0.250000  1
  As  As15  1  0.999868  0.400217  0.750000  1
  O  O16  1  0.000000  0.000000  0.000000  1
  O  O17  1  0.000000  0.000000  0.500000  1
