# generated using pymatgen
data_PrTh3(CrN3)4
_symmetry_space_group_name_H-M   'P 1'
_cell_length_a   7.10000782
_cell_length_b   7.10000807
_cell_length_c   6.01211679
_cell_angle_alpha   77.83574444
_cell_angle_beta   77.83574497
_cell_angle_gamma   88.22617592
_symmetry_Int_Tables_number   1
_chemical_formula_structural   PrTh3(CrN3)4
_chemical_formula_sum   'Pr1 Th3 Cr4 N12'
_cell_volume   289.58619388
_cell_formula_units_Z   1
loop_
 _symmetry_equiv_pos_site_id
 _symmetry_equiv_pos_as_xyz
  1  'x, y, z'
loop_
 _atom_site_type_symbol
 _atom_site_label
 _atom_site_symmetry_multiplicity
 _atom_site_fract_x
 _atom_site_fract_y
 _atom_site_fract_z
 _atom_site_occupancy
  Pr  Pr0  1  0.904115  0.095885  0.750000  1
  Th  Th1  1  0.330576  0.669424  0.750000  1
  Th  Th2  1  0.669521  0.330479  0.250000  1
  Th  Th3  1  0.095041  0.904959  0.250000  1
  Cr  Cr4  1  0.378380  0.200141  0.758312  1
  Cr  Cr5  1  0.620437  0.798926  0.242172  1
  Cr  Cr6  1  0.799859  0.621620  0.741688  1
  Cr  Cr7  1  0.201074  0.379563  0.257828  1
  N  N8  1  0.007502  0.767589  0.649891  1
  N  N9  1  0.856717  0.397219  0.865040  1
  N  N10  1  0.770162  0.000703  0.164562  1
  N  N11  1  0.142314  0.608984  0.137204  1
  N  N12  1  0.999297  0.229838  0.335438  1
  N  N13  1  0.232411  0.992498  0.850109  1
  N  N14  1  0.602781  0.143283  0.634960  1
  N  N15  1  0.630034  0.681420  0.991427  1
  N  N16  1  0.371115  0.320935  0.008890  1
  N  N17  1  0.391016  0.857686  0.362796  1
  N  N18  1  0.679065  0.628885  0.491110  1
  N  N19  1  0.318580  0.369966  0.508573  1
