# generated using pymatgen
data_Er4Tm(GaSb)2
_symmetry_space_group_name_H-M   'P 1'
_cell_length_a   8.55926821
_cell_length_b   8.55926932
_cell_length_c   7.86129200
_cell_angle_alpha   90.00000000
_cell_angle_beta   90.00000000
_cell_angle_gamma   125.37305005
_symmetry_Int_Tables_number   1
_chemical_formula_structural   Er4Tm(GaSb)2
_chemical_formula_sum   'Er8 Tm2 Ga4 Sb4'
_cell_volume   469.61078004
_cell_formula_units_Z   2
loop_
 _symmetry_equiv_pos_site_id
 _symmetry_equiv_pos_as_xyz
  1  'x, y, z'
loop_
 _atom_site_type_symbol
 _atom_site_label
 _atom_site_symmetry_multiplicity
 _atom_site_fract_x
 _atom_site_fract_y
 _atom_site_fract_z
 _atom_site_occupancy
  Er  Er0  1  0.538658  0.795474  0.166077  1
  Er  Er1  1  0.295474  0.038658  0.333923  1
  Er  Er2  1  0.204526  0.461342  0.833923  1
  Er  Er3  1  0.961342  0.704526  0.666077  1
  Er  Er4  1  0.704526  0.961342  0.666077  1
  Er  Er5  1  0.461342  0.204526  0.833923  1
  Er  Er6  1  0.795474  0.538658  0.166077  1
  Er  Er7  1  0.038658  0.295474  0.333923  1
  Tm  Tm8  1  0.500000  0.500000  0.500000  1
  Tm  Tm9  1  0.000000  0.000000  0.000000  1
  Ga  Ga10  1  0.628974  0.628974  0.871462  1
  Ga  Ga11  1  0.128974  0.128974  0.628538  1
  Ga  Ga12  1  0.871026  0.871026  0.371462  1
  Ga  Ga13  1  0.371026  0.371026  0.128538  1
  Sb  Sb14  1  0.294583  0.705417  0.500000  1
  Sb  Sb15  1  0.205417  0.794583  0.000000  1
  Sb  Sb16  1  0.705417  0.294583  0.500000  1
  Sb  Sb17  1  0.794583  0.205417  0.000000  1
