# generated using pymatgen
data_Ce4Ni3Hg2Pt
_symmetry_space_group_name_H-M   'P 1'
_cell_length_a   7.62676974
_cell_length_b   7.62676974
_cell_length_c   3.65585400
_cell_angle_alpha   90.00000000
_cell_angle_beta   90.00000000
_cell_angle_gamma   89.80772609
_symmetry_Int_Tables_number   1
_chemical_formula_structural   Ce4Ni3Hg2Pt
_chemical_formula_sum   'Ce4 Ni3 Hg2 Pt1'
_cell_volume   212.65111646
_cell_formula_units_Z   1
loop_
 _symmetry_equiv_pos_site_id
 _symmetry_equiv_pos_as_xyz
  1  'x, y, z'
loop_
 _atom_site_type_symbol
 _atom_site_label
 _atom_site_symmetry_multiplicity
 _atom_site_fract_x
 _atom_site_fract_y
 _atom_site_fract_z
 _atom_site_occupancy
  Ce  Ce0  1  0.325327  0.179943  0.499999  1
  Ce  Ce1  1  0.825827  0.325827  0.499999  1
  Ce  Ce2  1  0.165531  0.665530  0.499999  1
  Ce  Ce3  1  0.679942  0.825327  0.499999  1
  Ni  Ni4  1  0.632071  0.132070  0.000000  1
  Ni  Ni5  1  0.119393  0.376473  0.000000  1
  Ni  Ni6  1  0.876473  0.619394  0.000000  1
  Hg  Hg7  1  0.993845  0.003079  0.000000  1
  Hg  Hg8  1  0.503079  0.493845  0.000000  1
  Pt  Pt9  1  0.378515  0.878515  0.000000  1
