# generated using pymatgen
data_Y4Al4OsPd3
_symmetry_space_group_name_H-M   'P 1'
_cell_length_a   4.37151000
_cell_length_b   6.92686207
_cell_length_c   7.88593208
_cell_angle_alpha   90.01624164
_cell_angle_beta   90.00000000
_cell_angle_gamma   90.00000000
_symmetry_Int_Tables_number   1
_chemical_formula_structural   Y4Al4OsPd3
_chemical_formula_sum   'Y4 Al4 Os1 Pd3'
_cell_volume   238.79269162
_cell_formula_units_Z   1
loop_
 _symmetry_equiv_pos_site_id
 _symmetry_equiv_pos_as_xyz
  1  'x, y, z'
loop_
 _atom_site_type_symbol
 _atom_site_label
 _atom_site_symmetry_multiplicity
 _atom_site_fract_x
 _atom_site_fract_y
 _atom_site_fract_z
 _atom_site_occupancy
  Y  Y0  1  0.250000  0.034252  0.321804  1
  Y  Y1  1  0.250000  0.529960  0.180960  1
  Y  Y2  1  0.750000  0.980846  0.678966  1
  Y  Y3  1  0.750000  0.464607  0.814777  1
  Al  Al4  1  0.250000  0.146542  0.934899  1
  Al  Al5  1  0.250000  0.639338  0.562408  1
  Al  Al6  1  0.750000  0.855150  0.061117  1
  Al  Al7  1  0.750000  0.352938  0.442207  1
  Os  Os8  1  0.250000  0.269821  0.620800  1
  Pd  Pd9  1  0.250000  0.775438  0.882309  1
  Pd  Pd10  1  0.750000  0.725927  0.379164  1
  Pd  Pd11  1  0.750000  0.225180  0.120590  1
