# generated using pymatgen
data_K2V(SiO3)3
_symmetry_space_group_name_H-M   'P 1'
_cell_length_a   6.86596047
_cell_length_b   6.82485920
_cell_length_c   10.06151300
_cell_angle_alpha   90.00000000
_cell_angle_beta   90.00000000
_cell_angle_gamma   119.94688779
_symmetry_Int_Tables_number   1
_chemical_formula_structural   K2V(SiO3)3
_chemical_formula_sum   'K4 V2 Si6 O18'
_cell_volume   408.52731738
_cell_formula_units_Z   2
loop_
 _symmetry_equiv_pos_site_id
 _symmetry_equiv_pos_as_xyz
  1  'x, y, z'
loop_
 _atom_site_type_symbol
 _atom_site_label
 _atom_site_symmetry_multiplicity
 _atom_site_fract_x
 _atom_site_fract_y
 _atom_site_fract_z
 _atom_site_occupancy
  K  K0  1  0.334570  0.667142  0.057586  1
  K  K1  1  0.665430  0.332858  0.557586  1
  K  K2  1  0.334570  0.667142  0.442414  1
  K  K3  1  0.665430  0.332858  0.942414  1
  V  V4  1  0.000000  0.000000  0.000000  1
  V  V5  1  0.000000  0.000000  0.500000  1
  Si  Si6  1  0.623383  0.753382  0.750000  1
  Si  Si7  1  0.869440  0.625300  0.250000  1
  Si  Si8  1  0.754944  0.129796  0.250000  1
  Si  Si9  1  0.245056  0.870204  0.750000  1
  Si  Si10  1  0.130560  0.374700  0.750000  1
  Si  Si11  1  0.376617  0.246618  0.250000  1
  O  O12  1  0.245994  0.224370  0.387344  1
  O  O13  1  0.022126  0.241466  0.887953  1
  O  O14  1  0.223983  0.980686  0.887639  1
  O  O15  1  0.776017  0.019314  0.387639  1
  O  O16  1  0.977874  0.758534  0.387953  1
  O  O17  1  0.754006  0.775630  0.887344  1
  O  O18  1  0.754006  0.775630  0.612656  1
  O  O19  1  0.977874  0.758534  0.112047  1
  O  O20  1  0.776017  0.019314  0.112361  1
  O  O21  1  0.223983  0.980686  0.612361  1
  O  O22  1  0.022126  0.241466  0.612047  1
  O  O23  1  0.245994  0.224370  0.112656  1
  O  O24  1  0.490286  0.081009  0.250000  1
  O  O25  1  0.406964  0.486778  0.750000  1
  O  O26  1  0.080053  0.589971  0.750000  1
  O  O27  1  0.919947  0.410029  0.250000  1
  O  O28  1  0.593036  0.513222  0.250000  1
  O  O29  1  0.509714  0.918991  0.750000  1
