# generated using pymatgen
data_Nb8Fe5Si14Ni3
_symmetry_space_group_name_H-M   'P 1'
_cell_length_a   9.26383438
_cell_length_b   9.26383371
_cell_length_c   9.25201719
_cell_angle_alpha   94.23354571
_cell_angle_beta   94.23354229
_cell_angle_gamma   148.55343149
_symmetry_Int_Tables_number   1
_chemical_formula_structural   Nb8Fe5Si14Ni3
_chemical_formula_sum   'Nb8 Fe5 Si14 Ni3'
_cell_volume   398.56373853
_cell_formula_units_Z   1
loop_
 _symmetry_equiv_pos_site_id
 _symmetry_equiv_pos_as_xyz
  1  'x, y, z'
loop_
 _atom_site_type_symbol
 _atom_site_label
 _atom_site_symmetry_multiplicity
 _atom_site_fract_x
 _atom_site_fract_y
 _atom_site_fract_z
 _atom_site_occupancy
  Nb  Nb0  1  0.310001  0.500977  0.808998  1
  Nb  Nb1  1  0.691909  0.501090  0.191773  1
  Nb  Nb2  1  0.499023  0.689999  0.191002  1
  Nb  Nb3  1  0.498910  0.308091  0.808227  1
  Nb  Nb4  1  0.134807  0.133782  0.268795  1
  Nb  Nb5  1  0.866218  0.865193  0.731205  1
  Nb  Nb6  1  0.134290  0.865710  0.000000  1
  Nb  Nb7  1  0.866534  0.133466  0.000000  1
  Fe  Fe8  1  0.598498  0.401502  0.500000  1
  Fe  Fe9  1  0.601690  0.099570  0.202343  1
  Fe  Fe10  1  0.900430  0.398310  0.797657  1
  Fe  Fe11  1  0.102531  0.897469  0.500000  1
  Fe  Fe12  1  0.397020  0.602980  0.500000  1
  Si  Si13  1  0.294975  0.294386  0.584207  1
  Si  Si14  1  0.705614  0.705025  0.415793  1
  Si  Si15  1  0.292305  0.707695  0.000000  1
  Si  Si16  1  0.707425  0.292575  0.000000  1
  Si  Si17  1  0.093294  0.498593  0.593517  1
  Si  Si18  1  0.890926  0.487090  0.409250  1
  Si  Si19  1  0.501407  0.906706  0.406483  1
  Si  Si20  1  0.512910  0.109074  0.590750  1
  Si  Si21  1  0.249604  0.249282  0.000093  1
  Si  Si22  1  0.750718  0.750396  0.999907  1
  Si  Si23  1  0.303216  0.007950  0.297119  1
  Si  Si24  1  0.705540  0.000977  0.703916  1
  Si  Si25  1  0.992050  0.696784  0.702881  1
  Si  Si26  1  0.999023  0.294460  0.296084  1
  Ni  Ni27  1  0.399036  0.901599  0.798519  1
  Ni  Ni28  1  0.098401  0.600964  0.201481  1
  Ni  Ni29  1  0.901697  0.098303  0.500000  1
