# generated using pymatgen
data_Tb16MgNi4Ag3
_symmetry_space_group_name_H-M   'P 1'
_cell_length_a   9.51687878
_cell_length_b   9.55898905
_cell_length_c   9.55898900
_cell_angle_alpha   60.00000362
_cell_angle_beta   59.85352425
_cell_angle_gamma   59.85351751
_symmetry_Int_Tables_number   1
_chemical_formula_structural   Tb16MgNi4Ag3
_chemical_formula_sum   'Tb16 Mg1 Ni4 Ag3'
_cell_volume   613.53363927
_cell_formula_units_Z   1
loop_
 _symmetry_equiv_pos_site_id
 _symmetry_equiv_pos_as_xyz
  1  'x, y, z'
loop_
 _atom_site_type_symbol
 _atom_site_label
 _atom_site_symmetry_multiplicity
 _atom_site_fract_x
 _atom_site_fract_y
 _atom_site_fract_z
 _atom_site_occupancy
  Tb  Tb0  1  0.183146  0.815456  0.815456  1
  Tb  Tb1  1  0.813823  0.185464  0.185464  1
  Tb  Tb2  1  0.813823  0.185464  0.815249  1
  Tb  Tb3  1  0.183146  0.815456  0.185941  1
  Tb  Tb4  1  0.813823  0.815249  0.185464  1
  Tb  Tb5  1  0.183146  0.185941  0.815456  1
  Tb  Tb6  1  0.058973  0.440230  0.440230  1
  Tb  Tb7  1  0.435407  0.062776  0.062776  1
  Tb  Tb8  1  0.435407  0.062776  0.439041  1
  Tb  Tb9  1  0.058973  0.440230  0.060568  1
  Tb  Tb10  1  0.435407  0.439041  0.062776  1
  Tb  Tb11  1  0.058973  0.060568  0.440230  1
  Tb  Tb12  1  0.599934  0.597304  0.597304  1
  Tb  Tb13  1  0.599934  0.597304  0.205457  1
  Tb  Tb14  1  0.599934  0.205457  0.597304  1
  Tb  Tb15  1  0.193797  0.602067  0.602067  1
  Mg  Mg16  1  0.539206  0.820265  0.820265  1
  Ni  Ni17  1  0.390918  0.393483  0.393483  1
  Ni  Ni18  1  0.390918  0.393483  0.822118  1
  Ni  Ni19  1  0.390918  0.822118  0.393483  1
  Ni  Ni20  1  0.823543  0.392153  0.392153  1
  Ag  Ag21  1  0.832284  0.833931  0.833931  1
  Ag  Ag22  1  0.832284  0.833931  0.499855  1
  Ag  Ag23  1  0.832284  0.499855  0.833931  1
