# generated using pymatgen
data_Dy3Ho(MgPt)4
_symmetry_space_group_name_H-M   'P 1'
_cell_length_a   4.16351300
_cell_length_b   7.11844477
_cell_length_c   8.63597900
_cell_angle_alpha   89.70590734
_cell_angle_beta   90.00000000
_cell_angle_gamma   90.00000000
_symmetry_Int_Tables_number   1
_chemical_formula_structural   Dy3Ho(MgPt)4
_chemical_formula_sum   'Dy3 Ho1 Mg4 Pt4'
_cell_volume   255.94750568
_cell_formula_units_Z   1
loop_
 _symmetry_equiv_pos_site_id
 _symmetry_equiv_pos_as_xyz
  1  'x, y, z'
loop_
 _atom_site_type_symbol
 _atom_site_label
 _atom_site_symmetry_multiplicity
 _atom_site_fract_x
 _atom_site_fract_y
 _atom_site_fract_z
 _atom_site_occupancy
  Dy  Dy0  1  0.250000  0.537274  0.176048  1
  Dy  Dy1  1  0.750000  0.962161  0.675861  1
  Dy  Dy2  1  0.750000  0.462080  0.824119  1
  Ho  Ho3  1  0.250000  0.038533  0.324372  1
  Mg  Mg4  1  0.250000  0.135679  0.938956  1
  Mg  Mg5  1  0.250000  0.636099  0.560674  1
  Mg  Mg6  1  0.750000  0.864310  0.061889  1
  Mg  Mg7  1  0.750000  0.364092  0.438287  1
  Pt  Pt8  1  0.250000  0.247317  0.624802  1
  Pt  Pt9  1  0.250000  0.747100  0.874108  1
  Pt  Pt10  1  0.750000  0.754054  0.374234  1
  Pt  Pt11  1  0.750000  0.251300  0.126648  1
