# generated using pymatgen
data_Sr4CaNp3O12
_symmetry_space_group_name_H-M   'P 1'
_cell_length_a   5.98790741
_cell_length_b   6.12429135
_cell_length_c   8.54834353
_cell_angle_alpha   90.02814420
_cell_angle_beta   89.78645500
_cell_angle_gamma   90.02047255
_symmetry_Int_Tables_number   1
_chemical_formula_structural   Sr4CaNp3O12
_chemical_formula_sum   'Sr4 Ca1 Np3 O12'
_cell_volume   313.47996523
_cell_formula_units_Z   1
loop_
 _symmetry_equiv_pos_site_id
 _symmetry_equiv_pos_as_xyz
  1  'x, y, z'
loop_
 _atom_site_type_symbol
 _atom_site_label
 _atom_site_symmetry_multiplicity
 _atom_site_fract_x
 _atom_site_fract_y
 _atom_site_fract_z
 _atom_site_occupancy
  Sr  Sr0  1  0.987475  0.041606  0.257297  1
  Sr  Sr1  1  0.483601  0.451804  0.741027  1
  Sr  Sr2  1  0.516399  0.548196  0.258973  1
  Sr  Sr3  1  0.012525  0.958394  0.742703  1
  Ca  Ca4  1  0.500000  0.000000  0.500000  1
  Np  Np5  1  0.500000  0.000000  0.000000  1
  Np  Np6  1  0.000000  0.500000  0.000000  1
  Np  Np7  1  0.000000  0.500000  0.500000  1
  O  O8  1  0.191908  0.218588  0.553861  1
  O  O9  1  0.721021  0.307969  0.451783  1
  O  O10  1  0.290749  0.704821  0.939086  1
  O  O11  1  0.798631  0.788521  0.056955  1
  O  O12  1  0.808092  0.781412  0.446139  1
  O  O13  1  0.278979  0.692031  0.548217  1
  O  O14  1  0.709251  0.295179  0.060914  1
  O  O15  1  0.201369  0.211479  0.943045  1
  O  O16  1  0.102767  0.463875  0.246261  1
  O  O17  1  0.598660  0.036961  0.770070  1
  O  O18  1  0.401340  0.963039  0.229930  1
  O  O19  1  0.897233  0.536125  0.753739  1
