# generated using pymatgen
data_Ac4Sb4Pt3Au
_symmetry_space_group_name_H-M   'P 1'
_cell_length_a   8.10809300
_cell_length_b   6.47820163
_cell_length_c   6.47260000
_cell_angle_alpha   86.66356521
_cell_angle_beta   89.99979507
_cell_angle_gamma   89.89871969
_symmetry_Int_Tables_number   1
_chemical_formula_structural   Ac4Sb4Pt3Au
_chemical_formula_sum   'Ac4 Sb4 Pt3 Au1'
_cell_volume   339.40209665
_cell_formula_units_Z   1
loop_
 _symmetry_equiv_pos_site_id
 _symmetry_equiv_pos_as_xyz
  1  'x, y, z'
loop_
 _atom_site_type_symbol
 _atom_site_label
 _atom_site_symmetry_multiplicity
 _atom_site_fract_x
 _atom_site_fract_y
 _atom_site_fract_z
 _atom_site_occupancy
  Ac  Ac0  1  0.672051  0.706721  0.874499  1
  Ac  Ac1  1  0.165385  0.454815  0.629296  1
  Ac  Ac2  1  0.671893  0.208654  0.376318  1
  Ac  Ac3  1  0.163443  0.958865  0.124802  1
  Sb  Sb4  1  0.330420  0.450635  0.124296  1
  Sb  Sb5  1  0.838352  0.705361  0.377202  1
  Sb  Sb6  1  0.330648  0.959787  0.633143  1
  Sb  Sb7  1  0.832589  0.205756  0.877438  1
  Pt  Pt8  1  0.501117  0.211297  0.872246  1
  Pt  Pt9  1  0.997749  0.459422  0.121349  1
  Pt  Pt10  1  0.997885  0.961565  0.622843  1
  Au  Au11  1  0.498468  0.717121  0.366567  1
