# generated using pymatgen
data_Ho3Er9GaNi2HgRu2
_symmetry_space_group_name_H-M   'P 1'
_cell_length_a   8.28142294
_cell_length_b   8.28124482
_cell_length_c   8.28142400
_cell_angle_alpha   112.94625350
_cell_angle_beta   110.22296240
_cell_angle_gamma   105.33559006
_symmetry_Int_Tables_number   1
_chemical_formula_structural   Ho3Er9GaNi2HgRu2
_chemical_formula_sum   'Ho3 Er9 Ga1 Ni2 Hg1 Ru2'
_cell_volume   435.24044970
_cell_formula_units_Z   1
loop_
 _symmetry_equiv_pos_site_id
 _symmetry_equiv_pos_as_xyz
  1  'x, y, z'
loop_
 _atom_site_type_symbol
 _atom_site_label
 _atom_site_symmetry_multiplicity
 _atom_site_fract_x
 _atom_site_fract_y
 _atom_site_fract_z
 _atom_site_occupancy
  Ho  Ho0  1  0.671984  0.360475  0.688490  1
  Ho  Ho1  1  0.328120  0.016186  0.688067  1
  Ho  Ho2  1  0.671710  0.983457  0.311747  1
  Er  Er3  1  0.434509  0.241789  0.192968  1
  Er  Er4  1  0.565275  0.758353  0.806720  1
  Er  Er5  1  0.048820  0.241789  0.807280  1
  Er  Er6  1  0.951633  0.758353  0.193077  1
  Er  Er7  1  0.179271  0.278850  0.457885  1
  Er  Er8  1  0.820567  0.721163  0.541874  1
  Er  Er9  1  0.179291  0.721163  0.900596  1
  Er  Er10  1  0.820964  0.278850  0.099580  1
  Er  Er11  1  0.328046  0.640012  0.311967  1
  Ga  Ga12  1  0.999968  0.999956  0.999988  1
  Ni  Ni13  1  0.117884  0.617739  0.499854  1
  Ni  Ni14  1  0.882327  0.382345  0.500017  1
  Hg  Hg15  1  0.499871  0.500099  0.000230  1
  Ru  Ru16  1  0.329071  0.999710  0.329020  1
  Ru  Ru17  1  0.670690  0.999710  0.670639  1
