# generated using pymatgen
data_YThTcB6
_symmetry_space_group_name_H-M   'P 1'
_cell_length_a   3.78193500
_cell_length_b   9.27159900
_cell_length_c   11.68950900
_cell_angle_alpha   90.00000000
_cell_angle_beta   90.00000000
_cell_angle_gamma   90.00000000
_symmetry_Int_Tables_number   1
_chemical_formula_structural   YThTcB6
_chemical_formula_sum   'Y4 Th4 Tc4 B24'
_cell_volume   409.88777918
_cell_formula_units_Z   4
loop_
 _symmetry_equiv_pos_site_id
 _symmetry_equiv_pos_as_xyz
  1  'x, y, z'
loop_
 _atom_site_type_symbol
 _atom_site_label
 _atom_site_symmetry_multiplicity
 _atom_site_fract_x
 _atom_site_fract_y
 _atom_site_fract_z
 _atom_site_occupancy
  Y  Y0  1  0.000000  0.444162  0.127793  1
  Y  Y1  1  0.000000  0.555838  0.872207  1
  Y  Y2  1  0.000000  0.944162  0.372207  1
  Y  Y3  1  0.000000  0.055838  0.627793  1
  Th  Th4  1  0.000000  0.822546  0.085946  1
  Th  Th5  1  0.000000  0.177454  0.914054  1
  Th  Th6  1  0.000000  0.322546  0.414054  1
  Th  Th7  1  0.000000  0.677454  0.585946  1
  Tc  Tc8  1  0.000000  0.138635  0.179696  1
  Tc  Tc9  1  0.000000  0.861365  0.820304  1
  Tc  Tc10  1  0.000000  0.638635  0.320304  1
  Tc  Tc11  1  0.000000  0.361365  0.679696  1
  B  B12  1  0.500000  0.055668  0.069748  1
  B  B13  1  0.500000  0.944332  0.930253  1
  B  B14  1  0.500000  0.555668  0.430252  1
  B  B15  1  0.500000  0.444332  0.569747  1
  B  B16  1  0.500000  0.248755  0.082735  1
  B  B17  1  0.500000  0.751245  0.917265  1
  B  B18  1  0.500000  0.748755  0.417265  1
  B  B19  1  0.500000  0.251245  0.582735  1
  B  B20  1  0.500000  0.290006  0.233330  1
  B  B21  1  0.500000  0.709994  0.766670  1
  B  B22  1  0.500000  0.790006  0.266670  1
  B  B23  1  0.500000  0.209994  0.733330  1
  B  B24  1  0.500000  0.130236  0.313648  1
  B  B25  1  0.500000  0.869764  0.686352  1
  B  B26  1  0.500000  0.630236  0.186352  1
  B  B27  1  0.500000  0.369764  0.813648  1
  B  B28  1  0.500000  0.484949  0.286547  1
  B  B29  1  0.500000  0.515051  0.713453  1
  B  B30  1  0.500000  0.984949  0.213453  1
  B  B31  1  0.500000  0.015051  0.786547  1
  B  B32  1  0.500000  0.103668  0.471284  1
  B  B33  1  0.500000  0.896332  0.528716  1
  B  B34  1  0.500000  0.603668  0.028716  1
  B  B35  1  0.500000  0.396332  0.971284  1
