# generated using pymatgen
data_Na5Tm3(Cu4As3)4
_symmetry_space_group_name_H-M   'P 1'
_cell_length_a   13.23287600
_cell_length_b   13.23287532
_cell_length_c   4.06665900
_cell_angle_alpha   90.00000000
_cell_angle_beta   90.00000000
_cell_angle_gamma   120.00000169
_symmetry_Int_Tables_number   1
_chemical_formula_structural   Na5Tm3(Cu4As3)4
_chemical_formula_sum   'Na5 Tm3 Cu16 As12'
_cell_volume   616.70411335
_cell_formula_units_Z   1
loop_
 _symmetry_equiv_pos_site_id
 _symmetry_equiv_pos_as_xyz
  1  'x, y, z'
loop_
 _atom_site_type_symbol
 _atom_site_label
 _atom_site_symmetry_multiplicity
 _atom_site_fract_x
 _atom_site_fract_y
 _atom_site_fract_z
 _atom_site_occupancy
  Na  Na0  1  0.185063  0.185063  0.500000  1
  Na  Na1  1  0.814937  0.000000  0.500000  1
  Na  Na2  1  0.000000  0.814937  0.500000  1
  Na  Na3  1  0.333333  0.666667  0.000000  1
  Na  Na4  1  0.666667  0.333333  0.000000  1
  Tm  Tm5  1  0.568106  0.568106  0.000000  1
  Tm  Tm6  1  0.431894  0.000000  0.000000  1
  Tm  Tm7  1  0.000000  0.431894  0.000000  1
  Cu  Cu8  1  0.725152  0.725152  0.500000  1
  Cu  Cu9  1  0.274848  0.000000  0.500000  1
  Cu  Cu10  1  0.000000  0.274848  0.500000  1
  Cu  Cu11  1  0.184512  0.372739  0.000000  1
  Cu  Cu12  1  0.627261  0.811773  0.000000  1
  Cu  Cu13  1  0.188227  0.815488  0.000000  1
  Cu  Cu14  1  0.811773  0.627261  0.000000  1
  Cu  Cu15  1  0.815488  0.188227  0.000000  1
  Cu  Cu16  1  0.372739  0.184512  0.000000  1
  Cu  Cu17  1  0.358664  0.480222  0.500000  1
  Cu  Cu18  1  0.519778  0.878443  0.500000  1
  Cu  Cu19  1  0.121557  0.641336  0.500000  1
  Cu  Cu20  1  0.878443  0.519778  0.500000  1
  Cu  Cu21  1  0.641336  0.121557  0.500000  1
  Cu  Cu22  1  0.480222  0.358664  0.500000  1
  Cu  Cu23  1  0.000000  0.000000  0.000000  1
  As  As24  1  0.822315  0.822315  0.000000  1
  As  As25  1  0.177685  0.000000  0.000000  1
  As  As26  1  0.000000  0.177685  0.000000  1
  As  As27  1  0.172460  0.483353  0.500000  1
  As  As28  1  0.516647  0.689106  0.500000  1
  As  As29  1  0.310894  0.827540  0.500000  1
  As  As30  1  0.689106  0.516647  0.500000  1
  As  As31  1  0.827540  0.310894  0.500000  1
  As  As32  1  0.483353  0.172460  0.500000  1
  As  As33  1  0.357550  0.357550  0.000000  1
  As  As34  1  0.642450  0.000000  0.000000  1
  As  As35  1  0.000000  0.642450  0.000000  1
