# generated using pymatgen
data_Ho4CrGe3F28
_symmetry_space_group_name_H-M   'P 1'
_cell_length_a   5.45442099
_cell_length_b   8.76102133
_cell_length_c   11.71731900
_cell_angle_alpha   62.34467903
_cell_angle_beta   90.08491813
_cell_angle_gamma   90.01640115
_symmetry_Int_Tables_number   1
_chemical_formula_structural   Ho4CrGe3F28
_chemical_formula_sum   'Ho4 Cr1 Ge3 F28'
_cell_volume   495.95828407
_cell_formula_units_Z   1
loop_
 _symmetry_equiv_pos_site_id
 _symmetry_equiv_pos_as_xyz
  1  'x, y, z'
loop_
 _atom_site_type_symbol
 _atom_site_label
 _atom_site_symmetry_multiplicity
 _atom_site_fract_x
 _atom_site_fract_y
 _atom_site_fract_z
 _atom_site_occupancy
  Ho  Ho0  1  0.263751  0.812023  0.263538  1
  Ho  Ho1  1  0.737970  0.186132  0.737007  1
  Ho  Ho2  1  0.760816  0.190720  0.234394  1
  Ho  Ho3  1  0.236827  0.810770  0.764225  1
  Cr  Cr4  1  0.742437  0.724826  0.543454  1
  Ge  Ge5  1  0.757966  0.725784  0.042941  1
  Ge  Ge6  1  0.242521  0.274467  0.956792  1
  Ge  Ge7  1  0.257593  0.274392  0.457193  1
  F  F8  1  0.934071  0.707917  0.420996  1
  F  F9  1  0.063930  0.293548  0.577011  1
  F  F10  1  0.435441  0.293242  0.077402  1
  F  F11  1  0.565084  0.706715  0.923007  1
  F  F12  1  0.485182  0.729408  0.133372  1
  F  F13  1  0.515340  0.270924  0.866336  1
  F  F14  1  0.984799  0.270033  0.366372  1
  F  F15  1  0.024919  0.728977  0.635570  1
  F  F16  1  0.948787  0.741750  0.167455  1
  F  F17  1  0.050791  0.258239  0.832532  1
  F  F18  1  0.449536  0.257660  0.332863  1
  F  F19  1  0.551315  0.742604  0.669310  1
  F  F20  1  0.770637  0.490858  0.136858  1
  F  F21  1  0.230610  0.508670  0.863951  1
  F  F22  1  0.269135  0.508718  0.362531  1
  F  F23  1  0.729408  0.487761  0.638322  1
  F  F24  1  0.960531  0.282170  0.041401  1
  F  F25  1  0.039742  0.717930  0.958738  1
  F  F26  1  0.452060  0.719621  0.455018  1
  F  F27  1  0.539742  0.282287  0.541774  1
  F  F28  1  0.741876  0.961140  0.452286  1
  F  F29  1  0.261372  0.040062  0.547625  1
  F  F30  1  0.240219  0.040087  0.047523  1
  F  F31  1  0.760507  0.960483  0.952345  1
  F  F32  1  0.592654  0.971784  0.227775  1
  F  F33  1  0.407055  0.029967  0.771780  1
  F  F34  1  0.088515  0.028514  0.272347  1
  F  F35  1  0.906862  0.969819  0.727958  1
