# generated using pymatgen
data_Tb5ThBiO12
_symmetry_space_group_name_H-M   'P 1'
_cell_length_a   6.64352601
_cell_length_b   6.63906686
_cell_length_c   6.63394068
_cell_angle_alpha   98.85027275
_cell_angle_beta   99.02328196
_cell_angle_gamma   99.07386814
_symmetry_Int_Tables_number   1
_chemical_formula_structural   Tb5ThBiO12
_chemical_formula_sum   'Tb5 Th1 Bi1 O12'
_cell_volume   280.53942796
_cell_formula_units_Z   1
loop_
 _symmetry_equiv_pos_site_id
 _symmetry_equiv_pos_as_xyz
  1  'x, y, z'
loop_
 _atom_site_type_symbol
 _atom_site_label
 _atom_site_symmetry_multiplicity
 _atom_site_fract_x
 _atom_site_fract_y
 _atom_site_fract_z
 _atom_site_occupancy
  Tb  Tb0  1  0.859267  0.693981  0.393553  1
  Tb  Tb1  1  0.386663  0.853924  0.683781  1
  Tb  Tb2  1  0.311000  0.612141  0.146771  1
  Tb  Tb3  1  0.142332  0.312083  0.603722  1
  Tb  Tb4  1  0.608195  0.136048  0.310035  1
  Th  Th5  1  0.689096  0.393754  0.858662  1
  Bi  Bi6  1  0.004530  0.003055  0.001285  1
  O  O7  1  0.432231  0.177809  0.587757  1
  O  O8  1  0.587271  0.430851  0.176953  1
  O  O9  1  0.176222  0.587284  0.432384  1
  O  O10  1  0.567415  0.821022  0.413111  1
  O  O11  1  0.411360  0.567509  0.822387  1
  O  O12  1  0.820822  0.411983  0.566438  1
  O  O13  1  0.071422  0.316007  0.947269  1
  O  O14  1  0.686177  0.043971  0.929011  1
  O  O15  1  0.048299  0.927607  0.687066  1
  O  O16  1  0.931312  0.688203  0.053960  1
  O  O17  1  0.315557  0.951119  0.072403  1
  O  O18  1  0.950827  0.071649  0.313453  1
