# generated using pymatgen
data_Li4CaNd2TmSi6
_symmetry_space_group_name_H-M   'P 1'
_cell_length_a   9.42282402
_cell_length_b   9.42282388
_cell_length_c   6.86097800
_cell_angle_alpha   90.00000000
_cell_angle_beta   90.00000000
_cell_angle_gamma   153.61495858
_symmetry_Int_Tables_number   1
_chemical_formula_structural   Li4CaNd2TmSi6
_chemical_formula_sum   'Li4 Ca1 Nd2 Tm1 Si6'
_cell_volume   270.72197906
_cell_formula_units_Z   1
loop_
 _symmetry_equiv_pos_site_id
 _symmetry_equiv_pos_as_xyz
  1  'x, y, z'
loop_
 _atom_site_type_symbol
 _atom_site_label
 _atom_site_symmetry_multiplicity
 _atom_site_fract_x
 _atom_site_fract_y
 _atom_site_fract_z
 _atom_site_occupancy
  Li  Li0  1  0.189385  0.810615  0.059109  1
  Li  Li1  1  0.189385  0.810615  0.440891  1
  Li  Li2  1  0.809689  0.190311  0.943091  1
  Li  Li3  1  0.809689  0.190311  0.556909  1
  Ca  Ca4  1  0.341701  0.658299  0.250000  1
  Nd  Nd5  1  0.553692  0.446308  0.250000  1
  Nd  Nd6  1  0.447137  0.552863  0.750000  1
  Tm  Tm7  1  0.657607  0.342393  0.750000  1
  Si  Si8  1  0.718508  0.281492  0.250000  1
  Si  Si9  1  0.273731  0.726269  0.750000  1
  Si  Si10  1  0.060499  0.939501  0.922891  1
  Si  Si11  1  0.944239  0.055761  0.075559  1
  Si  Si12  1  0.944239  0.055761  0.424441  1
  Si  Si13  1  0.060499  0.939501  0.577109  1
