# generated using pymatgen
data_DyTh3(Si3Ni5)4
_symmetry_space_group_name_H-M   'P 1'
_cell_length_a   3.86276300
_cell_length_b   6.61961046
_cell_length_c   18.96041081
_cell_angle_alpha   90.05688870
_cell_angle_beta   90.00000000
_cell_angle_gamma   90.00000000
_symmetry_Int_Tables_number   1
_chemical_formula_structural   DyTh3(Si3Ni5)4
_chemical_formula_sum   'Dy1 Th3 Si12 Ni20'
_cell_volume   484.81720702
_cell_formula_units_Z   1
loop_
 _symmetry_equiv_pos_site_id
 _symmetry_equiv_pos_as_xyz
  1  'x, y, z'
loop_
 _atom_site_type_symbol
 _atom_site_label
 _atom_site_symmetry_multiplicity
 _atom_site_fract_x
 _atom_site_fract_y
 _atom_site_fract_z
 _atom_site_occupancy
  Dy  Dy0  1  0.250000  0.877827  0.144314  1
  Th  Th1  1  0.250000  0.623680  0.643885  1
  Th  Th2  1  0.750000  0.375337  0.355630  1
  Th  Th3  1  0.750000  0.124004  0.856731  1
  Si  Si4  1  0.250000  0.838689  0.929138  1
  Si  Si5  1  0.750000  0.154069  0.073475  1
  Si  Si6  1  0.750000  0.339279  0.570265  1
  Si  Si7  1  0.250000  0.661516  0.428001  1
  Si  Si8  1  0.750000  0.618395  0.767107  1
  Si  Si9  1  0.250000  0.381317  0.232712  1
  Si  Si10  1  0.250000  0.427598  0.916969  1
  Si  Si11  1  0.750000  0.582298  0.087879  1
  Si  Si12  1  0.750000  0.930267  0.586259  1
  Si  Si13  1  0.250000  0.067880  0.412058  1
  Si  Si14  1  0.250000  0.118987  0.733642  1
  Si  Si15  1  0.750000  0.881666  0.262162  1
  Ni  Ni16  1  0.250000  0.135205  0.994815  1
  Ni  Ni17  1  0.750000  0.390275  0.986617  1
  Ni  Ni18  1  0.750000  0.107436  0.481741  1
  Ni  Ni19  1  0.250000  0.615240  0.018989  1
  Ni  Ni20  1  0.250000  0.350115  0.113061  1
  Ni  Ni21  1  0.750000  0.644981  0.887172  1
  Ni  Ni22  1  0.750000  0.850763  0.383478  1
  Ni  Ni23  1  0.250000  0.149818  0.613595  1
  Ni  Ni24  1  0.250000  0.072736  0.290805  1
  Ni  Ni25  1  0.750000  0.925963  0.707576  1
  Ni  Ni26  1  0.750000  0.573011  0.206826  1
  Ni  Ni27  1  0.250000  0.425827  0.794705  1
  Ni  Ni28  1  0.750000  0.638762  0.505721  1
  Ni  Ni29  1  0.250000  0.361590  0.492762  1
  Ni  Ni30  1  0.250000  0.813326  0.802124  1
  Ni  Ni31  1  0.750000  0.186547  0.197629  1
  Ni  Ni32  1  0.750000  0.313337  0.698366  1
  Ni  Ni33  1  0.250000  0.687523  0.300292  1
  Ni  Ni34  1  0.250000  0.891697  0.516849  1
  Ni  Ni35  1  0.750000  0.863038  0.006652  1
