# generated using pymatgen
data_Dy2NpRu3
_symmetry_space_group_name_H-M   'P 1'
_cell_length_a   5.83530825
_cell_length_b   5.83531040
_cell_length_c   7.95748400
_cell_angle_alpha   90.00000000
_cell_angle_beta   90.00000000
_cell_angle_gamma   119.96224087
_symmetry_Int_Tables_number   1
_chemical_formula_structural   Dy2NpRu3
_chemical_formula_sum   'Dy4 Np2 Ru6'
_cell_volume   234.74658771
_cell_formula_units_Z   2
loop_
 _symmetry_equiv_pos_site_id
 _symmetry_equiv_pos_as_xyz
  1  'x, y, z'
loop_
 _atom_site_type_symbol
 _atom_site_label
 _atom_site_symmetry_multiplicity
 _atom_site_fract_x
 _atom_site_fract_y
 _atom_site_fract_z
 _atom_site_occupancy
  Dy  Dy0  1  0.666678  0.333322  0.557328  1
  Dy  Dy1  1  0.333322  0.666678  0.442672  1
  Dy  Dy2  1  0.333322  0.666678  0.057328  1
  Dy  Dy3  1  0.666678  0.333322  0.942672  1
  Np  Np4  1  0.000000  0.000000  0.500000  1
  Np  Np5  1  0.000000  0.000000  0.000000  1
  Ru  Ru6  1  0.165740  0.331424  0.750000  1
  Ru  Ru7  1  0.165759  0.834241  0.750000  1
  Ru  Ru8  1  0.668576  0.834260  0.750000  1
  Ru  Ru9  1  0.834260  0.668576  0.250000  1
  Ru  Ru10  1  0.834241  0.165759  0.250000  1
  Ru  Ru11  1  0.331424  0.165740  0.250000  1
