# generated using pymatgen
data_LiHf6Mn2Ir3
_symmetry_space_group_name_H-M   'P 1'
_cell_length_a   4.58709800
_cell_length_b   6.46927500
_cell_length_c   13.74274600
_cell_angle_alpha   90.00006879
_cell_angle_beta   90.00129990
_cell_angle_gamma   89.99790571
_symmetry_Int_Tables_number   1
_chemical_formula_structural   LiHf6Mn2Ir3
_chemical_formula_sum   'Li2 Hf12 Mn4 Ir6'
_cell_volume   407.81871411
_cell_formula_units_Z   2
loop_
 _symmetry_equiv_pos_site_id
 _symmetry_equiv_pos_as_xyz
  1  'x, y, z'
loop_
 _atom_site_type_symbol
 _atom_site_label
 _atom_site_symmetry_multiplicity
 _atom_site_fract_x
 _atom_site_fract_y
 _atom_site_fract_z
 _atom_site_occupancy
  Li  Li0  1  0.000006  0.500002  0.000580  1
  Li  Li1  1  0.499834  0.000002  0.166146  1
  Hf  Hf2  1  0.500016  0.245740  0.996292  1
  Hf  Hf3  1  0.500007  0.754261  0.996293  1
  Hf  Hf4  1  0.999907  0.254206  0.170355  1
  Hf  Hf5  1  0.999919  0.745799  0.170355  1
  Hf  Hf6  1  0.499912  0.252050  0.336928  1
  Hf  Hf7  1  0.499940  0.747953  0.336927  1
  Hf  Hf8  1  0.000008  0.250472  0.500564  1
  Hf  Hf9  1  0.999993  0.749530  0.500563  1
  Hf  Hf10  1  0.500073  0.249748  0.666177  1
  Hf  Hf11  1  0.500081  0.750249  0.666179  1
  Hf  Hf12  1  0.000101  0.247885  0.829674  1
  Hf  Hf13  1  0.000069  0.752117  0.829674  1
  Mn  Mn14  1  0.999917  0.499999  0.333661  1
  Mn  Mn15  1  0.499997  0.999996  0.500399  1
  Mn  Mn16  1  0.000097  0.499993  0.666266  1
  Mn  Mn17  1  0.500091  0.999996  0.832969  1
  Ir  Ir18  1  0.000016  0.000001  0.001512  1
  Ir  Ir19  1  0.499911  0.500001  0.165121  1
  Ir  Ir20  1  0.999920  0.000001  0.331539  1
  Ir  Ir21  1  0.500004  0.500001  0.500321  1
  Ir  Ir22  1  0.000083  0.999999  0.666394  1
  Ir  Ir23  1  0.500096  0.499999  0.835116  1
