# generated using pymatgen
data_EuAl8Cu3Pd
_symmetry_space_group_name_H-M   'P 1'
_cell_length_a   6.79522606
_cell_length_b   6.79522615
_cell_length_c   6.79662419
_cell_angle_alpha   98.55554252
_cell_angle_beta   98.55554723
_cell_angle_gamma   134.71139445
_symmetry_Int_Tables_number   1
_chemical_formula_structural   EuAl8Cu3Pd
_chemical_formula_sum   'Eu1 Al8 Cu3 Pd1'
_cell_volume   205.70711769
_cell_formula_units_Z   1
loop_
 _symmetry_equiv_pos_site_id
 _symmetry_equiv_pos_as_xyz
  1  'x, y, z'
loop_
 _atom_site_type_symbol
 _atom_site_label
 _atom_site_symmetry_multiplicity
 _atom_site_fract_x
 _atom_site_fract_y
 _atom_site_fract_z
 _atom_site_occupancy
  Eu  Eu0  1  0.000000  0.000000  0.000000  1
  Al  Al1  1  0.998842  0.347504  0.347958  1
  Al  Al2  1  0.001158  0.652496  0.652042  1
  Al  Al3  1  0.652496  0.001158  0.652042  1
  Al  Al4  1  0.347504  0.998842  0.347958  1
  Al  Al5  1  0.499672  0.277425  0.780303  1
  Al  Al6  1  0.500328  0.722575  0.219697  1
  Al  Al7  1  0.722575  0.500328  0.219697  1
  Al  Al8  1  0.277425  0.499672  0.780303  1
  Cu  Cu9  1  0.000000  0.000000  0.500000  1
  Cu  Cu10  1  0.500000  0.000000  0.000000  1
  Cu  Cu11  1  0.000000  0.500000  0.000000  1
  Pd  Pd12  1  0.500000  0.500000  0.500000  1
