# generated using pymatgen
data_LiV(SbO3)4
_symmetry_space_group_name_H-M   'P 1'
_cell_length_a   4.72952600
_cell_length_b   9.44127400
_cell_length_c   9.36346900
_cell_angle_alpha   90.00000000
_cell_angle_beta   90.00000000
_cell_angle_gamma   90.00000000
_symmetry_Int_Tables_number   1
_chemical_formula_structural   LiV(SbO3)4
_chemical_formula_sum   'Li2 V2 Sb8 O24'
_cell_volume   418.10464841
_cell_formula_units_Z   2
loop_
 _symmetry_equiv_pos_site_id
 _symmetry_equiv_pos_as_xyz
  1  'x, y, z'
loop_
 _atom_site_type_symbol
 _atom_site_label
 _atom_site_symmetry_multiplicity
 _atom_site_fract_x
 _atom_site_fract_y
 _atom_site_fract_z
 _atom_site_occupancy
  Li  Li0  1  0.000490  0.502088  0.000000  1
  Li  Li1  1  0.500490  0.747912  0.500000  1
  V  V2  1  0.997854  0.999042  0.000000  1
  V  V3  1  0.497854  0.250958  0.500000  1
  Sb  Sb4  1  0.995907  0.995650  0.333198  1
  Sb  Sb5  1  0.004877  0.504614  0.330136  1
  Sb  Sb6  1  0.495907  0.254350  0.833198  1
  Sb  Sb7  1  0.504877  0.745386  0.830136  1
  Sb  Sb8  1  0.495907  0.254350  0.166802  1
  Sb  Sb9  1  0.504877  0.745386  0.169864  1
  Sb  Sb10  1  0.995907  0.995650  0.666802  1
  Sb  Sb11  1  0.004877  0.504614  0.669864  1
  O  O12  1  0.303928  0.149683  0.000000  1
  O  O13  1  0.314010  0.660663  0.000000  1
  O  O14  1  0.198836  0.400090  0.500000  1
  O  O15  1  0.185808  0.907821  0.500000  1
  O  O16  1  0.803928  0.100317  0.500000  1
  O  O17  1  0.814010  0.589337  0.500000  1
  O  O18  1  0.685808  0.342179  0.000000  1
  O  O19  1  0.698836  0.849910  0.000000  1
  O  O20  1  0.307158  0.149324  0.330724  1
  O  O21  1  0.298614  0.654456  0.328829  1
  O  O22  1  0.193173  0.398006  0.826568  1
  O  O23  1  0.199805  0.904776  0.831968  1
  O  O24  1  0.807158  0.100676  0.830724  1
  O  O25  1  0.798614  0.595544  0.828829  1
  O  O26  1  0.807158  0.100676  0.169276  1
  O  O27  1  0.798614  0.595544  0.171171  1
  O  O28  1  0.193173  0.398006  0.173432  1
  O  O29  1  0.199805  0.904776  0.168032  1
  O  O30  1  0.699805  0.345224  0.331968  1
  O  O31  1  0.693173  0.851994  0.326568  1
  O  O32  1  0.307158  0.149324  0.669276  1
  O  O33  1  0.298614  0.654456  0.671171  1
  O  O34  1  0.699805  0.345224  0.668032  1
  O  O35  1  0.693173  0.851994  0.673432  1
