# generated using pymatgen
data_Hf2Zr4Ti4Ga5Sb
_symmetry_space_group_name_H-M   'P 1'
_cell_length_a   7.98405400
_cell_length_b   7.99879134
_cell_length_c   5.49761500
_cell_angle_alpha   90.00000000
_cell_angle_beta   90.00000000
_cell_angle_gamma   119.93907936
_symmetry_Int_Tables_number   1
_chemical_formula_structural   Hf2Zr4Ti4Ga5Sb
_chemical_formula_sum   'Hf2 Zr4 Ti4 Ga5 Sb1'
_cell_volume   304.24192739
_cell_formula_units_Z   1
loop_
 _symmetry_equiv_pos_site_id
 _symmetry_equiv_pos_as_xyz
  1  'x, y, z'
loop_
 _atom_site_type_symbol
 _atom_site_label
 _atom_site_symmetry_multiplicity
 _atom_site_fract_x
 _atom_site_fract_y
 _atom_site_fract_z
 _atom_site_occupancy
  Hf  Hf0  1  0.998214  0.752811  0.750000  1
  Hf  Hf1  1  0.245403  0.247189  0.750000  1
  Zr  Zr2  1  0.233103  0.000000  0.250000  1
  Zr  Zr3  1  0.760782  0.000000  0.750000  1
  Zr  Zr4  1  0.010513  0.252224  0.250000  1
  Zr  Zr5  1  0.758289  0.747776  0.250000  1
  Ti  Ti6  1  0.327966  0.658408  0.996385  1
  Ti  Ti7  1  0.669560  0.341592  0.996385  1
  Ti  Ti8  1  0.669560  0.341592  0.503615  1
  Ti  Ti9  1  0.327966  0.658408  0.503615  1
  Ga  Ga10  1  0.395956  0.000000  0.750000  1
  Ga  Ga11  1  0.002694  0.600432  0.250000  1
  Ga  Ga12  1  0.998552  0.398612  0.750000  1
  Ga  Ga13  1  0.402261  0.399568  0.250000  1
  Ga  Ga14  1  0.599940  0.601388  0.750000  1
  Sb  Sb15  1  0.599241  0.000000  0.250000  1
