# generated using pymatgen
data_Sr14NdBi11
_symmetry_space_group_name_H-M   'P 1'
_cell_length_a   17.85039315
_cell_length_b   17.85040200
_cell_length_c   17.85040800
_cell_angle_alpha   94.39898113
_cell_angle_beta   117.49359779
_cell_angle_gamma   117.49361841
_symmetry_Int_Tables_number   1
_chemical_formula_structural   Sr14NdBi11
_chemical_formula_sum   'Sr56 Nd4 Bi44'
_cell_volume   4160.97435688
_cell_formula_units_Z   4
loop_
 _symmetry_equiv_pos_site_id
 _symmetry_equiv_pos_as_xyz
  1  'x, y, z'
loop_
 _atom_site_type_symbol
 _atom_site_label
 _atom_site_symmetry_multiplicity
 _atom_site_fract_x
 _atom_site_fract_y
 _atom_site_fract_z
 _atom_site_occupancy
  Sr  Sr0  1  0.090066  0.125398  0.980179  1
  Sr  Sr1  1  0.354005  0.249998  0.604005  1
  Sr  Sr2  1  0.032677  0.785203  0.402662  1
  Sr  Sr3  1  0.089520  0.520479  0.751856  1
  Sr  Sr4  1  0.645995  0.750002  0.395995  1
  Sr  Sr5  1  0.645995  0.395995  0.250000  1
  Sr  Sr6  1  0.882538  0.752523  0.785198  1
  Sr  Sr7  1  0.409939  0.390115  0.035337  1
  Sr  Sr8  1  0.268622  0.337658  0.748142  1
  Sr  Sr9  1  0.089522  0.069038  0.337661  1
  Sr  Sr10  1  0.910478  0.930962  0.662339  1
  Sr  Sr11  1  0.731378  0.662342  0.251858  1
  Sr  Sr12  1  0.645224  0.109891  0.519825  1
  Sr  Sr13  1  0.854774  0.980174  0.390107  1
  Sr  Sr14  1  0.145994  0.750000  0.895995  1
  Sr  Sr15  1  0.590061  0.609885  0.964663  1
  Sr  Sr16  1  0.731382  0.569041  0.479520  1
  Sr  Sr17  1  0.589525  0.251862  0.020482  1
  Sr  Sr18  1  0.409941  0.519825  0.374607  1
  Sr  Sr19  1  0.231382  0.979522  0.069039  1
  Sr  Sr20  1  0.410475  0.748138  0.979518  1
  Sr  Sr21  1  0.145222  0.625397  0.535327  1
  Sr  Sr22  1  0.382537  0.285198  0.252521  1
  Sr  Sr23  1  0.532680  0.130016  0.247481  1
  Sr  Sr24  1  0.910480  0.479521  0.248144  1
  Sr  Sr25  1  0.589517  0.837662  0.569040  1
  Sr  Sr26  1  0.882538  0.630014  0.097340  1
  Sr  Sr27  1  0.117462  0.369986  0.902660  1
  Sr  Sr28  1  0.354776  0.890109  0.480175  1
  Sr  Sr29  1  0.467320  0.869984  0.752519  1
  Sr  Sr30  1  0.354779  0.964671  0.874602  1
  Sr  Sr31  1  0.909934  0.874602  0.019821  1
  Sr  Sr32  1  0.854778  0.374603  0.464673  1
  Sr  Sr33  1  0.854006  0.250000  0.104005  1
  Sr  Sr34  1  0.909945  0.535338  0.890116  1
  Sr  Sr35  1  0.090055  0.464662  0.109884  1
  Sr  Sr36  1  0.117462  0.247477  0.214802  1
  Sr  Sr37  1  0.532677  0.902660  0.285201  1
  Sr  Sr38  1  0.590059  0.480175  0.625393  1
  Sr  Sr39  1  0.231383  0.751861  0.162343  1
  Sr  Sr40  1  0.617460  0.402658  0.869985  1
  Sr  Sr41  1  0.382540  0.597342  0.130015  1
  Sr  Sr42  1  0.032678  0.747475  0.630017  1
  Sr  Sr43  1  0.967323  0.214797  0.597338  1
  Sr  Sr44  1  0.768617  0.248139  0.837657  1
  Sr  Sr45  1  0.354005  0.604005  0.750000  1
  Sr  Sr46  1  0.410483  0.162338  0.430960  1
  Sr  Sr47  1  0.145226  0.019826  0.609893  1
  Sr  Sr48  1  0.645221  0.035329  0.125398  1
  Sr  Sr49  1  0.854007  0.104007  0.750003  1
  Sr  Sr50  1  0.617463  0.714802  0.747479  1
  Sr  Sr51  1  0.268618  0.430959  0.520480  1
  Sr  Sr52  1  0.145993  0.895993  0.249997  1
  Sr  Sr53  1  0.467323  0.097340  0.714799  1
  Sr  Sr54  1  0.768618  0.020478  0.930961  1
  Sr  Sr55  1  0.967322  0.252525  0.369983  1
  Nd  Nd56  1  0.749992  0.874997  0.124992  1
  Nd  Nd57  1  0.750001  0.375000  0.624996  1
  Nd  Nd58  1  0.249999  0.625000  0.375004  1
  Nd  Nd59  1  0.250008  0.125003  0.875008  1
  Bi  Bi60  1  0.481008  0.490503  0.740504  1
  Bi  Bi61  1  0.395295  0.915772  0.074308  1
  Bi  Bi62  1  0.518992  0.509497  0.259496  1
  Bi  Bi63  1  0.104702  0.179012  0.520475  1
  Bi  Bi64  1  0.895298  0.574310  0.415774  1
  Bi  Bi65  1  0.750000  0.990503  0.509496  1
  Bi  Bi66  1  0.604705  0.084228  0.925692  1
  Bi  Bi67  1  0.395296  0.979523  0.320987  1
  Bi  Bi68  1  0.386588  0.684437  0.584355  1
  Bi  Bi69  1  0.658532  0.679012  0.574307  1
  Bi  Bi70  1  0.750001  0.125000  0.375001  1
  Bi  Bi71  1  0.895298  0.820988  0.479525  1
  Bi  Bi72  1  0.100085  0.415646  0.302237  1
  Bi  Bi73  1  0.886589  0.302233  0.702149  1
  Bi  Bi74  1  0.886587  0.084353  0.184437  1
  Bi  Bi75  1  0.613414  0.797851  0.197766  1
  Bi  Bi76  1  0.399917  0.197766  0.084356  1
  Bi  Bi77  1  0.600086  0.297852  0.684439  1
  Bi  Bi78  1  0.399914  0.702148  0.315561  1
  Bi  Bi79  1  0.250000  0.375000  0.125000  1
  Bi  Bi80  1  0.100084  0.184443  0.797851  1
  Bi  Bi81  1  0.250000  0.009497  0.490504  1
  Bi  Bi82  1  0.113411  0.697767  0.297851  1
  Bi  Bi83  1  0.750000  0.625000  0.875000  1
  Bi  Bi84  1  0.113413  0.915647  0.815563  1
  Bi  Bi85  1  0.104702  0.425690  0.584226  1
  Bi  Bi86  1  0.249999  0.875000  0.624999  1
  Bi  Bi87  1  0.604704  0.020477  0.679013  1
  Bi  Bi88  1  0.841466  0.925692  0.820990  1
  Bi  Bi89  1  0.341468  0.320988  0.425693  1
  Bi  Bi90  1  0.841468  0.415777  0.020478  1
  Bi  Bi91  1  0.899916  0.815557  0.202149  1
  Bi  Bi92  1  0.158532  0.584223  0.979522  1
  Bi  Bi93  1  0.250000  0.740503  0.759496  1
  Bi  Bi94  1  0.899915  0.584354  0.697763  1
  Bi  Bi95  1  0.750000  0.259497  0.240504  1
  Bi  Bi96  1  0.613412  0.315563  0.415645  1
  Bi  Bi97  1  0.386586  0.202149  0.802234  1
  Bi  Bi98  1  0.658534  0.479524  0.084226  1
  Bi  Bi99  1  0.341466  0.520476  0.915774  1
  Bi  Bi100  1  0.158534  0.074308  0.179010  1
  Bi  Bi101  1  0.018994  0.759498  0.009497  1
  Bi  Bi102  1  0.981006  0.240502  0.990503  1
  Bi  Bi103  1  0.600083  0.802234  0.915644  1
