# generated using pymatgen
data_Ti2Fe12P7
_symmetry_space_group_name_H-M   'P 1'
_cell_length_a   8.80355300
_cell_length_b   8.80355228
_cell_length_c   3.55013200
_cell_angle_alpha   90.00000000
_cell_angle_beta   90.00000000
_cell_angle_gamma   119.99999894
_symmetry_Int_Tables_number   1
_chemical_formula_structural   Ti2Fe12P7
_chemical_formula_sum   'Ti2 Fe12 P7'
_cell_volume   238.28190765
_cell_formula_units_Z   1
loop_
 _symmetry_equiv_pos_site_id
 _symmetry_equiv_pos_as_xyz
  1  'x, y, z'
loop_
 _atom_site_type_symbol
 _atom_site_label
 _atom_site_symmetry_multiplicity
 _atom_site_fract_x
 _atom_site_fract_y
 _atom_site_fract_z
 _atom_site_occupancy
  Ti  Ti0  1  0.000000  0.000000  0.000000  1
  Ti  Ti1  1  0.333333  0.666667  0.500000  1
  Fe  Fe2  1  0.098621  0.396293  0.000000  1
  Fe  Fe3  1  0.603707  0.702327  0.000000  1
  Fe  Fe4  1  0.297673  0.901379  0.000000  1
  Fe  Fe5  1  0.053176  0.772835  0.500000  1
  Fe  Fe6  1  0.227165  0.280341  0.500000  1
  Fe  Fe7  1  0.719659  0.946824  0.500000  1
  Fe  Fe8  1  0.824606  0.611736  0.000000  1
  Fe  Fe9  1  0.388264  0.212870  0.000000  1
  Fe  Fe10  1  0.787130  0.175394  0.000000  1
  Fe  Fe11  1  0.887102  0.431422  0.500000  1
  Fe  Fe12  1  0.568578  0.455680  0.500000  1
  Fe  Fe13  1  0.544320  0.112898  0.500000  1
  P  P14  1  0.786718  0.741919  0.500000  1
  P  P15  1  0.258081  0.044799  0.500000  1
  P  P16  1  0.955201  0.213282  0.500000  1
  P  P17  1  0.666667  0.333333  0.000000  1
  P  P18  1  0.083866  0.631885  0.000000  1
  P  P19  1  0.368115  0.451981  0.000000  1
  P  P20  1  0.548019  0.916134  0.000000  1
