# generated using pymatgen
data_Rb16Hf12Se61
_symmetry_space_group_name_H-M   'P 1'
_cell_length_a   12.64723654
_cell_length_b   15.24313105
_cell_length_c   15.75476700
_cell_angle_alpha   73.60312212
_cell_angle_beta   75.95179434
_cell_angle_gamma   71.54308339
_symmetry_Int_Tables_number   1
_chemical_formula_structural   Rb16Hf12Se61
_chemical_formula_sum   'Rb16 Hf12 Se61'
_cell_volume   2724.31797803
_cell_formula_units_Z   1
loop_
 _symmetry_equiv_pos_site_id
 _symmetry_equiv_pos_as_xyz
  1  'x, y, z'
loop_
 _atom_site_type_symbol
 _atom_site_label
 _atom_site_symmetry_multiplicity
 _atom_site_fract_x
 _atom_site_fract_y
 _atom_site_fract_z
 _atom_site_occupancy
  Rb  Rb0  1  0.999035  0.030268  0.180015  1
  Rb  Rb1  1  0.123690  0.622949  0.340952  1
  Rb  Rb2  1  0.280679  0.300635  0.142733  1
  Rb  Rb3  1  0.218263  0.248432  0.828305  1
  Rb  Rb4  1  0.150208  0.643495  0.638780  1
  Rb  Rb5  1  0.597208  0.108874  0.334813  1
  Rb  Rb6  1  0.376153  0.827969  0.318663  1
  Rb  Rb7  1  0.429598  0.457745  0.844748  1
  Rb  Rb8  1  0.575808  0.542654  0.149106  1
  Rb  Rb9  1  0.625686  0.169117  0.679048  1
  Rb  Rb10  1  0.407831  0.888653  0.664256  1
  Rb  Rb11  1  0.865350  0.369069  0.339385  1
  Rb  Rb12  1  0.787767  0.747789  0.176525  1
  Rb  Rb13  1  0.723079  0.698516  0.855886  1
  Rb  Rb14  1  0.899657  0.382857  0.657876  1
  Rb  Rb15  1  0.000068  0.968695  0.820663  1
  Hf  Hf16  1  0.115772  0.068441  0.502004  1
  Hf  Hf17  1  0.078795  0.581652  0.005479  1
  Hf  Hf18  1  0.253055  0.249480  0.502616  1
  Hf  Hf19  1  0.242281  0.744213  0.005893  1
  Hf  Hf20  1  0.401514  0.424494  0.490444  1
  Hf  Hf21  1  0.383250  0.928132  0.006043  1
  Hf  Hf22  1  0.617405  0.070176  0.995683  1
  Hf  Hf23  1  0.582624  0.573955  0.513887  1
  Hf  Hf24  1  0.758460  0.254456  0.993860  1
  Hf  Hf25  1  0.743498  0.747870  0.498797  1
  Hf  Hf26  1  0.922086  0.416379  0.997614  1
  Hf  Hf27  1  0.882187  0.931515  0.497308  1
  Se  Se28  1  0.016340  0.775489  0.014553  1
  Se  Se29  1  0.064846  0.536696  0.180902  1
  Se  Se30  1  0.075450  0.390192  0.446956  1
  Se  Se31  1  0.140829  0.246154  0.379491  1
  Se  Se32  1  0.100221  0.158151  0.631111  1
  Se  Se33  1  0.271457  0.087247  0.065184  1
  Se  Se34  1  0.262075  0.069492  0.342289  1
  Se  Se35  1  0.080258  0.802703  0.140138  1
  Se  Se36  1  0.072943  0.819327  0.421134  1
  Se  Se37  1  0.246975  0.557200  0.098612  1
  Se  Se38  1  0.023602  0.715111  0.856284  1
  Se  Se39  1  0.447131  0.008478  0.119435  1
  Se  Se40  1  0.339257  0.069624  0.470832  1
  Se  Se41  1  0.011883  0.929440  0.613814  1
  Se  Se42  1  0.293665  0.005951  0.851762  1
  Se  Se43  1  0.210806  0.392159  0.599750  1
  Se  Se44  1  0.141871  0.424807  0.954250  1
  Se  Se45  1  0.308545  0.396714  0.365055  1
  Se  Se46  1  0.370994  0.130619  0.631595  1
  Se  Se47  1  0.207382  0.880203  0.549212  1
  Se  Se48  1  0.223725  0.670771  0.868857  1
  Se  Se49  1  0.354752  0.769246  0.129914  1
  Se  Se50  1  0.371286  0.381595  0.667308  1
  Se  Se51  1  0.473437  0.223416  0.503003  1
  Se  Se52  1  0.374021  0.602454  0.463478  1
  Se  Se53  1  0.595336  0.191601  0.115777  1
  Se  Se54  1  0.555524  0.365531  0.052608  1
  Se  Se55  1  0.169856  0.937838  0.984889  1
  Se  Se56  1  0.518238  0.367106  0.338685  1
  Se  Se57  1  0.452455  0.221260  0.933209  1
  Se  Se58  1  0.548629  0.777866  0.068639  1
  Se  Se59  1  0.462018  0.652982  0.653868  1
  Se  Se60  1  0.831248  0.060513  0.015488  1
  Se  Se61  1  0.622109  0.389309  0.496277  1
  Se  Se62  1  0.444951  0.632372  0.947464  1
  Se  Se63  1  0.405962  0.806757  0.884949  1
  Se  Se64  1  0.522967  0.775309  0.489135  1
  Se  Se65  1  0.640475  0.610182  0.333614  1
  Se  Se66  1  0.646114  0.227810  0.871240  1
  Se  Se67  1  0.627898  0.411441  0.639041  1
  Se  Se68  1  0.778818  0.324621  0.133257  1
  Se  Se69  1  0.790887  0.120924  0.452063  1
  Se  Se70  1  0.636696  0.863158  0.362299  1
  Se  Se71  1  0.665012  0.620934  0.644074  1
  Se  Se72  1  0.859399  0.572682  0.050017  1
  Se  Se73  1  0.786621  0.595332  0.415604  1
  Se  Se74  1  0.709973  0.991911  0.148737  1
  Se  Se75  1  0.985345  0.071981  0.385903  1
  Se  Se76  1  0.659048  0.928978  0.527883  1
  Se  Se77  1  0.553595  0.989835  0.882461  1
  Se  Se78  1  0.979538  0.279830  0.144041  1
  Se  Se79  1  0.753165  0.442725  0.904645  1
  Se  Se80  1  0.926436  0.184258  0.576195  1
  Se  Se81  1  0.919482  0.198632  0.857878  1
  Se  Se82  1  0.734017  0.931069  0.656252  1
  Se  Se83  1  0.728377  0.909766  0.937848  1
  Se  Se84  1  0.898362  0.841252  0.368966  1
  Se  Se85  1  0.861445  0.753012  0.618228  1
  Se  Se86  1  0.926687  0.611969  0.549814  1
  Se  Se87  1  0.933963  0.467408  0.823170  1
  Se  Se88  1  0.984534  0.223525  0.983165  1
