# generated using pymatgen
data_ZnPb(ClO4)4
_symmetry_space_group_name_H-M   'P 1'
_cell_length_a   5.12186999
_cell_length_b   7.58060996
_cell_length_c   9.18889800
_cell_angle_alpha   90.25906581
_cell_angle_beta   91.58916724
_cell_angle_gamma   98.43293703
_symmetry_Int_Tables_number   1
_chemical_formula_structural   ZnPb(ClO4)4
_chemical_formula_sum   'Zn1 Pb1 Cl4 O16'
_cell_volume   352.76996502
_cell_formula_units_Z   1
loop_
 _symmetry_equiv_pos_site_id
 _symmetry_equiv_pos_as_xyz
  1  'x, y, z'
loop_
 _atom_site_type_symbol
 _atom_site_label
 _atom_site_symmetry_multiplicity
 _atom_site_fract_x
 _atom_site_fract_y
 _atom_site_fract_z
 _atom_site_occupancy
  Zn  Zn0  1  0.000000  0.000000  0.000000  1
  Pb  Pb1  1  0.500000  0.500000  0.500000  1
  Cl  Cl2  1  0.564346  0.236881  0.152612  1
  Cl  Cl3  1  0.951778  0.232451  0.687055  1
  Cl  Cl4  1  0.435654  0.763119  0.847388  1
  Cl  Cl5  1  0.048222  0.767549  0.312945  1
  O  O6  1  0.571828  0.263268  0.311465  1
  O  O7  1  0.940796  0.199478  0.845055  1
  O  O8  1  0.428172  0.736732  0.688535  1
  O  O9  1  0.059204  0.800522  0.154945  1
  O  O10  1  0.283354  0.199537  0.104863  1
  O  O11  1  0.227086  0.243483  0.642415  1
  O  O12  1  0.716646  0.800463  0.895137  1
  O  O13  1  0.772914  0.756517  0.357585  1
  O  O14  1  0.688866  0.075393  0.124998  1
  O  O15  1  0.870773  0.410832  0.664253  1
  O  O16  1  0.311134  0.924607  0.875002  1
  O  O17  1  0.129227  0.589168  0.335747  1
  O  O18  1  0.695443  0.389579  0.080640  1
  O  O19  1  0.781806  0.097873  0.606283  1
  O  O20  1  0.304557  0.610421  0.919360  1
  O  O21  1  0.218194  0.902127  0.393717  1
