# generated using pymatgen
data_Dy3Y3(ReB7)2
_symmetry_space_group_name_H-M   'P 1'
_cell_length_a   8.09957803
_cell_length_b   8.09957800
_cell_length_c   9.36730000
_cell_angle_alpha   90.00244766
_cell_angle_beta   89.99755287
_cell_angle_gamma   154.76013049
_symmetry_Int_Tables_number   1
_chemical_formula_structural   Dy3Y3(ReB7)2
_chemical_formula_sum   'Dy3 Y3 Re2 B14'
_cell_volume   262.03867220
_cell_formula_units_Z   1
loop_
 _symmetry_equiv_pos_site_id
 _symmetry_equiv_pos_as_xyz
  1  'x, y, z'
loop_
 _atom_site_type_symbol
 _atom_site_label
 _atom_site_symmetry_multiplicity
 _atom_site_fract_x
 _atom_site_fract_y
 _atom_site_fract_z
 _atom_site_occupancy
  Dy  Dy0  1  0.105172  0.894828  0.560139  1
  Dy  Dy1  1  0.894802  0.105198  0.059999  1
  Dy  Dy2  1  0.105204  0.894796  0.939881  1
  Y  Y3  1  0.894718  0.105282  0.439624  1
  Y  Y4  1  0.242438  0.757562  0.249858  1
  Y  Y5  1  0.757487  0.242513  0.749974  1
  Re  Re6  1  0.053062  0.946938  0.249920  1
  Re  Re7  1  0.947005  0.052995  0.750101  1
  B  B8  1  0.726950  0.273050  0.466710  1
  B  B9  1  0.272812  0.727188  0.533483  1
  B  B10  1  0.727063  0.272937  0.033331  1
  B  B11  1  0.272941  0.727059  0.966663  1
  B  B12  1  0.631850  0.368150  0.150576  1
  B  B13  1  0.368124  0.631876  0.849444  1
  B  B14  1  0.631862  0.368138  0.349363  1
  B  B15  1  0.368151  0.631849  0.650836  1
  B  B16  1  0.520866  0.479134  0.095216  1
  B  B17  1  0.479152  0.520848  0.904759  1
  B  B18  1  0.520963  0.479037  0.404716  1
  B  B19  1  0.479235  0.520765  0.595429  1
  B  B20  1  0.457531  0.542469  0.249884  1
  B  B21  1  0.542611  0.457389  0.750094  1
