# generated using pymatgen
data_DyEr4Lu5(CoSb2)2
_symmetry_space_group_name_H-M   'P 1'
_cell_length_a   7.72049700
_cell_length_b   8.72855800
_cell_length_c   12.01626600
_cell_angle_alpha   90.00000000
_cell_angle_beta   90.00000000
_cell_angle_gamma   90.00000000
_symmetry_Int_Tables_number   1
_chemical_formula_structural   DyEr4Lu5(CoSb2)2
_chemical_formula_sum   'Dy2 Er8 Lu10 Co4 Sb8'
_cell_volume   809.76181656
_cell_formula_units_Z   2
loop_
 _symmetry_equiv_pos_site_id
 _symmetry_equiv_pos_as_xyz
  1  'x, y, z'
loop_
 _atom_site_type_symbol
 _atom_site_label
 _atom_site_symmetry_multiplicity
 _atom_site_fract_x
 _atom_site_fract_y
 _atom_site_fract_z
 _atom_site_occupancy
  Dy  Dy0  1  0.377917  0.250000  0.692381  1
  Dy  Dy1  1  0.122083  0.250000  0.192381  1
  Er  Er2  1  0.155007  0.750000  0.203981  1
  Er  Er3  1  0.344993  0.750000  0.703981  1
  Er  Er4  1  0.845008  0.250000  0.796243  1
  Er  Er5  1  0.654992  0.250000  0.296243  1
  Er  Er6  1  0.449808  0.750000  0.997899  1
  Er  Er7  1  0.050192  0.750000  0.497899  1
  Er  Er8  1  0.621076  0.750000  0.308589  1
  Er  Er9  1  0.878924  0.750000  0.808589  1
  Lu  Lu10  1  0.551620  0.250000  0.002282  1
  Lu  Lu11  1  0.948380  0.250000  0.502282  1
  Lu  Lu12  1  0.823530  0.537519  0.064495  1
  Lu  Lu13  1  0.676470  0.962481  0.564495  1
  Lu  Lu14  1  0.175762  0.036561  0.934608  1
  Lu  Lu15  1  0.324238  0.463439  0.434608  1
  Lu  Lu16  1  0.175762  0.463439  0.934608  1
  Lu  Lu17  1  0.324238  0.036561  0.434608  1
  Lu  Lu18  1  0.823530  0.962481  0.064495  1
  Lu  Lu19  1  0.676470  0.537519  0.564495  1
  Co  Co20  1  0.432886  0.750000  0.491073  1
  Co  Co21  1  0.067114  0.750000  0.991073  1
  Co  Co22  1  0.567545  0.250000  0.508731  1
  Co  Co23  1  0.932455  0.250000  0.008731  1
  Sb  Sb24  1  0.929240  0.508660  0.328589  1
  Sb  Sb25  1  0.570760  0.991340  0.828589  1
  Sb  Sb26  1  0.068098  0.008484  0.671718  1
  Sb  Sb27  1  0.431902  0.491516  0.171718  1
  Sb  Sb28  1  0.068098  0.491516  0.671718  1
  Sb  Sb29  1  0.431902  0.008484  0.171718  1
  Sb  Sb30  1  0.929240  0.991340  0.328589  1
  Sb  Sb31  1  0.570760  0.508660  0.828589  1
