# generated using pymatgen
data_K2MnAl2FeF12
_symmetry_space_group_name_H-M   'P 1'
_cell_length_a   7.18039800
_cell_length_b   7.11266500
_cell_length_c   9.95585239
_cell_angle_alpha   90.26008379
_cell_angle_beta   90.00000000
_cell_angle_gamma   90.00000000
_symmetry_Int_Tables_number   1
_chemical_formula_structural   K2MnAl2FeF12
_chemical_formula_sum   'K4 Mn2 Al4 Fe2 F24'
_cell_volume   508.45772073
_cell_formula_units_Z   2
loop_
 _symmetry_equiv_pos_site_id
 _symmetry_equiv_pos_as_xyz
  1  'x, y, z'
loop_
 _atom_site_type_symbol
 _atom_site_label
 _atom_site_symmetry_multiplicity
 _atom_site_fract_x
 _atom_site_fract_y
 _atom_site_fract_z
 _atom_site_occupancy
  K  K0  1  0.250000  0.499793  0.116694  1
  K  K1  1  0.750000  0.500207  0.883306  1
  K  K2  1  0.750000  0.994557  0.626144  1
  K  K3  1  0.250000  0.005443  0.373856  1
  Mn  Mn4  1  0.250000  0.704133  0.761455  1
  Mn  Mn5  1  0.750000  0.295867  0.238545  1
  Al  Al6  1  0.000000  0.500000  0.500000  1
  Al  Al7  1  0.000000  0.000000  0.000000  1
  Al  Al8  1  0.500000  0.500000  0.500000  1
  Al  Al9  1  0.500000  0.000000  0.000000  1
  Fe  Fe10  1  0.750000  0.798165  0.270138  1
  Fe  Fe11  1  0.250000  0.201835  0.729862  1
  F  F12  1  0.055003  0.774395  0.921992  1
  F  F13  1  0.944997  0.225605  0.078008  1
  F  F14  1  0.953798  0.722710  0.417457  1
  F  F15  1  0.555003  0.225605  0.078008  1
  F  F16  1  0.046202  0.277290  0.582543  1
  F  F17  1  0.444997  0.774395  0.921992  1
  F  F18  1  0.453798  0.277290  0.582543  1
  F  F19  1  0.546202  0.722710  0.417457  1
  F  F20  1  0.250000  0.055853  0.022269  1
  F  F21  1  0.750000  0.944147  0.977731  1
  F  F22  1  0.750000  0.443222  0.504993  1
  F  F23  1  0.250000  0.556778  0.495007  1
  F  F24  1  0.514145  0.618126  0.662637  1
  F  F25  1  0.485855  0.381874  0.337363  1
  F  F26  1  0.501909  0.888241  0.163497  1
  F  F27  1  0.014145  0.381874  0.337363  1
  F  F28  1  0.498091  0.111759  0.836503  1
  F  F29  1  0.985855  0.618126  0.662637  1
  F  F30  1  0.001909  0.111759  0.836503  1
  F  F31  1  0.998091  0.888241  0.163497  1
  F  F32  1  0.250000  0.943014  0.642594  1
  F  F33  1  0.750000  0.056986  0.357406  1
  F  F34  1  0.750000  0.566608  0.156159  1
  F  F35  1  0.250000  0.433392  0.843841  1
