# generated using pymatgen
data_Tb2Ho8Tl7InPd4
_symmetry_space_group_name_H-M   'P 1'
_cell_length_a   3.62837700
_cell_length_b   8.23507448
_cell_length_c   18.37445864
_cell_angle_alpha   89.91062207
_cell_angle_beta   90.00000000
_cell_angle_gamma   90.00000000
_symmetry_Int_Tables_number   1
_chemical_formula_structural   Tb2Ho8Tl7InPd4
_chemical_formula_sum   'Tb2 Ho8 Tl7 In1 Pd4'
_cell_volume   549.02732645
_cell_formula_units_Z   1
loop_
 _symmetry_equiv_pos_site_id
 _symmetry_equiv_pos_as_xyz
  1  'x, y, z'
loop_
 _atom_site_type_symbol
 _atom_site_label
 _atom_site_symmetry_multiplicity
 _atom_site_fract_x
 _atom_site_fract_y
 _atom_site_fract_z
 _atom_site_occupancy
  Tb  Tb0  1  0.000000  0.500156  0.500111  1
  Tb  Tb1  1  0.000000  0.000843  0.999056  1
  Ho  Ho2  1  0.000000  0.740501  0.281444  1
  Ho  Ho3  1  0.000000  0.259873  0.718919  1
  Ho  Ho4  1  0.000000  0.759467  0.781579  1
  Ho  Ho5  1  0.000000  0.240447  0.218424  1
  Ho  Ho6  1  0.000000  0.616778  0.085301  1
  Ho  Ho7  1  0.000000  0.382391  0.914667  1
  Ho  Ho8  1  0.000000  0.883937  0.586138  1
  Ho  Ho9  1  0.000000  0.116391  0.414426  1
  Tl  Tl10  1  0.500000  0.707780  0.932955  1
  Tl  Tl11  1  0.500000  0.294414  0.066013  1
  Tl  Tl12  1  0.500000  0.794215  0.433964  1
  Tl  Tl13  1  0.500000  0.205638  0.566290  1
  Tl  Tl14  1  0.500000  0.584232  0.650226  1
  Tl  Tl15  1  0.500000  0.415765  0.350118  1
  Tl  Tl16  1  0.500000  0.915884  0.149637  1
  In  In17  1  0.500000  0.083671  0.848912  1
  Pd  Pd18  1  0.500000  0.525450  0.196441  1
  Pd  Pd19  1  0.500000  0.471292  0.803769  1
  Pd  Pd20  1  0.500000  0.975661  0.698212  1
  Pd  Pd21  1  0.500000  0.025213  0.303399  1
