# generated using pymatgen
data_K2Fe(SnO3)2
_symmetry_space_group_name_H-M   'P 1'
_cell_length_a   8.04219032
_cell_length_b   8.01364105
_cell_length_c   9.71380006
_cell_angle_alpha   64.99387555
_cell_angle_beta   65.28680585
_cell_angle_gamma   74.91558123
_symmetry_Int_Tables_number   1
_chemical_formula_structural   K2Fe(SnO3)2
_chemical_formula_sum   'K6 Fe3 Sn6 O18'
_cell_volume   512.72449351
_cell_formula_units_Z   3
loop_
 _symmetry_equiv_pos_site_id
 _symmetry_equiv_pos_as_xyz
  1  'x, y, z'
loop_
 _atom_site_type_symbol
 _atom_site_label
 _atom_site_symmetry_multiplicity
 _atom_site_fract_x
 _atom_site_fract_y
 _atom_site_fract_z
 _atom_site_occupancy
  K  K0  1  0.690391  0.001421  0.828771  1
  K  K1  1  0.685627  0.338934  0.493208  1
  K  K2  1  0.000885  0.665108  0.835512  1
  K  K3  1  0.999115  0.334892  0.164488  1
  K  K4  1  0.309609  0.998579  0.171229  1
  K  K5  1  0.314373  0.661066  0.506792  1
  Fe  Fe6  1  0.000000  0.000000  0.000000  1
  Fe  Fe7  1  0.998578  0.668176  0.333414  1
  Fe  Fe8  1  0.001422  0.331824  0.666586  1
  Sn  Sn9  1  0.332118  0.671727  0.005119  1
  Sn  Sn10  1  0.329081  0.337462  0.338549  1
  Sn  Sn11  1  0.330124  0.007604  0.672505  1
  Sn  Sn12  1  0.670919  0.662538  0.661451  1
  Sn  Sn13  1  0.667882  0.328273  0.994881  1
  Sn  Sn14  1  0.669876  0.992396  0.327495  1
  O  O15  1  0.678758  0.371564  0.761980  1
  O  O16  1  0.671085  0.039900  0.096391  1
  O  O17  1  0.674231  0.703297  0.432858  1
  O  O18  1  0.050471  0.027795  0.759514  1
  O  O19  1  0.050863  0.695975  0.090209  1
  O  O20  1  0.370253  0.704861  0.759122  1
  O  O21  1  0.949137  0.304025  0.909791  1
  O  O22  1  0.949529  0.972205  0.240486  1
  O  O23  1  0.328915  0.960100  0.903609  1
  O  O24  1  0.047738  0.363086  0.424002  1
  O  O25  1  0.369195  0.369895  0.093887  1
  O  O26  1  0.371975  0.034881  0.425346  1
  O  O27  1  0.952262  0.636914  0.575998  1
  O  O28  1  0.321242  0.628436  0.238020  1
  O  O29  1  0.325769  0.296703  0.567142  1
  O  O30  1  0.630805  0.630105  0.906113  1
  O  O31  1  0.629747  0.295139  0.240878  1
  O  O32  1  0.628025  0.965119  0.574654  1
