# generated using pymatgen
data_Dy15HoCdAg3Rh4
_symmetry_space_group_name_H-M   'P 1'
_cell_length_a   9.56047427
_cell_length_b   9.53888765
_cell_length_c   9.51973600
_cell_angle_alpha   60.06639347
_cell_angle_beta   60.14085669
_cell_angle_gamma   60.18759589
_symmetry_Int_Tables_number   1
_chemical_formula_structural   Dy15HoCdAg3Rh4
_chemical_formula_sum   'Dy15 Ho1 Cd1 Ag3 Rh4'
_cell_volume   615.71402070
_cell_formula_units_Z   1
loop_
 _symmetry_equiv_pos_site_id
 _symmetry_equiv_pos_as_xyz
  1  'x, y, z'
loop_
 _atom_site_type_symbol
 _atom_site_label
 _atom_site_symmetry_multiplicity
 _atom_site_fract_x
 _atom_site_fract_y
 _atom_site_fract_z
 _atom_site_occupancy
  Dy  Dy0  1  0.935713  0.936632  0.563828  1
  Dy  Dy1  1  0.562755  0.566738  0.935253  1
  Dy  Dy2  1  0.688621  0.688398  0.311491  1
  Dy  Dy3  1  0.147372  0.557194  0.147716  1
  Dy  Dy4  1  0.687946  0.312823  0.687557  1
  Dy  Dy5  1  0.148391  0.148092  0.148392  1
  Dy  Dy6  1  0.554675  0.148491  0.148417  1
  Dy  Dy7  1  0.687946  0.312823  0.311674  1
  Dy  Dy8  1  0.148391  0.148092  0.555125  1
  Dy  Dy9  1  0.312442  0.688114  0.311883  1
  Dy  Dy10  1  0.312442  0.688114  0.687561  1
  Dy  Dy11  1  0.935588  0.566768  0.562497  1
  Dy  Dy12  1  0.935588  0.566768  0.935147  1
  Dy  Dy13  1  0.563915  0.936332  0.564104  1
  Dy  Dy14  1  0.563915  0.936332  0.935649  1
  Ho  Ho15  1  0.311950  0.313008  0.687521  1
  Cd  Cd16  1  0.920485  0.237313  0.921101  1
  Ag  Ag17  1  0.917405  0.916435  0.247992  1
  Ag  Ag18  1  0.247924  0.916429  0.917824  1
  Ag  Ag19  1  0.917405  0.916435  0.918167  1
  Rh  Rh20  1  0.356490  0.356633  0.928746  1
  Rh  Rh21  1  0.356343  0.929217  0.357219  1
  Rh  Rh22  1  0.929810  0.356180  0.357005  1
  Rh  Rh23  1  0.356490  0.356633  0.358131  1
