# generated using pymatgen
data_Y16MgCo4Hg3
_symmetry_space_group_name_H-M   'P 1'
_cell_length_a   9.52419508
_cell_length_b   9.52387579
_cell_length_c   9.52387700
_cell_angle_alpha   59.99999927
_cell_angle_beta   60.00110824
_cell_angle_gamma   60.00110714
_symmetry_Int_Tables_number   1
_chemical_formula_structural   Y16MgCo4Hg3
_chemical_formula_sum   'Y16 Mg1 Co4 Hg3'
_cell_volume   610.86895425
_cell_formula_units_Z   1
loop_
 _symmetry_equiv_pos_site_id
 _symmetry_equiv_pos_as_xyz
  1  'x, y, z'
loop_
 _atom_site_type_symbol
 _atom_site_label
 _atom_site_symmetry_multiplicity
 _atom_site_fract_x
 _atom_site_fract_y
 _atom_site_fract_z
 _atom_site_occupancy
  Y  Y0  1  0.348121  0.346045  0.346045  1
  Y  Y1  1  0.348121  0.346045  0.959789  1
  Y  Y2  1  0.348121  0.959789  0.346045  1
  Y  Y3  1  0.951181  0.349606  0.349606  1
  Y  Y4  1  0.810572  0.189114  0.189114  1
  Y  Y5  1  0.185367  0.813559  0.813559  1
  Y  Y6  1  0.185367  0.813559  0.187515  1
  Y  Y7  1  0.810572  0.189114  0.811201  1
  Y  Y8  1  0.185367  0.187515  0.813559  1
  Y  Y9  1  0.810572  0.811201  0.189114  1
  Y  Y10  1  0.936369  0.562715  0.562715  1
  Y  Y11  1  0.561479  0.937637  0.937637  1
  Y  Y12  1  0.561479  0.937637  0.563247  1
  Y  Y13  1  0.936369  0.562715  0.938202  1
  Y  Y14  1  0.561479  0.563247  0.937637  1
  Y  Y15  1  0.936369  0.938202  0.562715  1
  Mg  Mg16  1  0.286346  0.571218  0.571218  1
  Co  Co17  1  0.139551  0.142372  0.142372  1
  Co  Co18  1  0.139551  0.142372  0.575705  1
  Co  Co19  1  0.139551  0.575705  0.142372  1
  Co  Co20  1  0.575514  0.141495  0.141495  1
  Hg  Hg21  1  0.580860  0.585241  0.585241  1
  Hg  Hg22  1  0.580860  0.585241  0.248659  1
  Hg  Hg23  1  0.580860  0.248659  0.585241  1
