# generated using pymatgen
data_SrCa3Eu4(BO4)4
_symmetry_space_group_name_H-M   'P 1'
_cell_length_a   3.71712800
_cell_length_b   9.95717509
_cell_length_c   10.69443562
_cell_angle_alpha   90.25644926
_cell_angle_beta   90.00000000
_cell_angle_gamma   90.00000000
_symmetry_Int_Tables_number   1
_chemical_formula_structural   SrCa3Eu4(BO4)4
_chemical_formula_sum   'Sr1 Ca3 Eu4 B4 O16'
_cell_volume   395.81949489
_cell_formula_units_Z   1
loop_
 _symmetry_equiv_pos_site_id
 _symmetry_equiv_pos_as_xyz
  1  'x, y, z'
loop_
 _atom_site_type_symbol
 _atom_site_label
 _atom_site_symmetry_multiplicity
 _atom_site_fract_x
 _atom_site_fract_y
 _atom_site_fract_z
 _atom_site_occupancy
  Sr  Sr0  1  0.250000  0.675500  0.080754  1
  Ca  Ca1  1  0.750000  0.315205  0.918286  1
  Ca  Ca2  1  0.750000  0.182624  0.418767  1
  Ca  Ca3  1  0.250000  0.816656  0.581195  1
  Eu  Eu4  1  0.250000  0.077086  0.122700  1
  Eu  Eu5  1  0.750000  0.924412  0.872265  1
  Eu  Eu6  1  0.750000  0.578523  0.381366  1
  Eu  Eu7  1  0.250000  0.420014  0.623449  1
  B  B8  1  0.250000  0.364953  0.193146  1
  B  B9  1  0.750000  0.633142  0.803558  1
  B  B10  1  0.750000  0.869852  0.314540  1
  B  B11  1  0.250000  0.133035  0.688682  1
  O  O12  1  0.250000  0.494316  0.242309  1
  O  O13  1  0.750000  0.498716  0.765891  1
  O  O14  1  0.750000  0.001186  0.270113  1
  O  O15  1  0.250000  0.999937  0.728101  1
  O  O16  1  0.250000  0.254199  0.273435  1
  O  O17  1  0.750000  0.740052  0.719007  1
  O  O18  1  0.750000  0.760513  0.231726  1
  O  O19  1  0.250000  0.239453  0.775484  1
  O  O20  1  0.250000  0.344306  0.063654  1
  O  O21  1  0.750000  0.663972  0.930087  1
  O  O22  1  0.750000  0.843909  0.442446  1
  O  O23  1  0.250000  0.163315  0.561560  1
  O  O24  1  0.250000  0.606967  0.501252  1
  O  O25  1  0.750000  0.391587  0.501668  1
  O  O26  1  0.750000  0.108811  0.001305  1
  O  O27  1  0.250000  0.897758  0.993253  1
