# generated using pymatgen
data_La3Nd(Lu4Bi3)4
_symmetry_space_group_name_H-M   'P 1'
_cell_length_a   8.24643454
_cell_length_b   9.41876700
_cell_length_c   11.96194600
_cell_angle_alpha   90.00000000
_cell_angle_beta   89.95506763
_cell_angle_gamma   90.00000000
_symmetry_Int_Tables_number   1
_chemical_formula_structural   La3Nd(Lu4Bi3)4
_chemical_formula_sum   'La3 Nd1 Lu16 Bi12'
_cell_volume   929.09895841
_cell_formula_units_Z   1
loop_
 _symmetry_equiv_pos_site_id
 _symmetry_equiv_pos_as_xyz
  1  'x, y, z'
loop_
 _atom_site_type_symbol
 _atom_site_label
 _atom_site_symmetry_multiplicity
 _atom_site_fract_x
 _atom_site_fract_y
 _atom_site_fract_z
 _atom_site_occupancy
  La  La0  1  0.320514  0.250000  0.218889  1
  La  La1  1  0.818740  0.250000  0.279945  1
  La  La2  1  0.680199  0.750000  0.780949  1
  Nd  Nd3  1  0.181730  0.750000  0.718357  1
  Lu  Lu4  1  0.350560  0.750000  0.220995  1
  Lu  Lu5  1  0.851608  0.750000  0.279608  1
  Lu  Lu6  1  0.648369  0.250000  0.778044  1
  Lu  Lu7  1  0.148561  0.250000  0.720995  1
  Lu  Lu8  1  0.689373  0.567571  0.063016  1
  Lu  Lu9  1  0.189464  0.932590  0.438072  1
  Lu  Lu10  1  0.311448  0.067097  0.936643  1
  Lu  Lu11  1  0.809419  0.432580  0.562782  1
  Lu  Lu12  1  0.311448  0.432903  0.936643  1
  Lu  Lu13  1  0.809419  0.067420  0.562782  1
  Lu  Lu14  1  0.689373  0.932429  0.063016  1
  Lu  Lu15  1  0.189464  0.567410  0.438072  1
  Lu  Lu16  1  0.480626  0.250000  0.489608  1
  Lu  Lu17  1  0.982457  0.250000  0.010361  1
  Lu  Lu18  1  0.518554  0.750000  0.511985  1
  Lu  Lu19  1  0.019291  0.750000  0.988905  1
  Bi  Bi20  1  0.397613  0.750000  0.966368  1
  Bi  Bi21  1  0.899457  0.750000  0.534590  1
  Bi  Bi22  1  0.602661  0.250000  0.032472  1
  Bi  Bi23  1  0.101440  0.250000  0.466705  1
  Bi  Bi24  1  0.565827  0.988310  0.329821  1
  Bi  Bi25  1  0.066027  0.511312  0.170355  1
  Bi  Bi26  1  0.431903  0.489697  0.671001  1
  Bi  Bi27  1  0.935351  0.010079  0.828922  1
  Bi  Bi28  1  0.431903  0.010303  0.671001  1
  Bi  Bi29  1  0.935351  0.489921  0.828922  1
  Bi  Bi30  1  0.565827  0.511690  0.329821  1
  Bi  Bi31  1  0.066027  0.988688  0.170355  1
