# generated using pymatgen
data_Sm2Er3Pt4
_symmetry_space_group_name_H-M   'P 1'
_cell_length_a   7.51664000
_cell_length_b   7.58809800
_cell_length_c   14.75062800
_cell_angle_alpha   90.00000000
_cell_angle_beta   90.00000000
_cell_angle_gamma   90.00000000
_symmetry_Int_Tables_number   1
_chemical_formula_structural   Sm2Er3Pt4
_chemical_formula_sum   'Sm8 Er12 Pt16'
_cell_volume   841.33158326
_cell_formula_units_Z   4
loop_
 _symmetry_equiv_pos_site_id
 _symmetry_equiv_pos_as_xyz
  1  'x, y, z'
loop_
 _atom_site_type_symbol
 _atom_site_label
 _atom_site_symmetry_multiplicity
 _atom_site_fract_x
 _atom_site_fract_y
 _atom_site_fract_z
 _atom_site_occupancy
  Sm  Sm0  1  0.998565  0.820758  0.406687  1
  Sm  Sm1  1  0.498565  0.679242  0.093313  1
  Sm  Sm2  1  0.501435  0.320758  0.593313  1
  Sm  Sm3  1  0.001435  0.179242  0.906687  1
  Sm  Sm4  1  0.001435  0.179242  0.593313  1
  Sm  Sm5  1  0.501435  0.320758  0.906687  1
  Sm  Sm6  1  0.498565  0.679242  0.406687  1
  Sm  Sm7  1  0.998565  0.820758  0.093313  1
  Er  Er8  1  0.680689  0.990084  0.250000  1
  Er  Er9  1  0.180689  0.509916  0.250000  1
  Er  Er10  1  0.819311  0.490084  0.750000  1
  Er  Er11  1  0.319311  0.009916  0.750000  1
  Er  Er12  1  0.656235  0.832206  0.623009  1
  Er  Er13  1  0.156235  0.667794  0.876991  1
  Er  Er14  1  0.843765  0.332206  0.376991  1
  Er  Er15  1  0.343765  0.167794  0.123009  1
  Er  Er16  1  0.343765  0.167794  0.376991  1
  Er  Er17  1  0.843765  0.332206  0.123009  1
  Er  Er18  1  0.156235  0.667794  0.623009  1
  Er  Er19  1  0.656235  0.832206  0.876991  1
  Pt  Pt20  1  0.816058  0.640395  0.250000  1
  Pt  Pt21  1  0.316058  0.859605  0.250000  1
  Pt  Pt22  1  0.683942  0.140395  0.750000  1
  Pt  Pt23  1  0.183942  0.359605  0.750000  1
  Pt  Pt24  1  0.546298  0.383180  0.250000  1
  Pt  Pt25  1  0.046298  0.116820  0.250000  1
  Pt  Pt26  1  0.953702  0.883180  0.750000  1
  Pt  Pt27  1  0.453702  0.616820  0.750000  1
  Pt  Pt28  1  0.818451  0.534534  0.542374  1
  Pt  Pt29  1  0.318451  0.965466  0.957626  1
  Pt  Pt30  1  0.681549  0.034534  0.457626  1
  Pt  Pt31  1  0.181549  0.465466  0.042374  1
  Pt  Pt32  1  0.181549  0.465466  0.457626  1
  Pt  Pt33  1  0.681549  0.034534  0.042374  1
  Pt  Pt34  1  0.318451  0.965466  0.542374  1
  Pt  Pt35  1  0.818451  0.534534  0.957626  1
