# generated using pymatgen
data_HoTm2Lu2(In2Ni)2
_symmetry_space_group_name_H-M   'P 1'
_cell_length_a   3.53930700
_cell_length_b   7.93218600
_cell_length_c   17.77448200
_cell_angle_alpha   90.00000000
_cell_angle_beta   90.00000000
_cell_angle_gamma   90.00000000
_symmetry_Int_Tables_number   1
_chemical_formula_structural   HoTm2Lu2(In2Ni)2
_chemical_formula_sum   'Ho2 Tm4 Lu4 In8 Ni4'
_cell_volume   499.00865395
_cell_formula_units_Z   2
loop_
 _symmetry_equiv_pos_site_id
 _symmetry_equiv_pos_as_xyz
  1  'x, y, z'
loop_
 _atom_site_type_symbol
 _atom_site_label
 _atom_site_symmetry_multiplicity
 _atom_site_fract_x
 _atom_site_fract_y
 _atom_site_fract_z
 _atom_site_occupancy
  Ho  Ho0  1  0.000000  0.500000  0.500000  1
  Ho  Ho1  1  0.000000  0.000000  0.000000  1
  Tm  Tm2  1  0.000000  0.618562  0.089072  1
  Tm  Tm3  1  0.000000  0.381438  0.910928  1
  Tm  Tm4  1  0.000000  0.881438  0.589072  1
  Tm  Tm5  1  0.000000  0.118562  0.410928  1
  Lu  Lu6  1  0.000000  0.748272  0.277964  1
  Lu  Lu7  1  0.000000  0.251728  0.722036  1
  Lu  Lu8  1  0.000000  0.751728  0.777964  1
  Lu  Lu9  1  0.000000  0.248272  0.222036  1
  In  In10  1  0.500000  0.703265  0.930498  1
  In  In11  1  0.500000  0.296735  0.069502  1
  In  In12  1  0.500000  0.796735  0.430498  1
  In  In13  1  0.500000  0.203265  0.569502  1
  In  In14  1  0.500000  0.570539  0.652300  1
  In  In15  1  0.500000  0.429461  0.347700  1
  In  In16  1  0.500000  0.929461  0.152300  1
  In  In17  1  0.500000  0.070539  0.847700  1
  Ni  Ni18  1  0.500000  0.527260  0.196322  1
  Ni  Ni19  1  0.500000  0.472740  0.803678  1
  Ni  Ni20  1  0.500000  0.972740  0.696322  1
  Ni  Ni21  1  0.500000  0.027260  0.303678  1
