# generated using pymatgen
data_La11Sm(Si2Ni)4
_symmetry_space_group_name_H-M   'P 1'
_cell_length_a   4.33978600
_cell_length_b   11.91679307
_cell_length_c   11.91559700
_cell_angle_alpha   89.58801452
_cell_angle_beta   90.00000000
_cell_angle_gamma   90.00000000
_symmetry_Int_Tables_number   1
_chemical_formula_structural   La11Sm(Si2Ni)4
_chemical_formula_sum   'La11 Sm1 Si8 Ni4'
_cell_volume   616.21503656
_cell_formula_units_Z   1
loop_
 _symmetry_equiv_pos_site_id
 _symmetry_equiv_pos_as_xyz
  1  'x, y, z'
loop_
 _atom_site_type_symbol
 _atom_site_label
 _atom_site_symmetry_multiplicity
 _atom_site_fract_x
 _atom_site_fract_y
 _atom_site_fract_z
 _atom_site_occupancy
  La  La0  1  0.750000  0.944986  0.112715  1
  La  La1  1  0.250000  0.057933  0.883602  1
  La  La2  1  0.250000  0.444525  0.388022  1
  La  La3  1  0.750000  0.556838  0.615873  1
  La  La4  1  0.250000  0.124298  0.562995  1
  La  La5  1  0.250000  0.376429  0.059418  1
  La  La6  1  0.750000  0.877377  0.437816  1
  La  La7  1  0.750000  0.620971  0.938636  1
  La  La8  1  0.250000  0.805096  0.711713  1
  La  La9  1  0.250000  0.693776  0.211629  1
  La  La10  1  0.750000  0.198462  0.285724  1
  Sm  Sm11  1  0.750000  0.308219  0.787903  1
  Si  Si12  1  0.250000  0.811180  0.968174  1
  Si  Si13  1  0.250000  0.687804  0.468354  1
  Si  Si14  1  0.750000  0.189018  0.027439  1
  Si  Si15  1  0.750000  0.312782  0.536171  1
  Si  Si16  1  0.250000  0.482630  0.800042  1
  Si  Si17  1  0.250000  0.013353  0.297047  1
  Si  Si18  1  0.750000  0.508824  0.203046  1
  Si  Si19  1  0.750000  0.988147  0.701940  1
  Ni  Ni20  1  0.250000  0.361605  0.631142  1
  Ni  Ni21  1  0.250000  0.137236  0.124868  1
  Ni  Ni22  1  0.750000  0.635881  0.373242  1
  Ni  Ni23  1  0.750000  0.862629  0.872486  1
