# generated using pymatgen
data_Th3Ga3Pd2Pt
_symmetry_space_group_name_H-M   'P 1'
_cell_length_a   7.32301900
_cell_length_b   7.32301883
_cell_length_c   8.34281000
_cell_angle_alpha   90.00000000
_cell_angle_beta   90.00000000
_cell_angle_gamma   120.00000529
_symmetry_Int_Tables_number   1
_chemical_formula_structural   Th3Ga3Pd2Pt
_chemical_formula_sum   'Th6 Ga6 Pd4 Pt2'
_cell_volume   387.45678750
_cell_formula_units_Z   2
loop_
 _symmetry_equiv_pos_site_id
 _symmetry_equiv_pos_as_xyz
  1  'x, y, z'
loop_
 _atom_site_type_symbol
 _atom_site_label
 _atom_site_symmetry_multiplicity
 _atom_site_fract_x
 _atom_site_fract_y
 _atom_site_fract_z
 _atom_site_occupancy
  Th  Th0  1  0.750415  0.082236  0.000000  1
  Th  Th1  1  0.331820  0.249585  0.000000  1
  Th  Th2  1  0.917764  0.668180  0.000000  1
  Th  Th3  1  0.330641  0.248178  0.500000  1
  Th  Th4  1  0.751822  0.082463  0.500000  1
  Th  Th5  1  0.917537  0.669359  0.500000  1
  Ga  Ga6  1  0.572588  0.662943  0.749933  1
  Ga  Ga7  1  0.090356  0.427412  0.749933  1
  Ga  Ga8  1  0.337057  0.909644  0.749933  1
  Ga  Ga9  1  0.572588  0.662943  0.250067  1
  Ga  Ga10  1  0.090356  0.427412  0.250067  1
  Ga  Ga11  1  0.337057  0.909644  0.250067  1
  Pd  Pd12  1  0.333333  0.666667  0.000000  1
  Pd  Pd13  1  0.333333  0.666667  0.500000  1
  Pd  Pd14  1  0.666667  0.333333  0.749522  1
  Pd  Pd15  1  0.666667  0.333333  0.250478  1
  Pt  Pt16  1  0.000000  0.000000  0.248869  1
  Pt  Pt17  1  0.000000  0.000000  0.751131  1
