# generated using pymatgen
data_La10CuPb6I
_symmetry_space_group_name_H-M   'P 1'
_cell_length_a   9.87764600
_cell_length_b   9.87764618
_cell_length_c   6.97559900
_cell_angle_alpha   90.00000000
_cell_angle_beta   90.00000000
_cell_angle_gamma   120.00000608
_symmetry_Int_Tables_number   1
_chemical_formula_structural   La10CuPb6I
_chemical_formula_sum   'La10 Cu1 Pb6 I1'
_cell_volume   589.41208366
_cell_formula_units_Z   1
loop_
 _symmetry_equiv_pos_site_id
 _symmetry_equiv_pos_as_xyz
  1  'x, y, z'
loop_
 _atom_site_type_symbol
 _atom_site_label
 _atom_site_symmetry_multiplicity
 _atom_site_fract_x
 _atom_site_fract_y
 _atom_site_fract_z
 _atom_site_occupancy
  La  La0  1  0.734799  0.000000  0.736169  1
  La  La1  1  0.000000  0.265201  0.263831  1
  La  La2  1  0.734799  0.734799  0.263831  1
  La  La3  1  0.333333  0.666667  0.500000  1
  La  La4  1  0.333333  0.666667  0.000000  1
  La  La5  1  0.666667  0.333333  0.500000  1
  La  La6  1  0.666667  0.333333  0.000000  1
  La  La7  1  0.265201  0.000000  0.263831  1
  La  La8  1  0.265201  0.265201  0.736169  1
  La  La9  1  0.000000  0.734799  0.736169  1
  Cu  Cu10  1  0.000000  0.000000  0.500000  1
  Pb  Pb11  1  0.382144  0.000000  0.749181  1
  Pb  Pb12  1  0.617856  0.000000  0.250819  1
  Pb  Pb13  1  0.000000  0.617856  0.250819  1
  Pb  Pb14  1  0.617856  0.617856  0.749181  1
  Pb  Pb15  1  0.000000  0.382144  0.749181  1
  Pb  Pb16  1  0.382144  0.382144  0.250819  1
  I  I17  1  0.000000  0.000000  0.000000  1
