# generated using pymatgen
data_LiCe(PPt)2
_symmetry_space_group_name_H-M   'P 1'
_cell_length_a   4.07171600
_cell_length_b   4.07171607
_cell_length_c   14.75803700
_cell_angle_alpha   90.00000000
_cell_angle_beta   90.00000000
_cell_angle_gamma   120.00001566
_symmetry_Int_Tables_number   1
_chemical_formula_structural   LiCe(PPt)2
_chemical_formula_sum   'Li2 Ce2 P4 Pt4'
_cell_volume   211.89178668
_cell_formula_units_Z   2
loop_
 _symmetry_equiv_pos_site_id
 _symmetry_equiv_pos_as_xyz
  1  'x, y, z'
loop_
 _atom_site_type_symbol
 _atom_site_label
 _atom_site_symmetry_multiplicity
 _atom_site_fract_x
 _atom_site_fract_y
 _atom_site_fract_z
 _atom_site_occupancy
  Li  Li0  1  0.000000  0.000000  0.250000  1
  Li  Li1  1  0.000000  0.000000  0.750000  1
  Ce  Ce2  1  0.000000  0.000000  0.500000  1
  Ce  Ce3  1  0.000000  0.000000  0.000000  1
  P  P4  1  0.333333  0.666667  0.873884  1
  P  P5  1  0.666667  0.333333  0.126116  1
  P  P6  1  0.666667  0.333333  0.373884  1
  P  P7  1  0.333333  0.666667  0.626116  1
  Pt  Pt8  1  0.333333  0.666667  0.352563  1
  Pt  Pt9  1  0.666667  0.333333  0.647437  1
  Pt  Pt10  1  0.666667  0.333333  0.852563  1
  Pt  Pt11  1  0.333333  0.666667  0.147437  1
