# generated using pymatgen
data_Pu3(GeRh)2
_symmetry_space_group_name_H-M   'P 1'
_cell_length_a   5.48672700
_cell_length_b   7.86691600
_cell_length_c   13.03095700
_cell_angle_alpha   90.00000000
_cell_angle_beta   90.00000000
_cell_angle_gamma   90.00000000
_symmetry_Int_Tables_number   1
_chemical_formula_structural   Pu3(GeRh)2
_chemical_formula_sum   'Pu12 Ge8 Rh8'
_cell_volume   562.46328171
_cell_formula_units_Z   4
loop_
 _symmetry_equiv_pos_site_id
 _symmetry_equiv_pos_as_xyz
  1  'x, y, z'
loop_
 _atom_site_type_symbol
 _atom_site_label
 _atom_site_symmetry_multiplicity
 _atom_site_fract_x
 _atom_site_fract_y
 _atom_site_fract_z
 _atom_site_occupancy
  Pu  Pu0  1  0.367222  0.734900  0.750000  1
  Pu  Pu1  1  0.367222  0.765100  0.250000  1
  Pu  Pu2  1  0.632778  0.234900  0.750000  1
  Pu  Pu3  1  0.632778  0.265100  0.250000  1
  Pu  Pu4  1  0.154501  0.397710  0.404650  1
  Pu  Pu5  1  0.154501  0.102290  0.595350  1
  Pu  Pu6  1  0.845499  0.897710  0.095350  1
  Pu  Pu7  1  0.845499  0.602290  0.904650  1
  Pu  Pu8  1  0.845499  0.602290  0.595350  1
  Pu  Pu9  1  0.845499  0.897710  0.404650  1
  Pu  Pu10  1  0.154501  0.102290  0.904650  1
  Pu  Pu11  1  0.154501  0.397710  0.095350  1
  Ge  Ge12  1  0.687589  0.250000  0.500000  1
  Ge  Ge13  1  0.312411  0.750000  0.000000  1
  Ge  Ge14  1  0.312411  0.750000  0.500000  1
  Ge  Ge15  1  0.687589  0.250000  0.000000  1
  Ge  Ge16  1  0.882831  0.887231  0.750000  1
  Ge  Ge17  1  0.882831  0.612769  0.250000  1
  Ge  Ge18  1  0.117169  0.387231  0.750000  1
  Ge  Ge19  1  0.117169  0.112769  0.250000  1
  Rh  Rh20  1  0.375089  0.048405  0.406488  1
  Rh  Rh21  1  0.375089  0.451595  0.593512  1
  Rh  Rh22  1  0.624911  0.548405  0.093512  1
  Rh  Rh23  1  0.624911  0.951595  0.906488  1
  Rh  Rh24  1  0.375089  0.048405  0.093512  1
  Rh  Rh25  1  0.375089  0.451595  0.906488  1
  Rh  Rh26  1  0.624911  0.548405  0.406488  1
  Rh  Rh27  1  0.624911  0.951595  0.593512  1
