# generated using pymatgen
data_Rb4MnSeF12
_symmetry_space_group_name_H-M   'P 1'
_cell_length_a   6.22102200
_cell_length_b   6.22102192
_cell_length_c   10.13947800
_cell_angle_alpha   90.00000000
_cell_angle_beta   90.00000000
_cell_angle_gamma   120.00000041
_symmetry_Int_Tables_number   1
_chemical_formula_structural   Rb4MnSeF12
_chemical_formula_sum   'Rb4 Mn1 Se1 F12'
_cell_volume   339.83624478
_cell_formula_units_Z   1
loop_
 _symmetry_equiv_pos_site_id
 _symmetry_equiv_pos_as_xyz
  1  'x, y, z'
loop_
 _atom_site_type_symbol
 _atom_site_label
 _atom_site_symmetry_multiplicity
 _atom_site_fract_x
 _atom_site_fract_y
 _atom_site_fract_z
 _atom_site_occupancy
  Rb  Rb0  1  0.666667  0.333333  0.378208  1
  Rb  Rb1  1  0.333333  0.666667  0.864293  1
  Rb  Rb2  1  0.000000  0.000000  0.599635  1
  Rb  Rb3  1  0.000000  0.000000  0.096679  1
  Mn  Mn4  1  0.666667  0.333333  0.756649  1
  Se  Se5  1  0.333333  0.666667  0.260761  1
  F  F6  1  0.527278  0.472722  0.649976  1
  F  F7  1  0.048634  0.524317  0.144867  1
  F  F8  1  0.475683  0.951366  0.144867  1
  F  F9  1  0.527278  0.054557  0.649976  1
  F  F10  1  0.945443  0.472722  0.649976  1
  F  F11  1  0.475683  0.524317  0.144867  1
  F  F12  1  0.172904  0.827096  0.361796  1
  F  F13  1  0.380063  0.190032  0.857951  1
  F  F14  1  0.809968  0.619937  0.857951  1
  F  F15  1  0.172904  0.345806  0.361796  1
  F  F16  1  0.654194  0.827096  0.361796  1
  F  F17  1  0.809968  0.190032  0.857951  1
