# generated using pymatgen
data_TbEr9In8Pd3Ru
_symmetry_space_group_name_H-M   'P 1'
_cell_length_a   3.60913900
_cell_length_b   8.09664919
_cell_length_c   18.22469467
_cell_angle_alpha   90.04667501
_cell_angle_beta   90.00000000
_cell_angle_gamma   90.00000000
_symmetry_Int_Tables_number   1
_chemical_formula_structural   TbEr9In8Pd3Ru
_chemical_formula_sum   'Tb1 Er9 In8 Pd3 Ru1'
_cell_volume   532.56061857
_cell_formula_units_Z   1
loop_
 _symmetry_equiv_pos_site_id
 _symmetry_equiv_pos_as_xyz
  1  'x, y, z'
loop_
 _atom_site_type_symbol
 _atom_site_label
 _atom_site_symmetry_multiplicity
 _atom_site_fract_x
 _atom_site_fract_y
 _atom_site_fract_z
 _atom_site_occupancy
  Tb  Tb0  1  0.000000  0.499832  0.499598  1
  Er  Er1  1  0.000000  0.999749  0.000856  1
  Er  Er2  1  0.000000  0.726983  0.277009  1
  Er  Er3  1  0.000000  0.258939  0.720518  1
  Er  Er4  1  0.000000  0.759018  0.779753  1
  Er  Er5  1  0.000000  0.253886  0.220125  1
  Er  Er6  1  0.000000  0.615462  0.087343  1
  Er  Er7  1  0.000000  0.384009  0.915867  1
  Er  Er8  1  0.000000  0.882811  0.584405  1
  Er  Er9  1  0.000000  0.119152  0.414152  1
  In  In10  1  0.500000  0.709829  0.932227  1
  In  In11  1  0.500000  0.293058  0.068501  1
  In  In12  1  0.500000  0.793872  0.432053  1
  In  In13  1  0.500000  0.206822  0.567683  1
  In  In14  1  0.500000  0.578525  0.649879  1
  In  In15  1  0.500000  0.426033  0.349522  1
  In  In16  1  0.500000  0.922629  0.150271  1
  In  In17  1  0.500000  0.077792  0.851492  1
  Pd  Pd18  1  0.500000  0.476774  0.804334  1
  Pd  Pd19  1  0.500000  0.977270  0.695835  1
  Pd  Pd20  1  0.500000  0.018799  0.303558  1
  Ru  Ru21  1  0.500000  0.518758  0.195016  1
