# generated using pymatgen
data_AcCeZn5Ge
_symmetry_space_group_name_H-M   'P 1'
_cell_length_a   8.49675800
_cell_length_b   8.49675760
_cell_length_c   8.95142600
_cell_angle_alpha   90.00000000
_cell_angle_beta   90.00000000
_cell_angle_gamma   148.98243693
_symmetry_Int_Tables_number   1
_chemical_formula_structural   AcCeZn5Ge
_chemical_formula_sum   'Ac2 Ce2 Zn10 Ge2'
_cell_volume   333.01172231
_cell_formula_units_Z   2
loop_
 _symmetry_equiv_pos_site_id
 _symmetry_equiv_pos_as_xyz
  1  'x, y, z'
loop_
 _atom_site_type_symbol
 _atom_site_label
 _atom_site_symmetry_multiplicity
 _atom_site_fract_x
 _atom_site_fract_y
 _atom_site_fract_z
 _atom_site_occupancy
  Ac  Ac0  1  0.000000  0.000000  0.500000  1
  Ac  Ac1  1  0.000000  0.000000  0.000000  1
  Ce  Ce2  1  0.207146  0.792854  0.250000  1
  Ce  Ce3  1  0.792854  0.207146  0.750000  1
  Zn  Zn4  1  0.811242  0.188758  0.392133  1
  Zn  Zn5  1  0.188758  0.811242  0.607867  1
  Zn  Zn6  1  0.811242  0.188758  0.107867  1
  Zn  Zn7  1  0.188758  0.811242  0.892133  1
  Zn  Zn8  1  0.656804  0.343196  0.480458  1
  Zn  Zn9  1  0.343196  0.656804  0.519542  1
  Zn  Zn10  1  0.656804  0.343196  0.019542  1
  Zn  Zn11  1  0.343196  0.656804  0.980458  1
  Zn  Zn12  1  0.403167  0.596833  0.250000  1
  Zn  Zn13  1  0.596833  0.403167  0.750000  1
  Ge  Ge14  1  0.563706  0.436294  0.250000  1
  Ge  Ge15  1  0.436294  0.563706  0.750000  1
