# generated using pymatgen
data_Ho9Tm3InCo4Os
_symmetry_space_group_name_H-M   'P 1'
_cell_length_a   8.22988892
_cell_length_b   8.23406891
_cell_length_c   8.22988945
_cell_angle_alpha   111.56119457
_cell_angle_beta   110.51990257
_cell_angle_gamma   106.35827755
_symmetry_Int_Tables_number   1
_chemical_formula_structural   Ho9Tm3InCo4Os
_chemical_formula_sum   'Ho9 Tm3 In1 Co4 Os1'
_cell_volume   428.44823094
_cell_formula_units_Z   1
loop_
 _symmetry_equiv_pos_site_id
 _symmetry_equiv_pos_as_xyz
  1  'x, y, z'
loop_
 _atom_site_type_symbol
 _atom_site_label
 _atom_site_symmetry_multiplicity
 _atom_site_fract_x
 _atom_site_fract_y
 _atom_site_fract_z
 _atom_site_occupancy
  Ho  Ho0  1  0.417168  0.222059  0.194414  1
  Ho  Ho1  1  0.583303  0.777720  0.806175  1
  Ho  Ho2  1  0.027644  0.222059  0.804892  1
  Ho  Ho3  1  0.971545  0.777720  0.194416  1
  Ho  Ho4  1  0.181847  0.278774  0.461516  1
  Ho  Ho5  1  0.818611  0.720899  0.538959  1
  Ho  Ho6  1  0.181941  0.720899  0.902288  1
  Ho  Ho7  1  0.817256  0.278774  0.096927  1
  Ho  Ho8  1  0.314884  0.620973  0.306089  1
  Tm  Tm9  1  0.684635  0.377612  0.692977  1
  Tm  Tm10  1  0.315532  0.008850  0.693319  1
  Tm  Tm11  1  0.685108  0.992272  0.307163  1
  In  In12  1  0.500128  0.499739  0.999611  1
  Co  Co13  1  0.376321  0.000935  0.376348  1
  Co  Co14  1  0.624588  0.000935  0.624614  1
  Co  Co15  1  0.111616  0.611822  0.500206  1
  Co  Co16  1  0.887836  0.387765  0.499928  1
  Os  Os17  1  0.000036  0.000194  0.000158  1
