# generated using pymatgen
data_Pr5Si2Sn
_symmetry_space_group_name_H-M   'P 1'
_cell_length_a   7.98956500
_cell_length_b   9.22995351
_cell_length_c   7.98956500
_cell_angle_alpha   115.64579396
_cell_angle_beta   90.00000000
_cell_angle_gamma   115.64579396
_symmetry_Int_Tables_number   1
_chemical_formula_structural   Pr5Si2Sn
_chemical_formula_sum   'Pr10 Si4 Sn2'
_cell_volume   465.91840908
_cell_formula_units_Z   2
loop_
 _symmetry_equiv_pos_site_id
 _symmetry_equiv_pos_as_xyz
  1  'x, y, z'
loop_
 _atom_site_type_symbol
 _atom_site_label
 _atom_site_symmetry_multiplicity
 _atom_site_fract_x
 _atom_site_fract_y
 _atom_site_fract_z
 _atom_site_occupancy
  Pr  Pr0  1  0.000000  0.000000  0.000000  1
  Pr  Pr1  1  0.500000  0.000000  0.500000  1
  Pr  Pr2  1  0.535240  0.720832  0.685594  1
  Pr  Pr3  1  0.185594  0.720832  0.035240  1
  Pr  Pr4  1  0.685594  0.720832  0.185594  1
  Pr  Pr5  1  0.035240  0.720832  0.535240  1
  Pr  Pr6  1  0.464760  0.279168  0.314406  1
  Pr  Pr7  1  0.814406  0.279168  0.964760  1
  Pr  Pr8  1  0.314406  0.279168  0.814406  1
  Pr  Pr9  1  0.964760  0.279168  0.464760  1
  Si  Si10  1  0.884069  0.000000  0.615931  1
  Si  Si11  1  0.115931  0.000000  0.384069  1
  Si  Si12  1  0.615931  0.000000  0.115931  1
  Si  Si13  1  0.384069  0.000000  0.884069  1
  Sn  Sn14  1  0.750000  0.500000  0.750000  1
  Sn  Sn15  1  0.250000  0.500000  0.250000  1
