# generated using pymatgen
data_Mn3AlAgO8
_symmetry_space_group_name_H-M   'P 1'
_cell_length_a   2.92189569
_cell_length_b   7.03784591
_cell_length_c   7.07111500
_cell_angle_alpha   92.37103005
_cell_angle_beta   101.92917707
_cell_angle_gamma   77.91635470
_symmetry_Int_Tables_number   1
_chemical_formula_structural   Mn3AlAgO8
_chemical_formula_sum   'Mn3 Al1 Ag1 O8'
_cell_volume   139.11655177
_cell_formula_units_Z   1
loop_
 _symmetry_equiv_pos_site_id
 _symmetry_equiv_pos_as_xyz
  1  'x, y, z'
loop_
 _atom_site_type_symbol
 _atom_site_label
 _atom_site_symmetry_multiplicity
 _atom_site_fract_x
 _atom_site_fract_y
 _atom_site_fract_z
 _atom_site_occupancy
  Mn  Mn0  1  0.310424  0.517531  0.176454  1
  Mn  Mn1  1  0.837716  0.810498  0.523844  1
  Mn  Mn2  1  0.131180  0.182834  0.483683  1
  Al  Al3  1  0.646178  0.482461  0.813168  1
  Ag  Ag4  1  0.477128  0.008099  0.001880  1
  O  O5  1  0.936927  0.376937  0.288261  1
  O  O6  1  0.026049  0.617778  0.708884  1
  O  O7  1  0.645217  0.291637  0.621008  1
  O  O8  1  0.316788  0.708998  0.380338  1
  O  O9  1  0.677451  0.650559  0.045139  1
  O  O10  1  0.279730  0.354747  0.951532  1
  O  O11  1  0.634964  0.045111  0.353376  1
  O  O12  1  0.330250  0.952809  0.652433  1
