# generated using pymatgen
data_KYb(PO3)3
_symmetry_space_group_name_H-M   'P 1'
_cell_length_a   6.88533900
_cell_length_b   6.88533919
_cell_length_c   10.39468700
_cell_angle_alpha   90.00000000
_cell_angle_beta   90.00000000
_cell_angle_gamma   119.99999427
_symmetry_Int_Tables_number   1
_chemical_formula_structural   KYb(PO3)3
_chemical_formula_sum   'K2 Yb2 P6 O18'
_cell_volume   426.76887776
_cell_formula_units_Z   2
loop_
 _symmetry_equiv_pos_site_id
 _symmetry_equiv_pos_as_xyz
  1  'x, y, z'
loop_
 _atom_site_type_symbol
 _atom_site_label
 _atom_site_symmetry_multiplicity
 _atom_site_fract_x
 _atom_site_fract_y
 _atom_site_fract_z
 _atom_site_occupancy
  K  K0  1  0.666667  0.333333  0.500000  1
  K  K1  1  0.666667  0.333333  0.000000  1
  Yb  Yb2  1  0.333333  0.666667  0.500000  1
  Yb  Yb3  1  0.333333  0.666667  0.000000  1
  P  P4  1  0.730440  0.769879  0.250000  1
  P  P5  1  0.230121  0.960560  0.250000  1
  P  P6  1  0.039440  0.269560  0.250000  1
  P  P7  1  0.039440  0.769879  0.750000  1
  P  P8  1  0.230121  0.269560  0.750000  1
  P  P9  1  0.730440  0.960560  0.750000  1
  O  O10  1  0.054453  0.388409  0.373801  1
  O  O11  1  0.611591  0.945547  0.626199  1
  O  O12  1  0.611591  0.666044  0.373801  1
  O  O13  1  0.333956  0.945547  0.373801  1
  O  O14  1  0.611591  0.666044  0.126199  1
  O  O15  1  0.333956  0.945547  0.126199  1
  O  O16  1  0.054453  0.388409  0.126199  1
  O  O17  1  0.333956  0.388409  0.873801  1
  O  O18  1  0.054453  0.666044  0.873801  1
  O  O19  1  0.054453  0.666044  0.626199  1
  O  O20  1  0.805924  0.772603  0.750000  1
  O  O21  1  0.966677  0.194076  0.750000  1
  O  O22  1  0.227397  0.033323  0.750000  1
  O  O23  1  0.227397  0.194076  0.250000  1
  O  O24  1  0.966677  0.772603  0.250000  1
  O  O25  1  0.805924  0.033323  0.250000  1
  O  O26  1  0.611591  0.945547  0.873801  1
  O  O27  1  0.333956  0.388409  0.626199  1
