# generated using pymatgen
data_Lu16Sc4Bi11Sb
_symmetry_space_group_name_H-M   'P 1'
_cell_length_a   7.99900234
_cell_length_b   9.30744500
_cell_length_c   11.71006950
_cell_angle_alpha   90.00000000
_cell_angle_beta   89.96641829
_cell_angle_gamma   90.00000000
_symmetry_Int_Tables_number   1
_chemical_formula_structural   Lu16Sc4Bi11Sb
_chemical_formula_sum   'Lu16 Sc4 Bi11 Sb1'
_cell_volume   871.81773759
_cell_formula_units_Z   1
loop_
 _symmetry_equiv_pos_site_id
 _symmetry_equiv_pos_as_xyz
  1  'x, y, z'
loop_
 _atom_site_type_symbol
 _atom_site_label
 _atom_site_symmetry_multiplicity
 _atom_site_fract_x
 _atom_site_fract_y
 _atom_site_fract_z
 _atom_site_occupancy
  Lu  Lu0  1  0.355913  0.250000  0.285426  1
  Lu  Lu1  1  0.644753  0.750000  0.717421  1
  Lu  Lu2  1  0.144768  0.750000  0.782452  1
  Lu  Lu3  1  0.855390  0.250000  0.217500  1
  Lu  Lu4  1  0.188006  0.250000  0.779964  1
  Lu  Lu5  1  0.813277  0.750000  0.218272  1
  Lu  Lu6  1  0.313379  0.750000  0.281640  1
  Lu  Lu7  1  0.683159  0.250000  0.716260  1
  Lu  Lu8  1  0.195763  0.067436  0.058984  1
  Lu  Lu9  1  0.804157  0.932735  0.941109  1
  Lu  Lu10  1  0.305215  0.936007  0.558744  1
  Lu  Lu11  1  0.804157  0.567265  0.941109  1
  Lu  Lu12  1  0.693366  0.069043  0.442124  1
  Lu  Lu13  1  0.195763  0.432564  0.058984  1
  Lu  Lu14  1  0.693366  0.430957  0.442124  1
  Lu  Lu15  1  0.305215  0.563993  0.558744  1
  Sc  Sc16  1  0.026938  0.250000  0.511933  1
  Sc  Sc17  1  0.977073  0.750000  0.488381  1
  Sc  Sc18  1  0.476670  0.750000  0.011690  1
  Sc  Sc19  1  0.523453  0.250000  0.988253  1
  Bi  Bi20  1  0.599508  0.750000  0.456722  1
  Bi  Bi21  1  0.099529  0.750000  0.043243  1
  Bi  Bi22  1  0.900881  0.250000  0.956381  1
  Bi  Bi23  1  0.065917  0.003677  0.328896  1
  Bi  Bi24  1  0.933703  0.996432  0.671151  1
  Bi  Bi25  1  0.433893  0.996239  0.828817  1
  Bi  Bi26  1  0.933703  0.503568  0.671151  1
  Bi  Bi27  1  0.566032  0.003844  0.171230  1
  Bi  Bi28  1  0.065917  0.496323  0.328896  1
  Bi  Bi29  1  0.566032  0.496156  0.171230  1
  Bi  Bi30  1  0.433893  0.503761  0.828817  1
  Sb  Sb31  1  0.401212  0.250000  0.542349  1
