# generated using pymatgen
data_Y8In2IrRu
_symmetry_space_group_name_H-M   'P 1'
_cell_length_a   9.69734526
_cell_length_b   9.71205716
_cell_length_c   9.69734432
_cell_angle_alpha   59.94979932
_cell_angle_beta   59.90451596
_cell_angle_gamma   59.94979633
_symmetry_Int_Tables_number   1
_chemical_formula_structural   Y8In2IrRu
_chemical_formula_sum   'Y16 In4 Ir2 Ru2'
_cell_volume   644.84901958
_cell_formula_units_Z   2
loop_
 _symmetry_equiv_pos_site_id
 _symmetry_equiv_pos_as_xyz
  1  'x, y, z'
loop_
 _atom_site_type_symbol
 _atom_site_label
 _atom_site_symmetry_multiplicity
 _atom_site_fract_x
 _atom_site_fract_y
 _atom_site_fract_z
 _atom_site_occupancy
  Y  Y0  1  0.808431  0.191569  0.808431  1
  Y  Y1  1  0.940549  0.558844  0.560220  1
  Y  Y2  1  0.559484  0.940516  0.559484  1
  Y  Y3  1  0.806413  0.192427  0.191117  1
  Y  Y4  1  0.191960  0.808040  0.191960  1
  Y  Y5  1  0.349516  0.953043  0.349516  1
  Y  Y6  1  0.940549  0.940388  0.560220  1
  Y  Y7  1  0.560220  0.940388  0.940549  1
  Y  Y8  1  0.191117  0.810044  0.806413  1
  Y  Y9  1  0.350175  0.348670  0.952486  1
  Y  Y10  1  0.560220  0.558844  0.940549  1
  Y  Y11  1  0.349516  0.347927  0.349516  1
  Y  Y12  1  0.191117  0.192427  0.806413  1
  Y  Y13  1  0.806413  0.810044  0.191117  1
  Y  Y14  1  0.940093  0.559907  0.940093  1
  Y  Y15  1  0.952486  0.348670  0.350175  1
  In  In16  1  0.583026  0.582874  0.583026  1
  In  In17  1  0.583026  0.251076  0.583026  1
  In  In18  1  0.583046  0.582918  0.251119  1
  In  In19  1  0.251119  0.582918  0.583046  1
  Ir  Ir20  1  0.140836  0.577780  0.140836  1
  Ir  Ir21  1  0.140836  0.140548  0.140836  1
  Ru  Ru22  1  0.140799  0.140071  0.579059  1
  Ru  Ru23  1  0.579059  0.140071  0.140799  1
