# generated using pymatgen
data_TbNdAl6Si4Pt
_symmetry_space_group_name_H-M   'P 1'
_cell_length_a   4.18559264
_cell_length_b   4.18545582
_cell_length_c   17.23952070
_cell_angle_alpha   96.76679944
_cell_angle_beta   83.23550256
_cell_angle_gamma   120.09256716
_symmetry_Int_Tables_number   1
_chemical_formula_structural   TbNdAl6Si4Pt
_chemical_formula_sum   'Tb1 Nd1 Al6 Si4 Pt1'
_cell_volume   258.87941070
_cell_formula_units_Z   1
loop_
 _symmetry_equiv_pos_site_id
 _symmetry_equiv_pos_as_xyz
  1  'x, y, z'
loop_
 _atom_site_type_symbol
 _atom_site_label
 _atom_site_symmetry_multiplicity
 _atom_site_fract_x
 _atom_site_fract_y
 _atom_site_fract_z
 _atom_site_occupancy
  Tb  Tb0  1  0.433625  0.566412  0.698836  1
  Nd  Nd1  1  0.565974  0.433951  0.302593  1
  Al  Al2  1  0.319298  0.680718  0.043638  1
  Al  Al3  1  0.949358  0.050615  0.146922  1
  Al  Al4  1  0.184454  0.815512  0.448973  1
  Al  Al5  1  0.812922  0.187097  0.559321  1
  Al  Al6  1  0.052043  0.948002  0.848190  1
  Al  Al7  1  0.682567  0.317461  0.951149  1
  Si  Si8  1  0.266556  0.733386  0.196792  1
  Si  Si9  1  0.863273  0.136690  0.411378  1
  Si  Si10  1  0.133923  0.866096  0.597238  1
  Si  Si11  1  0.735033  0.265016  0.797721  1
  Pt  Pt12  1  0.000971  0.999045  0.997249  1
